#------------------------------------------------------------------------------
#$Date: 2019-11-10 01:37:45 +0200 (Sun, 10 Nov 2019) $
#$Revision: 225564 $
#$URL: file:///home/coder/svn-repositories/cod/cif/4/51/54/4515410.cif $
#------------------------------------------------------------------------------
#
# This file is available in the Crystallography Open Database (COD),
# http://www.crystallography.net/
#
# All data on this site have been placed in the public domain by the
# contributors.
#
data_4515410
loop_
_publ_author_name
'Chakraborty, Gouri'
'Das, Prasenjit'
'Mandal, Sanjay K.'
_publ_section_title
;
 Strategic Construction of Highly Stable Metal-Organic Frameworks
 Combining Both Semi-Rigid Tetrapodal and Rigid Ditopic Linkers: Selective
 and Ultrafast Sensing of 4-Nitroaniline in Water.
;
_journal_issue                   49
_journal_name_full               'ACS applied materials &amp; interfaces'
_journal_page_first              42406
_journal_page_last               42416
_journal_paper_doi               10.1021/acsami.8b15894
_journal_volume                  10
_journal_year                    2018
_chemical_formula_moiety         'C73 H48 N4 O20 Zn4'
_chemical_formula_sum            'C73 H48 N4 O20 Zn4'
_chemical_formula_weight         1562.63
_space_group_crystal_system      tetragonal
_space_group_IT_number           86
_space_group_name_Hall           '-P 4bc'
_space_group_name_H-M_alt        'P 42/n :2'
_atom_sites_solution_hydrogens   geom
_cell_angle_alpha                90
_cell_angle_beta                 90
_cell_angle_gamma                90
_cell_formula_units_Z            2
_cell_length_a                   19.4614(7)
_cell_length_b                   19.4614(7)
_cell_length_c                   9.5493(4)
_cell_measurement_reflns_used    24745
_cell_measurement_temperature    100.(2)
_cell_measurement_theta_max      25.12
_cell_measurement_theta_min      1.48
_cell_volume                     3616.8(2)
_computing_cell_refinement       'SAINT V8.34A (Bruker AXS Inc., 2013)'
_computing_data_collection       'APEX2 (Bruker)'
_computing_data_reduction        'SAINT V8.34A (Bruker AXS Inc., 2013)'
_computing_molecular_graphics    'SHELXTL (Bruker AXS)'
_computing_publication_material  'SHELXTL (Bruker AXS)'
_computing_structure_refinement  'SHELXL-2014/6 (Sheldrick, 2014)'
_diffrn_ambient_temperature      100.(2)
_diffrn_measured_fraction_theta_full 0.994
_diffrn_measured_fraction_theta_max 0.994
_diffrn_measurement_device_type  'Bruker Kappa APEX II'
_diffrn_measurement_method       'phi and omega scan'
_diffrn_radiation_monochromator  Graphite
_diffrn_radiation_type           'Mo K\a'
_diffrn_radiation_wavelength     0.71073
_diffrn_reflns_av_R_equivalents  0.0447
_diffrn_reflns_av_unetI/netI     0.0283
_diffrn_reflns_limit_h_max       23
_diffrn_reflns_limit_h_min       -23
_diffrn_reflns_limit_k_max       21
_diffrn_reflns_limit_k_min       -23
_diffrn_reflns_limit_l_max       11
_diffrn_reflns_limit_l_min       -11
_diffrn_reflns_number            24745
_diffrn_reflns_theta_full        25.12
_diffrn_reflns_theta_max         25.12
_diffrn_reflns_theta_min         1.48
_diffrn_source                   'Sealed tube'
_diffrn_source_type              'Fine Focus'
_exptl_absorpt_coefficient_mu    1.385
_exptl_absorpt_correction_T_max  0.7452
_exptl_absorpt_correction_T_min  0.6742
_exptl_absorpt_correction_type   multi-scan
_exptl_absorpt_process_details   'SADABS V2014/4 (Bruker AXS Inc.)'
_exptl_crystal_colour            yellow
_exptl_crystal_density_diffrn    1.435
_exptl_crystal_density_method    'not measured'
_exptl_crystal_description       needle
_exptl_crystal_F_000             1588
_exptl_crystal_size_max          0.3
_exptl_crystal_size_mid          0.27
_exptl_crystal_size_min          0.25
_refine_diff_density_max         0.965
_refine_diff_density_min         -0.399
_refine_ls_extinction_method     none
_refine_ls_goodness_of_fit_ref   1.079
_refine_ls_hydrogen_treatment    constr
_refine_ls_matrix_type           full
_refine_ls_number_parameters     228
_refine_ls_number_reflns         3214
_refine_ls_number_restraints     0
_refine_ls_restrained_S_all      1.079
_refine_ls_R_factor_all          0.0772
_refine_ls_R_factor_gt           0.0616
_refine_ls_shift/su_max          0.000
_refine_ls_shift/su_mean         0.000
_refine_ls_structure_factor_coef Fsqd
_refine_ls_weighting_details
'w=1/[\s^2^(Fo^2^)+(0.0905P)^2^+12.2753P] where P=(Fo^2^+2Fc^2^)/3'
_refine_ls_weighting_scheme      calc
_refine_ls_wR_factor_gt          0.1631
_refine_ls_wR_factor_ref         0.1802
_reflns_number_gt                2612
_reflns_number_total             3214
_reflns_threshold_expression     'I > 2\s(I)'
_cod_data_source_file            am8b15894_si_002.cif
_cod_data_source_block           1
_cod_original_cell_volume        3616.8(3)
_cod_original_sg_symbol_H-M      'P 42/n'
_cod_database_code               4515410
_shelx_res_file
;
TITL GC_369_U_0m in P4(2)/n
CELL 0.71073 19.4614 19.4614 9.5493 90.000 90.000 90.000
ZERR 2.00 0.0007 0.0007 0.0004 0.000 0.000 0.000
LATT 1
SYMM -y, x+1/2, z+1/2
SYMM y+1/2, -x, z+1/2
SYMM -x+1/2, -y+1/2, z
SFAC C  H  N  O  Zn
UNIT 146  96  8  40  8
L.S. 10
ACTA
BOND $H
FMAP 2
PLAN 20
CONF
TEMP -173.000
WGHT    0.090500   12.275300
FVAR       0.08038
ZN1   5    0.468353    0.463818    0.120044    11.00000    0.02730    0.02937 =
         0.02810    0.00240    0.00499   -0.00100
O1    4    0.284054    0.320417    0.556973    11.00000    0.02582    0.03563 =
         0.02356    0.00410    0.00071    0.00145
O2    4    0.462384    0.560966    0.191540    11.00000    0.15151    0.02565 =
         0.06005   -0.00079    0.05497    0.00308
O3    4    0.491809    0.387519   -0.014401    11.00000    0.12277    0.04174 =
         0.05816   -0.01912    0.04724   -0.02397
O4    4    0.389721    0.489023   -0.008705    11.00000    0.03018    0.15104 =
         0.06490    0.06633   -0.00702   -0.01049
O5    4    0.565769    0.458580    0.190468    11.00000    0.02765    0.09920 =
         0.04684    0.03112   -0.00104   -0.01007
N1    3    0.410661    0.412873    0.264677    11.00000    0.02617    0.03147 =
         0.02767    0.00242    0.00471   -0.00015
C1    1    0.438033    0.375041    0.367689    11.00000    0.02629    0.04097 =
         0.03692    0.00087    0.00118    0.00013
AFIX  43
H1    2    0.486657    0.371265    0.371900    11.00000   -1.20000
AFIX   0
C2    1    0.399953    0.341289    0.467862    11.00000    0.02938    0.03652 =
         0.02753    0.00586   -0.00401    0.00028
AFIX  43
H2    2    0.421615    0.314428    0.538227    11.00000   -1.20000
AFIX   0
C3    1    0.328763    0.347710    0.462926    11.00000    0.02691    0.02558 =
         0.02276   -0.00326    0.00447   -0.00233
C4    1    0.310729    0.273568    0.659437    11.00000    0.03024    0.03298 =
         0.02322    0.00213   -0.00066   -0.00067
AFIX  23
H4B   2    0.345731    0.296661    0.718127    11.00000   -1.20000
H4A   2    0.332392    0.233623    0.612837    11.00000   -1.20000
AFIX   0
C5    1    0.250000    0.250000    0.750000    10.25000    0.03131    0.03131 =
         0.02680    0.00000    0.00000    0.00000
C6    1    0.299518    0.385889    0.354374    11.00000    0.02151    0.03691 =
         0.02769    0.00040   -0.00212    0.00123
AFIX  43
H6    2    0.251014    0.389904    0.346718    11.00000   -1.20000
AFIX   0
C7    1    0.341433    0.417363    0.259417    11.00000    0.02999    0.03116 =
         0.02707    0.00501    0.00111    0.00035
AFIX  43
H7    2    0.321048    0.443560    0.186474    11.00000   -1.20000
AFIX   0
C8    1    0.481152    0.612617    0.131766    11.00000    0.03183    0.03252 =
         0.02954   -0.00023   -0.00035    0.00183
C9    1    0.474483    0.682116    0.199629    11.00000    0.02385    0.03420 =
         0.02880    0.00230   -0.00169    0.00079
C10   1    0.508014    0.734918    0.138741    11.00000    0.05528    0.04055 =
         0.03995   -0.00354    0.02055   -0.00111
AFIX  43
H10   2    0.533008    0.726483    0.055034    11.00000   -1.20000
AFIX   0
C11   1    0.507548    0.801568    0.193617    11.00000    0.05406    0.03239 =
         0.04810    0.00130    0.02612   -0.00509
AFIX  43
H11   2    0.530322    0.837581    0.145079    11.00000   -1.20000
AFIX   0
C12   1    0.474747    0.814927    0.315678    11.00000    0.02668    0.03172 =
         0.02913    0.00225   -0.00255    0.00356
C13   1    0.614308    0.480896    0.123328    11.00000    0.03035    0.02950 =
         0.02874   -0.00173    0.00025    0.00290
C14   1    0.438995    0.761129    0.384813    11.00000    0.05192    0.03642 =
         0.04044   -0.00507    0.01366   -0.00799
C15   1    0.437648    0.693712    0.326732    11.00000    0.04212    0.03548 =
         0.04479   -0.00550    0.01165   -0.00266
C16   1    0.401096    0.641371    0.401180    11.00000    0.09277    0.04059 =
         0.07779   -0.00487    0.04260   -0.01409
AFIX  43
H16   2    0.398447    0.596258    0.363564    11.00000   -1.20000
AFIX   0
C17   1    0.369521    0.656102    0.527893    11.00000    0.15493    0.05410 =
         0.11195   -0.00347    0.09575   -0.01397
AFIX  43
H17   2    0.344614    0.621070    0.575045    11.00000   -1.20000
AFIX   0
C18   1    0.373722    0.721861    0.587686    11.00000    0.15176    0.06099 =
         0.08386   -0.00662    0.07106   -0.01360
AFIX  43
H18   2    0.353883    0.730278    0.676950    11.00000   -1.20000
AFIX   0
C19   1    0.406243    0.773773    0.517920    11.00000    0.10410    0.04890 =
         0.05748   -0.00503    0.03856   -0.00677
AFIX  43
H19   2    0.407313    0.818579    0.557341    11.00000   -1.20000
AFIX   0
HKLF 4 1 1 0 0 0 1 0 0 0 1

REM  GC_369_U_0m in P4(2)/n
REM R1 =  0.0616 for    2612 Fo > 4sig(Fo)  and  0.0772 for all    3214 data
REM    228 parameters refined using      0 restraints

END

WGHT      0.0825     12.9349

REM Highest difference peak  0.965,  deepest hole -0.399,  1-sigma level  0.112
Q1    1   0.5239  0.2858  0.2206  11.00000  0.05    0.97
Q2    1   0.3165  0.7443  0.4856  11.00000  0.05    0.83
Q3    1   0.3627  0.7944  0.4353  11.00000  0.05    0.81
Q4    1   0.3604  0.6634  0.3240  11.00000  0.05    0.78
Q5    1   0.3115  0.6815  0.4099  11.00000  0.05    0.76
Q6    1   0.3537  0.7287  0.8414  11.00000  0.05    0.60
Q7    1   0.4258  0.7619  0.8083  11.00000  0.05    0.59
Q8    1   0.3878  0.4683 -0.0462  11.00000  0.05    0.49
Q9    1   0.4456  0.5727  0.1233  11.00000  0.05    0.46
Q10   1   0.4095  0.7117  0.2803  11.00000  0.05    0.45
Q11   1   0.3996  0.7681  0.3414  11.00000  0.05    0.39
Q12   1   0.4575  0.5065  0.1494  11.00000  0.05    0.37
Q13   1   0.2989  0.7475  0.5992  11.00000  0.05    0.36
Q14   1   0.4623  0.6812  0.2571  11.00000  0.05    0.35
Q15   1   0.2763  0.7417  0.5775  11.00000  0.05    0.35
Q16   1   0.4927  0.5630  0.1878  11.00000  0.05    0.32
Q17   1   0.2500  0.7500  0.6370  10.50000  0.05    0.31
Q18   1   0.3802  0.5095  0.0167  11.00000  0.05    0.31
Q19   1   0.4356  0.7621  0.4182  11.00000  0.05    0.30
Q20   1   0.4689  0.5484  0.2319  11.00000  0.05    0.30
;
_shelx_res_checksum              18548
_shelx_hkl_file
;
   1  -1   0   -0.30    0.03
   2   1   0    0.04    0.06
   1  -2   0   -0.03    0.06
   1  -2   0    0.00    0.07
   2   1   0   -0.15    0.05
   0  -2   0  467.57   14.27
  -1  -2   0    0.04    0.06
   2  -1   0   -0.01    0.05
   2  -1   0   -0.01    0.06
   2   2   0  197.61    6.17
   2  -2   0  202.04    6.18
   2  -2   0  201.63    6.19
  -2  -2   0  202.44    6.18
  -3  -2   0   -0.05    0.09
   3   2   0   -0.09    0.08
   2  -3   0    0.03    0.10
   3   2   0   -0.14    0.09
   2  -3   0    0.15    0.12
   3   1   0   31.50    1.00
   3   1   0   31.30    1.01
   1  -3   0   29.36    1.01
  -3  -1   0   31.64    0.99
   1  -3   0   29.14    1.00
   1  -3   0   28.87    0.98
  -3   0   0    0.03    0.07
   3   0   0    0.08    0.08
   0  -3   0   -0.01    0.10
   0  -3   0    0.02    0.09
   0  -3   0   -0.09    0.07
   3   0   0    0.12    0.09
   3  -1   0    5.13    0.26
   3  -1   0    5.30    0.27
  -1  -3   0    5.95    0.27
  -2  -3   0    0.01    0.11
   3  -2   0    0.02    0.10
  -2  -3   0    0.11    0.09
   3  -2   0   -0.20    0.10
  -3  -3   0  224.88    7.02
   3   3   0  221.55    7.00
   3  -3   0  227.46    7.01
   3  -3   0  226.68    7.02
  -3  -3   0  235.49    6.99
   4   3   0    0.15    0.12
  -4  -3   0   -0.05    0.12
   3  -4   0   -0.05    0.13
   3  -4   0    0.09    0.15
  -4  -2   0  106.44    3.29
   4   2   0  108.81    3.31
   2  -4   0  101.89    3.30
   2  -4   0  102.82    3.32
   4   1   0    0.02    0.12
  -4  -1   0    0.00    0.10
   4   1   0   -0.11    0.10
   1  -4   0    0.21    0.11
   1  -4   0    0.10    0.14
   1  -4   0   -0.10    0.12
   0  -4   0  109.56    3.43
   4   0   0  108.98    3.42
   0  -4   0  112.76    3.42
   0  -4   0  108.70    3.39
  -4   0   0  105.72    3.41
   4   0   0  109.72    3.42
  -1  -4   0   -0.06    0.10
   4  -1   0   -0.11    0.12
  -1  -4   0   -0.06    0.13
   4  -1   0   -0.16    0.11
   4  -2   0    0.78    0.17
  -2  -4   0    1.57    0.16
  -2  -4   0    1.35    0.18
   4  -2   0    1.23    0.16
  -3  -4   0   -0.05    0.14
  -3  -4   0    0.03    0.12
   4  -3   0    0.05    0.14
   4  -3   0   -0.15    0.13
  -4  -4   0    2.39    0.24
  -4  -4   0    2.92    0.23
   4   4   0    3.07    0.25
   4  -4   0    1.38    0.22
   4  -4   0    2.12    0.23
  -5  -4   0   -0.11    0.16
  -5  -4   0   -0.11    0.13
   4  -5   0    0.05    0.17
   5   4   0    0.15    0.14
   4  -5   0    0.03    0.16
  -5  -3   0    3.69    0.27
   3  -5   0    4.27    0.30
   5   3   0    3.47    0.27
   5   3   0    3.75    0.29
   3  -5   0    3.75    0.31
   5   2   0   -0.11    0.13
  -5  -2   0    0.14    0.12
   2  -5   0   -0.06    0.12
   5   2   0   -0.01    0.12
   2  -5   0   -0.18    0.15
   2  -5   0   -0.14    0.16
   1  -5   0   22.62    0.84
   5   1   0   22.80    0.83
   1  -5   0   21.82    0.85
  -5  -1   0   23.92    0.82
   1  -5   0   22.66    0.80
   5   1   0   23.89    0.84
   5   0   0   -0.07    0.13
  -5   0   0   -0.10    0.10
   5   0   0   -0.06    0.12
   0  -5   0   -0.10    0.11
   0  -5   0    0.25    0.16
   0  -5   0    0.06    0.16
   5  -1   0    0.02    0.13
   5  -1   0   -0.13    0.14
  -1  -5   0   -0.03    0.12
  -1  -5   0   -0.07    0.15
   5  -2   0   -0.04    0.15
   5  -2   0   -0.14    0.13
  -2  -5   0   -0.04    0.15
  -2  -5   0    0.13    0.13
   5  -3   0   28.75    1.05
   5  -3   0   28.95    1.04
  -3  -5   0   30.13    1.07
  -3  -5   0   29.64    1.01
  -4  -5   0   -0.21    0.15
  -4  -5   0   -0.17    0.13
   5  -4   0    0.14    0.16
   5  -4   0    0.07    0.16
   5  -5   0   12.23    0.59
   5   5   0   13.44    0.58
  -5  -5   0   13.67    0.62
  -5  -5   0   13.38    0.57
   5  -5   0   12.90    0.61
  -6  -5   0    0.11    0.19
   6   5   0    0.13    0.15
   5  -6   0   -0.06    0.20
  -6  -5   0   -0.07    0.16
   5  -6   0   -0.12    0.19
   6   4   0    1.30    0.21
   4  -6   0    1.51    0.24
   4  -6   0    1.52    0.25
  -6  -4   0    1.35    0.21
   3  -6   0   -0.06    0.17
   3  -6   0   -0.08    0.18
   6   3   0   -0.05    0.14
   6   3   0   -0.05    0.14
  -6  -3   0   -0.13    0.14
   2  -6   0   31.94    1.13
   6   2   0   28.66    1.08
   2  -6   0   31.38    1.11
   2  -6   0   30.09    1.06
  -6  -2   0   29.82    1.07
   6   2   0   31.13    1.09
   1  -6   0   -0.03    0.17
   6   1   0    0.01    0.15
  -6  -1   0   -0.14    0.12
   1  -6   0    0.06    0.18
   6   1   0   -0.05    0.14
   1  -6   0   -0.34    0.12
   6   0   0   29.94    1.08
   0  -6   0   31.08    1.08
  -6   0   0   30.83    1.06
   0  -6   0   30.53    1.04
   6   0   0   28.83    1.07
   0  -6   0   29.89    1.10
  -1  -6   0   -0.29    0.12
   6  -1   0   -0.07    0.15
   6  -1   0   -0.05    0.13
  -1  -6   0   -0.06    0.17
  -2  -6   0   11.33    0.55
   6  -2   0   11.69    0.54
  -2  -6   0   12.77    0.50
   6  -2   0   11.05    0.53
  -3  -6   0    0.02    0.15
  -3  -6   0    0.17    0.18
   6  -3   0    0.24    0.17
   6  -3   0    0.16    0.15
  -4  -6   0    6.72    0.42
  -4  -6   0    6.91    0.38
   6  -4   0    6.33    0.42
   6  -4   0    5.83    0.40
  -5  -6   0    0.13    0.16
   6  -5   0    0.05    0.18
   5   6   0    0.01    0.15
  -5  -6   0   -0.25    0.18
   6  -5   0   -0.10    0.18
   6  -6   0    1.75    0.29
  -6  -6   0    3.02    0.34
  -6  -6   0    2.89    0.29
   6  -6   0    2.06    0.30
   6   6   0    2.80    0.30
   7   6   0   -0.06    0.17
   6  -7   0    0.18    0.22
   6  -7   0    0.02    0.23
  -7  -6   0    0.03    0.19
  -7  -6   0    0.03    0.23
   5  -7   0   44.51    1.53
  -7  -5   0   42.12    1.48
   7   5   0   41.16    1.51
  -7  -5   0   42.58    1.54
   5  -7   0   43.03    1.55
   7   4   0   -0.10    0.15
   4  -7   0    0.09    0.21
   4  -7   0    0.05    0.20
  -7  -4   0   -0.04    0.16
   7   4   0    0.03    0.15
  -7  -3   0    0.23    0.17
   3  -7   0    0.35    0.21
   7   3   0    0.18    0.17
   3  -7   0    0.29    0.22
   7   3   0    0.41    0.17
   2  -7   0    0.01    0.20
   7   2   0   -0.15    0.14
  -7  -2   0   -0.22    0.14
   7   2   0   -0.10    0.14
   2  -7   0   -0.23    0.14
   2  -7   0   -0.25    0.18
   1  -7   0   21.19    0.86
  -7  -1   0   22.20    0.83
   1  -7   0   21.72    0.81
   7   1   0   22.47    0.85
   1  -7   0   22.12    0.89
   7   1   0   21.91    0.86
   7   0   0    0.10    0.16
   7   0   0    0.01    0.15
   0  -7   0   -0.14    0.14
  -7   0   0    0.00    0.14
   0  -7   0   -0.35    0.18
   0  -7   0   -0.16    0.18
   7   0   0   -0.13    0.10
   7  -1   0    0.07    0.18
  -1  -7   0    0.15    0.14
   7  -1   0   -0.03    0.16
  -1  -7   0   -0.06    0.19
  -2  -7   0   -0.16    0.14
   7  -2   0   -0.25    0.15
   7  -2   0   -0.18    0.17
  -2  -7   0   -0.06    0.19
  -3  -7   0   66.22    2.08
   7  -3   0   63.41    2.13
  -3  -7   0   61.33    2.14
   7  -3   0   62.79    2.13
  -4  -7   0    0.27    0.21
  -4  -7   0   -0.17    0.16
   7  -4   0   -0.03    0.18
   7  -4   0    0.12    0.19
  -5  -7   0  107.00    3.35
  -5  -7   0  100.68    3.42
   7  -5   0  105.54    3.41
   7  -5   0  105.10    3.42
  -6  -7   0    0.20    0.19
  -6  -7   0   -0.08    0.22
   6   7   0    0.02    0.17
   7  -6   0    0.26    0.23
   7  -6   0   -0.20    0.21
  -7  -7   0   38.69    1.38
   7  -7   0   38.64    1.46
   7   7   0   39.14    1.42
   7  -7   0   37.84    1.44
  -7  -7   0   37.90    1.46
   7  -8   0   -0.07    0.26
  -8  -7   0   -0.02    0.25
  -8  -7   0   -0.10    0.22
   8   7   0    0.10    0.20
   7  -8   0   -0.31    0.24
   6  -8   0    2.70    0.36
  -8  -6   0    2.62    0.37
   6  -8   0    2.39    0.37
  -8  -6   0    2.54    0.32
   8   6   0    2.69    0.34
   5  -8   0   -0.13    0.23
   5  -8   0    0.15    0.24
  -8  -5   0    0.14    0.20
   8   5   0   -0.16    0.18
   4  -8   0   50.83    1.83
   8   4   0   51.45    1.83
   8   4   0   53.61    1.82
  -8  -4   0   54.82    1.81
   4  -8   0   52.27    1.86
   3  -8   0   -0.17    0.21
   8   3   0   -0.02    0.17
   3  -8   0   -0.06    0.21
  -8  -3   0   -0.08    0.18
   8   3   0   -0.24    0.16
   2  -8   0    9.58    0.53
   8   2   0    8.57    0.49
   2  -8   0    9.36    0.53
   2  -8   0    8.55    0.45
   8   2   0    7.71    0.46
  -8  -2   0    8.78    0.48
   8   1   0   -0.13    0.17
   1  -8   0   -0.22    0.20
   8   1   0   -0.15    0.15
  -8  -1   0   -0.16    0.15
   1  -8   0    0.13    0.15
   1  -8   0    0.04    0.20
   0  -8   0    3.20    0.27
  -8   0   0    2.11    0.26
   0  -8   0    2.56    0.32
   0  -8   0    2.91    0.31
   8   0   0    2.06    0.28
   8   0   0    2.43    0.28
   8  -1   0   -0.14    0.17
  -8   1   0   -0.11    0.15
   8  -1   0   -0.23    0.16
  -1  -8   0    0.02    0.21
  -1  -8   0   -0.07    0.15
   8  -2   0    3.33    0.33
  -2  -8   0    2.86    0.27
   8  -2   0    2.78    0.31
  -2  -8   0    2.14    0.31
  -3  -8   0    0.05    0.16
  -3  -8   0   -0.03    0.21
   8  -3   0   -0.22    0.19
   8  -3   0    0.02    0.18
  -4  -8   0    1.69    0.24
   8  -4   0    1.56    0.28
  -4  -8   0    1.34    0.28
   8  -4   0    1.24    0.26
  -5  -8   0    0.02    0.24
   8  -5   0    0.02    0.22
  -5  -8   0    0.15    0.19
   8  -5   0    0.02    0.22
   8  -6   0    1.51    0.30
   8  -6   0    1.46    0.29
  -6  -8   0    1.30    0.26
  -6  -8   0    0.52    0.28
   6   8   0    1.06    0.25
   7   8   0    0.04    0.21
   8  -7   0   -0.04    0.24
  -7  -8   0    0.29    0.23
  -7  -8   0    0.02    0.26
   8  -7   0   -0.13    0.24
   8  -8   0    6.96    0.55
   8  -8   0    6.29    0.52
  -8  -8   0    6.12    0.48
  -8  -8   0    6.73    0.57
   8   8   0    6.21    0.47
   8  -9   0    0.65    0.32
   9   8   0    0.08    0.23
  -9  -8   0    0.63    0.33
   8  -9   0    0.62    0.32
  -9  -8   0   -0.06    0.25
   9   7   0  130.73    4.34
  -9  -7   0  130.72    4.30
  -9  -7   0  131.66    4.38
   7  -9   0  141.19    4.41
   7  -9   0  132.90    4.36
  -9  -6   0    0.63    0.29
   9   6   0    0.22    0.22
   6  -9   0    0.47    0.28
   6  -9   0    0.13    0.27
  -9  -6   0    0.34    0.23
  -9  -5   0  211.40    6.72
   5  -9   0  215.54    6.76
   9   5   0  209.62    6.75
   5  -9   0  217.66    6.80
   9   4   0    0.06    0.19
  -9  -4   0    0.20    0.21
   4  -9   0   -0.05    0.26
   4  -9   0    0.51    0.27
   9   4   0    0.24    0.21
  -9  -3   0   17.85    0.79
   3  -9   0   21.86    0.90
   3  -9   0   19.15    0.83
   9   3   0   17.25    0.81
   9   3   0   17.00    0.78
  -9  -2   0    0.10    0.18
   9   2   0   -0.15    0.19
   2  -9   0    0.13    0.23
   2  -9   0   -0.20    0.23
   2  -9   0   -0.11    0.17
   9   2   0    0.06    0.18
   1  -9   0   20.00    0.88
   1  -9   0   19.73    0.91
   9   1   0   22.09    0.88
   1  -9   0   19.80    0.81
   9   1   0   21.37    0.86
  -9  -1   0   21.03    0.85
   9   0   0   -0.01    0.18
   9   0   0    0.05    0.19
   0  -9   0   -0.01    0.17
   0  -9   0    0.00    0.25
  -9   0   0    0.20    0.18
  -1  -9   0    0.07    0.25
  -1  -9   0    0.22    0.18
   9  -1   0    0.10    0.19
   9  -1   0    0.43    0.13
   9  -1   0   -0.03    0.19
  -9   1   0    0.25    0.19
   9  -2   0    0.10    0.20
  -2  -9   0    0.38    0.25
  -2  -9   0   -0.19    0.16
   9  -2   0   -0.15    0.19
  -3  -9   0   18.77    0.87
   9  -3   0   18.95    0.83
  -3  -9   0   18.38    0.75
   9  -3   0   18.77    0.84
  -4  -9   0   -0.21    0.23
   9  -4   0   -0.17    0.22
  -4  -9   0   -0.13    0.19
   9  -4   0   -0.09    0.22
  -5  -9   0  181.58    5.60
   9  -5   0  177.70    5.68
  -5  -9   0  175.52    5.70
   9  -5   0  175.96    5.68
  -6  -9   0    0.28    0.23
   9  -6   0    0.39    0.26
  -6  -9   0    0.43    0.29
   9  -6   0    0.09    0.27
  -7  -9   0  158.65    5.20
  -7  -9   0  160.54    5.09
   9  -7   0  161.42    5.19
   9  -7   0  163.16    5.19
   7   9   0  157.42    5.14
   9  -8   0    0.20    0.29
   8   9   0    0.15    0.24
  -8  -9   0    0.13    0.26
  -8  -9   0    0.06    0.31
   9  -8   0    0.22    0.31
  -9  -9   0  141.89    4.58
   9   9   0  142.98    4.63
   9  -9   0  141.76    4.68
  -9  -9   0  142.08    4.69
   9  -9   0  141.58    4.67
  10   9   0    0.31    0.29
   9 -10   0    0.26    0.36
   9 -10   0   -0.05    0.34
 -10  -9   0    0.38    0.38
 -10  -9   0    0.37    0.29
   8 -10   0   11.07    0.74
 -10  -8   0    9.73    0.74
  10   8   0   11.91    0.69
 -10  -8   0    9.86    0.63
   8 -10   0   12.03    0.78
 -10  -7   0    0.07    0.25
  10   7   0    0.06    0.24
 -10  -7   0   -0.05    0.29
   7 -10   0   -0.08    0.31
   7 -10   0   -0.26    0.29
   6 -10   0    0.62    0.31
   6 -10   0    0.33    0.31
  10   6   0    0.87    0.27
 -10  -6   0    0.43    0.25
   5 -10   0   -0.03    0.27
  10   5   0    0.02    0.21
 -10  -5   0    0.01    0.22
   5 -10   0    0.08    0.28
  10   4   0    4.48    0.43
 -10  -4   0    4.33    0.41
   4 -10   0    4.02    0.47
  10   4   0    4.28    0.40
   4 -10   0    3.93    0.42
   3 -10   0    0.17    0.27
   3 -10   0    0.08    0.25
  10   3   0    0.05    0.20
 -10  -3   0    0.07    0.21
  10   3   0    0.11    0.21
   2 -10   0   20.14    0.97
  10   2   0   22.39    0.94
 -10  -2   0   21.86    0.91
   2 -10   0   19.82    0.94
   2 -10   0   21.64    0.86
  10   2   0   22.87    0.91
   1 -10   0   -0.27    0.25
   1 -10   0   -0.14    0.24
  10   1   0   -0.09    0.18
 -10  -1   0   -0.15    0.19
   1 -10   0   -0.29    0.16
  10   1   0    0.14    0.21
  10   0   0    1.75    0.30
   0 -10   0    2.01    0.26
 -10   0   0    1.70    0.28
   0 -10   0    1.83    0.35
  10   0   0    2.05    0.31
  -1 -10   0   -0.08    0.18
  10  -1   0    0.01    0.21
  -1 -10   0    0.11    0.27
  10  -1   0   -0.14    0.19
 -10   1   0   -0.03    0.19
  -2 -10   0   42.80    1.51
  -2 -10   0   42.19    1.62
 -10   2   0   44.46    1.58
  10  -2   0   43.86    1.59
  10  -2   0   43.76    1.60
  -3 -10   0   -0.07    0.20
  -3 -10   0    0.29    0.29
  10  -3   0   -0.07    0.23
  10  -3   0    0.16    0.23
  10  -4   0   12.64    0.67
  -4 -10   0   10.05    0.55
  -4 -10   0   11.17    0.70
  10  -4   0   11.16    0.67
  10  -5   0    0.14    0.25
  10  -5   0    0.25    0.26
  -5 -10   0    0.04    0.21
  -5 -10   0    0.10    0.29
  -6 -10   0    0.41    0.33
  10  -6   0    0.28    0.28
  10  -6   0    0.28    0.26
  -6 -10   0    0.13    0.23
  10  -7   0    0.10    0.28
   7  10   0    0.10    0.21
  -7 -10   0    0.27    0.25
  10  -7   0   -0.10    0.29
  -7 -10   0    0.17    0.32
   8  10   0   22.50    1.02
  10  -8   0   24.39    1.10
  10  -8   0   22.23    1.08
  -8 -10   0   24.69    1.13
  -8 -10   0   22.10    0.98
  -9 -10   0   -0.29    0.27
   9  10   0    0.24    0.27
  10  -9   0    0.13    0.31
  10  -9   0   -0.07    0.34
  -9 -10   0    0.28    0.35
  10 -10   0   24.00    1.20
 -10 -10   0   25.30    1.24
  10 -10   0   27.21    1.23
  10  10   0   25.33    1.14
 -10 -10   0   25.04    1.10
 -11 -10   0    0.10    0.31
 -11 -10   0   -0.16    0.41
  10 -11   0   -0.09    0.37
  10 -11   0    0.10    0.39
  11  10   0    0.14    0.30
   9 -11   0   31.00    1.35
   9 -11   0   28.69    1.32
  11   9   0   29.17    1.26
 -11  -9   0   29.32    1.35
 -11  -9   0   27.14    1.22
   8 -11   0    0.45    0.36
 -11  -8   0    0.24    0.30
   8 -11   0   -0.23    0.35
  11   8   0    0.00    0.27
 -11  -8   0   -0.42    0.33
  11   7   0   22.50    1.04
 -11  -7   0   23.58    1.03
   7 -11   0   22.93    1.09
 -11  -7   0   20.88    1.09
   7 -11   0   23.79    1.13
 -11  -6   0    0.27    0.27
   6 -11   0   -0.02    0.32
   6 -11   0    0.29    0.32
  11   6   0    0.13    0.26
 -11  -5   0   91.13    3.00
  11   5   0   90.08    3.03
  11   5   0   86.75    2.99
   5 -11   0   89.29    3.04
   5 -11   0   87.97    3.07
   4 -11   0    0.03    0.29
  11   4   0   -0.32    0.21
 -11  -4   0   -0.12    0.24
  11   4   0    0.23    0.23
   4 -11   0    0.54    0.33
 -11  -3   0    0.62    0.25
   3 -11   0    0.51    0.31
   3 -11   0    1.05    0.32
  11   3   0    0.49    0.24
  11   3   0    0.37    0.25
  11   2   0    0.01    0.21
  11   2   0   -0.16    0.19
   2 -11   0   -0.65    0.26
   2 -11   0    0.15    0.20
 -11  -2   0   -0.14    0.20
   2 -11   0    0.25    0.30
 -11  -1   0    3.45    0.38
  11   1   0    3.81    0.39
   1 -11   0    2.62    0.38
   1 -11   0    2.88    0.42
  11   1   0    3.85    0.40
   1 -11   0    3.13    0.32
  11   0   0   -0.07    0.22
   0 -11   0   -0.04    0.19
   0 -11   0   -0.29    0.28
  11   0   0   -0.07    0.21
 -11   0   0    0.06    0.22
 -11   1   0   21.01    0.89
  -1 -11   0   18.69    0.82
  11  -1   0   21.18    0.92
  11  -1   0   20.55    0.93
  -1 -11   0   19.19    0.94
  11  -2   0   -0.05    0.23
  11  -2   0    0.02    0.23
  -2 -11   0   -0.04    0.30
 -11   2   0   -0.11    0.20
  -2 -11   0   -0.13    0.20
  -3 -11   0   27.50    1.04
  -3 -11   0   27.06    1.18
  11  -3   0   27.24    1.14
  11  -3   0   27.10    1.15
  -4 -11   0   -0.02    0.22
  11  -4   0    0.07    0.25
  -4 -11   0    0.56    0.34
  11  -4   0    0.29    0.26
  -5 -11   0   94.82    3.11
  11  -5   0   96.07    3.22
  -5 -11   0   95.07    3.26
  11  -5   0   94.83    3.23
  -6 -11   0    0.57    0.35
  11  -6   0   -0.14    0.29
  -6 -11   0    0.05    0.26
  11  -6   0    0.43    0.30
  11  -7   0  136.98    4.59
   7  11   0  137.30    4.55
  11  -7   0  138.19    4.60
  -7 -11   0  142.51    4.64
  -7 -11   0  141.54    4.49
  11  -8   0    0.29    0.33
  -8 -11   0    0.45    0.39
   8  11   0    0.33    0.26
  -8 -11   0    0.38    0.29
  11  -8   0    0.35    0.34
   9  11   0   53.86    1.98
  -9 -11   0   54.52    1.92
  11  -9   0   52.53    2.03
  -9 -11   0   52.81    2.06
  11  -9   0   51.17    2.02
  10  11   0   -0.12    0.27
  11 -10   0    0.48    0.38
 -10 -11   0   -0.08    0.41
  11 -10   0   -0.35    0.36
 -10 -11   0   -0.09    0.30
  11 -11   0   18.71    1.09
  11 -11   0   18.86    1.07
 -11 -11   0   18.45    1.10
  11  11   0   19.17    1.02
 -11 -11   0   18.30    0.98
  11 -12   0   -0.09    0.41
  11 -12   0   -0.03    0.43
  12  11   0   -0.37    0.32
 -12 -11   0    0.50    0.50
 -12 -10   0   12.49    0.80
  10 -12   0   12.62    0.91
 -12 -10   0    9.62    0.87
  10 -12   0   13.91    0.94
  12  10   0   12.60    0.80
  12   9   0   -0.08    0.28
 -12  -9   0   -0.36    0.37
   9 -12   0   -0.35    0.37
 -12  -9   0    0.07    0.32
   9 -12   0    0.06    0.38
 -12  -8   0    0.21    0.38
  12   8   0    0.13    0.29
   8 -12   0    0.26    0.37
 -12  -8   0   -0.16    0.32
   8 -12   0    0.40    0.41
 -12  -7   0   -0.48    0.33
   7 -12   0   -0.15    0.35
 -12  -7   0    0.09    0.30
   7 -12   0    0.19    0.38
  12   7   0    0.29    0.28
  12   6   0   64.35    2.39
 -12  -6   0   66.85    2.37
   6 -12   0   67.42    2.46
   6 -12   0   69.57    2.43
  12   5   0    0.06    0.24
 -12  -5   0    0.56    0.30
   5 -12   0    0.54    0.34
  12   5   0    0.64    0.28
   5 -12   0    1.10    0.38
 -12  -4   0  123.46    3.99
   4 -12   0  118.54    4.02
  12   4   0  119.53    3.98
   4 -12   0  121.21    4.07
  12   4   0  122.55    4.02
 -12  -3   0    0.71    0.27
   3 -12   0    0.62    0.37
  12   3   0    0.05    0.25
   3 -12   0    0.26    0.36
  12   3   0    0.38    0.28
 -12  -2   0  141.85    4.67
   2 -12   0  144.83    4.62
  12   2   0  141.18    4.68
  12   2   0  142.86    4.72
   2 -12   0  148.79    4.72
   2 -12   0  147.26    4.77
  12   1   0   -0.22    0.25
   1 -12   0    0.20    0.33
   1 -12   0   -0.71    0.29
 -12  -1   0    0.22    0.26
  12   1   0   -0.04    0.24
   1 -12   0    0.43    0.24
 -12   0   0   56.33    1.99
   0 -12   0   54.64    1.92
  12   0   0   55.07    2.00
  12   0   0   56.68    2.03
   0 -12   0   56.71    2.09
  12  -1   0   -0.42    0.24
 -12   1   0    0.01    0.23
  12  -1   0    0.12    0.25
  -1 -12   0    0.08    0.23
  -1 -12   0    0.13    0.34
  -2 -12   0   85.66    2.99
  12  -2   0   86.50    2.94
  12  -2   0   86.25    2.92
  -2 -12   0   84.14    2.82
 -12   2   0   85.98    2.91
  -3 -12   0    0.22    0.24
  12  -3   0    0.19    0.27
 -12   3   0    0.24    0.25
  -3 -12   0    0.35    0.35
  12  -3   0   -0.19    0.25
  -4 -12   0   48.53    1.66
  12  -4   0   43.42    1.77
  -4 -12   0   48.96    1.83
  12  -4   0   45.98    1.76
  -5 -12   0    0.23    0.24
  -5 -12   0    0.01    0.36
  12  -5   0   -0.18    0.29
  12  -5   0    0.30    0.29
  12  -6   0    4.61    0.52
  -6 -12   0    5.58    0.46
  -6 -12   0    5.67    0.60
  12  -6   0    4.25    0.51
  12  -7   0   -0.38    0.30
  12  -7   0   -0.28    0.31
  -7 -12   0    0.00    0.27
  -7 -12   0   -0.08    0.35
   8  12   0   16.52    0.88
  -8 -12   0   16.26    0.82
  12  -8   0   16.44    0.96
  -8 -12   0   17.88    1.01
  12  -8   0   15.42    0.94
  -9 -12   0    0.19    0.31
   9  12   0    0.01    0.28
  -9 -12   0    0.52    0.45
  12  -9   0   -0.42    0.35
  12  -9   0   -0.41    0.34
 -10 -12   0    4.70    0.64
  12 -10   0    5.42    0.62
  12 -10   0    4.46    0.61
  10  12   0    4.66    0.53
 -11 -12   0    0.29    0.48
  12 -11   0    0.28    0.42
  11  12   0    0.35    0.32
  12 -11   0    0.38    0.45
  12 -12   0   29.05    1.43
  12  12   0   27.34    1.29
  12 -12   0   26.87    1.40
 -12 -12   0   24.67    1.40
  13  12   0    0.37    0.38
 -13 -12   0   -0.42    0.53
  12 -13   0    0.89    0.53
  12 -13   0    0.26    0.51
 -13 -11   0    0.35    0.53
  13  11   0    0.38    0.37
  11 -13   0    0.11    0.46
  11 -13   0    0.50    0.50
 -13 -10   0   -0.58    0.37
  10 -13   0    0.35    0.44
 -13 -10   0    0.12    0.46
  10 -13   0   -0.54    0.40
  13  10   0    0.11    0.33
   9 -13   0   11.65    0.93
   9 -13   0   12.61    0.92
  13   9   0   12.13    0.82
 -13  -9   0   11.83    0.79
 -13  -9   0   12.65    0.94
   8 -13   0    0.03    0.40
 -13  -8   0    0.33    0.34
   8 -13   0   -0.34    0.39
 -13  -8   0    0.21    0.42
  13   8   0    0.26    0.32
   7 -13   0   19.20    1.07
 -13  -7   0   17.29    0.94
  13   7   0   18.30    0.97
   7 -13   0   17.33    1.03
   6 -13   0    0.15    0.39
  13   6   0   -0.02    0.27
   6 -13   0    0.52    0.41
 -13  -6   0    0.08    0.32
 -13  -5   0   38.94    1.57
   5 -13   0   39.50    1.63
  13   5   0   40.63    1.60
   5 -13   0   40.83    1.68
  13   5   0   39.80    1.56
   4 -13   0   -0.10    0.37
  13   4   0    0.40    0.30
   4 -13   0   -0.02    0.36
 -13  -4   0    0.42    0.33
  13   4   0   -0.28    0.24
  13   3   0    0.01    0.27
   3 -13   0    0.53    0.39
 -13  -3   0    0.34    0.31
   3 -13   0   -0.05    0.34
  13   3   0   -0.17    0.24
   2 -13   0    0.19    0.34
  13   2   0   -0.04    0.25
   2 -13   0    0.03    0.35
  13   2   0   -0.25    0.24
 -13  -2   0    0.13    0.26
   1 -13   0    6.45    0.49
  13   1   0    7.89    0.64
   1 -13   0    6.88    0.65
 -13  -1   0    6.75    0.57
  13   1   0    5.97    0.55
   0 -13   0   -0.24    0.34
  13   0   0   -0.18    0.24
   0 -13   0   -0.33    0.22
 -13   0   0   -0.24    0.24
  13   0   0   -0.32    0.24
  13  -1   0    8.58    0.63
 -13   1   0    7.54    0.61
  -1 -13   0    7.55    0.68
  13  -1   0    8.96    0.65
  -1 -13   0    8.07    0.52
  13  -2   0    0.29    0.28
  -2 -13   0   -0.45    0.34
  13  -2   0   -0.26    0.27
 -13   2   0   -0.03    0.25
  -2 -13   0   -0.20    0.22
  -3 -13   0   20.93    0.88
  -3 -13   0   20.28    1.08
  13  -3   0   19.39    1.00
 -13   3   0   19.31    0.96
  13  -3   0   21.35    0.98
 -13   4   0    0.16    0.27
  13  -4   0   -0.05    0.29
  13  -4   0   -0.07    0.29
  -4 -13   0    0.00    0.25
  -4 -13   0    0.16    0.38
  -5 -13   0   28.41    1.11
  13  -5   0   26.57    1.23
  13  -5   0   25.27    1.24
  -5 -13   0   29.83    1.33
  13  -6   0    0.48    0.35
  13  -6   0   -0.27    0.32
  -6 -13   0    0.29    0.41
  -6 -13   0    0.00    0.26
  -7 -13   0    0.62    0.43
  -7 -13   0    0.62    0.31
  13  -7   0    0.76    0.39
  13  -7   0    1.10    0.41
  13  -8   0   -0.24    0.37
  -8 -13   0   -0.17    0.40
  13  -8   0    0.03    0.35
   8  13   0    0.04    0.27
   9  13   0    2.07    0.41
  13  -9   0    1.91    0.48
  -9 -13   0    2.75    0.57
  13  -9   0    2.37    0.50
 -10 -13   0   -0.34    0.48
  10  13   0    0.13    0.33
  13 -10   0   -0.16    0.40
  13 -10   0   -0.18    0.41
  13 -11   0   -0.16    0.45
  11  13   0    0.28    0.31
 -11 -13   0    0.47    0.52
  13 -11   0    0.08    0.43
  12  13   0    0.11    0.35
  13 -12   0    0.63    0.50
  13 -12   0    0.41    0.48
 -12 -13   0    0.02    0.53
  13  13   0    1.53    0.48
 -13 -13   0    1.37    0.61
  13 -13   0    0.98    0.54
  13 -13   0    0.46    0.53
  13 -14   0    0.34    0.58
  13 -14   0   -0.13    0.53
  14  13   0    0.35    0.43
 -14 -13   0   -0.16    0.60
  12 -14   0   24.81    1.40
  14  12   0   23.96    1.28
  12 -14   0   26.34    1.43
 -14 -12   0   23.61    1.43
 -14 -11   0   -0.42    0.53
  11 -14   0    0.57    0.51
  11 -14   0    0.27    0.51
  14  11   0   -0.29    0.36
  10 -14   0    8.07    0.79
  14  10   0    7.31    0.73
  10 -14   0    7.33    0.81
 -14 -10   0    7.79    0.85
   9 -14   0   -0.27    0.44
 -14  -9   0   -0.11    0.46
  14   9   0   -0.06    0.34
   9 -14   0   -0.06    0.46
 -14  -9   0   -0.23    0.35
   8 -14   0    1.81    0.50
   8 -14   0    1.39    0.50
 -14  -8   0    2.33    0.56
 -14  -8   0    2.27    0.46
  14   8   0    2.30    0.46
   7 -14   0    0.38    0.45
  14   7   0    0.38    0.33
 -14  -7   0    0.19    0.37
   7 -14   0    0.12    0.44
 -14  -6   0   30.56    1.35
   6 -14   0   29.30    1.40
   6 -14   0   30.19    1.45
  14   6   0   32.61    1.38
   5 -14   0    0.37    0.43
   5 -14   0   -0.16    0.41
  14   5   0    0.32    0.33
 -14  -5   0    0.99    0.39
  14   5   0    0.34    0.29
 -14  -4   0   97.97    3.34
   4 -14   0   95.29    3.42
  14   4   0  100.92    3.38
  14   4   0   95.74    3.31
   4 -14   0   96.79    3.38
   3 -14   0    0.80    0.43
  14   3   0    0.40    0.31
   3 -14   0   -0.24    0.41
  14   3   0    0.03    0.30
 -14  -3   0    0.36    0.34
  14   2   0   93.86    3.15
   2 -14   0   89.17    3.18
  14   2   0   98.55    3.21
   2 -14   0   88.01    3.23
 -14  -2   0   90.34    3.15
  14   1   0   -0.26    0.31
  14   1   0    0.93    0.34
   1 -14   0   -0.42    0.39
   1 -14   0    0.48    0.28
 -14  -1   0    0.59    0.32
  14   0   0  101.96    3.54
  14   0   0  108.91    3.61
   0 -14   0  103.18    3.65
   0 -14   0  104.47    3.46
 -14   0   0  108.06    3.57
  -1 -14   0    0.72    0.30
  14  -1   0    0.50    0.32
  -1 -14   0    0.31    0.43
  14  -1   0   -0.71    0.32
 -14   1   0    0.51    0.31
  14  -2   0  103.11    3.51
  14  -2   0  103.63    3.55
  -2 -14   0  102.81    3.59
  -2 -14   0  104.49    3.39
 -14   2   0  102.28    3.51
 -14   3   0    0.35    0.30
  14  -3   0    0.48    0.35
  -3 -14   0    0.34    0.28
  14  -3   0    0.78    0.35
  -3 -14   0   -0.19    0.42
  -4 -14   0   89.78    3.16
  14  -4   0   87.91    3.07
 -14   4   0   88.12    3.07
  14  -4   0   88.85    3.11
  -4 -14   0   86.93    2.93
  14  -5   0    0.22    0.34
  -5 -14   0    0.48    0.44
 -14   5   0    0.36    0.34
  -5 -14   0    0.58    0.30
  14  -5   0    0.34    0.38
  -6 -14   0    4.92    0.63
  14  -6   0    2.48    0.48
  14  -6   0    3.65    0.53
  14  -7   0   -0.59    0.33
  14  -7   0   -0.13    0.39
  -7 -14   0    0.33    0.48
  14  -8   0    3.90    0.59
  -8 -14   0    3.55    0.61
   8  14   0    3.63    0.50
  14  -8   0    3.64    0.54
  -9 -14   0    0.44    0.49
   9  14   0   -0.03    0.31
  14  -9   0    0.11    0.41
  14  -9   0    0.08    0.45
  14 -10   0   19.78    1.18
 -10 -14   0   20.17    1.24
  10  14   0   18.76    1.03
  14 -10   0   18.72    1.21
  11  14   0    0.34    0.36
  14 -11   0   -0.16    0.45
  14 -11   0    0.63    0.52
 -11 -14   0   -0.16    0.54
  14 -12   0   14.92    1.17
  12  14   0   15.92    1.00
 -12 -14   0   16.05    1.22
  14 -12   0   16.52    1.13
 -13 -14   0   -0.63    0.61
  14 -13   0    0.36    0.56
  14 -13   0    0.53    0.53
  13  14   0   -0.22    0.41
  14  14   0   10.77    0.91
  14 -14   0   11.43    1.06
  14 -14   0    9.78    0.98
 -14 -14   0   12.45    1.14
  15  14   0   -0.09    0.44
  14 -15   0    0.66    0.63
 -15 -14   0    1.25    0.71
  14 -15   0    0.02    0.63
  15  13   0   10.55    0.91
  13 -15   0   10.44    1.01
 -15 -13   0   11.00    1.09
  13 -15   0   10.52    1.00
  12 -15   0    0.01    0.53
  15  12   0   -0.03    0.43
 -15 -12   0    0.60    0.66
  12 -15   0    0.13    0.55
  11 -15   0    3.45    0.71
 -15 -11   0    4.35    0.80
  11 -15   0    4.26    0.68
  15  11   0    4.11    0.59
 -15 -10   0   -0.23    0.54
  10 -15   0   -0.55    0.50
  10 -15   0    0.26    0.53
  15  10   0    0.89    0.42
   9 -15   0   17.29    1.16
   9 -15   0   17.23    1.20
  15   9   0   18.58    1.07
 -15  -9   0   18.70    1.16
 -15  -9   0   18.01    1.19
   8 -15   0   -0.24    0.48
 -15  -8   0   -0.27    0.47
  15   8   0    0.19    0.35
   8 -15   0    0.36    0.51
 -15  -8   0    0.25    0.41
  15   7   0    0.18    0.36
   7 -15   0    0.88    0.49
   7 -15   0    1.17    0.53
 -15  -7   0    0.78    0.42
  15   6   0   -0.33    0.35
   6 -15   0   -0.02    0.46
 -15  -6   0   -0.13    0.35
   6 -15   0   -0.13    0.43
  15   5   0    0.44    0.33
 -15  -5   0    0.48    0.40
   5 -15   0    1.19    0.50
   5 -15   0    0.95    0.46
  15   5   0    0.35    0.35
 -15  -4   0    0.29    0.36
  15   4   0    0.10    0.33
  15   4   0    0.27    0.29
   4 -15   0    0.21    0.46
   4 -15   0   -0.09    0.40
  15   3   0    5.04    0.54
   3 -15   0    3.95    0.62
   3 -15   0    3.42    0.55
 -15  -3   0    3.63    0.52
  15   3   0    2.49    0.46
 -15  -2   0   -0.03    0.32
  15   2   0   -0.18    0.28
  15   2   0    0.34    0.33
   2 -15   0   -0.19    0.38
   2 -15   0   -0.89    0.39
  15   1   0   -0.37    0.29
  15   1   0   -0.36    0.27
 -15  -1   0   -0.02    0.31
   1 -15   0   -0.32    0.40
   1 -15   0   -0.21    0.26
   0 -15   0   -0.20    0.25
   0 -15   0   -0.42    0.41
  15   0   0   -0.21    0.32
 -15   0   0   -0.06    0.31
  15   0   0    0.38    0.31
  -1 -15   0    0.45    0.44
  15  -1   0    0.19    0.34
  -1 -15   0   -0.27    0.26
  15  -1   0   -0.10    0.31
 -15   1   0    0.28    0.33
  -2 -15   0   -0.64    0.39
 -15   2   0    0.09    0.31
  15  -2   0   -0.34    0.31
  -2 -15   0    0.10    0.27
  15  -2   0   -0.06    0.32
 -15   3   0    1.35    0.39
  -3 -15   0    1.06    0.32
  15  -3   0    0.58    0.37
  15  -3   0    1.07    0.37
  -3 -15   0    0.74    0.47
  -4 -15   0   -0.63    0.43
  -4 -15   0    0.08    0.36
  15  -4   0    0.13    0.33
  15  -4   0    0.18    0.37
 -15   4   0    0.21    0.32
  15  -5   0    8.67    0.75
 -15   5   0    8.53    0.74
  -5 -15   0    9.03    0.83
  15  -5   0    8.96    0.81
 -15   6   0    0.13    0.34
  15  -6   0   -0.20    0.34
  -6 -15   0    0.41    0.48
  15  -6   0   -0.17    0.39
  15  -7   0   14.54    0.97
  15  -7   0   13.95    0.99
  -7 -15   0   14.34    1.03
  15  -8   0    0.08    0.44
   8  15   0    0.20    0.33
  15  -8   0    0.15    0.40
  -8 -15   0    0.13    0.53
  15  -9   0    4.09    0.66
  -9 -15   0    6.19    0.77
  15  -9   0    4.58    0.65
   9  15   0    5.69    0.61
  15 -10   0    0.23    0.52
  10  15   0   -0.24    0.35
 -10 -15   0   -0.26    0.53
  15 -10   0   -0.07    0.44
  15 -11   0    1.04    0.52
  15 -11   0   -0.32    0.52
  11  15   0    0.53    0.41
 -11 -15   0    0.35    0.60
 -12 -15   0    0.52    0.64
  15 -12   0   -0.61    0.54
  12  15   0    0.08    0.39
  15 -12   0   -0.36    0.51
  13  15   0    0.92    0.46
  15 -13   0    2.03    0.65
  15 -13   0    1.47    0.66
 -13 -15   0    1.40    0.74
  15 -14   0    0.01    0.60
 -14 -15   0    0.14    0.72
  14  15   0    0.52    0.46
  15 -14   0    0.33    0.59
  15  15   0    1.16    0.55
  15 -15   0    0.15    0.70
 -15 -15   0    0.65    0.77
  15 -15   0    0.91    0.65
 -16 -15   0    0.56    0.81
  15 -16   0    0.93    0.72
  16  15   0    0.26    0.51
  15 -16   0   -0.28    0.60
 -16 -14   0   30.55    1.81
  16  14   0   31.43    1.63
  14 -16   0   33.08    1.75
  14 -16   0   29.17    1.72
  13 -16   0    0.88    0.68
  13 -16   0   -0.20    0.62
 -16 -13   0    0.24    0.74
  16  13   0   -0.48    0.46
 -16 -12   0    0.66    0.70
  12 -16   0    0.26    0.61
  12 -16   0    0.02    0.60
  16  12   0    0.34    0.45
 -16 -11   0   -0.79    0.61
  16  11   0    0.15    0.44
  11 -16   0    0.02    0.57
  11 -16   0    1.10    0.59
  16  10   0    0.63    0.44
  10 -16   0   -0.05    0.57
  10 -16   0    0.90    0.56
 -16 -10   0    0.03    0.60
  16   9   0    0.15    0.40
   9 -16   0   -0.14    0.55
 -16  -9   0   -0.10    0.56
   9 -16   0    0.15    0.53
  16   8   0    8.66    0.81
 -16  -8   0   10.83    0.99
   8 -16   0    9.41    0.92
 -16  -8   0    9.40    0.82
   8 -16   0   10.71    0.91
  16   7   0    0.16    0.42
   7 -16   0   -0.15    0.48
   7 -16   0   -0.13    0.49
 -16  -7   0   -0.08    0.42
   6 -16   0   16.13    1.16
   6 -16   0   18.39    1.14
 -16  -6   0   19.06    1.07
  16   6   0   18.50    1.06
   5 -16   0   -0.25    0.48
   5 -16   0   -0.24    0.45
 -16  -5   0    0.20    0.40
  16   5   0    0.12    0.37
  16   5   0   -0.07    0.31
   4 -16   0    1.45    0.57
  16   4   0    1.44    0.42
  16   4   0    1.36    0.39
   4 -16   0    1.29    0.51
 -16  -4   0    1.11    0.42
   3 -16   0    0.09    0.50
  16   3   0    0.19    0.37
 -16  -3   0    0.69    0.39
   3 -16   0    0.20    0.44
  16   3   0   -0.19    0.32
 -16  -2   0   31.94    1.45
  16   2   0   35.00    1.44
  16   2   0   34.40    1.51
   2 -16   0   33.30    1.58
 -16  -1   0    0.51    0.38
  16   1   0    0.59    0.39
   1 -16   0   -0.47    0.48
  16   1   0   -0.06    0.32
  16   0   0   38.89    1.65
   0 -16   0   38.45    1.47
   0 -16   0   41.26    1.73
  16   0   0   35.93    1.56
 -16   0   0   36.81    1.59
  -1 -16   0    0.16    0.31
  -1 -16   0    0.51    0.50
  16  -1   0    0.18    0.38
 -16   1   0   -0.10    0.32
  16  -1   0    0.47    0.37
  16  -2   0   11.39    0.87
  -2 -16   0   15.11    1.02
 -16   2   0   12.60    0.84
  -2 -16   0   14.19    0.75
  16  -2   0    9.81    0.82
 -16   3   0   -0.05    0.34
  -3 -16   0   -0.71    0.44
  16  -3   0   -0.37    0.33
  16  -3   0    0.18    0.40
  16  -4   0    4.28    0.56
  -4 -16   0    3.66    0.65
 -16   4   0    5.55    0.64
  16  -4   0    3.84    0.58
 -16   5   0   -0.11    0.34
  -5 -16   0    0.23    0.52
  16  -5   0   -0.26    0.42
  16  -5   0    0.36    0.38
  16  -6   0   -0.29    0.45
 -16   6   0   -0.19    0.35
  16  -6   0    0.67    0.41
  -6 -16   0    0.52    0.52
  16  -7   0   -0.53    0.38
 -16   7   0   -0.13    0.37
  -7 -16   0   -0.35    0.51
  16  -7   0    0.69    0.47
  16  -8   0    2.38    0.56
  16  -8   0    2.85    0.63
  -8 -16   0    1.17    0.60
   8  16   0    2.21    0.47
  -9 -16   0    0.18    0.58
  16  -9   0   -0.41    0.52
   9  16   0   -0.21    0.32
  16  -9   0    0.06    0.47
 -10 -16   0   10.30    1.00
  16 -10   0   13.30    1.06
  16 -10   0   12.13    0.98
  10  16   0   11.89    0.92
  16 -11   0   -0.25    0.55
 -11 -16   0    0.36    0.65
  11  16   0   -0.18    0.38
  16 -11   0   -0.05    0.48
  16 -12   0   10.95    0.99
  12  16   0   13.23    0.92
 -12 -16   0   11.17    1.08
  16 -12   0    8.89    0.99
  16 -13   0   -0.05    0.63
  13  16   0    0.03    0.44
  16 -13   0    0.68    0.60
 -13 -16   0   -0.69    0.67
  16 -14   0   23.77    1.49
  14  16   0   21.88    1.29
  16 -14   0   22.05    1.44
  16 -15   0    0.23    0.69
  16 -15   0   -0.28    0.61
 -15 -16   0   -0.77    0.74
  15  16   0    0.60    0.52
 -16 -16   0   17.99    1.51
  16 -16   0   19.18    1.49
  16 -16   0   19.91    1.54
  16  16   0   21.79    1.40
 -17 -15   0    0.82    0.86
  17  15   0    0.72    0.53
  15 -17   0    1.53    0.73
  15 -17   0    1.70    0.80
 -17 -14   0    0.27    0.79
  17  14   0    1.33    0.60
  14 -17   0   -0.14    0.68
  14 -17   0   -0.05    0.71
  13 -17   0    9.72    1.05
 -17 -13   0   11.40    1.19
  17  13   0   10.01    1.00
  13 -17   0   10.98    1.09
  17  12   0   -0.35    0.48
  12 -17   0    1.28    0.68
 -17 -12   0    0.04    0.75
  12 -17   0    0.56    0.63
  11 -17   0    5.64    0.84
  17  11   0    5.96    0.74
 -17 -11   0    5.12    0.92
  11 -17   0    5.81    0.86
  17  10   0   -0.17    0.46
  10 -17   0   -0.84    0.56
 -17 -10   0   -0.18    0.65
  10 -17   0   -0.92    0.58
   9 -17   0    1.89    0.68
  17   9   0    1.03    0.49
   9 -17   0    2.16    0.63
 -17  -9   0    2.18    0.72
   8 -17   0    0.68    0.61
 -17  -8   0    0.70    0.63
  17   8   0   -0.42    0.44
 -17  -8   0   -0.47    0.53
   8 -17   0    0.28    0.55
   7 -17   0   32.54    1.68
 -17  -7   0   31.57    1.53
   7 -17   0   33.27    1.63
  17   7   0   34.53    1.60
   6 -17   0    0.50    0.52
  17   6   0    0.43    0.43
 -17  -6   0    0.37    0.43
   6 -17   0   -0.08    0.51
  17   5   0    0.16    0.35
   5 -17   0    0.82    0.56
  17   5   0    0.48    0.41
 -17  -5   0    0.41    0.45
   5 -17   0    1.12    0.52
  17   4   0   -0.20    0.37
   4 -17   0    0.38    0.54
   4 -17   0   -0.08    0.47
  17   4   0    0.00    0.33
 -17  -4   0   -0.36    0.37
  17   3   0    1.73    0.50
  17   3   0    2.10    0.46
   3 -17   0    1.95    0.53
   3 -17   0    3.69    0.69
 -17  -3   0    2.05    0.51
   2 -17   0   -0.33    0.49
  17   2   0   -0.15    0.33
  17   2   0   -0.31    0.35
 -17  -2   0   -0.07    0.39
  17   1   0    0.82    0.39
  17   1   0    0.81    0.44
   1 -17   0    0.47    0.53
 -17  -1   0    0.70    0.42
   0 -17   0    0.07    0.30
 -17   0   0    0.00    0.36
  17   0   0    0.19    0.40
   0 -17   0    0.08    0.51
  17   0   0    0.06    0.34
  17  -1   0    6.06    0.71
 -17   1   0    6.13    0.69
  -1 -17   0    5.70    0.78
  17  -1   0    6.68    0.66
  -2 -17   0   -0.44    0.50
  17  -2   0   -0.14    0.40
  17  -2   0    0.28    0.38
 -17   2   0    0.16    0.40
  17  -3   0   20.37    1.09
  17  -3   0   21.23    1.18
  -3 -17   0   14.70    1.18
 -17   3   0   21.22    1.12
  17  -4   0    0.04    0.44
 -17   4   0    0.72    0.41
  17  -4   0    0.51    0.39
  -4 -17   0   -0.24    0.52
 -17   5   0   14.03    1.00
  -5 -17   0   15.73    1.17
  17  -5   0   14.80    1.08
  17  -5   0   16.81    1.01
  -6 -17   0    0.17    0.56
  17  -6   0    0.04    0.51
 -17   6   0    0.50    0.40
  17  -6   0    1.65    0.49
  -7 -17   0   16.57    1.24
 -17   7   0   17.79    1.08
  17  -7   0   16.82    1.11
  17  -7   0   17.12    1.18
  17  -8   0    0.68    0.47
  17  -8   0   -0.12    0.54
  -8 -17   0   -0.60    0.58
   8  17   0    0.27    0.38
 -17   8   0    0.45    0.44
 -17   9   0    1.68    0.52
  17  -9   0    2.22    0.66
  -9 -17   0    2.05    0.69
   9  17   0    1.38    0.45
  17  -9   0    1.96    0.58
  17 -10   0    0.59    0.54
  17 -10   0   -0.03    0.47
 -10 -17   0    0.56    0.65
  10  17   0    0.39    0.43
  17 -11   0    3.67    0.80
 -11 -17   0    3.70    0.82
  11  17   0    3.06    0.58
  17 -11   0    2.78    0.66
  17 -12   0    0.43    0.63
  17 -12   0    0.20    0.52
  12  17   0    0.05    0.44
 -12 -17   0    0.13    0.69
 -13 -17   0    1.56    0.81
  17 -13   0    1.59    0.71
  17 -13   0    1.21    0.62
  13  17   0    1.26    0.55
  17 -14   0    1.18    0.67
  17 -14   0    1.16    0.75
  14  17   0    1.14    0.55
 -14 -17   0    0.70    0.77
  17 -15   0   -0.23    0.73
 -15 -17   0   -0.92    0.79
  17 -15   0   -0.19    0.63
  15  17   0    0.72    0.55
  14 -18   0    4.33    0.90
  18  14   0    5.00    0.78
  14 -18   0    4.72    0.93
 -18 -14   0    4.17    1.01
  13 -18   0    0.78    0.72
 -18 -13   0    0.23    0.81
  13 -18   0    0.61    0.73
  18  13   0    1.13    0.55
 -18 -12   0    3.39    0.93
  18  12   0    3.03    0.67
  12 -18   0    3.34    0.82
  12 -18   0    2.31    0.79
  11 -18   0    0.91    0.67
  18  11   0    0.55    0.51
 -18 -11   0    0.41    0.77
  11 -18   0    0.22    0.65
  18  10   0    0.34    0.54
 -18 -10   0    0.12    0.74
  10 -18   0    0.34    0.64
  10 -18   0    0.03    0.65
 -18  -9   0   -0.08    0.66
   9 -18   0    0.15    0.62
  18   9   0   -0.55    0.46
   9 -18   0   -0.64    0.60
   8 -18   0   -0.59    0.57
 -18  -8   0    0.27    0.69
   8 -18   0    1.11    0.67
  18   8   0    0.78    0.52
   7 -18   0   -0.37    0.54
   7 -18   0   -0.25    0.58
  18   7   0    0.16    0.46
 -18  -7   0    0.12    0.48
 -18  -6   0    1.81    0.56
   6 -18   0    2.59    0.65
   6 -18   0    2.09    0.68
  18   6   0    2.24    0.56
  18   5   0   -0.06    0.42
 -18  -5   0    0.01    0.45
   5 -18   0   -0.11    0.51
  18   5   0    0.09    0.37
   5 -18   0   -0.36    0.56
  18   4   0    3.30    0.62
 -18  -4   0    3.68    0.61
   4 -18   0    2.44    0.62
   4 -18   0    4.16    0.76
  18   4   0    3.83    0.58
  18   3   0    0.65    0.44
  18   3   0    0.13    0.36
 -18  -3   0   -0.22    0.43
   3 -18   0    0.95    0.58
  18   2   0    4.91    0.69
  18   2   0    4.71    0.62
   2 -18   0    3.84    0.73
 -18  -2   0    4.48    0.67
 -18  -1   0   -0.21    0.42
  18   1   0    0.32    0.47
   1 -18   0    0.47    0.58
  18   1   0    0.02    0.37
 -18   0   0   11.01    0.93
   0 -18   0   11.64    1.04
  18   0   0   10.91    0.91
  18   0   0   10.42    0.85
 -18   1   0    0.44    0.44
  18  -1   0    0.02    0.46
  -1 -18   0    0.38    0.59
  18  -1   0    0.32    0.40
  18  -2   0   19.95    1.10
 -18   2   0   18.67    1.15
  -2 -18   0   21.46    1.33
  18  -2   0   18.29    1.17
  -3 -18   0    0.80    0.60
 -18   3   0    0.36    0.42
  18  -3   0    0.09    0.48
  18  -3   0    0.70    0.43
  18  -4   0    1.42    0.49
 -18   4   0    1.07    0.48
  -4 -18   0    1.83    0.64
  18  -4   0    1.38    0.57
  18  -5   0   -0.12    0.39
  18  -5   0   -0.21    0.49
  -5 -18   0    0.60    0.61
 -18   5   0   -0.39    0.40
 -18   6   0   -0.11    0.40
  18  -6   0   -0.08    0.52
  18  -6   0   -0.03    0.45
  -6 -18   0    0.15    0.60
 -18   7   0   -0.39    0.40
  -7 -18   0   -0.08    0.63
  18  -7   0    0.53    0.56
  18  -7   0   -0.41    0.44
  18  -8   0    6.35    0.84
  -8 -18   0    7.53    0.94
 -18   8   0    6.75    0.80
  18  -8   0    6.29    0.78
   8  18   0    6.63    0.73
  -9 -18   0    0.32    0.70
   9  18   0   -0.65    0.37
 -18   9   0    0.26    0.47
  18  -9   0    0.15    0.61
  18  -9   0    0.65    0.52
 -18  10   0   13.03    1.06
  18 -10   0   12.89    1.08
  18 -10   0   14.16    1.18
 -10 -18   0   11.84    1.16
  10  18   0   12.81    1.01
  18 -11   0    0.29    0.68
  18 -11   0    0.35    0.55
 -11 -18   0   -0.47    0.71
  11  18   0   -0.37    0.40
 -18  11   0    0.09    0.49
  18 -12   0    8.92    1.04
 -12 -18   0    7.29    1.02
  18 -12   0    8.22    0.93
  12  18   0    8.94    0.88
  18 -13   0    0.85    0.75
  18 -13   0    0.82    0.62
 -13 -18   0   -0.06    0.76
  13  18   0    0.15    0.48
  18 -14   0   16.92    1.44
  14  18   0   19.54    1.26
  18 -14   0   18.30    1.35
  13 -19   0   12.95    1.27
 -19 -13   0   17.67    1.51
  19  13   0   17.45    1.28
 -19 -12   0    0.85    0.90
  12 -19   0    1.01    0.75
  12 -19   0    0.20    1.13
  19  12   0    0.42    0.57
 -19 -11   0   19.87    1.53
  11 -19   0   18.73    1.45
  11 -19   0   15.60    1.33
  19  11   0   17.86    1.35
  10 -19   0    0.92    0.68
 -19 -10   0    0.53    0.79
  10 -19   0    1.94    0.78
  19  10   0    0.25    0.55
  19   9   0   26.53    1.48
 -19  -9   0   26.98    1.69
   9 -19   0   24.68    1.56
   9 -19   0   24.89    1.64
   8 -19   0    0.59    0.63
   8 -19   0    0.20    0.67
  19   8   0    0.24    0.50
 -19  -8   0   -0.06    0.72
   7 -19   0   16.40    1.24
  19   7   0   13.37    1.10
   7 -19   0   14.30    1.21
   6 -19   0    1.04    0.69
  19   6   0    0.36    0.50
   6 -19   0    0.18    0.61
 -19  -6   0    0.02    0.50
  19   5   0   16.96    1.17
  19   5   0   17.29    1.06
 -19  -5   0   17.99    1.20
   5 -19   0   17.67    1.34
   5 -19   0   16.19    1.22
   4 -19   0   -0.15    0.63
  19   4   0    0.25    0.49
  19   4   0    0.29    0.42
 -19  -4   0   -0.06    0.49
  19   3   0    5.99    0.69
 -19  -3   0    6.29    0.78
  19   3   0    6.97    0.81
   3 -19   0    5.81    0.83
  19   2   0    0.00    0.41
   2 -19   0   -0.16    0.59
  19   2   0   -0.27    0.46
 -19  -2   0    0.06    0.49
   1 -19   0    0.30    0.62
  19   1   0    0.26    0.42
 -19  -1   0    0.44    0.47
  19   1   0    0.42    0.51
 -19   0   0   -0.15    0.44
   0 -19   0    0.43    0.63
  19   0   0    0.07    0.40
  19   0   0    0.21    0.47
  19  -1   0    3.94    0.70
  19  -1   0    3.62    0.59
  -1 -19   0    3.04    0.74
 -19   1   0    3.37    0.63
  -2 -19   0   -0.51    0.60
  19  -2   0    0.67    0.43
  19  -2   0    0.29    0.52
 -19   2   0    0.54    0.45
 -19   3   0   26.92    1.42
  -3 -19   0   26.47    1.61
  19  -3   0   28.36    1.39
  19  -3   0   29.91    1.58
  19  -4   0    0.99    0.49
  19  -4   0    1.20    0.60
  -4 -19   0    0.60    0.66
 -19   4   0    0.54    0.48
  19  -5   0   15.67    1.07
  -5 -19   0   16.57    1.33
 -19   5   0   17.55    1.14
  19  -5   0   16.89    1.22
  19  -6   0    0.25    0.46
  -6 -19   0    0.79    0.71
  19  -6   0    0.73    0.62
 -19   6   0   -0.09    0.46
  -7 -19   0    6.66    0.95
  19  -7   0    8.36    0.86
 -19   7   0    6.57    0.81
  19  -7   0    6.82    0.90
   8  19   0    0.68    0.46
  19  -8   0   -0.32    0.47
  19  -8   0    0.42    0.59
  -8 -19   0   -0.96    0.66
 -19   8   0   -0.64    0.43
 -19   9   0   11.00    1.06
  -9 -19   0   12.49    1.19
   9  19   0   14.23    1.01
  19  -9   0   13.74    1.20
  19  -9   0   13.68    1.08
 -19  10   0    0.16    0.50
  10  19   0   -0.37    0.44
  19 -10   0    0.19    0.55
 -10 -19   0    1.03    0.75
  19 -10   0   -0.27    0.63
  11  19   0    2.29    0.59
 -11 -19   0    2.48    0.85
 -19  11   0    2.95    0.70
  19 -11   0    2.95    0.71
  19 -11   0    3.80    0.86
 -12 -19   0    0.10    0.74
  19 -12   0   -0.32    0.60
  12  19   0    0.50    0.50
  19 -12   0    0.22    0.72
 -19  12   0   -0.65    0.53
  19 -13   0    3.33    0.90
  19 -13   0    3.49    0.78
 -19  13   0    3.48    0.78
  13  19   0    3.38    0.71
 -13 -19   0    4.03    0.96
  20  11   0   -0.13    0.59
 -20 -11   0    0.54    0.87
  11 -20   0    1.65    0.76
  10 -20   0   -0.45    0.73
  20  10   0    0.59    0.59
 -20 -10   0   -0.35    0.83
   9 -20   0    1.34    0.78
  20   9   0    0.27    0.57
 -20  -9   0   -0.42    0.77
   8 -20   0    0.87    0.75
 -20  -8   0   -1.25    0.75
  20   8   0    0.11    0.54
   7 -20   0   -0.97    0.84
   7 -20   0    0.42    0.73
  20   7   0    0.93    0.59
   6 -20   0    1.06    0.72
  20   6   0    0.59    0.55
 -20  -6   0    0.56    0.60
   6 -20   0    0.21    0.71
  20   5   0   -0.02    0.52
   5 -20   0   -0.91    0.59
 -20  -5   0   -0.50    0.52
   5 -20   0   -0.64    0.68
  20   4   0    2.49    0.52
 -20  -4   0    3.28    0.68
  20   4   0    2.49    0.66
   4 -20   0    2.11    0.78
 -20  -3   0    0.70    0.54
  20   3   0   -0.84    0.47
  20   3   0   -0.15    0.40
   3 -20   0   -0.38    0.64
  20   2   0    5.90    0.72
   2 -20   0    5.10    0.89
  20   2   0    4.44    0.75
 -20  -2   0    4.31    0.71
  20   1   0    0.22    0.42
 -20  -1   0    0.36    0.48
  20   1   0    0.38    0.54
   1 -20   0    0.02    0.66
 -20   0   0    8.66    0.88
  20   0   0    8.13    0.81
  20   0   0    8.71    0.95
   0 -20   0    7.28    0.99
 -20   1   0   -0.06    0.48
  20  -1   0   -0.01    0.43
  -1 -20   0    0.26    0.66
  20  -1   0    0.66    0.58
  20  -2   0    0.78    0.59
 -20   2   0    0.60    0.53
  20  -2   0    0.45    0.45
  -2 -20   0    0.75    0.72
  20  -3   0    0.53    0.60
  -3 -20   0    0.11    0.68
 -20   3   0    0.00    0.46
  20  -3   0   -0.14    0.43
  20  -4   0    0.89    0.63
  20  -4   0    2.08    0.57
 -20   4   0    1.40    0.58
  -4 -20   0    0.59    0.71
  20  -5   0   -0.12    0.45
  -5 -20   0    0.83    0.71
  20  -5   0    0.48    0.64
 -20   5   0    0.29    0.50
 -20   6   0    1.90    0.60
  20  -6   0    3.29    0.64
  -6 -20   0    1.59    0.80
  20  -6   0    2.09    0.71
  20  -7   0    0.42    0.52
  -7 -20   0    0.43    0.72
 -20   7   0   -0.31    0.48
  20  -7   0   -1.04    0.60
   8  20   0    7.07    0.79
 -20   8   0    8.56    0.97
  20  -8   0    8.04    0.90
  -8 -20   0    6.99    1.02
  20  -8   0    9.73    1.09
  -9 -20   0    1.29    0.82
  20  -9   0    0.23    0.57
   9  20   0    0.61    0.47
  20  -9   0   -1.36    0.64
 -20   9   0    0.04    0.52
  20 -10   0    2.32    0.68
  10  20   0    1.57    0.56
  20 -10   0    1.14    0.76
 -20  10   0    2.02    0.63
 -10 -20   0    1.56    0.83
 -11 -20   0    0.04    0.83
  20 -11   0   -1.24    0.70
 -20  11   0    0.01    0.58
  20 -11   0    0.53    0.62
  11  20   0   -0.12    0.47
  21   9   0   15.94    1.31
 -21  -9   0   18.25    1.52
   9 -21   0   17.58    1.47
   8 -21   0    2.08    0.86
 -21  -8   0   -0.25    0.82
  21   8   0    1.10    0.64
  21   7   0   18.49    1.40
   7 -21   0   19.12    1.52
   6 -21   0    0.42    0.75
  21   6   0    0.32    0.58
   5 -21   0   11.66    1.19
 -21  -5   0   10.12    1.04
  21   5   0   12.05    1.08
   4 -21   0    1.05    0.76
 -21  -4   0    0.17    0.58
  21   4   0    0.29    0.47
  21   4   0    0.21    0.57
   3 -21   0    3.97    0.90
 -21  -3   0    3.38    0.72
  21   3   0    4.09    0.79
  21   3   0    3.06    0.61
  21   2   0   -0.91    0.49
 -21  -2   0   -1.14    0.51
  21   2   0   -0.95    0.41
   2 -21   0    0.06    0.68
  21   1   0   -0.29    0.45
 -21  -1   0    0.44    0.56
   1 -21   0   -0.33    0.65
  21   1   0    1.14    0.63
   0 -21   0    0.54    0.74
  21   0   0   -0.55    0.56
  21   0   0   -0.18    0.45
 -21   0   0    0.16    0.55
  21  -1   0    8.47    0.85
  -1 -21   0    5.52    0.98
 -21   1   0    7.86    0.91
  21  -1   0    9.95    1.05
  -2 -21   0    1.14    0.74
  21  -2   0   -0.09    0.46
  21  -2   0    0.54    0.65
 -21   2   0    0.94    0.55
 -21   3   0   14.52    1.13
  -3 -21   0   12.16    1.22
  21  -3   0   12.46    1.17
  21  -3   0   13.21    1.04
  -4 -21   0    0.73    0.78
 -21   4   0    0.99    0.57
  21  -4   0    0.50    0.71
  21  -4   0    1.40    0.55
  21  -5   0   26.45    1.42
 -21   5   0   22.59    1.46
  21  -5   0   24.23    1.55
  -6 -21   0    1.75    0.83
  21  -6   0    0.67    0.51
 -21   6   0    0.17    0.57
  21  -6   0    0.86    0.70
  21  -7   0   21.55    1.29
 -21   7   0   17.14    1.30
  21  -7   0   21.78    1.57
 -21   8   0    0.61    0.59
  21  -8   0    0.86    0.75
  21  -8   0    0.22    0.56
  -8 -21   0    1.74    0.86
   8  21   0    0.43    0.50
 -21   9   0    4.57    0.82
  21  -9   0    4.83    0.80
   9  21   0    5.72    0.76
  21  -9   0    5.07    0.97
  -9 -21   0    3.74    0.93
  22   7   0   -0.49    0.57
   7 -22   0    0.18    0.78
  22   6   0   -0.51    0.58
   6 -22   0   -0.98    0.72
  22   5   0    0.48    0.66
   5 -22   0    0.52    0.78
 -22  -4   0   -0.06    0.63
  22   4   0    0.82    0.50
  22   4   0   -1.10    0.58
   4 -22   0    1.35    0.81
  22   3   0   -0.02    0.45
  22   3   0    0.44    0.64
 -22  -3   0    0.17    0.57
   3 -22   0    1.38    0.81
 -22  -2   0    1.39    0.68
   2 -22   0    1.81    0.82
  22   2   0    1.97    0.70
  22   2   0    1.36    0.54
 -22  -1   0    0.38    0.59
  22   1   0    0.74    0.64
   1 -22   0   -0.28    0.73
  22   1   0    0.16    0.49
  22   0   0    2.55    0.62
 -22   0   0    2.70    0.72
   0 -22   0    3.40    0.90
  22   0   0    2.59    0.73
 -22   1   0   -0.34    0.50
  -1 -22   0   -0.04    0.74
  22  -1   0   -0.52    0.47
  22  -1   0    0.11    0.63
  -2 -22   0   -0.11    0.77
  22  -2   0    0.75    0.54
  22  -2   0    0.94    0.72
 -22   2   0    0.01    0.55
  22  -3   0    0.19    0.65
  22  -3   0    0.01    0.50
 -22   3   0   -0.08    0.55
  -3 -22   0    0.64    0.76
  22  -4   0    0.68    0.50
 -22   4   0    0.22    0.56
  -4 -22   0   -1.03    0.74
  22  -4   0   -1.41    0.65
  -5 -22   0   -0.27    0.79
  22  -5   0    0.88    0.54
  22  -5   0   -0.60    0.69
 -22   5   0   -0.01    0.59
 -22   6   0    1.55    0.65
  -6 -22   0    1.20    0.86
  22  -6   0    2.37    0.82
  22  -6   0    1.62    0.61
  -7 -22   0   -0.17    0.84
 -22   7   0   -0.82    0.54
  22  -7   0    0.45    0.72
  22  -7   0    0.12    0.56
  23   2   0   -0.39    0.52
 -23  -2   0    0.52    0.66
  23   2   0   -0.06    0.67
  23   1   0    0.76    0.72
 -23  -1   0    0.92    0.65
   1 -23   0   -0.99    0.76
  23   1   0   -0.05    0.53
   0 -23   0   -0.98    0.75
  23   0   0   -0.85    0.49
 -23   0   0   -0.18    0.63
  23   0   0   -0.21    0.68
  23  -1   0    8.04    0.90
  -1 -23   0    6.13    1.08
  23  -1   0    7.12    1.03
 -23   1   0   10.01    1.10
 -23   2   0    0.72    0.64
  23  -2   0    1.06    0.58
  23  -2   0    1.20    0.78
   0   0  -1   -0.01    0.04
   0  -1  -1    5.62    0.25
   1   0  -1    6.18    0.24
   0  -1  -1    6.13    0.26
   1   0   1    6.56    0.27
  -1  -1  -1  358.23   10.96
   1  -1  -1  373.99   10.94
   1  -1  -1  352.20   10.94
  -1  -1  -1  402.69   10.93
   1   1  -1  394.19   10.91
   1  -1   1  317.85   10.93
   1   1   1  314.71   10.92
   1   1   1  348.95   10.94
   2   1  -1    0.18    0.07
  -2  -1  -1    0.23    0.10
   1  -2  -1    0.17    0.11
   1  -2  -1    0.23    0.09
  -1   2  -1    0.27    0.08
   1  -2  -1    0.21    0.08
   2   1   1    0.14    0.09
  -1   2   1    0.16    0.07
   1  -2   1    0.30    0.09
   2   1   1    0.14    0.08
   0  -2  -1   22.93    0.76
   2   0  -1   22.68    0.77
   0  -2  -1   24.04    0.79
  -2   0  -1   23.19    0.78
   2   0  -1   22.76    0.77
   0  -2  -1   23.65    0.78
   0   2   1   21.27    0.77
   2   0   1   22.25    0.77
   2   0   1   21.32    0.75
   0  -2   1   23.90    0.75
   2   0   1   23.56    0.77
  -2   1  -1    6.97    0.29
  -1  -2  -1    6.13    0.29
   2  -1  -1    6.90    0.30
   1   2  -1    6.43    0.24
  -1  -2  -1    6.65    0.31
   2  -1   1    6.98    0.26
   2  -1   1    6.88    0.29
  -1  -2   1    7.15    0.30
   1   2   1    6.29    0.28
   1   2   1    6.41    0.30
  -2  -2  -1   22.50    0.77
  -2  -2  -1   23.00    0.79
   2   2  -1   21.88    0.74
  -2   2  -1   22.26    0.75
   2  -2  -1   22.44    0.77
   2  -2   1   22.07    0.73
   2   2   1   22.18    0.78
   2  -2   1   21.51    0.77
   2   2   1   22.17    0.77
   2  -3  -1   14.78    0.54
  -3  -2  -1   13.29    0.56
  -3  -2  -1   14.16    0.56
   2  -3  -1   15.06    0.58
   3   2  -1   13.47    0.52
   2  -3   1   15.12    0.51
   2  -3   1   14.52    0.56
   3   2   1   14.29    0.55
   3   2   1   13.53    0.55
   1  -3  -1  192.90    5.94
   3   1  -1  189.50    5.91
  -3  -1  -1  195.28    5.94
   1  -3  -1  185.47    5.93
   1  -3  -1  192.04    5.91
  -1   3   1  189.50    5.94
   3   1   1  192.72    5.91
   1  -3   1  191.49    5.92
   3   1   1  191.97    5.93
   3   1   1  191.23    5.92
   1  -3   1  197.51    5.87
  -3   0  -1  597.94   18.04
   0  -3  -1  586.44   18.03
   0  -3  -1  607.75   18.05
   3   0  -1  581.66   18.03
   0  -3  -1  595.41   18.05
   3   0  -1  600.25   17.99
   3   0   1  584.94   18.04
   0  -3   1  586.50   18.02
   3   0   1  591.01   18.02
   3   0   1  572.94   18.02
   0   3   1  588.22   18.06
   3  -1  -1  981.12   30.04
  -1  -3  -1  975.51   30.03
  -1  -3  -1 1000.00   30.05
  -3   1  -1  992.19   30.03
   3  -1  -1  986.61   29.99
   3  -1   1  987.83   30.01
   3  -1   1  986.69   30.04
  -1  -3   1  982.39   30.01
   1   3   1  971.05   30.06
  -3   2  -1    4.02    0.24
   2   3  -1    3.01    0.19
   3  -2  -1    4.01    0.25
   3  -2  -1    3.64    0.22
  -2  -3  -1    3.31    0.25
  -2  -3  -1    3.22    0.27
  -2  -3   1    3.02    0.23
   3  -2   1    3.92    0.27
   3  -2   1    4.32    0.23
   2   3   1    3.45    0.28
   3   3  -1   84.39    2.77
   3  -3  -1   90.32    2.80
  -3  -3  -1   85.30    2.81
   3  -3  -1   90.24    2.82
  -3  -3  -1   88.75    2.82
   3  -3  -1   89.69    2.79
   3  -3   1   89.93    2.82
   3   3   1   85.11    2.83
   3   3   1   88.03    2.81
   3  -3   1   91.68    2.77
  -4  -3  -1    0.93    0.18
   3  -4  -1    0.68    0.19
  -4  -3  -1    1.27    0.20
   3  -4  -1    1.06    0.17
   4   3  -1    0.96    0.16
   3  -4  -1    0.90    0.18
   3  -4   1    1.07    0.15
   4   3   1    0.76    0.18
   3  -4   1    1.15    0.20
  -4  -3   1    1.00    0.11
   4   3   1    1.40    0.20
   4   2  -1   88.74    2.96
   2  -4  -1   96.29    2.98
  -4  -2  -1   92.41    2.99
   2  -4  -1   95.14    2.98
   2  -4  -1   96.79    3.01
   2  -4   1   94.60    2.99
   4   2   1   93.53    2.99
   4   2   1   92.58    2.98
   2  -4   1   95.56    2.94
   4   2   1   94.55    2.98
   1  -4  -1  213.42    6.67
   4   1  -1  219.69    6.61
   1  -4  -1  217.99    6.65
   4   1  -1  214.32    6.64
   1  -4  -1  212.82    6.65
  -4  -1  -1  217.23    6.66
   1  -4   1  215.87    6.60
   4   1   1  214.53    6.62
   1  -4   1  214.08    6.66
   4   1   1  215.04    6.66
   4   1   1  207.89    6.64
   0  -4  -1    7.05    0.38
   4   0  -1    6.40    0.33
   0  -4  -1    6.93    0.36
   4   0  -1    5.87    0.29
   0  -4  -1    7.11    0.36
   4   0   1    5.70    0.31
   4   0   1    5.85    0.35
   0  -4   1    7.88    0.36
   4   0   1    5.45    0.30
  -1  -4  -1  143.47    4.57
  -1  -4  -1  148.74    4.58
   4  -1  -1  147.30    4.57
   4  -1  -1  144.34    4.52
  -4   1  -1  142.92    4.56
  -1  -4   1  143.91    4.55
   4  -1   1  152.53    4.54
   4  -1   1  145.63    4.54
   4  -1   1  147.45    4.58
  -2  -4  -1    1.93    0.22
  -2  -4  -1    1.96    0.22
  -4   2  -1    2.25    0.20
   4  -2  -1    2.62    0.23
   2   4  -1    2.08    0.17
   4  -2  -1    2.35    0.20
   4  -2   1    2.29    0.24
   4  -2   1    2.12    0.19
   2   4   1    1.57    0.23
  -2  -4   1    2.07    0.20
   3   4  -1    0.86    0.14
   4  -3  -1    0.45    0.17
  -3  -4  -1    1.11    0.19
  -3  -4  -1    0.99    0.19
   4  -3  -1    1.16    0.17
   4  -3   1    1.00    0.20
  -3  -4   1    0.88    0.17
   3   4   1    1.20    0.20
   4  -3   1    1.24    0.16
   4  -4  -1   10.09    0.44
   4  -4  -1    8.06    0.45
   4   4  -1    8.66    0.41
   4  -4  -1    9.15    0.43
  -4  -4  -1    8.67    0.46
  -4  -4  -1    9.07    0.47
   4   4   1    9.32    0.44
   4   4   1    8.67    0.48
  -4  -4   1    8.27    0.42
   4  -4   1    9.36    0.42
   4  -4   1    9.77    0.48
  -4  -4   1    8.68    0.36
   5   4  -1    1.55    0.20
   4  -5  -1    1.31    0.22
   4  -5  -1    0.91    0.21
   4  -5  -1    1.35    0.20
  -5  -4  -1    1.60    0.24
  -5  -4  -1    1.43    0.24
   5   4   1    1.11    0.20
   4  -5   1    1.35    0.19
  -5  -4   1    1.19    0.15
   5   4   1    1.54    0.24
   5   4   1    1.70    0.23
   4  -5   1    1.49    0.24
   5   3  -1    1.78    0.21
   3  -5  -1    2.26    0.24
  -5  -3  -1    1.83    0.24
   3  -5  -1    1.37    0.23
   3  -5  -1    2.17    0.24
   5   3   1    1.70    0.22
   3  -5   1    1.65    0.19
  -5  -3   1    1.91    0.16
   5   3   1    1.77    0.21
   3  -5   1    1.93    0.24
   5   3   1    2.56    0.27
   5   2  -1  147.97    4.72
   2  -5  -1  148.28    4.76
  -5  -2  -1  154.19    4.75
   2  -5  -1  149.65    4.73
   2  -5  -1  146.82    4.73
   2  -5   1  153.12    4.69
   5   2   1  146.65    4.73
   5   2   1  156.02    4.75
   2  -5   1  145.58    4.75
  -5  -2   1  158.65    4.68
   5   2   1  154.39    4.73
   1  -5  -1   69.98    2.28
   5   1  -1   71.18    2.25
   1  -5  -1   67.84    2.25
   5   1  -1   69.85    2.21
   1  -5  -1   69.77    2.26
   1  -5   1   67.62    2.26
   1  -5   1   69.58    2.20
   5   1   1   69.82    2.26
   5   1   1   67.94    2.24
   5   1   1   71.21    2.22
   0  -5  -1  241.97    7.39
   5   0  -1  236.40    7.38
   0  -5  -1  239.11    7.39
   0  -5  -1  237.14    7.40
   5   0  -1  237.79    7.34
   5   0   1  237.64    7.37
   0  -5   1  238.10    7.39
   5   0   1  240.53    7.34
   5   0   1  237.16    7.39
   5  -1  -1    4.35    0.32
  -1  -5  -1    5.16    0.35
  -1  -5  -1    5.44    0.34
   5  -1  -1    4.83    0.29
  -5   1  -1    5.20    0.31
   5  -1   1    4.67    0.27
   5  -1   1    4.51    0.33
   5  -1   1    5.34    0.32
  -1  -5   1    4.90    0.33
   5  -2  -1    4.06    0.31
  -2  -5  -1    4.09    0.32
   5  -2  -1    3.76    0.27
  -2  -5  -1    3.51    0.29
  -5   2  -1    3.51    0.27
   5  -2   1    3.28    0.29
   5  -2   1    3.90    0.28
  -2  -5   1    3.57    0.28
  -3  -5  -1   14.36    0.62
   3   5  -1   13.99    0.56
   5  -3  -1   14.38    0.59
   5  -3  -1   15.85    0.64
  -3  -5  -1   13.97    0.62
   5  -3   1   15.27    0.64
   5  -3   1   15.07    0.59
  -3  -5   1   14.27    0.61
   4   5  -1   25.38    0.91
  -4  -5  -1   25.72    0.97
   5  -4  -1   27.12    0.98
   5  -4  -1   25.77    0.94
  -4  -5  -1   24.18    0.96
   5  -4   1   26.29    0.93
  -4  -5   1   25.12    0.95
  -4  -5   1   25.78    0.86
   5  -5  -1   58.85    2.00
  -5  -5  -1   59.32    2.00
   5   5  -1   57.28    1.94
   5  -5  -1   58.93    1.97
  -5  -5  -1   59.35    1.98
   5  -5   1   57.61    1.94
  -5  -5   1   60.83    1.89
   5  -5   1   57.24    2.00
  -5  -5   1   59.39    1.97
   6   5  -1    3.10    0.29
  -6  -5  -1    2.98    0.32
   5  -6  -1    2.85    0.31
  -6  -5  -1    3.24    0.34
   5  -6  -1    1.77    0.28
  -6  -5   1    3.26    0.32
   5  -6   1    2.37    0.27
  -6  -5   1    3.19    0.25
   6   5   1    3.17    0.32
   5  -6   1    2.61    0.33
   6   5   1    2.55    0.28
   4  -6  -1   60.03    2.01
  -6  -4  -1   59.22    1.99
   4  -6  -1   60.33    1.98
  -6  -4  -1   58.03    2.00
   4  -6  -1   58.14    1.96
   6   4  -1   58.24    1.96
   6   4   1   58.17    2.02
  -6  -4   1   58.65    1.90
   4  -6   1   59.12    1.95
   6   4   1   58.41    1.98
   4  -6   1   60.15    2.01
   6   4   1   57.97    1.98
   6   3  -1    6.73    0.39
  -6  -3  -1    7.36    0.42
   3  -6  -1    6.01    0.43
   3  -6  -1    6.36    0.41
   3  -6  -1    6.14    0.38
   3  -6   1    6.17    0.37
  -6  -3   1    7.11    0.34
   3  -6   1    5.71    0.42
   6   3   1    6.64    0.41
   6   3   1    7.40    0.40
   6   3   1    6.40    0.39
   6   2  -1    2.22    0.21
  -6  -2  -1    1.65    0.23
   6   2  -1    2.13    0.24
   2  -6  -1    1.67    0.22
   2  -6  -1    1.59    0.25
   2  -6  -1    1.57    0.24
   2  -6   1    2.02    0.22
   6   2   1    1.93    0.24
   6   2   1    2.23    0.26
   6   2   1    1.99    0.22
  -6  -2   1    1.84    0.19
   2  -6   1    2.00    0.27
   6   1  -1    9.19    0.40
   1  -6  -1    8.26    0.47
  -6  -1  -1    8.14    0.44
   1  -6  -1    8.55    0.46
   1  -6  -1    8.39    0.43
   6   1  -1    8.87    0.44
   6   1   1    8.56    0.39
   6   1   1    8.64    0.45
   1  -6   1    8.73    0.41
   6   1   1    8.74    0.44
   1  -6   1    8.28    0.46
   0  -6  -1   67.41    2.19
   0  -6  -1   65.25    2.20
   6   0  -1   66.56    2.13
   0  -6  -1   68.46    2.18
  -6   0  -1   66.45    2.18
   6   0  -1   64.62    2.17
   6   0   1   63.23    2.16
   6   0   1   67.37    2.19
   0  -6   1   65.90    2.18
   6   0   1   67.00    2.11
   6  -1  -1   33.74    1.13
  -1  -6  -1   31.80    1.17
   6  -1  -1   32.93    1.17
  -6   1  -1   34.84    1.17
  -1  -6  -1   31.78    1.16
   6  -1   1   33.22    1.10
  -1  -6   1   31.35    1.17
   6  -1   1   33.65    1.18
   6  -1   1   32.49    1.15
  -1  -6   1   31.71    1.06
   6  -2  -1   12.70    0.59
  -2  -6  -1   13.38    0.58
  -2  -6  -1   13.61    0.60
   6  -2  -1   12.56    0.55
  -6   2  -1   13.16    0.57
   6  -2   1   12.30    0.60
  -2  -6   1   12.74    0.58
   6  -2   1   11.29    0.55
  -2  -6   1   14.14    0.47
   6  -3  -1    4.01    0.34
   6  -3  -1    3.72    0.30
  -3  -6  -1    3.79    0.32
  -3  -6  -1    3.82    0.33
  -6   3  -1    3.75    0.30
   6  -3   1    3.76    0.30
  -3  -6   1    3.75    0.32
  -3  -6   1    3.57    0.23
   6  -3   1    3.31    0.33
  -4  -6  -1   77.36    2.62
   6  -4  -1   79.62    2.62
   6  -4  -1   81.05    2.58
   4   6  -1   77.41    2.55
  -4  -6  -1   78.48    2.60
   6  -4   1   79.26    2.62
  -4  -6   1   77.10    2.59
  -4  -6   1   82.43    2.49
   6  -4   1   79.36    2.57
   6  -5  -1    1.92    0.29
   6  -5  -1    2.31    0.28
  -5  -6  -1    2.45    0.29
   5   6  -1    1.95    0.23
  -5  -6  -1    1.74    0.28
  -5  -6   1    1.56    0.26
   6  -5   1    2.16    0.27
  -5  -6   1    2.15    0.20
   6  -5   1    1.35    0.27
   6  -6  -1   74.68    2.53
  -6  -6  -1   74.87    2.53
  -6  -6  -1   76.64    2.51
   6  -6  -1   75.80    2.50
   6   6  -1   72.38    2.46
  -6  -6   1   72.83    2.49
   6  -6   1   77.65    2.48
  -6  -6   1   74.21    2.40
   6  -6   1   75.04    2.53
   6  -7  -1   30.42    1.21
   6  -7  -1   29.02    1.17
  -7  -6  -1   32.06    1.21
  -7  -6  -1   31.27    1.18
   7   6  -1   29.26    1.13
   7   6   1   29.69    1.17
  -7  -6   1   30.26    1.17
   6  -7   1   28.84    1.20
   6  -7   1   31.07    1.15
  -7  -6   1   29.51    1.07
  -7  -5  -1    1.91    0.30
  -7  -5  -1    2.81    0.34
   5  -7  -1    1.89    0.29
   7   5  -1    2.72    0.30
   5  -7  -1    2.10    0.32
   7   5   1    2.48    0.30
  -7  -5   1    2.21    0.25
   7   5   1    2.20    0.30
   5  -7   1    2.83    0.36
   5  -7   1    2.28    0.28
   4  -7  -1    6.32    0.41
   4  -7  -1    5.64    0.46
  -7  -4  -1    6.74    0.44
   4  -7  -1    6.79    0.45
   7   4  -1    7.02    0.42
   4  -7   1    6.32    0.47
   7   4   1    6.30    0.42
   4  -7   1    5.97    0.41
  -7  -4   1    6.44    0.36
   7   4   1    6.84    0.43
   3  -7  -1    6.58    0.43
   7   3  -1    6.87    0.41
   3  -7  -1    6.81    0.45
   3  -7  -1    7.05    0.48
  -7  -3  -1    7.21    0.44
   7   3   1    6.81    0.43
   7   3   1    7.14    0.43
   3  -7   1    6.27    0.47
   3  -7   1    6.41    0.42
   7   3   1    6.75    0.43
  -7  -3   1    7.14    0.36
  -7  -2  -1   85.59    2.73
   7   2  -1   81.18    2.71
   2  -7  -1   81.90    2.74
   2  -7  -1   83.43    2.71
   7   2  -1   83.23    2.67
   2  -7  -1   83.33    2.73
   7   2   1   80.09    2.71
   2  -7   1   85.15    2.68
   2  -7   1   82.92    2.75
   7   2   1   84.61    2.70
  -7  -2   1   83.10    2.66
   7   2   1   82.90    2.73
   1  -7  -1    1.38    0.26
   7   1  -1    1.50    0.24
   1  -7  -1    1.49    0.26
  -7  -1  -1    0.84    0.22
   1  -7  -1    1.43    0.23
   7   1  -1    1.33    0.20
   1  -7   1    1.24    0.21
   1  -7   1    0.83    0.24
   7   1   1    1.14    0.18
   7   1   1    1.24    0.21
   7   1   1    1.18    0.22
   7   0  -1  112.82    3.59
   7   0  -1  112.51    3.64
   0  -7  -1  114.70    3.66
  -7   0  -1  115.55    3.64
   0  -7  -1  114.77    3.63
   0  -7  -1  112.68    3.65
   0  -7   1  115.48    3.66
   7   0   1  109.51    3.62
   7   0   1  115.01    3.55
   7   0   1  112.42    3.64
   7  -1  -1    0.51    0.17
   7  -1  -1    0.47    0.18
  -1  -7  -1    0.65    0.20
  -7   1  -1    0.70    0.19
  -1  -7  -1    0.90    0.23
   7  -1   1    0.71    0.14
   7  -1   1    0.82    0.23
  -1  -7   1    0.46    0.21
  -1  -7   1    0.75    0.13
   7  -1   1    1.04    0.20
  -7   2  -1   91.72    2.87
   7  -2  -1   88.14    2.83
   7  -2  -1   88.11    2.88
  -2  -7  -1   84.48    2.88
  -2  -7  -1   88.37    2.86
   7  -2   1   86.19    2.88
   7  -2   1   87.54    2.78
  -2  -7   1   87.47    2.75
   7  -2   1   88.91    2.85
  -2  -7   1   87.88    2.87
  -7   3  -1    6.45    0.40
  -3  -7  -1    6.55    0.43
  -3  -7  -1    6.86    0.45
   7  -3  -1    6.71    0.43
   7  -3  -1    5.91    0.39
  -3  -7   1    6.04    0.30
  -3  -7   1    5.65    0.43
   7  -3   1    5.97    0.40
   7  -3   1    5.51    0.42
   7  -4  -1   36.21    1.34
  -4  -7  -1   40.35    1.37
  -4  -7  -1   37.41    1.39
   7  -4  -1   38.07    1.39
   4   7  -1   37.77    1.32
  -4  -7   1   38.42    1.25
   7  -4   1   35.92    1.34
  -4  -7   1   38.11    1.38
   7  -4   1   38.17    1.39
   7  -5  -1    2.74    0.31
  -5  -7  -1    2.22    0.32
   7  -5  -1    1.60    0.29
   5   7  -1    2.31    0.27
  -5  -7  -1    2.18    0.31
   7  -5   1    2.36    0.32
  -5  -7   1    1.70    0.29
   7  -5   1    2.45    0.28
  -5  -7   1    1.97    0.21
   7  -6  -1    0.14    0.21
   7  -6  -1    0.35    0.25
   6   7  -1    0.02    0.15
  -6  -7  -1   -0.11    0.22
  -6  -7  -1    0.06    0.24
  -6  -7   1   -0.05    0.22
  -6  -7   1    0.31    0.16
   7  -6   1    0.19    0.24
   7  -6   1    0.22    0.21
  -7  -7  -1    3.86    0.41
  -7  -7  -1    4.95    0.47
   7  -7  -1    5.49    0.49
   7   7  -1    4.46    0.38
   7  -7  -1    4.64    0.42
   7  -7   1    4.12    0.43
  -7  -7   1    4.49    0.34
   7  -7   1    4.45    0.39
   7   7   1    4.57    0.41
  -7  -7   1    3.12    0.38
   8   7  -1    8.13    0.51
  -8  -7  -1    7.28    0.55
   7  -8  -1    8.53    0.59
   7  -8  -1    7.53    0.55
  -8  -7  -1    7.54    0.59
   8   7   1    6.43    0.53
  -8  -7   1    7.37    0.44
   7  -8   1    7.49    0.53
  -8  -7   1    7.40    0.57
   7  -8   1    7.93    0.58
  -8  -6  -1   95.33    3.17
   8   6  -1   95.63    3.11
  -8  -6  -1   97.36    3.14
   6  -8  -1   92.51    3.16
   6  -8  -1   92.61    3.14
   8   6   1   92.61    3.13
  -8  -6   1   94.34    3.04
  -8  -6   1   98.20    3.15
   6  -8   1   93.39    3.10
   6  -8   1   92.26    3.17
  -8  -5  -1    1.14    0.27
   8   5  -1    1.29    0.25
   5  -8  -1    1.10    0.29
   5  -8  -1    1.33    0.29
  -8  -5  -1    1.35    0.30
  -8  -5   1    1.62    0.24
   8   5   1    1.12    0.27
   5  -8   1    0.67    0.28
   5  -8   1    1.05    0.25
   8   5   1    0.95    0.23
   8   4  -1   32.41    1.26
   4  -8  -1   35.42    1.31
  -8  -4  -1   35.62    1.31
   4  -8  -1   36.25    1.35
   4  -8  -1   34.39    1.27
  -8  -4   1   34.13    1.22
   8   4   1   33.65    1.29
   8   4   1   34.66    1.29
   4  -8   1   34.67    1.33
   4  -8   1   34.65    1.26
   3  -8  -1   34.02    1.28
   3  -8  -1   35.10    1.35
   3  -8  -1   36.51    1.33
   8   3  -1   35.59    1.29
  -8  -3  -1   34.49    1.31
   8   3   1   37.20    1.31
  -8  -3   1   35.37    1.23
   8   3   1   35.32    1.31
   3  -8   1   34.65    1.27
   8   3   1   34.30    1.29
   3  -8   1   35.38    1.34
  -8  -2  -1   21.78    0.91
   2  -8  -1   22.82    0.89
   2  -8  -1   22.75    0.95
   2  -8  -1   22.42    0.92
   8   2  -1   21.12    0.90
   8   2  -1   22.30    0.85
   2  -8   1   24.15    0.95
   8   2   1   22.36    0.87
   2  -8   1   23.57    0.88
   8   2   1   21.92    0.91
  -8  -2   1   21.54    0.84
   8   2   1   20.71    0.89
   1  -8  -1    0.10    0.21
   8   1  -1    0.13    0.15
  -8  -1  -1    0.27    0.19
   1  -8  -1    0.22    0.19
   1  -8  -1    0.14    0.24
   8   1  -1    0.21    0.17
   8   1   1    0.13    0.16
   1  -8   1    0.13    0.19
   8   1   1   -0.01    0.19
   1  -8   1    0.50    0.24
   8   1   1    0.01    0.14
   0  -8  -1   28.72    1.14
  -8   0  -1   29.36    1.11
   0  -8  -1   26.95    1.12
   0  -8  -1   28.56    1.09
   8   0  -1   30.11    1.07
   8   0  -1   30.41    1.12
   8   0   1   30.85    1.02
   8   0   1   30.06    1.13
   0  -8   1   27.99    1.13
   8   0   1   30.41    1.11
   8  -1  -1   13.03    0.63
  -1  -8  -1   12.91    0.65
  -8   1  -1   12.98    0.62
   8  -1  -1   13.16    0.59
  -1  -8  -1   12.92    0.62
   8  -1   1   13.31    0.52
  -1  -8   1   12.46    0.50
   8  -1   1   13.29    0.64
  -1  -8   1   12.90    0.65
   8  -1   1   12.60    0.61
   8  -2  -1   21.59    0.89
  -8   2  -1   21.64    0.87
  -2  -8  -1   19.14    0.89
   8  -2  -1   21.14    0.84
  -2  -8  -1   21.90    0.86
   8  -2   1   20.69    0.89
   8  -2   1   21.32    0.77
   8  -2   1   22.24    0.86
  -2  -8   1   21.18    0.90
  -2  -8   1   21.15    0.75
  -3  -8  -1   22.60    0.92
   8  -3  -1   21.77    0.94
  -3  -8  -1   23.41    0.96
  -8   3  -1   23.21    0.92
   8  -3  -1   21.27    0.89
   8  -3   1   22.80    0.95
  -3  -8   1   23.15    0.95
  -3  -8   1   22.98    0.80
   8  -3   1   23.81    0.92
  -8   4  -1   34.22    1.27
  -4  -8  -1   35.13    1.28
   8  -4  -1   33.60    1.31
   8  -4  -1   34.20    1.26
  -4  -8  -1   34.87    1.31
  -4  -8   1   33.71    1.30
  -4  -8   1   34.70    1.15
   8  -4   1   33.30    1.30
   8  -4   1   34.42    1.27
   5   8  -1    0.26    0.17
   8  -5  -1    0.09    0.24
  -5  -8  -1    0.28    0.25
   8  -5  -1    0.35    0.22
  -5  -8  -1    0.05    0.23
  -5  -8   1   -0.24    0.22
   8  -5   1   -0.01    0.20
  -5  -8   1   -0.13    0.15
   8  -5   1    0.31    0.24
  -6  -8  -1   68.93    2.24
   8  -6  -1   64.62    2.22
   6   8  -1   64.49    2.19
  -6  -8  -1   64.44    2.27
   8  -6  -1   63.63    2.26
  -6  -8   1   65.96    2.11
   8  -6   1   61.27    2.26
  -6  -8   1   64.86    2.24
   8  -6   1   63.44    2.21
  -7  -8  -1    1.51    0.32
  -7  -8  -1    1.37    0.33
   7   8  -1    1.34    0.25
   8  -7  -1    2.12    0.35
   8  -7  -1    1.38    0.33
   8  -7   1    1.42    0.30
  -7  -8   1    1.20    0.31
   8  -7   1    1.91    0.35
   7   8   1    1.19    0.28
  -7  -8   1    1.44    0.23
   8  -8  -1   44.03    1.61
  -8  -8  -1   41.52    1.64
   8   8  -1   41.77    1.56
   8  -8  -1   42.69    1.64
  -8  -8  -1   41.49    1.59
   8   8   1   42.81    1.60
  -8  -8   1   41.14    1.48
  -8  -8   1   43.89    1.63
   8  -8   1   43.79    1.59
   8  -8   1   43.77    1.65
  -9  -8  -1    2.36    0.38
  -9  -8  -1    1.41    0.38
   8  -9  -1    1.48    0.36
   8  -9  -1    1.41    0.36
   9   8  -1    1.76    0.32
   8  -9   1    2.43    0.37
  -9  -8   1    1.96    0.38
   9   8   1    1.25    0.30
   8  -9   1    2.03    0.41
  -9  -8   1    2.13    0.29
   9   7  -1    0.25    0.22
   7  -9  -1    0.03    0.26
   7  -9  -1    0.15    0.29
  -9  -7  -1    0.14    0.27
  -9  -7  -1    0.34    0.30
   9   7   1   -0.01    0.22
  -9  -7   1    0.01    0.27
  -9  -7   1    0.03    0.21
   7  -9   1   -0.12    0.29
   7  -9   1    0.39    0.27
   6  -9  -1   28.28    1.23
  -9  -6  -1   29.63    1.23
   6  -9  -1   29.75    1.21
  -9  -6  -1   29.89    1.21
   9   6  -1   29.18    1.16
   6  -9   1   29.48    1.17
   9   6   1   29.17    1.19
   6  -9   1   29.50    1.24
  -9  -6   1   30.12    1.11
   5  -9  -1    0.58    0.29
   9   5  -1    1.01    0.24
  -9  -5  -1    1.07    0.28
   5  -9  -1    1.13    0.33
   5  -9   1    1.05    0.27
  -9  -5   1    0.88    0.23
   9   5   1    1.48    0.28
   5  -9   1    0.80    0.31
   9   5   1    1.27    0.27
   4  -9  -1   53.43    1.91
   4  -9  -1   53.30    1.93
  -9  -4  -1   52.92    1.90
   9   4  -1   52.68    1.88
   4  -9  -1   53.27    1.87
   9   4   1   53.93    1.90
   4  -9   1   53.77    1.86
   4  -9   1   52.62    1.93
  -9  -4   1   55.53    1.82
   9   4   1   54.01    1.89
   9   3  -1    2.90    0.34
   9   3  -1    2.42    0.28
   3  -9  -1    2.92    0.33
   3  -9  -1    2.96    0.37
  -9  -3  -1    2.43    0.34
   3  -9  -1    2.82    0.37
   9   3   1    2.02    0.31
   3  -9   1    3.14    0.39
   3  -9   1    2.96    0.33
  -9  -3   1    1.99    0.26
   9   3   1    2.61    0.34
   9   3   1    3.48    0.42
   9   2  -1  124.96    4.03
   2  -9  -1  123.20    4.07
   9   2  -1  120.73    3.98
   2  -9  -1  127.27    4.01
  -9  -2  -1  125.65    4.04
   2  -9  -1  124.13    4.05
   9   2   1  125.36    4.04
   2  -9   1  126.69    4.00
   9   2   1  121.74    4.03
   9   2   1  126.53    4.00
  -9  -2   1  125.39    3.98
   2  -9   1  125.82    4.07
   9   1  -1   -0.05    0.17
   1  -9  -1    0.09    0.28
   1  -9  -1    0.32    0.26
   9   1  -1    0.30    0.21
   1  -9  -1    0.52    0.23
  -9  -1  -1    0.53    0.23
   1  -9   1    0.33    0.26
  -9  -1   1    0.35    0.19
   9   1   1    0.32    0.17
   9   1   1    0.32    0.24
   9   1   1    0.16    0.19
   1  -9   1    0.30    0.22
   9   0  -1  131.74    4.20
   0  -9  -1  133.22    4.27
  -9   0  -1  130.15    4.24
   9   0  -1  130.19    4.25
   0  -9  -1  138.28    4.23
   0  -9  -1  132.68    4.27
   9   0   1  131.97    4.13
   0  -9   1  130.70    4.27
   9   0   1  127.68    4.23
   9   0   1  131.01    4.26
  -9   1  -1   13.95    0.66
   9  -1  -1   12.87    0.67
  -1  -9  -1   12.80    0.68
  -1  -9  -1   13.49    0.65
   9  -1  -1   11.89    0.61
   9  -1   1   12.83    0.53
  -1  -9   1   14.23    0.71
  -1  -9   1   14.29    0.54
   9  -1   1   13.04    0.65
   9  -1   1   12.68    0.67
  -9   2  -1  110.71    3.66
   9  -2  -1  113.69    3.69
  -2  -9  -1  111.39    3.69
   9  -2  -1  106.86    3.62
  -2  -9  -1  115.99    3.64
   9  -2   1  113.76    3.54
  -2  -9   1  115.67    3.53
  -2  -9   1  113.95    3.70
   9  -2   1  110.62    3.66
   9  -2   1  113.44    3.69
  -9   3  -1    0.25    0.19
  -3  -9  -1    0.01    0.22
   9  -3  -1    0.25    0.20
   9  -3  -1    0.27    0.24
  -3  -9  -1    0.40    0.25
   9  -3   1    0.28    0.24
  -3  -9   1   -0.15    0.24
  -3  -9   1    0.27    0.15
   9  -3   1    0.30    0.21
   9  -3   1    0.00    0.14
   9  -4  -1   82.19    2.76
  -9   4  -1   83.20    2.78
   9  -4  -1   82.04    2.81
  -4  -9  -1   85.72    2.77
  -4  -9  -1   82.13    2.81
   9  -4   1   83.05    2.82
  -4  -9   1   84.01    2.64
  -4  -9   1   83.85    2.81
   9  -4   1   81.25    2.77
   9  -5  -1    7.99    0.59
   9  -5  -1    7.52    0.51
   5   9  -1    7.55    0.46
  -5  -9  -1    8.35    0.59
  -5  -9  -1    8.01    0.53
   9  -5   1    7.13    0.56
  -5  -9   1    7.84    0.56
   9  -5   1    7.47    0.52
  -5  -9   1    7.33    0.40
   9  -6  -1    4.75    0.46
  -6  -9  -1    5.40    0.51
  -6  -9  -1    4.21    0.43
   6   9  -1    5.84    0.43
   9  -6  -1    5.14    0.50
  -6  -9   1    5.83    0.36
   9  -6   1    4.95    0.45
   9  -6   1    4.80    0.48
  -6  -9   1    5.52    0.50
  -7  -9  -1   18.50    0.87
  -7  -9  -1   18.70    0.95
   9  -7  -1   18.04    0.94
   9  -7  -1   19.28    0.89
   7   9  -1   19.02    0.83
   9  -7   1   18.76    0.94
  -7  -9   1   18.86    0.92
   9  -7   1   19.76    0.88
  -7  -9   1   18.67    0.76
   9  -8  -1   28.71    1.20
  -8  -9  -1   27.44    1.23
   9  -8  -1   29.07    1.23
   8   9  -1   27.51    1.14
  -8  -9  -1   28.41    1.18
   9  -8   1   28.75    1.18
   9  -8   1   29.83    1.25
  -8  -9   1   28.04    1.22
  -8  -9   1   27.78    1.06
   8   9   1   27.00    1.17
   9  -9  -1   36.31    1.49
   9  -9  -1   35.56    1.44
  -9  -9  -1   34.60    1.49
   9   9  -1   35.31    1.40
  -9  -9  -1   36.57    1.44
  -9  -9   1   36.70    1.32
   9  -9   1   35.93    1.50
   9   9   1   37.59    1.45
   9  -9   1   35.02    1.42
  -9  -9   1   35.01    1.47
   9 -10  -1   23.83    1.14
 -10  -9  -1   24.14    1.10
   9 -10  -1   22.93    1.15
 -10  -9  -1   23.45    1.18
  10   9  -1   24.02    1.06
  10   9   1   24.38    1.10
 -10  -9   1   24.60    1.00
 -10  -9   1   23.66    1.16
   9 -10   1   24.22    1.12
   9 -10   1   25.48    1.19
   8 -10  -1   24.68    1.13
  10   8  -1   23.62    1.06
 -10  -8  -1   23.97    1.15
 -10  -8  -1   25.02    1.10
   8 -10  -1   24.29    1.14
   8 -10   1   25.34    1.18
 -10  -8   1   24.19    0.99
   8 -10   1   24.38    1.09
  10   8   1   23.99    1.08
 -10  -8   1   23.19    1.12
 -10  -7  -1    6.95    0.58
   7 -10  -1    7.32    0.60
 -10  -7  -1    6.88    0.63
  10   7  -1    6.30    0.53
   7 -10  -1    7.26    0.59
  10   7   1    6.27    0.53
 -10  -7   1    7.25    0.49
 -10  -7   1    6.26    0.58
   7 -10   1    7.89    0.65
   7 -10   1    6.18    0.53
  10   6  -1   35.91    1.40
   6 -10  -1   36.88    1.47
 -10  -6  -1   36.53    1.47
   6 -10  -1   38.84    1.47
 -10  -6  -1   34.78    1.42
   6 -10   1   37.40    1.48
  10   6   1   36.25    1.43
   6 -10   1   37.29    1.41
 -10  -6   1   35.56    1.34
  10   6   1   36.66    1.42
   5 -10  -1    4.91    0.50
  10   5  -1    4.90    0.44
   5 -10  -1    4.53    0.47
 -10  -5  -1    4.68    0.46
  10   5   1    5.15    0.46
   5 -10   1    4.77    0.44
   5 -10   1    4.87    0.51
 -10  -5   1    5.11    0.42
  10   5   1    5.07    0.49
   4 -10  -1    4.43    0.40
  10   4  -1    2.67    0.36
   4 -10  -1    3.50    0.44
 -10  -4  -1    3.56    0.41
   4 -10  -1    3.60    0.42
  10   4   1    3.41    0.40
   4 -10   1    3.38    0.39
  10   4   1    3.38    0.39
   4 -10   1    4.14    0.47
 -10  -4   1    3.30    0.34
  10   3  -1    0.45    0.20
   3 -10  -1    0.21    0.22
  10   3  -1   -0.12    0.20
   3 -10  -1    0.33    0.28
 -10  -3  -1   -0.06    0.22
   3 -10  -1    0.44    0.29
  10   3   1    0.26    0.22
 -10  -3   1    0.34    0.20
   3 -10   1    0.28    0.25
  10   3   1   -0.13    0.21
   3 -10   1    0.61    0.31
  10   2  -1    4.62    0.43
  10   2  -1    4.83    0.40
   2 -10  -1    4.43    0.45
   2 -10  -1    4.76    0.47
   2 -10  -1    4.94    0.42
 -10  -2  -1    3.88    0.43
 -10  -2   1    4.75    0.39
  10   2   1    4.84    0.40
   2 -10   1    5.73    0.44
  10   2   1    4.83    0.44
   2 -10   1    5.24    0.50
  10   2   1    4.55    0.43
  10   1  -1    0.81    0.23
  10   1  -1    0.90    0.24
   1 -10  -1    1.13    0.27
   1 -10  -1    1.01    0.31
   1 -10  -1    1.19    0.33
 -10  -1  -1    0.87    0.26
   1 -10   1    0.85    0.31
  10   1   1    0.96    0.27
  10   1   1    0.98    0.21
  10   1   1    1.07    0.27
   1 -10   1    0.76    0.25
 -10  -1   1    1.22    0.24
  10   0  -1    1.41    0.25
 -10   0  -1    1.91    0.31
   0 -10  -1    1.87    0.36
  10   0  -1    1.40    0.28
   0 -10  -1    1.50    0.33
   0 -10  -1    2.39    0.32
  10   0   1    1.36    0.27
  10   0   1    2.03    0.23
  10   0   1    2.09    0.33
   0 -10   1    2.18    0.36
 -10   1  -1   -0.11    0.20
  -1 -10  -1    0.06    0.22
  10  -1  -1    0.23    0.20
  -1 -10  -1    0.19    0.27
  10  -1  -1    0.21    0.23
  -1 -10   1   -0.41    0.24
  10  -1   1    0.12    0.13
  -1 -10   1   -0.12    0.15
  10  -1   1    0.15    0.23
  10  -1   1   -0.06    0.20
 -10   2  -1   22.93    0.96
  10  -2  -1   21.76    0.97
  -2 -10  -1   21.72    0.93
  10  -2  -1   23.79    0.93
  -2 -10  -1   22.31    1.01
  10  -2   1   22.35    0.95
  -2 -10   1   21.41    0.99
  10  -2   1   22.35    0.98
  10  -2   1   22.99    0.81
  -2 -10   1   21.67    0.82
  -3 -10  -1    4.71    0.42
  10  -3  -1    5.63    0.44
  -3 -10  -1    5.45    0.51
  10  -3  -1    5.90    0.50
 -10   3  -1    5.08    0.47
  -3 -10   1    5.37    0.50
  10  -3   1    5.20    0.33
  10  -3   1    5.14    0.44
  10  -3   1    6.91    0.55
  -3 -10   1    5.15    0.33
  10  -4  -1   87.68    2.99
 -10   4  -1   90.02    2.97
  -4 -10  -1   89.63    3.01
  -4 -10  -1   88.28    2.94
  10  -4  -1   89.36    2.94
  -4 -10   1   87.40    2.99
  -4 -10   1   87.90    2.81
  10  -4   1   87.48    2.95
  10  -4   1   85.10    2.81
  10  -4   1   88.50    2.99
  10  -5  -1    8.09    0.55
  -5 -10  -1    7.19    0.55
  10  -5  -1    8.35    0.60
 -10   5  -1    7.05    0.52
  -5 -10  -1    7.51    0.61
  -5 -10   1    7.26    0.40
  -5 -10   1    7.04    0.57
  10  -5   1    7.55    0.54
  10  -5   1    7.21    0.58
  -6 -10  -1   28.20    1.14
   6  10  -1   26.71    1.09
  -6 -10  -1   27.57    1.20
  10  -6  -1   26.98    1.20
  10  -6  -1   27.27    1.15
  10  -6   1   28.50    1.21
  10  -6   1   27.09    1.16
  -6 -10   1   27.83    1.01
  -6 -10   1   29.62    1.22
  -7 -10  -1   20.80    1.05
  10  -7  -1   22.03    0.99
   7  10  -1   20.74    0.93
  -7 -10  -1   18.96    0.95
  10  -7  -1   22.32    1.03
  10  -7   1   25.00    1.07
  -7 -10   1   19.79    0.83
  10  -7   1   21.86    0.99
  -7 -10   1   20.46    1.01
   8  10  -1   35.34    1.37
  10  -8  -1   37.68    1.43
  -8 -10  -1   34.83    1.48
  -8 -10  -1   33.61    1.39
  10  -8  -1   35.92    1.47
   8  10   1   34.35    1.41
  -8 -10   1   36.16    1.29
  10  -8   1   36.77    1.43
  -8 -10   1   32.61    1.44
  10  -8   1   34.72    1.47
  10  -9  -1    9.62    0.77
  -9 -10  -1   10.37    0.79
   9  10  -1   11.03    0.67
  -9 -10  -1   10.25    0.70
  10  -9  -1   10.26    0.73
  -9 -10   1    9.87    0.76
   9  10   1   10.33    0.69
  -9 -10   1    9.57    0.60
  10  -9   1   11.56    0.79
  10  -9   1    9.99    0.72
  10 -10  -1   55.42    2.12
  10 -10  -1   56.56    2.08
 -10 -10  -1   53.96    2.11
  10  10  -1   55.67    2.01
 -10 -10  -1   55.70    2.04
  10  10   1   54.52    2.05
  10 -10   1   53.05    2.04
  10 -10   1   51.76    2.08
 -10 -10   1   54.81    2.09
 -11 -10  -1   10.91    0.85
  10 -11  -1    8.49    0.74
  10 -11  -1    8.37    0.75
  11  10  -1    7.58    0.65
 -11 -10  -1    8.64    0.71
  10 -11   1    9.60    0.79
 -11 -10   1    8.53    0.77
  10 -11   1    8.76    0.71
  11  10   1    7.87    0.68
   9 -11  -1    1.62    0.43
 -11  -9  -1    1.41    0.41
 -11  -9  -1    0.43    0.44
  11   9  -1    0.97    0.34
   9 -11  -1    0.71    0.42
  11   9   1    0.91    0.33
   9 -11   1    0.52    0.37
   9 -11   1    0.48    0.41
 -11  -9   1    0.60    0.30
 -11  -9   1    0.94    0.41
 -11  -8  -1    1.66    0.40
   8 -11  -1    1.08    0.40
   8 -11  -1    1.21    0.42
  11   8  -1    1.57    0.35
 -11  -8  -1    0.85    0.41
 -11  -8   1    1.01    0.40
  11   8   1    1.41    0.36
   8 -11   1    1.71    0.46
 -11  -8   1    1.83    0.33
   8 -11   1    1.25    0.37
 -11  -7  -1    0.54    0.36
   7 -11  -1   -0.24    0.32
 -11  -7  -1    0.07    0.29
   7 -11  -1   -0.48    0.31
  11   7  -1    0.29    0.26
   7 -11   1    0.20    0.36
 -11  -7   1    0.18    0.25
  11   7   1    0.01    0.25
 -11  -7   1    0.24    0.33
   7 -11   1    0.15    0.31
 -11  -6  -1    2.83    0.45
   6 -11  -1    2.19    0.44
  11   6  -1    2.77    0.38
 -11  -6  -1    3.41    0.45
   6 -11  -1    2.32    0.42
  11   6   1    3.09    0.41
 -11  -6   1    2.86    0.36
   6 -11   1    2.59    0.40
   6 -11   1    3.10    0.48
  11   6   1    3.12    0.44
   5 -11  -1   22.03    1.08
  11   5  -1   22.03    0.99
 -11  -5  -1   22.37    1.03
   5 -11  -1   22.79    1.05
   5 -11   1   21.16    0.99
   5 -11   1   21.95    1.08
 -11  -5   1   22.36    0.95
  11   5   1   22.27    1.01
  11   5   1   23.56    1.01
  11   4  -1   10.66    0.66
   4 -11  -1   11.45    0.75
 -11  -4  -1   11.38    0.69
   4 -11  -1   10.94    0.62
   4 -11  -1   10.97    0.72
 -11  -4   1    9.83    0.58
   4 -11   1   11.09    0.65
   4 -11   1    9.46    0.72
  11   4   1    9.19    0.63
  11   4   1   11.66    0.67
   3 -11  -1   42.21    1.57
 -11  -3  -1   43.70    1.62
   3 -11  -1   43.85    1.66
   3 -11  -1   42.95    1.66
  11   3  -1   41.43    1.61
  11   3  -1   41.70    1.54
   3 -11   1   42.98    1.59
  11   3   1   42.58    1.62
   3 -11   1   44.12    1.67
  11   3   1   43.01    1.61
 -11  -3   1   44.30    1.56
   2 -11  -1   23.09    1.07
  11   2  -1   23.39    0.96
  11   2  -1   24.23    1.03
 -11  -2  -1   25.33    1.04
   2 -11  -1   23.25    1.08
   2 -11  -1   21.44    0.97
   2 -11   1   23.53    1.08
  11   2   1   24.04    1.03
  11   2   1   23.90    1.02
 -11  -2   1   24.11    0.96
  11   2   1   23.74    0.97
   2 -11   1   21.59    0.98
  11   1  -1   29.13    1.13
 -11  -1  -1   28.69    1.19
  11   1  -1   27.93    1.19
   1 -11  -1   30.66    1.25
   1 -11  -1   30.56    1.25
   1 -11  -1   28.95    1.15
  11   1   1   28.02    1.10
  11   1   1   29.68    1.21
   1 -11   1   30.96    1.26
 -11  -1   1   29.40    1.14
  11   1   1   28.43    1.19
   0 -11  -1   38.38    1.46
   0 -11  -1   38.15    1.54
  11   0  -1   39.81    1.46
  11   0  -1   40.22    1.52
 -11   0  -1   40.70    1.52
  11   0   1   39.14    1.38
  11   0   1   40.28    1.52
 -11   0   1   41.09    1.47
  11   0   1   42.08    1.53
   0 -11   1   38.58    1.55
  -1 -11  -1   34.15    1.30
 -11   1  -1   34.80    1.34
  11  -1  -1   32.09    1.34
  -1 -11  -1   34.97    1.39
  11  -1  -1   34.58    1.30
  -1 -11   1   34.77    1.20
  -1 -11   1   35.46    1.40
  11  -1   1   33.84    1.18
  11  -1   1   33.78    1.33
  11  -1   1   33.61    1.36
  -2 -11  -1   37.84    1.50
  11  -2  -1   39.44    1.48
 -11   2  -1   36.57    1.44
  11  -2  -1   37.71    1.41
  -2 -11  -1   39.34    1.42
  11  -2   1   37.67    1.45
  11  -2   1   38.27    1.48
  -2 -11   1   38.60    1.51
  11  -2   1   36.61    1.27
  -2 -11   1   37.45    1.30
  11  -3  -1   16.19    0.85
  -3 -11  -1   15.80    0.79
  11  -3  -1   17.96    0.79
 -11   3  -1   18.19    0.84
  -3 -11  -1   15.55    0.87
  11  -3   1   18.18    0.84
  -3 -11   1   15.07    0.85
  -3 -11   1   16.92    0.67
  11  -3   1   17.72    0.66
  11  -3   1   16.35    0.86
  11  -4  -1    4.26    0.46
 -11   4  -1    4.85    0.47
  -4 -11  -1    6.09    0.56
  11  -4  -1    5.55    0.48
  -4 -11  -1    6.39    0.49
  -4 -11   1    6.20    0.56
  11  -4   1    4.92    0.50
  11  -4   1    5.11    0.49
  -4 -11   1    5.91    0.37
  11  -4   1    4.53    0.34
 -11   5  -1    2.69    0.38
  -5 -11  -1    2.51    0.43
  -5 -11  -1    2.35    0.37
  11  -5  -1    2.71    0.38
  11  -5  -1    2.69    0.42
  -5 -11   1    2.35    0.41
  11  -5   1    2.63    0.40
  -5 -11   1    2.40    0.26
  11  -5   1    1.73    0.35
  11  -6  -1    0.03    0.30
  -6 -11  -1    0.10    0.28
  -6 -11  -1    0.46    0.35
  11  -6  -1   -0.10    0.25
   6  11  -1    0.18    0.22
  -6 -11   1    0.14    0.31
  11  -6   1    0.22    0.29
  -6 -11   1    0.36    0.20
  11  -6   1    0.15    0.30
  -7 -11  -1    0.99    0.39
  11  -7  -1    1.67    0.40
  11  -7  -1    1.39    0.35
   7  11  -1    1.64    0.32
  -7 -11  -1    1.40    0.34
  -7 -11   1    1.36    0.40
  -7 -11   1    1.43    0.27
  11  -7   1    1.53    0.37
  11  -7   1    2.14    0.43
   8  11  -1    5.83    0.51
  11  -8  -1    5.30    0.61
  -8 -11  -1    6.78    0.66
  -8 -11  -1    5.45    0.55
  11  -8  -1    5.71    0.55
  -8 -11   1    6.65    0.65
   8  11   1    5.64    0.54
  11  -8   1    6.28    0.62
  11  -8   1    6.36    0.60
  -9 -11  -1   11.76    0.75
  11  -9  -1   11.88    0.78
   9  11  -1   11.81    0.72
  -9 -11  -1   11.11    0.87
  11  -9  -1   11.05    0.82
  11  -9   1   11.23    0.77
   9  11   1   11.38    0.75
  11  -9   1    9.85    0.81
  -9 -11   1   11.53    0.84
  10  11  -1    8.30    0.64
  11 -10  -1    8.93    0.73
 -10 -11  -1    9.14    0.73
  11 -10  -1    7.47    0.73
 -10 -11  -1    8.56    0.76
  11 -10   1    8.78    0.78
 -10 -11   1   10.21    0.81
  11 -10   1    8.87    0.71
  10  11   1    9.27    0.73
  11 -11  -1    9.47    0.83
  11 -11  -1   12.63    0.89
  11  11  -1    9.61    0.71
 -11 -11  -1   10.46    0.79
 -11 -11  -1   12.33    0.93
  11  11   1   11.30    0.78
  11 -11   1   10.89    0.88
  11 -11   1   10.32    0.81
 -11 -11   1   12.60    0.91
  12  11  -1   44.51    1.71
  11 -12  -1   42.95    1.80
  11 -12  -1   39.02    1.74
 -12 -11  -1   40.81    1.81
 -12 -11  -1   38.98    1.68
  11 -12   1   40.39    1.73
  11 -12   1   38.28    1.78
  12  11   1   43.66    1.73
 -12 -11   1   41.85    1.79
  10 -12  -1    0.92    0.48
 -12 -10  -1    1.08    0.41
  12  10  -1    1.01    0.37
  10 -12  -1    1.24    0.45
 -12 -10  -1    0.93    0.49
  10 -12   1    0.84    0.43
 -12 -10   1    1.72    0.52
  12  10   1    0.85    0.37
  10 -12   1    1.03    0.48
 -12  -9  -1   62.90    2.38
 -12  -9  -1   65.65    2.46
   9 -12  -1   64.00    2.41
   9 -12  -1   64.46    2.44
  12   9  -1   66.23    2.36
   9 -12   1   65.46    2.47
   9 -12   1   66.34    2.39
 -12  -9   1   65.02    2.44
  12   8  -1   12.33    0.76
   8 -12  -1   12.03    0.89
 -12  -8  -1   10.82    0.79
 -12  -8  -1   11.93    0.85
   8 -12  -1   11.51    0.85
 -12  -8   1   12.96    0.86
 -12  -8   1   11.56    0.70
  12   8   1   12.26    0.79
   8 -12   1   10.81    0.87
   8 -12   1   12.36    0.81
 -12  -7  -1   19.37    1.09
  12   7  -1   21.73    1.00
   7 -12  -1   22.19    1.09
   7 -12  -1   19.44    1.08
 -12  -7  -1   20.82    1.05
   7 -12   1   20.42    1.04
  12   7   1   21.94    1.04
   7 -12   1   19.75    1.08
 -12  -7   1   21.41    0.96
   6 -12  -1   11.26    0.77
   6 -12  -1    8.50    0.74
 -12  -6  -1    9.05    0.71
  12   6  -1   10.32    0.68
   6 -12   1    8.88    0.69
   6 -12   1   11.33    0.79
  12   6   1   10.11    0.68
  12   6   1   10.78    0.71
 -12  -6   1   10.19    0.65
 -12  -5  -1   36.56    1.54
   5 -12  -1   40.42    1.60
  12   5  -1   38.94    1.54
   5 -12  -1   39.55    1.62
   5 -12   1   42.27    1.55
   5 -12   1   40.49    1.63
 -12  -5   1   38.71    1.48
  12   5   1   37.97    1.55
  12   5   1   38.91    1.54
   4 -12  -1   18.32    0.85
  12   4  -1   17.17    0.88
 -12  -4  -1   17.27    0.90
   4 -12  -1   19.34    0.97
   4 -12  -1   17.48    0.96
  12   4   1   17.76    0.89
   4 -12   1   19.54    0.91
   4 -12   1   17.54    0.98
 -12  -4   1   17.87    0.84
  12   4   1   16.76    0.89
   3 -12  -1    0.53    0.27
   3 -12  -1    0.09    0.31
  12   3  -1    0.07    0.21
 -12  -3  -1   -0.20    0.25
  12   3  -1    0.14    0.26
   3 -12  -1    0.23    0.33
   3 -12   1    0.12    0.35
 -12  -3   1   -0.33    0.21
  12   3   1    0.21    0.27
  12   3   1    0.23    0.26
   3 -12   1    0.56    0.30
 -12  -2  -1    3.07    0.44
  12   2  -1    3.39    0.38
   2 -12  -1    4.14    0.42
  12   2  -1    3.24    0.41
   2 -12  -1    4.54    0.51
   2 -12  -1    3.34    0.46
 -12  -2   1    2.88    0.37
  12   2   1    3.03    0.40
   2 -12   1    3.78    0.41
  12   2   1    2.17    0.37
   2 -12   1    3.73    0.50
   1 -12  -1    0.54    0.34
  12   1  -1    0.84    0.25
  12   1  -1    0.52    0.29
   1 -12  -1    0.71    0.35
 -12  -1  -1    0.15    0.27
   1 -12  -1    0.39    0.26
  12   1   1    0.29    0.27
 -12  -1   1    0.18    0.24
  12   1   1    0.72    0.28
   1 -12   1    0.80    0.35
  12   1   1    0.48    0.20
   0 -12  -1    5.25    0.46
  12   0  -1    4.87    0.47
   0 -12  -1    6.37    0.60
 -12   0  -1    4.95    0.50
  12   0  -1    5.84    0.48
  12   0   1    6.57    0.57
  12   0   1    5.64    0.40
   0 -12   1    5.86    0.59
  12   0   1    5.67    0.52
 -12   0   1    6.34    0.52
  12  -1  -1    1.36    0.34
  12  -1  -1    1.68    0.30
  -1 -12  -1    1.79    0.40
 -12   1  -1    1.36    0.32
  -1 -12  -1    1.49    0.32
  -1 -12   1    1.30    0.23
  -1 -12   1    1.22    0.38
  12  -1   1    1.57    0.34
  12  -1   1    1.91    0.23
  12  -1   1    1.27    0.33
  -2 -12  -1    1.57    0.39
  12  -2  -1    1.34    0.34
  -2 -12  -1    0.69    0.28
 -12   2  -1    1.50    0.32
  12  -2  -1    1.34    0.29
  -2 -12   1    1.13    0.38
  12  -2   1    0.58    0.29
  12  -2   1    1.46    0.34
  -2 -12   1    0.95    0.21
  12  -2   1    1.15    0.19
  12  -3  -1    0.48    0.26
  -3 -12  -1    0.30    0.27
  12  -3  -1    0.41    0.30
 -12   3  -1    0.38    0.26
  -3 -12  -1    0.41    0.37
  12  -3   1   -0.03    0.16
  -3 -12   1   -0.02    0.18
  -3 -12   1   -0.01    0.33
  12  -3   1    0.34    0.29
  12  -3   1    0.67    0.30
  -4 -12  -1   34.24    1.40
  -4 -12  -1   30.26    1.25
 -12   4  -1   31.36    1.30
  12  -4  -1   30.23    1.26
  12  -4  -1   33.55    1.36
  -4 -12   1   32.42    1.14
  -4 -12   1   32.46    1.38
  12  -4   1   30.73    1.30
  12  -4   1   30.10    1.32
  12  -5  -1   13.91    0.83
 -12   5  -1   15.06    0.78
  -5 -12  -1   13.99    0.87
  12  -5  -1   12.87    0.76
  -5 -12  -1   12.28    0.73
  -5 -12   1   13.07    0.85
  12  -5   1   13.99    0.82
  12  -5   1   13.18    0.78
  -5 -12   1   14.19    0.62
 -12   6  -1   19.56    0.95
  12  -6  -1   17.95    1.01
  -6 -12  -1   19.47    0.93
  12  -6  -1   17.63    0.92
  -6 -12  -1   19.33    1.02
   6  12  -1   20.64    0.91
  12  -6   1   19.26    1.01
  12  -6   1   18.59    0.95
  -6 -12   1   20.24    1.01
   7  12  -1   15.98    0.80
  12  -7  -1   14.39    0.91
  -7 -12  -1   14.63    0.91
  12  -7  -1   15.09    0.86
  -7 -12  -1   14.91    0.82
  12  -7   1   15.75    0.90
  12  -7   1   15.07    0.88
  -7 -12   1   14.76    0.90
  12  -8  -1   15.83    0.92
  -8 -12  -1   17.93    0.88
  12  -8  -1   15.86    0.99
   8  12  -1   15.34    0.84
  -8 -12  -1   14.95    0.98
  12  -8   1   15.64    0.94
  -8 -12   1   17.58    1.01
  12  -8   1   15.20    0.89
  -9 -12  -1   12.41    0.92
   9  12  -1   11.47    0.74
  12  -9  -1   11.88    0.87
  12  -9  -1   11.71    0.81
  -9 -12  -1   11.69    0.78
  -9 -12   1   11.63    0.87
  12  -9   1   11.69    0.83
   9  12   1   12.46    0.78
  12  -9   1   11.78    0.86
 -10 -12  -1    3.72    0.51
 -10 -12  -1    4.31    0.64
  10  12  -1    3.98    0.49
  12 -10  -1    4.14    0.56
  12 -10  -1    3.60    0.61
 -10 -12   1    4.32    0.62
  12 -10   1    3.45    0.58
  12 -10   1    3.24    0.54
  10  12   1    4.17    0.54
  12 -11  -1    8.72    0.85
 -11 -12  -1    7.81    0.83
 -11 -12  -1    7.74    0.70
  11  12  -1    8.91    0.72
  12 -11  -1    9.85    0.80
 -11 -12   1    8.93    0.82
  12 -11   1    9.58    0.86
  11  12   1    6.89    0.68
  12 -11   1    8.40    0.78
  12 -12  -1    1.16    0.54
 -12 -12  -1    1.84    0.49
  12  12  -1    0.65    0.37
 -12 -12  -1    1.73    0.59
  12 -12  -1    1.08    0.50
  12 -12   1    1.13    0.52
  12 -12   1    0.73    0.49
  12  12   1    1.50    0.43
 -12 -12   1    1.47    0.56
  12 -13  -1    0.09    0.52
  13  12  -1    0.09    0.37
  12 -13  -1    0.13    0.48
 -13 -12  -1   -0.21    0.55
 -13 -12  -1   -0.02    0.52
  12 -13   1    0.03    0.47
  12 -13   1    0.10    0.50
  13  12   1    0.17    0.39
 -13 -12   1    0.73    0.57
  11 -13  -1    1.01    0.55
  11 -13  -1    1.37    0.50
  13  11  -1    0.96    0.38
 -13 -11  -1    1.56    0.59
 -13 -11  -1    1.95    0.50
  11 -13   1    1.15    0.53
 -13 -11   1    0.85    0.55
  13  11   1    1.33    0.44
  11 -13   1    1.09    0.49
  13  10  -1    0.19    0.33
  10 -13  -1   -0.11    0.45
 -13 -10  -1   -0.15    0.39
 -13 -10  -1    0.06    0.51
  10 -13  -1   -0.85    0.38
 -13 -10   1    0.17    0.48
  10 -13   1    0.93    0.46
  10 -13   1    0.15    0.45
  13  10   1    0.12    0.35
  13   9  -1    2.24    0.43
 -13  -9  -1    2.78    0.59
   9 -13  -1    3.23    0.57
   9 -13  -1    4.04    0.62
 -13  -9  -1    2.69    0.51
  13   9   1    2.48    0.47
   9 -13   1    3.98    0.61
   9 -13   1    3.61    0.54
 -13  -9   1    3.03    0.58
 -13  -8  -1    2.62    0.56
  13   8  -1    2.62    0.43
   8 -13  -1    1.89    0.51
 -13  -8  -1    2.62    0.49
   8 -13  -1    2.55    0.54
  13   8   1    2.95    0.49
   8 -13   1    2.78    0.50
 -13  -8   1    2.73    0.43
   8 -13   1    2.60    0.55
 -13  -8   1    3.58    0.57
   7 -13  -1    7.04    0.70
 -13  -7  -1    8.70    0.80
  13   7  -1    8.86    0.70
   7 -13  -1    6.64    0.69
 -13  -7  -1    7.53    0.69
   7 -13   1    7.02    0.65
  13   7   1    9.63    0.76
 -13  -7   1    8.18    0.64
   7 -13   1    7.76    0.74
   6 -13  -1    8.69    0.75
 -13  -6  -1    9.44    0.74
   6 -13  -1    9.13    0.77
  13   6  -1    9.15    0.69
 -13  -6   1    9.60    0.68
   6 -13   1    7.91    0.74
  13   6   1   10.37    0.75
  13   6   1    8.65    0.66
   6 -13   1    9.86    0.73
  13   5  -1   32.21    1.35
   5 -13  -1   30.62    1.41
 -13  -5  -1   31.73    1.37
   5 -13  -1   31.48    1.40
  13   5   1   30.07    1.35
  13   5   1   29.58    1.31
   5 -13   1   29.51    1.41
   5 -13   1   30.28    1.33
 -13  -5   1   34.62    1.31
 -13  -4  -1    0.17    0.31
   4 -13  -1    0.03    0.37
   4 -13  -1   -0.11    0.38
   4 -13  -1   -0.10    0.29
  13   4  -1    0.14    0.27
  13   4   1    0.05    0.29
 -13  -4   1    0.17    0.28
   4 -13   1    0.12    0.40
   4 -13   1    0.23    0.34
  13   4   1   -0.13    0.29
   3 -13  -1   44.57    1.80
 -13  -3  -1   45.23    1.75
  13   3  -1   45.93    1.76
   3 -13  -1   44.82    1.69
   3 -13  -1   44.03    1.80
  13   3  -1   43.93    1.67
 -13  -3   1   46.25    1.69
   3 -13   1   45.82    1.73
   3 -13   1   46.81    1.84
  13   3   1   44.89    1.74
  13   3   1   47.37    1.77
   2 -13  -1   16.30    0.84
  13   2  -1   18.51    0.93
   2 -13  -1   16.03    0.97
 -13  -2  -1   17.53    0.92
   2 -13  -1   18.65    1.00
  13   2  -1   17.45    0.85
   2 -13   1   17.63    1.01
   2 -13   1   19.90    0.93
 -13  -2   1   17.81    0.85
  13   2   1   16.94    0.91
  13   2   1   19.85    0.96
 -13  -1  -1   93.18    3.09
   1 -13  -1   86.14    3.09
  13   1  -1   89.23    3.00
  13   1  -1   87.36    3.07
   1 -13  -1   88.41    3.00
   1 -13  -1   92.57    3.13
   1 -13   1   90.02    3.13
 -13  -1   1   87.79    3.00
  13   1   1   88.06    2.95
  13   1   1   90.07    3.08
  13   1   1   87.69    3.06
   0 -13  -1   19.09    1.00
  13   0  -1   17.88    0.94
 -13   0  -1   19.70    0.94
  13   0  -1   18.25    0.88
   0 -13  -1   19.42    0.89
  13   0   1   16.81    0.95
   0 -13   1   19.37    1.03
 -13   0   1   19.18    0.90
  13   0   1   17.63    0.93
 -13   1  -1   48.43    1.84
  13  -1  -1   44.57    1.84
  13  -1  -1   48.61    1.78
  -1 -13  -1   50.98    1.79
  -1 -13  -1   51.14    1.92
  -1 -13   1   48.67    1.67
  13  -1   1   48.90    1.86
 -13   1   1   49.44    1.80
  13  -1   1   48.67    1.85
  -1 -13   1   48.68    1.91
  -2 -13  -1    8.30    0.70
  13  -2  -1    8.17    0.60
 -13   2  -1    6.42    0.58
  -2 -13  -1    7.57    0.58
  13  -2  -1    7.57    0.63
  -2 -13   1    7.87    0.70
  13  -2   1    7.21    0.61
  -2 -13   1    8.12    0.46
  13  -2   1    7.86    0.65
  -3 -13  -1   26.19    1.12
  13  -3  -1   27.75    1.23
  -3 -13  -1   28.23    1.27
 -13   3  -1   27.15    1.18
  13  -3  -1   25.44    1.12
  13  -3   1   26.65    1.20
  -3 -13   1   26.02    0.99
  -3 -13   1   27.17    1.27
  13  -3   1   23.94    1.16
  -4 -13  -1    3.62    0.45
  -4 -13  -1    4.31    0.56
  13  -4  -1    5.13    0.49
 -13   4  -1    5.62    0.58
  13  -4  -1    4.40    0.55
  -4 -13   1    4.29    0.58
  13  -4   1    3.54    0.48
  -4 -13   1    4.43    0.51
  13  -4   1    5.20    0.57
  -5 -13  -1   11.50    0.85
  13  -5  -1   11.10    0.80
 -13   5  -1    9.32    0.69
  -5 -13  -1    9.95    0.69
  13  -5  -1   10.69    0.71
  13  -5   1   11.88    0.78
  13  -5   1   10.65    0.76
  -5 -13   1   11.85    0.84
  -6 -13  -1    1.77    0.48
  13  -6  -1    1.89    0.40
  13  -6  -1    0.85    0.40
  -6 -13  -1    1.46    0.38
 -13   6  -1    1.76    0.39
  13  -6   1    0.99    0.38
  -6 -13   1    0.82    0.44
  13  -6   1    1.28    0.41
   7  13  -1    9.60    0.65
  13  -7  -1    8.44    0.70
  13  -7  -1   10.30    0.82
 -13   7  -1    7.24    0.67
  -7 -13  -1    9.71    0.69
  -7 -13  -1   10.60    0.85
  13  -7   1    9.71    0.77
  13  -7   1    8.88    0.75
  -7 -13   1    9.12    0.77
  13  -8  -1    3.86    0.52
  13  -8  -1    2.68    0.50
  -8 -13  -1    3.01    0.47
  -8 -13  -1    1.91    0.53
   8  13  -1    3.53    0.46
  13  -8   1    3.43    0.55
  -8 -13   1    2.92    0.56
  13  -8   1    4.22    0.55
   9  13  -1    3.61    0.47
  13  -9  -1    4.57    0.63
  -9 -13  -1    3.52    0.61
  13  -9  -1    4.66    0.58
  -9 -13  -1    4.12    0.51
  -9 -13   1    3.24    0.60
  13  -9   1    4.27    0.59
   9  13   1    2.79    0.46
  13  -9   1    4.41    0.61
  10  13  -1    0.68    0.35
 -10 -13  -1    0.44    0.40
 -10 -13  -1    0.96    0.52
  13 -10  -1    0.41    0.42
  13 -10  -1    0.36    0.45
  10  13   1    0.51    0.36
  13 -10   1    0.89    0.47
 -10 -13   1    1.19    0.54
  13 -10   1    0.02    0.43
  13 -11  -1   11.98    0.90
 -11 -13  -1    8.66    0.88
 -11 -13  -1   10.47    0.98
  11  13  -1   10.73    0.80
  13 -11  -1   10.74    0.95
 -11 -13   1    9.31    0.90
  11  13   1    9.39    0.80
  13 -11   1    9.60    0.89
  13 -11   1    9.02    0.80
  13 -12  -1    1.38    0.56
  13 -12  -1    1.21    0.50
 -12 -13  -1    1.31    0.61
  12  13  -1    1.77    0.45
  13 -12   1    0.92    0.51
  13 -12   1    0.77    0.52
 -12 -13   1    1.53    0.60
  12  13   1    0.65    0.42
  13 -13  -1   18.86    1.30
  13  13  -1   18.36    1.10
 -13 -13  -1   17.06    1.25
  13 -13  -1   19.12    1.18
  13 -13   1   19.07    1.21
 -13 -13   1   18.61    1.27
  13 -13   1   18.30    1.25
  13  13   1   19.29    1.13
 -14 -13  -1    3.83    0.77
  13 -14  -1    4.39    0.71
  13 -14  -1    3.38    0.75
  14  13  -1    3.48    0.59
  13 -14   1    2.59    0.67
  14  13   1    3.42    0.63
 -14 -13   1    3.06    0.74
  13 -14   1    2.49    0.63
 -14 -12  -1    2.39    0.70
  12 -14  -1    2.29    0.63
  12 -14  -1    2.23    0.63
  14  12  -1    1.30    0.44
  12 -14   1    2.50    0.63
  14  12   1    2.93    0.58
 -14 -12   1    1.98    0.66
  12 -14   1    2.38    0.65
  14  11  -1   17.22    1.08
 -14 -11  -1   18.17    1.08
 -14 -11  -1   19.22    1.24
  11 -14  -1   17.19    1.14
  11 -14  -1   17.93    1.23
 -14 -11   1   18.04    1.23
  11 -14   1   16.16    1.20
  11 -14   1   18.27    1.14
  14  11   1   18.81    1.09
  10 -14  -1    7.94    0.83
 -14 -10  -1   11.19    0.97
 -14 -10  -1    6.39    0.70
  10 -14  -1    7.21    0.78
  14  10  -1    7.92    0.72
 -14 -10   1    7.08    0.83
  14  10   1    7.46    0.72
  10 -14   1    7.76    0.75
  10 -14   1    7.91    0.85
   9 -14  -1   16.68    1.12
  14   9  -1   19.38    1.05
 -14  -9  -1   17.46    1.16
   9 -14  -1   15.90    1.09
 -14  -9  -1   18.54    1.07
   9 -14   1   17.93    1.09
   9 -14   1   17.77    1.15
  14   9   1   20.80    1.08
 -14  -9   1   17.67    1.14
  14   8  -1    0.62    0.34
 -14  -8  -1    0.51    0.51
   8 -14  -1    1.30    0.49
 -14  -8  -1    0.58    0.43
   8 -14  -1    0.55    0.49
  14   8   1    0.41    0.36
   8 -14   1   -0.10    0.42
 -14  -8   1    0.21    0.44
   8 -14   1   -0.61    0.43
   7 -14  -1   49.76    1.97
  14   7  -1   50.95    1.93
 -14  -7  -1   49.76    2.01
 -14  -7  -1   47.99    1.93
   7 -14  -1   49.08    2.01
 -14  -7   1   46.49    1.82
   7 -14   1   45.40    1.90
   7 -14   1   46.62    2.00
  14   7   1   49.40    1.93
   6 -14  -1    0.22    0.43
   6 -14  -1    0.39    0.44
 -14  -6  -1    0.70    0.40
  14   6  -1    0.39    0.32
 -14  -6   1    0.82    0.35
  14   6   1    0.38    0.33
   6 -14   1    0.50    0.41
   6 -14   1    0.44    0.44
  14   6   1    0.26    0.34
  14   5  -1    7.18    0.65
   5 -14  -1    6.79    0.71
   5 -14  -1    6.89    0.72
 -14  -5  -1    7.36    0.68
   5 -14   1    6.24    0.63
 -14  -5   1    7.18    0.61
  14   5   1    7.49    0.66
  14   5   1    6.53    0.63
   5 -14   1    6.91    0.74
  14   4  -1   11.06    0.77
   4 -14  -1    9.42    0.81
   4 -14  -1   11.32    0.69
   4 -14  -1   10.67    0.85
 -14  -4  -1   10.98    0.80
  14   4   1   10.81    0.74
 -14  -4   1   10.18    0.69
  14   4   1   10.81    0.76
   4 -14   1   10.28    0.75
   4 -14   1   10.02    0.84
  14   3  -1    0.28    0.30
  14   3  -1    0.19    0.26
   3 -14  -1    0.30    0.41
   3 -14  -1    0.42    0.41
 -14  -3  -1    0.42    0.35
   3 -14  -1    0.47    0.32
  14   3   1   -0.25    0.27
   3 -14   1    0.13    0.42
   3 -14   1   -0.49    0.33
  14   3   1    0.08    0.31
 -14  -3   1   -0.21    0.27
   2 -14  -1    1.22    0.44
  14   2  -1    2.29    0.40
   2 -14  -1    0.68    0.42
 -14  -2  -1    1.48    0.41
   2 -14  -1    1.92    0.37
  14   2  -1    2.06    0.35
  14   2   1    1.20    0.36
   2 -14   1    1.73    0.49
  14   2   1    2.20    0.41
 -14  -2   1    2.72    0.41
   1 -14  -1    1.26    0.44
 -14  -1  -1    1.09    0.37
   1 -14  -1    0.78    0.31
  14   1  -1    1.32    0.31
  14   1  -1    1.39    0.39
 -14  -1   1    1.20    0.33
  14   1   1    1.06    0.34
  14   1   1    1.09    0.37
   1 -14   1    0.55    0.42
  14   0  -1    0.07    0.25
   0 -14  -1   -0.05    0.28
 -14   0  -1    0.01    0.31
   0 -14  -1    0.44    0.41
  14   0  -1    0.32    0.32
  14   0   1    0.00    0.31
  14   0   1   -0.22    0.29
 -14   0   1   -0.18    0.27
   0 -14   1   -0.12    0.40
  14  -1  -1    6.87    0.64
  14  -1  -1    5.71    0.52
  -1 -14  -1    5.14    0.63
  -1 -14  -1    5.05    0.50
 -14   1  -1    6.31    0.63
  14  -1   1    5.54    0.58
  -1 -14   1    5.54    0.64
 -14   1   1    5.37    0.54
  14  -1   1    6.57    0.63
  14  -2  -1   -0.15    0.31
 -14   2  -1    0.29    0.30
  -2 -14  -1   -0.09    0.29
  14  -2  -1   -0.19    0.25
  -2 -14  -1    0.49    0.40
  14  -2   1   -0.26    0.29
  14  -2   1    0.46    0.31
  -2 -14   1    0.23    0.41
  -2 -14   1    0.00    0.21
 -14   2   1   -0.24    0.28
  -3 -14  -1   15.39    0.84
  14  -3  -1   17.24    0.97
  14  -3  -1   16.19    0.85
 -14   3  -1   13.80    0.87
  -3 -14  -1   14.28    0.97
  14  -3   1   15.84    0.91
  14  -3   1   17.49    0.92
  -3 -14   1   17.14    1.00
  14  -4  -1    1.05    0.35
 -14   4  -1    0.40    0.34
  14  -4  -1    0.92    0.41
  -4 -14  -1    1.59    0.50
  -4 -14  -1    0.81    0.34
  14  -4   1    0.64    0.37
  -4 -14   1    1.96    0.49
  14  -4   1    1.09    0.39
  -5 -14  -1   42.87    1.66
  14  -5  -1   40.74    1.68
  -5 -14  -1   43.80    1.83
  14  -5  -1   45.26    1.82
 -14   5  -1   40.20    1.71
  14  -5   1   46.86    1.79
  14  -5   1   44.51    1.78
  -5 -14   1   44.82    1.83
  14  -6  -1    2.74    0.46
  -6 -14  -1    2.87    0.57
 -14   6  -1    3.02    0.50
  -6 -14  -1    2.32    0.43
  14  -6  -1    2.97    0.53
  14  -6   1    3.76    0.54
  14  -6   1    2.50    0.49
  -6 -14   1    2.89    0.56
  -7 -14  -1   30.34    1.32
  14  -7  -1   34.07    1.41
  -7 -14  -1   32.77    1.51
   7  14  -1   29.23    1.30
 -14   7  -1   30.42    1.38
  14  -7  -1   31.30    1.49
  14  -7   1   30.05    1.43
  -7 -14   1   30.04    1.48
  14  -7   1   34.06    1.46
  -8 -14  -1   10.08    0.89
   8  14  -1    7.48    0.67
  -8 -14  -1    8.25    0.68
 -14   8  -1    7.45    0.71
  14  -8  -1    8.37    0.73
  14  -8  -1    6.18    0.71
  14  -8   1    9.16    0.82
  14  -8   1    9.35    0.80
  -8 -14   1    6.29    0.73
   9  14  -1   24.61    1.14
 -14   9  -1   22.69    1.20
  14  -9  -1   23.52    1.31
  -9 -14  -1   21.68    1.30
  14  -9  -1   24.61    1.21
  -9 -14  -1   25.14    1.29
  14  -9   1   21.82    1.25
  -9 -14   1   24.63    1.32
  14  -9   1   24.77    1.28
   9  14   1   25.66    1.23
  14 -10  -1    4.72    0.63
  14 -10  -1    3.28    0.64
  10  14  -1    5.78    0.60
 -10 -14  -1    5.86    0.77
  14 -10   1    4.09    0.62
  14 -10   1    2.60    0.58
 -10 -14   1    5.64    0.73
  10  14   1    5.96    0.65
  11  14  -1   18.29    1.03
  14 -11  -1   15.19    1.16
  14 -11  -1   18.03    1.11
 -11 -14  -1   16.84    1.21
  11  14   1   18.57    1.09
  14 -11   1   17.80    1.15
 -11 -14   1   19.72    1.24
  14 -11   1   16.73    1.17
  12  14  -1    0.18    0.37
 -12 -14  -1    1.46    0.64
  14 -12  -1   -0.33    0.55
  14 -12  -1    0.19    0.48
  14 -12   1    0.04    0.51
  14 -12   1    0.96    0.55
 -12 -14   1    1.14    0.64
  12  14   1    0.87    0.45
  14 -13  -1    4.20    0.69
  13  14  -1    4.64    0.64
  14 -13  -1    5.10    0.81
 -13 -14  -1    4.29    0.81
  13  14   1    3.87    0.62
  14 -13   1    4.47    0.74
 -13 -14   1    5.76    0.86
  14 -13   1    4.13    0.73
  14 -14  -1    0.30    0.55
  14  14  -1    0.61    0.47
 -14 -14  -1   -0.04    0.66
  14 -14  -1    0.15    0.63
  14 -14   1    0.32    0.58
 -14 -14   1    1.02    0.68
  14  14   1   -0.37    0.44
  14 -14   1    0.66    0.62
  14 -15  -1   -0.33    0.64
  14 -15  -1    0.38    0.60
 -15 -14  -1    0.40    0.71
  15  14  -1    0.04    0.41
 -15 -14   1    0.71    0.71
  15  14   1   -0.38    0.45
  14 -15   1    0.76    0.64
  14 -15   1   -0.41    0.61
  15  13  -1   10.23    0.90
  13 -15  -1    9.79    1.00
 -15 -13  -1    9.46    1.06
  13 -15  -1    9.52    0.97
  13 -15   1   10.49    1.04
  13 -15   1    8.40    0.90
 -15 -13   1   11.68    1.13
  15  13   1    8.57    0.86
  12 -15  -1    3.06    0.68
 -15 -12  -1    4.49    0.79
  15  12  -1    2.83    0.56
  12 -15  -1    2.94    0.70
  12 -15   1    2.37    0.66
  15  12   1    2.43    0.55
  12 -15   1    2.60    0.64
 -15 -12   1    4.18    0.78
  11 -15  -1    4.14    0.69
 -15 -11  -1    2.85    0.74
  15  11  -1    2.99    0.55
  11 -15  -1    4.77    0.77
 -15 -11   1    4.11    0.78
  11 -15   1    3.92    0.66
  11 -15   1    3.99    0.75
  15  11   1    5.02    0.70
  10 -15  -1    3.01    0.63
  15  10  -1    2.44    0.51
  10 -15  -1    2.60    0.63
 -15 -10  -1    1.96    0.64
 -15 -10  -1    2.63    0.58
  15  10   1    1.62    0.51
  10 -15   1    2.19    0.65
  10 -15   1    2.01    0.58
 -15 -10   1    2.06    0.65
  15   9  -1    0.41    0.39
   9 -15  -1    0.57    0.53
 -15  -9  -1    0.13    0.55
   9 -15  -1    0.65    0.53
 -15  -9  -1    0.65    0.47
   9 -15   1    0.79    0.49
 -15  -9   1    0.27    0.54
   9 -15   1    0.76    0.56
  15   9   1    0.68    0.43
   8 -15  -1    1.80    0.57
 -15  -8  -1    0.91    0.55
   8 -15  -1    1.78    0.57
 -15  -8  -1    0.84    0.46
  15   8  -1    0.96    0.43
  15   8   1    0.96    0.43
   8 -15   1    1.79    0.57
   8 -15   1    1.27    0.50
 -15  -8   1    1.90    0.56
   7 -15  -1    0.98    0.50
   7 -15  -1    1.03    0.48
 -15  -7  -1    0.50    0.43
  15   7  -1    0.91    0.39
 -15  -7  -1    1.27    0.55
   7 -15   1    0.39    0.50
   7 -15   1    0.22    0.45
  15   7   1    0.82    0.40
 -15  -7   1    1.19    0.40
 -15  -6  -1    3.49    0.56
   6 -15  -1    2.42    0.58
  15   6  -1    3.58    0.54
   6 -15  -1    3.11    0.59
 -15  -6   1    2.24    0.46
   6 -15   1    3.97    0.57
  15   6   1    2.33    0.46
   6 -15   1    2.78    0.61
  15   6   1    3.08    0.50
   5 -15  -1   13.14    0.97
  15   5  -1   13.14    0.88
 -15  -5  -1   13.51    0.93
   5 -15  -1   13.86    0.97
  15   5   1   13.51    0.86
  15   5   1   12.49    0.87
   5 -15   1   13.53    1.01
 -15  -5   1   12.32    0.85
   5 -15   1   12.03    0.88
   4 -15  -1    1.82    0.51
 -15  -4  -1    0.64    0.40
   4 -15  -1    0.15    0.46
  15   4  -1    0.82    0.37
   4 -15   1    1.41    0.53
  15   4   1    0.84    0.40
   4 -15   1    0.86    0.43
  15   4   1    0.54    0.35
 -15  -4   1    0.66    0.36
  15   3  -1   49.24    1.95
   3 -15  -1   48.82    2.02
   3 -15  -1   49.75    1.88
 -15  -3  -1   51.56    1.97
   3 -15  -1   46.97    2.00
  15   3  -1   51.20    1.87
  15   3   1   50.48    1.93
   3 -15   1   48.76    1.92
  15   3   1   49.40    1.96
   3 -15   1   52.10    2.07
 -15  -3   1   50.08    1.89
   2 -15  -1    0.48    0.47
  15   2  -1    1.83    0.44
   2 -15  -1    1.06    0.35
 -15  -2  -1    1.89    0.45
  15   2  -1    0.95    0.36
   2 -15  -1    1.25    0.50
 -15  -2   1    1.63    0.39
  15   2   1    1.73    0.43
  15   2   1    1.61    0.43
   2 -15   1    1.02    0.51
  15   1  -1   37.57    1.54
 -15  -1  -1   42.60    1.68
   1 -15  -1   38.70    1.55
   1 -15  -1   39.79    1.72
  15   1  -1   42.32    1.68
  15   1   1   39.36    1.64
 -15  -1   1   38.26    1.56
   1 -15   1   39.74    1.73
  15   1   1   39.18    1.62
  15   0  -1   12.58    0.77
  15   0  -1   13.54    0.86
   0 -15  -1   12.84    0.77
 -15   0  -1   13.92    0.88
   0 -15  -1   12.65    0.96
  15   0   1   14.40    0.90
   0 -15   1   12.35    0.93
  15   0   1   13.71    0.86
 -15   0   1   13.59    0.83
  15  -1  -1   54.90    2.07
  -1 -15  -1   56.02    2.05
  15  -1  -1   56.13    2.17
  -1 -15  -1   58.15    2.24
 -15   1  -1   54.97    2.14
  -1 -15   1   58.12    2.25
  15  -1   1   57.41    2.17
  15  -1   1   56.25    2.15
 -15   1   1   57.95    2.11
  15  -2  -1    8.22    0.66
 -15   2  -1    9.03    0.71
  -2 -15  -1    8.58    0.65
  -2 -15  -1    7.65    0.78
  15  -2  -1    7.02    0.67
 -15   2   1   10.24    0.70
  -2 -15   1    9.23    0.82
  15  -2   1    8.30    0.74
  15  -2   1    7.58    0.71
  15  -3  -1   29.43    1.30
 -15   3  -1   29.36    1.34
  -3 -15  -1   32.21    1.46
  -3 -15  -1   31.32    1.26
  15  -3  -1   30.08    1.39
  15  -3   1   26.95    1.34
 -15   3   1   28.98    1.31
  -3 -15   1   32.07    1.46
  15  -3   1   28.69    1.36
  -4 -15  -1    0.46    0.35
  -4 -15  -1    1.22    0.51
  15  -4  -1    0.82    0.35
 -15   4  -1    0.77    0.36
  15  -4  -1    0.47    0.39
  15  -4   1    0.20    0.39
  15  -4   1    0.66    0.39
  -4 -15   1    0.81    0.49
  -5 -15  -1    4.77    0.68
  15  -5  -1    3.97    0.51
  -5 -15  -1    6.37    0.57
 -15   5  -1    3.31    0.51
  15  -5  -1    4.25    0.61
  15  -5   1    3.97    0.56
  -5 -15   1    3.46    0.61
  15  -5   1    3.24    0.55
 -15   6  -1    3.15    0.51
  -6 -15  -1    2.35    0.58
  -6 -15  -1    2.40    0.45
  15  -6  -1    2.29    0.55
  15  -6  -1    2.61    0.47
  15  -6   1    2.23    0.52
  15  -6   1    2.47    0.52
  -6 -15   1    2.48    0.59
  15  -7  -1    1.53    0.43
   7  15  -1    0.80    0.33
  15  -7  -1    1.08    0.47
 -15   7  -1    0.77    0.37
  -7 -15  -1    0.53    0.40
  -7 -15  -1    1.25    0.54
  -7 -15   1    1.69    0.56
  15  -7   1    1.45    0.48
  15  -7   1    0.87    0.46
  15  -8  -1    0.24    0.39
 -15   8  -1    0.25    0.37
  15  -8  -1   -0.13    0.48
  -8 -15  -1    0.71    0.54
   8  15  -1    0.38    0.33
  15  -8   1    0.67    0.44
  -8 -15   1   -0.01    0.52
  15  -8   1    0.10    0.46
  -9 -15  -1    5.13    0.75
  15  -9  -1    2.83    0.62
   9  15  -1    3.53    0.51
  15  -9  -1    4.96    0.64
 -15   9  -1    4.60    0.62
  15  -9   1    4.35    0.65
  -9 -15   1    3.77    0.68
   9  15   1    4.13    0.59
  15  -9   1    4.48    0.67
  15 -10  -1    1.55    0.49
 -10 -15  -1    1.24    0.61
 -15  10  -1    0.36    0.41
  10  15  -1    1.01    0.39
  15 -10  -1    1.24    0.59
  10  15   1    1.29    0.43
  15 -10   1    0.19    0.50
 -10 -15   1    1.05    0.57
  15 -10   1    1.92    0.57
  11  15  -1    4.34    0.58
  15 -11  -1    3.14    0.69
 -11 -15  -1    4.03    0.74
  15 -11  -1    4.20    0.62
  11  15   1    3.51    0.60
  15 -11   1    3.77    0.68
 -11 -15   1    4.40    0.76
  15 -11   1    4.36    0.71
  15 -12  -1    0.44    0.51
  12  15  -1   -0.07    0.39
 -12 -15  -1   -0.37    0.59
  15 -12  -1   -0.71    0.53
  12  15   1    0.38    0.41
  15 -12   1    0.12    0.52
 -12 -15   1    0.10    0.63
  15 -12   1    0.09    0.52
  15 -13  -1   19.25    1.36
  13  15  -1   18.59    1.16
  15 -13  -1   19.42    1.30
 -13 -15   1   17.83    1.37
  15 -13   1   21.31    1.34
  15 -13   1   20.65    1.33
  13  15   1   19.76    1.18
  14  15  -1    0.60    0.48
  15 -14  -1    0.57    0.56
 -14 -15  -1    0.45    0.72
  15 -14  -1   -0.02    0.62
  15 -14   1    0.23    0.61
  15 -14   1    1.14    0.65
  14  15   1    0.78    0.51
 -14 -15   1   -0.05    0.72
  15 -15  -1    6.83    0.88
  15  15  -1    7.05    0.80
  15 -15  -1    8.33    1.01
 -15 -15  -1    6.33    1.00
  15 -15   1    7.10    0.94
 -15 -15   1    5.28    0.96
  15  15   1    6.81    0.84
  15 -15   1    6.23    0.88
  15 -16  -1    1.41    0.76
  15 -16  -1    2.45    0.73
 -16 -15  -1    1.54    0.84
  16  15  -1    1.86    0.57
 -16 -15   1    3.44    0.91
  15 -16   1    2.09    0.73
  16  15   1    1.57    0.64
  14 -16  -1    0.21    0.63
  14 -16  -1    0.11    0.71
  16  14  -1    1.24    0.53
 -16 -14  -1    1.12    0.76
  14 -16   1    1.20    0.69
 -16 -14   1    0.25    0.76
  16  14   1    0.36    0.53
  14 -16   1    1.09    1.07
 -16 -13  -1    9.70    1.11
  13 -16  -1    7.90    0.97
  13 -16  -1    9.85    1.03
  16  13  -1    9.47    0.87
  13 -16   1    9.66    1.03
  16  13   1    9.23    0.92
 -16 -13   1    8.97    1.07
  13 -16   1    8.01    0.97
  12 -16  -1    2.06    0.74
  16  12  -1    2.72    0.57
  12 -16  -1    3.10    0.69
 -16 -12  -1    3.12    0.77
  12 -16   1    2.64    0.73
 -16 -12   1    3.25    0.84
  12 -16   1    2.89    0.70
  16  12   1    3.12    0.65
  11 -16  -1    2.17    0.65
  11 -16  -1    0.92    0.65
  16  11  -1    2.10    0.54
 -16 -11  -1    2.70    0.76
  11 -16   1    2.79    0.70
 -16 -11   1    1.83    0.70
  16  11   1    2.08    0.58
  11 -16   1    2.07    0.65
  10 -16  -1    0.85    0.61
  10 -16  -1    2.56    0.65
 -16 -10  -1    2.07    0.69
  16  10  -1    0.73    0.47
 -16 -10  -1    1.45    0.57
  16  10   1    2.14    0.55
 -16 -10   1    1.14    0.66
  10 -16   1    1.94    0.60
  10 -16   1    1.05    0.62
   9 -16  -1    4.87    0.76
 -16  -9  -1    6.44    0.88
  16   9  -1    6.25    0.71
 -16  -9  -1    4.80    0.69
   9 -16  -1    4.58    0.76
   9 -16   1    4.27    0.76
 -16  -9   1    6.10    0.82
  16   9   1    4.04    0.65
   9 -16   1    4.48    0.69
   8 -16  -1    0.04    0.54
 -16  -8  -1    0.59    0.50
   8 -16  -1    0.51    0.54
 -16  -8  -1    0.87    0.59
  16   8  -1    0.17    0.41
   8 -16   1    0.55    0.50
  16   8   1    0.42    0.41
 -16  -8   1    0.99    0.58
   8 -16   1    0.15    0.54
 -16  -7  -1    4.34    0.63
   7 -16  -1    4.44    0.70
   7 -16  -1    3.48    0.66
  16   7  -1    3.91    0.57
 -16  -7  -1    3.37    0.70
   7 -16   1    3.87    0.62
   7 -16   1    4.29    0.73
  16   7   1    3.96    0.60
   6 -16  -1    1.94    0.58
   6 -16  -1    1.46    0.57
 -16  -6  -1    1.75    0.50
  16   6  -1    1.20    0.44
   6 -16   1    0.58    0.51
   6 -16   1    1.31    0.51
  16   6   1    1.91    0.46
 -16  -6   1    1.43    0.45
  16   6   1    1.22    0.46
  16   5  -1   19.14    1.09
   5 -16  -1   19.55    1.21
 -16  -5  -1   20.57    1.16
   5 -16  -1   21.03    1.25
 -16  -5   1   19.67    1.08
  16   5   1   18.29    1.11
   5 -16   1   21.17    1.12
   5 -16   1   20.87    1.25
  16   5   1   19.21    1.07
  16   4  -1    1.92    0.47
 -16  -4  -1    2.02    0.51
   4 -16  -1    2.49    0.57
   4 -16  -1    1.72    0.57
 -16  -4   1    2.50    0.50
  16   4   1    2.21    0.51
   4 -16   1    2.46    0.62
   4 -16   1    2.11    0.50
  16   4   1    1.79    0.45
 -16  -3  -1   -0.38    0.37
   3 -16  -1    0.46    0.50
  16   3  -1    0.26    0.30
   3 -16  -1    0.28    0.33
  16   3  -1    0.08    0.36
   3 -16  -1    0.32    0.47
   3 -16   1    0.44    0.50
  16   3   1   -0.09    0.36
 -16  -3   1    0.44    0.36
  16   3   1    0.37    0.35
  16   2  -1    0.17    0.37
   2 -16  -1    0.28    0.51
   2 -16  -1    0.41    0.34
 -16  -2  -1   -0.27    0.37
  16   2  -1    0.06    0.29
   2 -16   1    0.46    0.49
  16   2   1   -0.20    0.32
 -16  -2   1    0.15    0.35
  16   2   1    0.17    0.38
   1 -16  -1   -0.22    0.33
 -16  -1  -1   -0.38    0.34
   1 -16  -1    1.09    0.54
  16   1  -1   -0.02    0.29
  16   1  -1    0.28    0.37
  16   1   1    0.03    0.34
   1 -16   1    0.09    0.47
 -16  -1   1    0.09    0.34
  16   1   1    0.17    0.35
   0 -16  -1    1.04    0.50
   0 -16  -1    0.04    0.33
  16   0  -1    0.25    0.31
  16   0  -1    0.60    0.37
 -16   0  -1    0.44    0.37
 -16   0   1    0.49    0.37
  16   0   1    0.11    0.36
   0 -16   1    0.50    0.49
  16   0   1    0.19    0.35
 -16   1  -1    0.66    0.39
  16  -1  -1    2.03    0.48
  16  -1  -1    1.79    0.39
  -1 -16  -1    1.75    0.41
  -1 -16  -1    2.02    0.54
 -16   1   1    1.85    0.45
  -1 -16   1    1.90    0.57
  16  -1   1    1.71    0.47
  16  -1   1    1.34    0.44
  -2 -16  -1    0.54    0.52
  -2 -16  -1    0.40    0.36
  16  -2  -1    0.00    0.40
 -16   2  -1    0.55    0.40
  16  -2  -1    0.72    0.33
  16  -2   1    0.52    0.40
  16  -2   1    0.33    0.38
 -16   2   1    0.42    0.36
  -2 -16   1    0.03    0.46
 -16   3  -1    1.65    0.44
  16  -3  -1    2.72    0.47
  16  -3  -1    1.72    0.46
  -3 -16  -1    2.09    0.44
  -3 -16  -1    2.21    0.57
 -16   3   1    2.52    0.48
  16  -3   1    1.47    0.46
  16  -3   1    2.65    0.51
  -3 -16   1    2.22    0.57
 -16   4  -1    0.11    0.37
  -4 -16  -1   -0.45    0.47
  16  -4  -1   -0.18    0.33
  16  -4  -1    0.08    0.44
  -4 -16  -1    0.37    0.35
  16  -4   1    0.23    0.40
 -16   4   1    0.10    0.35
  -4 -16   1   -0.24    0.48
  16  -4   1    0.40    0.38
  16  -5  -1    6.58    0.67
  -5 -16  -1    8.03    0.67
  -5 -16  -1    8.14    0.86
 -16   5  -1    8.51    0.79
  16  -5  -1    8.96    0.85
  -5 -16   1    7.50    0.83
  16  -5   1    8.50    0.77
  16  -5   1    6.93    0.74
  16  -6  -1   -0.16    0.44
  16  -6  -1   -0.01    0.35
  -6 -16  -1   -0.03    0.48
 -16   6  -1    0.07    0.35
  16  -6   1    0.24    0.44
  -6 -16   1   -0.08    0.51
  16  -6   1   -0.17    0.45
   7  16  -1    0.44    0.32
 -16   7  -1   -0.05    0.37
  -7 -16  -1    0.72    0.55
  16  -7  -1    0.44    0.40
  16  -7  -1    0.30    0.49
  -7 -16   1    0.44    0.56
  16  -7   1    0.36    0.46
  16  -7   1   -0.05    0.44
  16  -8  -1    5.97    0.67
  -8 -16  -1    5.66    0.80
  16  -8  -1    6.14    0.80
 -16   8  -1    7.46    0.78
   8  16  -1    6.51    0.65
  -8 -16   1    5.88    0.80
  16  -8   1    4.42    0.68
  16  -8   1    5.73    0.73
 -16   9  -1    2.70    0.55
  -9 -16  -1    3.83    0.74
  16  -9  -1    3.08    0.66
  16  -9  -1    4.50    0.63
   9  16  -1    4.48    0.58
  -9 -16   1    4.75    0.77
  16  -9   1    4.53    0.67
   9  16   1    3.33    0.56
  16  -9   1    3.29    0.61
  16 -10  -1    1.92    0.63
  10  16  -1    1.64    0.44
 -10 -16  -1    1.75    0.70
 -16  10  -1    1.61    0.48
  16 -10  -1    0.91    0.51
  16 -10   1    1.57    0.57
 -10 -16   1    1.91    0.67
  10  16   1    2.16    0.51
  16 -10   1    1.87    0.59
 -11 -16  -1   -0.09    0.62
 -16  11  -1    0.24    0.46
  16 -11  -1    0.71    0.52
  16 -11  -1    0.26    0.58
  11  16  -1    0.66    0.41
  16 -11   1    1.01    0.59
  11  16   1    0.36    0.46
  16 -11   1    0.27    0.53
 -11 -16   1    0.47    0.65
  12  16  -1    1.65    0.49
 -16  12  -1    1.66    0.59
  16 -12  -1    1.43    0.58
  16 -12  -1    1.87    0.68
 -12 -16  -1    1.08    0.70
 -12 -16   1    1.20    0.70
  12  16   1    0.79    0.47
  16 -12   1    1.11    0.61
  16 -12   1    2.26    0.67
 -13 -16  -1    0.86    0.71
  16 -13  -1    0.32    0.56
  16 -13  -1   -0.45    0.61
 -16  13  -1    0.49    0.50
  13  16  -1    0.07    0.40
  16 -13   1   -0.03    0.57
 -13 -16   1    0.83    0.73
  16 -13   1    0.16    0.60
  13  16   1    0.06    0.47
  16 -14  -1    0.59    0.70
  14  16  -1    0.68    0.50
 -14 -16  -1    1.11    0.77
  16 -14  -1    1.26    0.63
  16 -14   1    0.90    0.67
  14  16   1    0.79    0.54
  16 -14   1    1.53    0.68
 -14 -16   1    0.92    0.81
 -15 -16  -1    2.03    0.84
  16 -15  -1    1.45    0.69
  15  16  -1    1.08    0.54
  16 -15  -1    1.98    0.81
 -15 -16   1    0.59    0.79
  16 -15   1    0.33    0.68
  15  16   1    1.88    0.64
  16 -15   1    1.13    0.70
  16  16  -1    1.31    0.56
  16 -16  -1    2.61    0.85
 -16 -16  -1   -0.23    0.81
  16 -16  -1    0.14    0.65
  16  16   1   -0.03    0.55
  16 -16   1    0.37    0.69
 -16 -16   1    0.70    0.85
  15 -17  -1    1.25    0.78
  15 -17  -1    0.82    0.67
  17  15  -1    1.94    0.62
 -17 -15  -1    3.12    0.93
 -17 -15   1    2.89    0.90
  17  15   1    2.67    0.74
  15 -17   1    2.30    0.80
  14 -17  -1    1.86    0.75
  14 -17  -1    1.37    0.77
 -17 -14  -1    2.05    0.87
  17  14  -1    1.89    0.57
  14 -17   1    2.87    0.85
  17  14   1    1.99    0.65
 -17 -14   1    2.59    0.88
  13 -17  -1    6.95    0.95
 -17 -13  -1    6.25    1.01
  17  13  -1    6.44    0.78
  13 -17  -1    7.21    0.99
  13 -17   1    6.95    0.94
 -17 -13   1    7.51    1.04
  17  13   1    5.11    0.80
  12 -17  -1    1.34    0.66
 -17 -12  -1    0.40    0.74
  12 -17  -1    0.53    0.70
  17  12  -1    0.80    0.53
  17  12   1    0.94    0.52
  12 -17   1    0.86    0.70
 -17 -12   1    0.22    0.74
  11 -17  -1    6.33    0.90
  11 -17  -1    9.66    1.01
 -17 -11  -1    9.94    1.10
  17  11  -1    9.50    0.90
  11 -17   1    7.41    0.96
 -17 -11   1    9.88    1.10
  17  11   1    9.60    0.95
  10 -17  -1    1.57    0.69
  10 -17  -1    2.18    0.69
  17  10  -1    2.34    0.56
 -17 -10  -1    1.22    0.70
  10 -17   1    2.84    0.73
  17  10   1    1.67    0.54
 -17 -10   1    0.22    0.70
 -17  -9  -1   -0.12    0.49
 -17  -9  -1   -0.16    0.62
   9 -17  -1   -0.11    0.54
   9 -17  -1    0.20    0.58
  17   9  -1    0.51    0.44
   9 -17   1   -1.17    0.80
 -17  -9   1    0.14    0.63
   9 -17   1   -0.07    0.59
  17   9   1    0.14    0.46
   8 -17  -1   -0.28    0.54
 -17  -8  -1   -0.50    0.48
 -17  -8  -1    0.68    0.63
  17   8  -1   -0.29    0.38
   8 -17  -1   -0.40    0.53
  17   8   1    0.05    0.45
 -17  -8   1   -0.09    0.59
   8 -17   1    0.76    0.60
   8 -17   1   -0.09    0.57
   7 -17  -1    0.03    0.58
 -17  -7  -1   -0.43    0.44
   7 -17  -1   -0.15    0.54
  17   7  -1   -0.07    0.38
   7 -17   1   -0.45    0.55
   7 -17   1    0.68    0.51
  17   7   1   -0.27    0.41
   6 -17  -1    0.82    0.56
   6 -17  -1    0.17    0.53
 -17  -6  -1    0.50    0.49
  17   6  -1   -0.31    0.38
  17   6   1    0.36    0.45
   6 -17   1   -0.06    0.52
  17   6   1    0.14    0.37
   6 -17   1   -0.11    0.47
 -17  -6   1    0.77    0.47
  17   5  -1    2.28    0.52
 -17  -5  -1    2.77    0.60
   5 -17  -1    2.39    0.64
   5 -17  -1    2.76    0.65
  17   5   1    2.20    0.54
   5 -17   1    1.37    0.60
  17   5   1    3.03    0.53
 -17  -5   1    1.94    0.51
   5 -17   1    2.02    0.55
   4 -17  -1   14.88    1.09
 -17  -4  -1   15.90    1.09
   4 -17  -1   15.94    1.15
  17   4  -1   17.11    1.06
   4 -17   1   14.86    1.16
   4 -17   1   15.58    1.01
  17   4   1   17.14    1.05
 -17  -4   1   15.38    0.98
  17   4   1   14.00    0.95
  17   3  -1    0.56    0.40
  17   3  -1    1.10    0.39
   3 -17  -1    1.29    0.60
 -17  -3  -1    0.93    0.46
   3 -17  -1    0.84    0.51
  17   3   1    1.91    0.49
 -17  -3   1    1.17    0.44
   3 -17   1    1.40    0.58
  17   3   1    1.30    0.44
   2 -17  -1    4.60    0.72
   2 -17  -1    7.25    0.63
 -17  -2  -1    4.24    0.64
  17   2  -1    4.98    0.63
  17   2  -1    6.06    0.63
   2 -17   1    5.42    0.77
 -17  -2   1    5.36    0.61
  17   2   1    6.00    0.67
  17   2   1    6.89    0.75
  17   1  -1    6.07    0.63
  17   1  -1    5.72    0.69
   1 -17  -1    7.50    0.65
 -17  -1  -1    6.66    0.73
   1 -17  -1    7.89    0.86
   1 -17   1    6.42    0.80
 -17  -1   1    8.26    0.74
  17   1   1    5.49    0.67
  17   1   1    8.65    0.79
  17   0  -1   10.26    0.75
   0 -17  -1   10.30    0.77
   0 -17  -1   11.29    0.98
  17   0  -1   13.09    1.00
 -17   0  -1   10.95    0.91
   0 -17   1   10.74    1.00
  17   0   1   11.40    0.93
  17   0   1   11.12    0.85
 -17   0   1   11.41    0.85
 -17   1  -1    0.34    0.40
  17  -1  -1    0.89    0.40
  17  -1  -1    1.46    0.48
  -1 -17  -1    1.39    0.41
  -1 -17  -1    1.13    0.57
  17  -1   1    1.02    0.43
 -17   1   1    1.19    0.44
  17  -1   1    1.30    0.47
  -1 -17   1    1.15    0.60
  -2 -17  -1    9.38    0.90
 -17   2  -1    8.89    0.82
  17  -2  -1    8.38    0.71
  17  -2  -1    6.73    0.76
  -2 -17  -1    6.93    0.63
 -17   2   1    8.44    0.77
  17  -2   1    7.38    0.78
  -2 -17   1    8.69    0.89
  17  -2   1    7.24    0.76
  17  -3  -1    0.93    0.49
 -17   3  -1    1.11    0.45
  17  -3  -1    0.86    0.39
  -3 -17  -1    0.60    0.39
  -3 -17  -1    0.86    0.55
  -3 -17   1    0.81    0.56
  17  -3   1    0.70    0.45
 -17   3   1    0.68    0.42
  17  -3   1    0.44    0.43
  17  -4  -1    4.09    0.56
  -4 -17  -1    2.90    0.68
 -17   4  -1    2.56    0.52
  17  -4  -1    3.25    0.64
  -4 -17   1    4.38    0.72
  17  -4   1    3.02    0.60
  17  -4   1    3.71    0.59
 -17   4   1    3.63    0.59
 -17   5  -1    3.06    0.59
  17  -5  -1    2.71    0.63
  17  -5  -1    3.18    0.52
  -5 -17  -1    2.60    0.67
  17  -5   1    2.95    0.57
  17  -5   1    3.18    0.58
  -5 -17   1    2.63    0.64
 -17   5   1    2.72    0.53
  -6 -17  -1    0.91    0.63
  17  -6  -1    1.37    0.46
  17  -6  -1    3.05    0.64
 -17   6  -1    1.52    0.50
  -6 -17   1    0.65    0.61
  17  -6   1    1.34    0.51
  17  -6   1    1.97    0.56
  -7 -17  -1    5.29    0.81
   7  17  -1    5.24    0.60
  17  -7  -1    6.81    0.86
  17  -7  -1    6.93    0.70
 -17   7  -1    7.08    0.78
  17  -7   1    7.42    0.82
  17  -7   1    5.55    0.73
  -7 -17   1    4.47    0.78
  17  -8  -1    0.27    0.44
  -8 -17  -1   -0.64    0.55
   8  17  -1    0.13    0.34
 -17   8  -1    0.31    0.42
  17  -8  -1   -0.10    0.57
  -8 -17   1    0.83    0.65
  17  -8   1    0.37    0.51
  17  -8   1    0.51    0.56
  17  -9  -1    6.66    0.74
   9  17  -1    6.74    0.69
  -9 -17  -1    5.65    0.87
  17  -9  -1    5.97    0.84
 -17   9  -1    5.96    0.74
  17  -9   1    5.60    0.79
  17  -9   1    5.29    0.76
   9  17   1    7.27    0.77
  -9 -17   1    6.04    0.85
  10  17  -1    3.07    0.54
 -17  10  -1    2.13    0.55
  17 -10  -1    2.27    0.58
  17 -10  -1    2.59    0.73
 -10 -17  -1    2.66    0.75
  10  17   1    2.37    0.53
  17 -10   1    1.89    0.63
  17 -10   1    2.56    0.62
 -10 -17   1    2.25    0.74
  11  17  -1   11.83    0.89
 -17  11  -1    8.87    0.95
  17 -11  -1   10.21    1.07
 -11 -17  -1    7.46    0.99
  17 -11  -1   10.93    0.94
  17 -11   1    9.85    1.00
  11  17   1   10.34    0.93
  17 -11   1    9.46    0.97
 -11 -17   1    9.14    1.03
  17 -12  -1    0.93    0.72
  17 -12  -1    1.47    0.62
 -12 -17  -1    2.12    0.78
  12  17  -1    0.59    0.46
 -17  12  -1    0.70    0.51
  17 -12   1    0.76    0.59
  12  17   1    1.08    0.52
  17 -12   1    1.17    0.68
 -12 -17   1    1.58    0.77
  13  17  -1   13.17    1.03
  17 -13  -1   11.62    1.02
 -13 -17  -1    8.12    1.04
  17 -13  -1   10.82    1.14
 -17  13  -1   13.46    1.17
  17 -13   1   10.94    1.06
 -13 -17   1   12.95    1.21
  17 -13   1    9.16    1.04
  13  17   1   11.40    0.99
 -17  14  -1    0.22    0.54
  17 -14  -1    1.13    0.61
  17 -14  -1    1.14    0.74
  14  17  -1    0.93    0.52
 -14 -17  -1    0.60    0.76
  17 -14   1   -0.06    0.62
 -14 -17   1    1.73    0.81
  17 -14   1    0.12    0.68
  14  17   1    0.14    0.52
  17 -15  -1    6.18    1.00
  17 -15  -1    4.48    0.82
 -17  15  -1    4.72    0.80
  15  17  -1    4.83    0.77
 -15 -17  -1    5.88    1.03
  15  17   1    6.64    0.89
  17 -15   1    6.40    1.02
 -15 -17   1    6.82    1.07
  17 -15   1    3.83    0.85
  18  14  -1    0.06    0.56
  14 -18  -1    0.68    0.76
 -18 -14  -1    0.20    0.81
  14 -18  -1    0.63    0.72
  14 -18   1   -0.20    0.73
  18  14   1    0.18    0.57
 -18 -14   1    1.46    0.89
 -18 -13  -1    2.33    0.90
  13 -18  -1    2.45    0.79
  18  13  -1    1.94    0.62
  13 -18  -1    2.30    0.83
  13 -18   1    3.09    0.86
 -18 -13   1    3.19    0.91
  18  13   1    3.06    0.74
  18  12  -1    1.13    0.59
 -18 -12  -1    0.71    0.79
  12 -18  -1    1.04    0.69
  12 -18  -1   -0.13    0.67
  12 -18   1    1.51    0.75
  18  12   1    1.03    0.61
 -18 -12   1    1.07    0.83
  11 -18  -1    0.61    0.68
 -18 -11  -1   -0.22    0.73
  11 -18  -1   -0.33    0.64
  18  11  -1    0.76    0.52
  11 -18   1    1.27    0.72
  18  11   1    0.45    0.54
 -18 -11   1   -0.44    0.72
  10 -18  -1   20.93    1.48
  10 -18  -1   24.12    1.50
  18  10  -1   22.81    1.40
 -18 -10  -1   24.88    1.60
  10 -18   1   25.25    1.60
  18  10   1   26.66    1.43
 -18 -10   1   24.47    1.58
 -18  -9  -1    2.11    0.67
  18   9  -1    1.85    0.57
   9 -18  -1    1.79    0.72
   9 -18  -1    1.82    0.71
 -18  -9  -1    3.21    0.81
   9 -18   1    1.89    0.77
 -18  -9   1    3.54    0.81
  18   9   1    2.44    0.62
  18   8  -1   10.01    0.92
 -18  -8  -1    9.32    0.92
 -18  -8  -1    8.88    1.04
   8 -18  -1    6.59    0.91
   8 -18  -1    7.61    0.93
  18   8   1    7.44    0.85
   8 -18   1    7.85    0.97
   7 -18  -1    1.44    0.67
   7 -18  -1    2.25    0.70
 -18  -7  -1    1.78    0.61
  18   7  -1    1.49    0.52
  18   7   1    0.98    0.54
   7 -18   1    1.46    0.67
   6 -18  -1    5.91    0.85
   6 -18  -1    5.02    0.77
  18   6  -1    5.34    0.71
 -18  -6  -1    5.14    0.75
   6 -18   1    5.09    0.81
  18   6   1    5.63    0.71
  18   6   1    5.45    0.72
   5 -18  -1    0.68    0.57
 -18  -5  -1    0.64    0.48
   5 -18  -1    0.91    0.63
  18   5  -1    0.37    0.45
  18   5   1    0.38    0.46
 -18  -5   1    1.41    0.51
   5 -18   1    1.71    0.66
  18   5   1    0.94    0.45
  18   4  -1    8.29    0.82
 -18  -4  -1    7.56    0.82
   4 -18  -1    7.53    0.85
   4 -18  -1    7.21    0.86
  18   4   1    9.24    0.84
  18   4   1    7.35    0.81
 -18  -4   1    8.66    0.80
   4 -18   1    6.54    0.88
  18   3  -1    3.70    0.53
   3 -18  -1    4.18    0.75
  18   3  -1    3.68    0.63
 -18  -3  -1    4.43    0.65
   3 -18   1    3.42    0.72
  18   3   1    3.26    0.61
  18   3   1    3.45    0.59
 -18  -3   1    2.75    0.55
   2 -18  -1    1.05    0.43
   2 -18  -1    0.85    0.61
 -18  -2  -1    0.69    0.51
  18   2  -1    1.00    0.40
  18   2  -1    1.33    0.49
 -18  -2   1    1.19    0.48
  18   2   1    0.51    0.48
   2 -18   1    1.06    0.59
  18   2   1    0.71    0.42
   1 -18  -1    1.33    0.62
 -18  -1  -1   -0.14    0.42
  18   1  -1   -0.05    0.36
  18   1  -1    0.21    0.44
   1 -18  -1    0.10    0.37
 -18  -1   1    0.21    0.43
   1 -18   1   -0.33    0.54
  18   1   1   -0.30    0.36
  18   1   1    0.03    0.43
   0 -18  -1   -0.16    0.36
  18   0  -1    0.34    0.37
 -18   0  -1    0.43    0.48
   0 -18  -1    0.17    0.56
  18   0  -1    0.54    0.45
   0 -18   1   -0.42    0.57
  18   0   1    0.55    0.49
 -18   0   1    0.14    0.39
  18   0   1    1.12    0.43
  18  -1  -1    2.04    0.57
 -18   1  -1    1.88    0.51
  -1 -18  -1    1.93    0.65
  18  -1  -1    2.89    0.49
  -1 -18  -1    2.24    0.47
  18  -1   1    2.87    0.55
  -1 -18   1    1.93    0.65
 -18   1   1    2.09    0.52
  18  -1   1    1.94    0.55
  -2 -18  -1    5.77    0.82
  -2 -18  -1    7.00    0.87
  18  -2  -1    6.66    0.76
 -18   2  -1    5.31    0.70
  18  -2  -1    6.27    0.66
 -18   2   1    7.40    0.77
  -2 -18   1    5.41    0.82
  18  -2   1    7.99    0.83
  18  -2   1    6.14    0.72
  18  -3  -1    9.71    0.78
  -3 -18  -1    8.58    0.93
  18  -3  -1   11.69    1.02
 -18   3  -1   11.78    1.00
  18  -3   1   10.47    0.93
  18  -3   1    9.15    0.84
 -18   3   1    8.81    0.83
  -3 -18   1    9.26    0.95
  18  -4  -1    9.94    0.98
  -4 -18  -1   11.27    1.02
  18  -4  -1   10.98    0.84
 -18   4  -1   11.67    0.94
 -18   4   1   11.11    0.94
  -4 -18   1   10.12    1.02
  18  -4   1   10.76    0.91
  18  -4   1   12.35    1.03
  18  -5  -1   16.14    0.98
  18  -5  -1   15.16    1.15
  -5 -18  -1   13.05    1.12
 -18   5  -1   16.96    1.07
 -18   5   1   14.29    1.03
  18  -5   1   15.18    1.06
  18  -5   1   15.95    1.11
  -5 -18   1   12.42    1.12
  18  -6  -1   11.23    1.05
  -6 -18  -1   11.28    1.06
  18  -6  -1   10.00    0.85
 -18   6  -1    9.43    0.88
  18  -6   1    8.06    0.84
 -18   6   1    9.11    0.87
  -6 -18   1    9.14    0.99
  18  -6   1   10.60    0.99
  18  -7  -1   11.92    1.10
 -18   7  -1    8.76    0.89
  -7 -18  -1    7.82    0.96
   7  18  -1   10.67    0.84
  18  -7  -1    9.31    0.82
  -7 -18   1    9.39    1.01
  18  -7   1    9.61    0.96
  18  -7   1    9.08    0.89
  18  -8  -1    2.02    0.70
 -18   8  -1    2.67    0.61
  18  -8  -1    2.20    0.55
  -8 -18  -1    2.08    0.71
   8  18  -1    1.30    0.44
  18  -8   1    1.13    0.63
  -8 -18   1    1.81    0.74
  18  -8   1    2.22    0.61
  18  -9  -1    3.27    0.61
   9  18  -1    4.01    0.59
 -18   9  -1    3.05    0.64
  -9 -18  -1    3.38    0.82
  18  -9  -1    3.46    0.72
  18  -9   1    3.12    0.67
  -9 -18   1    3.11    0.79
  18  -9   1    3.28    0.74
   9  18   1    4.00    0.63
 -10 -18  -1    2.37    0.78
  10  18  -1    2.71    0.55
 -18  10  -1    3.58    0.66
  18 -10  -1    3.42    0.81
  18 -10  -1    2.84    0.62
  18 -10   1    3.06    0.77
  10  18   1    3.41    0.64
  18 -10   1    4.01    0.71
 -10 -18   1    2.34    0.79
 -18  11  -1    1.54    0.57
 -11 -18  -1    1.62    0.79
  11  18  -1    1.81    0.52
  18 -11  -1    3.55    0.83
  18 -11  -1    1.81    0.60
  18 -11   1    1.46    0.67
  11  18   1    2.19    0.59
 -11 -18   1    2.92    0.83
  18 -11   1    1.55    0.69
  18 -12  -1    0.17    0.73
 -18  12  -1    0.61    0.54
 -12 -18  -1    1.41    0.80
  18 -12  -1    1.01    0.58
  12  18  -1    0.82    0.49
  18 -12   1    1.26    0.63
  18 -12   1   -0.08    0.67
  12  18   1    0.21    0.48
 -12 -18   1    0.57    0.77
  13  18  -1    0.82    0.50
 -18  13  -1    0.02    0.54
  18 -13  -1    0.44    0.60
 -13 -18  -1   -0.39    0.78
  18 -13  -1    0.56    0.72
 -13 -18   1    1.43    0.82
  13  18   1   -0.11    0.49
  18 -13   1    0.05    0.59
  18 -13   1    0.49    0.70
  18 -14  -1    0.84    0.63
  18 -14  -1    0.92    0.81
 -14 -18  -1    1.19    0.84
 -18  14  -1    0.91    0.61
  14  18  -1    1.22    0.55
 -14 -18   1    0.87    0.83
  18 -14   1    0.75    0.73
  18 -14   1    0.60    0.67
  14  18   1    1.35    0.63
  13 -19  -1    4.31    0.89
  19  13  -1    4.48    0.80
  13 -19   1    5.20    0.93
  19  13   1    4.06    0.79
 -19 -12  -1   -0.49    0.77
  19  12  -1    1.26    0.62
  12 -19  -1    0.21    0.76
  12 -19  -1    1.65    0.75
 -19 -12   1   -0.04    0.81
  12 -19   1    0.19    0.71
  19  12   1   -0.19    0.56
  11 -19  -1    1.07    0.73
 -19 -11  -1    0.31    0.80
  19  11  -1    0.66    0.52
  11 -19  -1    0.40    0.71
  19  11   1    0.64    0.60
 -19 -11   1    1.07    0.84
  11 -19   1    0.81    0.74
 -19 -10  -1    0.41    0.77
  19  10  -1   -0.33    0.50
  10 -19  -1    0.65    0.71
  10 -19  -1    0.61    0.70
  19  10   1    0.92    0.62
  10 -19   1   -0.49    0.68
 -19 -10   1    0.08    0.77
 -19  -9  -1    2.63    0.84
  19   9  -1    0.79    0.55
   9 -19  -1    0.29    0.68
   9 -19  -1    1.11    0.75
  19   9   1    1.31    0.63
   9 -19   1    1.57    0.77
 -19  -9   1    0.90    0.80
   8 -19  -1   -0.14    0.66
  19   8  -1    0.58    0.51
 -19  -8  -1   -0.66    0.67
 -19  -8  -1   -0.78    0.56
   8 -19  -1    0.45    0.66
   8 -19   1   -0.65    0.63
  19   8   1    0.01    0.57
  19   7  -1    0.82    0.50
 -19  -7  -1    0.48    0.56
   7 -19  -1    0.51    0.66
   7 -19  -1    2.36    0.74
  19   7   1    0.48    0.53
   7 -19   1    0.38    0.67
   6 -19  -1    6.61    0.90
 -19  -6  -1    5.55    0.80
  19   6  -1    7.31    0.82
   6 -19  -1    5.75    0.84
   6 -19   1    7.98    0.98
  19   6   1    7.49    0.84
  19   6   1    7.21    0.78
   5 -19  -1    3.86    0.77
 -19  -5  -1    2.48    0.67
  19   5  -1    3.00    0.62
   5 -19  -1    2.07    0.72
   5 -19   1    2.79    0.74
 -19  -5   1    3.75    0.65
  19   5   1    3.31    0.69
  19   5   1    3.11    0.58
 -19  -4  -1    5.81    0.79
  19   4  -1    6.51    0.78
   4 -19  -1    5.81    0.84
   4 -19  -1    6.26    0.88
  19   4   1    7.00    0.82
   4 -19   1    5.24    0.88
  19   4   1    6.39    0.74
 -19  -4   1    6.25    0.76
  19   3  -1    0.59    0.51
   3 -19  -1    0.56    0.62
  19   3  -1    0.15    0.36
 -19  -3  -1    0.13    0.51
  19   3   1    0.48    0.45
   3 -19   1   -0.24    0.63
 -19  -3   1   -0.10    0.46
  19   3   1   -0.40    0.49
   2 -19  -1   10.25    1.03
  19   2  -1   10.30    0.81
 -19  -2  -1   12.28    1.04
  19   2  -1   11.68    1.03
  19   2   1   11.81    1.00
 -19  -2   1   10.99    0.92
   2 -19   1    8.84    1.03
  19   2   1   12.04    0.92
   1 -19  -1   11.28    1.05
   1 -19  -1   10.05    0.80
  19   1  -1   10.84    0.98
  19   1  -1   10.44    0.85
 -19  -1  -1   10.49    0.96
 -19  -1   1   11.20    0.93
  19   1   1   11.01    1.00
   1 -19   1    9.29    1.03
  19   1   1   11.57    0.90
 -19   0  -1   12.31    1.03
  19   0  -1   13.85    1.09
   0 -19  -1   13.64    0.97
  19   0  -1   13.50    0.89
   0 -19  -1   12.28    1.13
 -19   0   1   13.30    0.97
  19   0   1   13.02    1.00
   0 -19   1   10.86    1.11
  19   0   1   12.50    1.07
  -1 -19  -1    6.62    0.89
  19  -1  -1    6.60    0.82
  19  -1  -1    5.70    0.66
 -19   1  -1    6.90    0.83
  -1 -19   1    7.29    0.92
  19  -1   1    6.16    0.71
 -19   1   1    6.52    0.75
  19  -1   1    5.71    0.77
  19  -2  -1   12.45    1.09
 -19   2  -1   10.38    0.97
  19  -2  -1   11.07    0.86
  -2 -19  -1   10.39    1.06
  19  -2   1   10.60    0.95
  -2 -19   1   12.52    1.12
  19  -2   1   13.40    1.09
 -19   2   1   10.10    0.92
  19  -3  -1    1.35    0.63
  19  -3  -1    0.41    0.41
  -3 -19  -1   -0.46    0.61
 -19   3  -1   -0.04    0.47
  -3 -19   1   -0.32    0.62
  19  -3   1   -0.06    0.46
 -19   3   1   -0.05    0.45
  19  -3   1    0.17    0.54
  19  -4  -1    2.44    0.52
 -19   4  -1    2.39    0.59
  -4 -19  -1    3.13    0.75
  19  -4  -1    3.28    0.67
  -4 -19   1    3.30    0.76
 -19   4   1    2.53    0.56
  19  -4   1    2.55    0.65
  19  -4   1    1.97    0.56
  19  -5  -1    1.98    0.69
  19  -5  -1    1.52    0.49
  -5 -19  -1    0.49    0.68
 -19   5  -1    0.43    0.47
  19  -5   1    0.82    0.50
  19  -5   1    0.67    0.60
  -5 -19   1    1.07    0.68
 -19   5   1    0.68    0.49
  19  -6  -1    0.30    0.58
  -6 -19  -1   -0.30    0.60
  19  -6  -1   -0.56    0.40
 -19   6  -1    0.43    0.48
  19  -6   1    0.22    0.57
  19  -6   1    0.06    0.48
 -19   6   1    0.04    0.46
  -6 -19   1   -0.16    0.61
   7  19  -1    0.40    0.42
  -7 -19  -1    0.73    0.67
  19  -7  -1    0.45    0.65
  19  -7  -1    0.39    0.46
 -19   7  -1   -0.08    0.49
  -7 -19   1   -0.48    0.64
 -19   7   1   -0.13    0.47
  19  -7   1    0.24    0.50
  19  -7   1    0.41    0.63
   8  19  -1    2.93    0.56
  -8 -19  -1    3.06    0.84
 -19   8  -1    4.51    0.75
  19  -8  -1    4.09    0.80
  19  -8  -1    4.33    0.69
  -8 -19   1    3.88    0.87
  19  -8   1    3.36    0.70
  19  -8   1    5.94    0.86
 -19   8   1    4.19    0.73
 -19   9  -1    1.54    0.58
   9  19  -1    1.75    0.52
  19  -9  -1    3.92    0.81
  -9 -19  -1    1.61    0.73
  19  -9  -1    2.41    0.59
  -9 -19   1    2.13    0.79
  19  -9   1    2.02    0.70
  19  -9   1    2.27    0.65
   9  19   1    1.39    0.54
 -19  10  -1    2.30    0.66
  10  19  -1    1.97    0.53
  19 -10  -1    2.50    0.82
  19 -10  -1    2.84    0.62
 -10 -19  -1    1.95    0.82
  19 -10   1    2.01    0.67
 -10 -19   1    2.77    0.86
  19 -10   1    1.95    0.75
  10  19   1    2.85    0.62
 -19  11  -1    2.25    0.67
  11  19  -1    2.43    0.57
  19 -11  -1    3.27    0.85
  19 -11  -1    1.67    0.60
 -11 -19  -1    2.13    0.85
 -11 -19   1    2.35    0.82
  11  19   1    1.71    0.60
  19 -11   1    1.31    0.68
  19 -11   1    3.02    0.80
  19 -12  -1    5.08    0.96
 -19  12  -1    4.25    0.78
  12  19  -1    3.58    0.66
 -12 -19  -1    3.26    0.89
  19 -12  -1    2.76    0.70
  12  19   1    5.04    0.77
 -12 -19   1    2.88    0.90
  19 -12   1    3.49    0.77
  19 -12   1    4.26    0.88
  13  19  -1    7.98    0.86
 -19  13  -1    4.31    0.78
  19 -13  -1    5.86    0.88
  19 -13  -1    6.75    1.07
  19 -13   1    5.05    0.88
  19 -13   1    4.75    0.92
  13  19   1    5.85    0.81
  20  11  -1    0.95    0.61
  11 -20  -1   -0.63    0.73
  11 -20  -1   -0.92    0.69
 -20 -11  -1    0.85    0.88
 -20 -11   1    1.26    0.90
  11 -20   1   -0.15    0.73
  20  11   1    1.49    0.68
  20  10  -1    6.91    0.87
 -20 -10  -1    5.44    1.04
  10 -20  -1    5.08    0.94
  10 -20  -1    5.22    0.92
 -20 -10   1    6.18    1.06
  20  10   1    5.55    0.87
  10 -20   1    6.28    1.01
  20   9  -1    5.42    0.78
   9 -20  -1    4.25    0.89
 -20  -9  -1    5.87    1.04
   9 -20  -1    5.01    0.92
  20   9   1    5.92    0.88
 -20  -9   1    5.74    1.02
   9 -20   1    5.65    0.98
   8 -20  -1   10.99    1.12
 -20  -8  -1   10.98    1.22
  20   8  -1   10.58    1.02
   8 -20  -1    9.66    1.08
  20   8   1   10.59    1.05
   8 -20   1   10.40    1.14
   7 -20  -1    1.58    0.76
  20   7  -1    1.37    0.57
   7 -20  -1    2.01    0.76
 -20  -7  -1    1.50    0.65
  20   7   1    1.23    0.64
   7 -20   1    1.94    0.77
 -20  -6  -1    5.47    0.83
   6 -20  -1    6.65    0.96
   6 -20  -1    7.02    0.94
  20   6  -1    7.02    0.86
  20   6   1    8.21    0.94
  20   6   1    6.68    0.81
   6 -20   1    6.74    0.96
  20   5  -1    5.26    0.78
   5 -20  -1    3.95    0.81
   5 -20  -1    5.50    0.90
 -20  -5  -1    3.98    0.76
   5 -20   1    4.61    0.89
  20   5   1    4.38    0.69
  20   5   1    5.04    0.77
  20   4  -1    4.21    0.75
   4 -20  -1    1.58    0.73
 -20  -4  -1    2.51    0.67
  20   4   1    3.35    0.72
  20   4   1    2.62    0.60
   4 -20   1    3.53    0.84
 -20  -4   1    2.15    0.61
 -20  -3  -1    0.94    0.59
  20   3  -1   -0.04    0.38
   3 -20  -1    0.18    0.69
  20   3  -1    0.34    0.50
 -20  -3   1    0.61    0.53
  20   3   1    0.42    0.52
   3 -20   1   -0.52    0.63
  20   3   1    0.30    0.47
 -20  -2  -1    2.25    0.63
  20   2  -1    3.24    0.55
   2 -20  -1    3.67    0.80
  20   2  -1    2.48    0.63
   2 -20   1    2.51    0.81
  20   2   1    2.52    0.58
 -20  -2   1    2.89    0.64
  20   2   1    2.52    0.64
 -20  -1  -1    0.68    0.55
  20   1  -1    1.56    0.60
   1 -20  -1    1.11    0.72
  20   1  -1    1.51    0.48
  20   1   1    1.37    0.54
   1 -20   1    1.33    0.72
  20   1   1    1.37    0.60
 -20  -1   1    1.21    0.55
  20   0  -1    0.97    0.46
  20   0  -1    1.77    0.61
   0 -20  -1    1.65    0.73
 -20   0  -1    2.01    0.62
  20   0   1    2.15    0.58
  20   0   1    2.00    0.64
 -20   0   1    1.97    0.57
   0 -20   1    1.63    0.73
 -20   1  -1    0.71    0.55
  20  -1  -1    0.69    0.58
  20  -1  -1    0.16    0.39
  -1 -20  -1    0.13    0.66
 -20   1   1    0.10    0.46
  -1 -20   1    0.35    0.68
  20  -1   1    0.31    0.47
  20  -1   1    0.18    0.52
  20  -2  -1   11.52    0.88
 -20   2  -1   10.58    0.99
  -2 -20  -1    8.93    1.04
  20  -2  -1   12.01    1.10
  -2 -20   1    9.67    1.09
  20  -2   1   11.25    1.09
 -20   2   1    9.70    0.92
  20  -2   1   10.18    0.94
 -20   3  -1    0.23    0.51
  20  -3  -1    0.73    0.44
  -3 -20  -1    0.85    0.72
  20  -3  -1    0.96    0.67
  20  -3   1   -0.38    0.48
  20  -3   1    0.76    0.59
 -20   3   1    1.15    0.51
  -3 -20   1    0.98    0.73
  -4 -20  -1    8.59    1.04
 -20   4  -1    8.52    0.95
  20  -4  -1   11.00    1.06
  20  -4  -1   10.95    0.88
  -4 -20   1    8.92    1.06
  20  -4   1   10.94    1.00
  20  -4   1   11.49    1.09
 -20   4   1   12.67    1.07
  -5 -20  -1    5.61    0.93
  20  -5  -1    6.29    0.88
 -20   5  -1    4.64    0.78
  20  -5  -1    4.80    0.65
  20  -5   1    4.29    0.72
  20  -5   1    6.16    0.92
 -20   5   1    5.80    0.80
  -5 -20   1    3.68    0.87
  -6 -20  -1    2.12    0.82
  20  -6  -1    4.41    0.85
 -20   6  -1    2.81    0.68
  20  -6  -1    3.91    0.64
  20  -6   1    3.61    0.77
  20  -6   1    3.50    0.70
  -6 -20   1    2.33    0.84
 -20   6   1    3.16    0.66
  -7 -20  -1    3.10    0.85
  20  -7  -1    3.60    0.81
  20  -7  -1    3.67    0.64
 -20   7  -1    2.54    0.63
  20  -7   1    3.08    0.78
  -7 -20   1    2.31    0.82
  20  -7   1    2.68    0.67
 -20   7   1    1.57    0.63
 -20   8  -1    8.89    1.01
  20  -8  -1    7.37    0.82
  20  -8  -1    8.34    1.02
  -8 -20  -1    6.84    0.99
  20  -8   1    6.44    0.85
  20  -8   1    7.25    0.96
 -20   8   1    8.59    0.96
  -8 -20   1    7.38    1.03
  -9 -20  -1    5.12    0.98
  20  -9  -1    4.99    0.73
  20  -9  -1    6.45    1.00
 -20   9  -1    5.61    0.85
   9  20   1    5.73    0.76
  -9 -20   1    4.51    0.97
  20  -9   1    4.82    0.78
  20  -9   1    5.07    0.87
 -20   9   1    4.47    0.79
 -20  10  -1    3.05    0.75
  20 -10  -1    2.82    0.66
 -10 -20  -1    3.91    0.90
  20 -10  -1    3.67    0.91
  20 -10   1    2.35    0.79
 -10 -20   1    3.69    0.93
  20 -10   1    3.17    0.73
  10  20   1    2.62    0.60
 -20  10   1    2.39    0.69
 -11 -20  -1   -0.66    0.78
  20 -11  -1   -0.33    0.51
 -20  11  -1   -0.85    0.51
  20 -11  -1    1.09    0.79
  20 -11   1   -0.04    0.71
 -11 -20   1    0.35    0.79
  20 -11   1   -0.43    0.60
  11  20   1    0.31    0.55
  21   9  -1    0.32    0.59
   9 -21  -1    0.33    0.73
   9 -21  -1   -0.45    0.76
 -21  -9  -1   -0.02    0.87
  21   9   1    0.14    0.66
   9 -21   1    0.46    0.81
 -21  -9   1    0.24    0.86
 -21  -8  -1    0.58    0.86
   8 -21  -1    0.24    0.76
  21   8  -1    0.27    0.55
   8 -21  -1   -0.97    0.68
  21   8   1    0.05    0.63
 -21  -8   1    1.33    0.88
   8 -21   1   -0.35    0.74
  21   7  -1   -0.23    0.55
   7 -21  -1   -0.66    0.71
 -21  -7  -1    0.42    0.82
   7 -21  -1    0.33    0.75
 -21  -7  -1    0.32    0.70
   7 -21   1    0.61    0.77
  21   7   1    0.85    0.67
 -21  -6  -1    3.67    0.79
   6 -21  -1    0.93    0.75
  21   6  -1    3.17    0.72
   6 -21  -1    3.12    0.82
   6 -21   1    1.19    0.78
  21   6   1    1.73    0.69
   5 -21  -1    0.38    0.75
  21   5  -1    0.44    0.58
 -21  -5  -1    0.49    0.65
  21   5   1    0.55    0.60
  21   5   1    0.25    0.51
   5 -21   1    0.24    0.73
 -21  -4  -1   12.46    1.14
  21   4  -1   13.97    1.15
   4 -21  -1    9.99    1.13
  21   4   1   13.88    1.05
  21   4   1   14.35    1.21
   4 -21   1   10.84    1.18
  21   3  -1    1.05    0.60
   3 -21  -1   -0.02    0.71
 -21  -3  -1    1.28    0.64
 -21  -3   1    1.15    0.60
  21   3   1    0.54    0.54
   3 -21   1    1.63    0.80
  21   3   1    1.70    0.65
  21   2  -1   16.37    1.30
   2 -21  -1   15.44    1.31
  21   2  -1   16.71    1.29
 -21  -2  -1   15.14    1.20
 -21  -2   1   14.78    1.12
  21   2   1   15.57    1.12
  21   2   1   16.90    1.26
   2 -21   1   14.77    1.30
 -21  -1  -1    2.83    0.71
   1 -21  -1    2.64    0.85
  21   1  -1    2.32    0.68
  21   1  -1    2.33    0.57
  21   1   1    1.64    0.59
 -21  -1   1    2.32    0.63
  21   1   1    2.72    0.74
   1 -21   1    3.99    0.89
  21   0  -1    8.58    0.99
 -21   0  -1   11.18    1.07
  21   0  -1    9.45    0.91
   0 -21  -1    9.53    1.09
   0 -21   1    9.90    1.13
  21   0   1   11.38    1.05
 -21   0   1    7.78    0.87
  21   0   1    9.86    0.94
  21  -1  -1    1.40    0.69
  -1 -21  -1    0.71    0.75
  21  -1  -1    1.66    0.51
 -21   1  -1    2.01    0.65
  21  -1   1    1.45    0.58
 -21   1   1    2.42    0.66
  21  -1   1    1.29    0.64
  -1 -21   1    1.09    0.79
 -21   2  -1    8.86    0.99
  21  -2  -1    9.84    0.88
  21  -2  -1    8.96    1.05
  -2 -21  -1    9.41    1.10
  21  -2   1    7.76    0.87
  -2 -21   1    7.61    1.02
 -21   2   1    7.41    0.91
  21  -2   1    9.32    1.00
  21  -3  -1    1.10    0.50
 -21   3  -1    1.33    0.63
  -3 -21  -1    0.90    0.80
  21  -3  -1    0.92    0.71
  -3 -21   1   -0.12    0.73
  21  -3   1    1.27    0.63
  21  -3   1    1.86    0.58
 -21   3   1    1.44    0.59
  -4 -21  -1    1.59    0.81
  21  -4  -1    3.03    0.56
 -21   4  -1    1.74    0.66
  21  -4  -1    1.00    0.68
  -4 -21   1    1.00    0.78
  21  -4   1    2.76    0.66
  21  -4   1    1.74    0.73
 -21   4   1    2.03    0.63
  21  -5  -1    0.25    0.64
  -5 -21  -1   -1.04    0.68
 -21   5  -1    0.12    0.56
  21  -5  -1    0.60    0.48
  21  -5   1   -0.35    0.66
 -21   5   1    0.23    0.56
  21  -5   1    0.36    0.56
  -5 -21   1    0.04    0.70
  21  -6  -1   -0.93    0.63
 -21   6  -1    0.07    0.55
  -6 -21  -1   -0.29    0.72
  21  -6  -1    0.01    0.47
  21  -6   1   -1.19    0.62
  -6 -21   1   -0.25    0.75
  21  -6   1    0.70    0.58
 -21   6   1   -0.07    0.54
 -21   7  -1    0.13    0.55
  21  -7  -1   -0.44    0.69
  21  -7  -1   -0.35    0.49
  -7 -21  -1    0.17    0.78
  21  -7   1   -0.16    0.54
  -7 -21   1   -0.07    0.81
  21  -7   1   -0.37    0.64
 -21   7   1   -0.01    0.53
  21  -8  -1    1.61    0.69
 -21   8  -1    0.94    0.63
  -8 -21  -1    2.49    0.88
  21  -8  -1    1.39    0.85
  -8 -21   1    0.15    0.80
  21  -8   1    1.16    0.75
  21  -8   1    0.17    0.60
 -21   8   1    0.82    0.58
  21  -9  -1    0.45    0.78
 -21   9  -1   -0.34    0.55
  21  -9  -1    0.41    0.77
  -9 -21  -1    1.50    0.84
  21  -9   1    0.11    0.76
   9  21   1   -0.45    0.47
  21  -9   1    0.85    0.63
  -9 -21   1    0.77    0.85
 -21   9   1    1.29    0.63
 -22  -6  -1    2.80    0.78
   6 -22  -1    3.70    0.89
  22   6  -1    2.44    0.76
   6 -22   1    0.94    0.82
  22   6   1    2.22    0.73
   5 -22  -1    1.04    0.79
 -22  -5  -1    0.58    0.68
  22   5  -1    0.30    0.64
  22   5   1    0.28    0.54
  22   5   1    1.12    0.67
   5 -22   1    1.01    0.82
   4 -22  -1    4.20    0.92
 -22  -4  -1    3.51    0.79
  22   4  -1    2.78    0.78
   4 -22   1    3.54    0.94
  22   4   1    2.53    0.65
  22   4   1    2.98    0.78
   3 -22  -1   -0.66    0.74
 -22  -3  -1    1.24    0.68
  22   3  -1   -0.36    0.55
  22   3   1   -0.42    0.58
 -22  -3   1    0.41    0.62
  22   3   1    0.23    0.53
   3 -22   1   -1.49    0.69
   2 -22  -1   -0.39    0.76
 -22  -2  -1   -0.03    0.59
  22   2  -1    0.01    0.63
 -22  -2   1    0.38    0.63
   2 -22   1   -0.56    0.72
  22   2   1    0.20    0.52
  22   2   1    0.04    0.60
   1 -22  -1    0.83    0.79
 -22  -1  -1    1.33    0.66
  22   1  -1    0.34    0.64
 -22  -1   1    0.92    0.62
  22   1   1    0.70    0.67
  22   1   1    1.66    0.61
   1 -22   1    1.81    0.85
 -22   0  -1    1.32    0.68
   0 -22  -1    1.28    0.83
  22   0  -1    0.93    0.66
  22   0   1    1.05    0.67
   0 -22   1    0.80    0.80
  22   0   1    1.02    0.55
 -22   0   1    1.35    0.60
  22  -1  -1    1.53    0.78
 -22   1  -1    1.05    0.66
  -1 -22  -1   -0.75    0.75
  22  -1   1   -0.61    0.62
  22  -1   1    0.02    0.51
  -1 -22   1    0.37    0.82
 -22   1   1    0.53    0.59
  -2 -22  -1    3.91    0.92
 -22   2  -1    6.12    0.89
  22  -2  -1    5.89    0.94
 -22   2   1    3.52    0.77
  22  -2   1    6.00    0.89
  -2 -22   1    4.33    0.96
  22  -2   1    5.05    0.75
  22  -3  -1    0.36    0.72
 -22   3  -1    0.11    0.58
  -3 -22  -1    1.55    0.82
  22  -3   1    1.33    0.56
  22  -3   1    0.15    0.66
 -22   3   1    1.00    0.62
  -3 -22   1    0.66    0.80
  22  -4  -1    8.73    1.08
  -4 -22  -1    6.61    1.08
 -22   4  -1   11.07    1.09
  -4 -22   1    6.70    1.10
  22  -4   1    8.90    0.94
  22  -4   1    7.82    1.00
 -22   4   1   10.40    1.08
  -5 -22  -1    0.43    0.85
  22  -5  -1    0.66    0.71
 -22   5  -1    1.24    0.65
  22  -5   1    0.36    0.58
  22  -5   1   -0.46    0.68
 -22   5   1    0.50    0.59
  -5 -22   1    0.46    0.83
 -22   6  -1    7.91    0.99
  -6 -22  -1    7.22    1.07
  22  -6  -1   11.06    1.21
 -22   6   1    8.93    1.03
  -6 -22   1    5.75    1.06
  22  -6   1    8.38    1.10
  22  -6   1    7.40    0.92
 -23  -2  -1    8.34    1.07
 -23  -1  -1    0.28    0.66
  23   1   1    0.77    0.59
 -23  -1   1    0.38    0.62
  23   0  -1   12.54    1.23
 -23   0  -1   10.94    1.15
 -23   0   1   10.98    1.11
  23   0   1    9.97    1.14
  23   0   1   13.10    1.12
 -23   1  -1    0.61    0.69
  23  -1   1    1.14    0.59
 -23   1   1    1.37    0.67
   0   0  -2    0.39    0.15
   0   0  -2    0.15    0.11
   1   0  -2    2.88    0.22
   0   1  -2    2.83    0.21
   0  -1  -2    2.87    0.25
  -1   0  -2    3.08    0.25
   0  -1  -2    2.40    0.20
   0   1  -2    2.48    0.16
   1   0  -2    2.59    0.21
   1   0   2    2.60    0.23
   1   0   2    3.10    0.17
   0   1   2    2.17    0.21
  -1   1  -2    2.30    0.20
   1   1  -2    1.33    0.15
   1  -1  -2    2.28    0.22
  -1  -1  -2    1.45    0.13
   1   1  -2    1.69    0.14
  -1  -1  -2    1.44    0.20
   1  -1  -2    1.95    0.19
   1  -1   2    1.95    0.16
   1   1   2    1.37    0.18
  -1   1   2    1.56    0.17
   1   1   2    1.65    0.15
  -1   2  -2    6.60    0.32
  -2  -1  -2    6.13    0.37
   2   1  -2    6.43    0.30
   2   1  -2    5.85    0.30
   1  -2  -2    6.72    0.37
   1  -2  -2    7.26    0.37
  -2  -1  -2    6.62    0.31
  -1   2   2    6.58    0.33
   1  -2   2    7.20    0.31
   2   1   2    6.51    0.32
   2   1   2    6.59    0.35
   0  -2  -2   39.73    1.34
   2   0  -2   39.15    1.29
   0  -2  -2   38.01    1.25
   0  -2  -2   38.94    1.32
   0   2  -2   40.02    1.28
  -2   0  -2   38.86    1.34
   2   0  -2   38.84    1.30
   0   2   2   39.87    1.32
   2   0   2   39.18    1.29
   2   0   2   39.63    1.33
   0  -2   2   38.03    1.31
   0   2   2   40.18    1.26
  -2   1  -2    1.41    0.18
  -1  -2  -2    0.85    0.19
   1   2  -2    1.12    0.11
   2  -1  -2    1.05    0.17
   2  -1  -2    1.37    0.17
  -1  -2  -2    1.19    0.14
   2  -1   2    1.16    0.16
   1   2   2    1.11    0.16
  -2   1   2    1.03    0.15
   1   2   2    1.31    0.15
   2  -1   2    0.93    0.11
  -2   2  -2   20.23    0.74
   2   2  -2   20.44    0.70
   2  -2  -2   20.65    0.77
  -2  -2  -2   20.12    0.73
   2  -2  -2   20.34    0.76
   2  -2   2   20.58    0.67
   2  -2   2   20.29    0.74
   2   2   2   20.03    0.73
   2   2   2   21.59    0.77
  -2   2   2   20.59    0.73
   3   2  -2    8.37    0.35
   2  -3  -2    8.17    0.33
   2  -3  -2    8.35    0.41
  -3  -2  -2    7.39    0.43
  -3  -2  -2    7.46    0.38
  -2   3  -2    7.96    0.36
   3   2  -2    7.70    0.31
   2  -3  -2    7.84    0.42
   2  -3   2    8.14    0.39
   3   2   2    7.69    0.39
   2  -3   2    8.49    0.30
  -2   3   2    7.69    0.37
   3   2   2    7.34    0.38
   3   1  -2    4.08    0.25
   1  -3  -2    3.95    0.31
   1  -3  -2    4.12    0.23
   3   1  -2    4.10    0.22
   1  -3  -2    4.10    0.30
  -1   3  -2    4.30    0.24
  -3  -1  -2    4.19    0.27
   1  -3   2    3.80    0.26
   3   1   2    3.83    0.28
  -1   3   2    4.09    0.27
   3   1   2    4.76    0.29
   3   0  -2    7.88    0.34
   3   0  -2    7.43    0.37
   0  -3  -2    7.06    0.40
   0   3  -2    7.71    0.32
  -3   0  -2    7.29    0.40
   0  -3  -2    7.20    0.34
   0  -3  -2    7.87    0.41
   3   0   2    8.78    0.41
   0   3   2    7.81    0.38
   3   0   2    7.58    0.36
   3   0   2    7.64    0.34
   0  -3   2    7.58    0.34
   3  -1  -2    5.68    0.30
  -3   1  -2    5.98    0.35
  -1  -3  -2    5.37    0.30
   3  -1  -2    6.01    0.33
  -1  -3  -2    5.75    0.37
   1   3  -2    5.45    0.23
  -3   1   2    5.89    0.30
  -1  -3   2    6.18    0.27
   1   3   2    5.78    0.30
   1   3   2    5.38    0.33
   3  -1   2    6.12    0.32
   3  -1   2    5.32    0.27
  -2  -3  -2    4.84    0.35
  -2  -3  -2    4.83    0.29
   2   3  -2    4.80    0.23
  -3   2  -2    4.04    0.28
   3  -2  -2    4.70    0.32
   3  -2  -2    4.65    0.29
   3  -2   2    4.46    0.23
  -2  -3   2    5.11    0.24
  -3   2   2    4.18    0.25
   3  -2   2    4.43    0.30
   2   3   2    4.89    0.29
   2   3   2    4.93    0.31
  -3  -3  -2    3.89    0.29
   3  -3  -2    2.75    0.27
  -3   3  -2    3.93    0.25
   3  -3  -2    3.60    0.21
   3   3  -2    3.20    0.22
   3  -3  -2    3.44    0.28
  -3  -3  -2    3.04    0.29
   3   3   2    3.29    0.27
   3  -3   2    3.50    0.21
  -3   3   2    3.18    0.24
   3   3   2    3.80    0.27
   3  -3   2    3.95    0.29
   4   3  -2  113.76    3.67
   3  -4  -2  117.20    3.72
   3  -4  -2  115.63    3.74
  -3   4  -2  116.03    3.68
  -4  -3  -2  113.54    3.71
   3  -4  -2  116.54    3.66
  -4  -3  -2  120.48    3.76
   4   3   2  116.63    3.72
   3  -4   2  117.32    3.72
   4   3   2  118.17    3.73
  -3   4   2  119.18    3.70
   3  -4   2  119.55    3.63
  -4  -2  -2    7.72    0.45
   2  -4  -2    7.69    0.36
  -4  -2  -2    7.41    0.40
   2  -4  -2    9.11    0.43
  -2   4  -2    7.87    0.35
   4   2  -2    7.09    0.36
   2  -4  -2    8.18    0.44
  -2   4   2    7.78    0.40
   4   2   2    7.28    0.39
   2  -4   2    8.10    0.31
   4   2   2    7.29    0.40
   2  -4   2    7.63    0.40
   1  -4  -2   33.41    1.23
   4   1  -2   35.75    1.19
   1  -4  -2   34.77    1.17
  -1   4  -2   34.67    1.15
  -4  -1  -2   36.27    1.25
  -1   4   2   34.28    1.22
   4   1   2   34.01    1.21
   4   1   2   36.62    1.20
   1  -4   2   34.40    1.19
   4   1   2   35.91    1.21
   4   0  -2   43.35    1.44
   4   0  -2   44.09    1.41
   0   4  -2   43.26    1.37
   0  -4  -2   43.34    1.42
   0  -4  -2   41.88    1.48
  -4   0  -2   42.74    1.47
   0  -4  -2   40.97    1.48
   0   4   2   45.01    1.48
   0  -4   2   42.25    1.42
   4   0   2   43.21    1.45
   4   0   2   42.69    1.45
   4   0   2   43.26    1.42
   4  -1  -2  236.10    7.48
   1   4  -2  243.51    7.38
  -4   1  -2  237.54    7.49
   4  -1  -2  241.50    7.45
  -1  -4  -2  247.13    7.52
  -1  -4  -2  238.52    7.46
   4  -1   2  244.43    7.48
   4  -1   2  242.89    7.48
   1   4   2  246.74    7.51
  -4   1   2  236.97    7.42
  -1  -4   2  243.03    7.44
   4  -1   2  238.01    7.43
   4  -2  -2   52.36    1.68
  -4   2  -2   52.85    1.77
   4  -2  -2   53.10    1.79
   4  -2  -2   53.58    1.76
  -2  -4  -2   55.89    1.83
  -2  -4  -2   51.96    1.76
   2   4  -2   53.87    1.69
  -2  -4   2   54.82    1.73
   2   4   2   55.40    1.82
  -4   2   2   52.98    1.70
   2   4   2   53.65    1.76
   4  -2   2   52.00    1.78
   4  -2   2   52.73    1.72
   4  -3  -2  112.32    3.63
   4  -3  -2  112.62    3.53
  -3  -4  -2  113.99    3.65
   3   4  -2  110.98    3.53
  -4   3  -2  110.97    3.59
  -3  -4  -2  111.80    3.60
   4  -3  -2  116.52    3.60
  -4   3   2  116.81    3.55
   4  -3   2  113.64    3.61
  -3  -4   2  112.06    3.55
   3   4   2  109.44    3.63
   3   4   2  115.38    3.60
   4  -3   2  116.46    3.54
   4  -4  -2   43.58    1.55
   4   4  -2   44.67    1.47
  -4  -4  -2   46.96    1.58
   4  -4  -2   42.78    1.52
   4  -4  -2   43.96    1.47
  -4   4  -2   42.46    1.49
  -4  -4  -2   45.31    1.53
   4  -4   2   44.79    1.54
   4   4   2   44.99    1.56
   4   4   2   45.66    1.53
  -4   4   2   43.58    1.49
   4  -4   2   44.72    1.45
  -4   5  -2    0.06    0.12
  -5  -4  -2    0.00    0.17
  -5  -4  -2    0.28    0.20
   4  -5  -2    0.11    0.15
   4  -5  -2    0.16    0.18
   4  -5  -2    0.08    0.20
   5   4  -2    0.07    0.13
   5   4   2    0.04    0.17
   4  -5   2    0.14    0.14
  -5  -4   2    0.12    0.09
   4  -5   2   -0.04    0.18
   5   4   2    0.09    0.17
   3  -5  -2   10.71    0.56
  -5  -3  -2   11.44    0.57
  -5  -3  -2   10.97    0.53
  -3   5  -2   11.13    0.47
   3  -5  -2   10.41    0.48
   5   3  -2   10.84    0.48
   3  -5  -2   10.78    0.52
   5   3   2   11.25    0.53
   5   3   2   10.84    0.52
   3  -5   2    9.97    0.52
   3  -5   2   10.77    0.44
  -3   5   2   10.32    0.52
  -5  -2  -2   23.24    0.91
   2  -5  -2   21.31    0.87
   5   2  -2   22.21    0.84
  -2   5  -2   22.73    0.81
   2  -5  -2   23.16    0.84
   2  -5  -2   23.73    0.92
   2  -5   2   22.33    0.87
   5   2   2   22.73    0.88
  -2   5   2   23.04    0.89
   2  -5   2   23.22    0.77
   5   2   2   22.86    0.85
   1  -5  -2    5.03    0.37
   5   1  -2    3.64    0.29
  -5  -1  -2    2.91    0.30
   1  -5  -2    5.39    0.37
  -1   5  -2    4.82    0.25
   1  -5  -2    4.49    0.31
   1  -5   2    4.35    0.32
   5   1   2    3.76    0.30
  -1   5   2    4.81    0.35
   1  -5   2    4.74    0.22
   5   1   2    4.33    0.30
   5   1   2    4.41    0.34
  -5   0  -2   44.85    1.53
   0  -5  -2   42.27    1.48
   5   0  -2   43.43    1.50
   0  -5  -2   42.11    1.53
   0   5  -2   44.60    1.40
   0  -5  -2   45.08    1.54
   5   0   2   44.57    1.51
   0  -5   2   43.85    1.48
   5   0   2   43.97    1.47
   5   0   2   43.16    1.49
   0   5   2   45.82    1.56
   5  -1  -2    0.07    0.08
  -5   1  -2   -0.15    0.13
   5  -1  -2    0.00    0.15
  -1  -5  -2   -0.07    0.15
   1   5  -2   -0.05    0.08
  -1  -5  -2   -0.03    0.17
   5  -1   2   -0.06    0.14
  -1  -5   2    0.13    0.15
  -5   1   2   -0.10    0.09
   5  -1   2   -0.06    0.16
   1   5   2   -0.29    0.14
   5  -1   2    0.03    0.12
   5  -2  -2   -0.05    0.16
   2   5  -2    0.33    0.10
   5  -2  -2    0.36    0.15
  -5   2  -2    0.32    0.16
   5  -2  -2    0.29    0.11
  -2  -5  -2    0.65    0.22
  -2  -5  -2    0.57    0.18
  -2  -5   2    0.19    0.15
   5  -2   2    0.11    0.17
   2   5   2    0.26    0.18
  -5   2   2    0.21    0.09
   5  -2   2    0.20    0.13
   5  -3  -2   14.84    0.61
  -5   3  -2   13.84    0.61
   5  -3  -2   13.67    0.64
  -3  -5  -2   15.36    0.68
  -3  -5  -2   14.62    0.63
   3   5  -2   13.85    0.54
   5  -3  -2   13.95    0.54
   3   5   2   14.55    0.67
  -5   3   2   13.78    0.53
  -3  -5   2   13.35    0.58
   5  -3   2   13.70    0.63
   5  -3   2   13.91    0.56
   5  -4  -2    7.15    0.41
  -5   4  -2    6.59    0.38
   4   5  -2    6.42    0.33
   5  -4  -2    6.05    0.35
   5  -4  -2    5.54    0.42
  -4  -5  -2    6.34    0.45
  -4  -5  -2    5.62    0.41
  -5   4   2    6.41    0.34
   4   5   2    6.13    0.45
  -4  -5   2    6.40    0.39
   4   5   2    5.88    0.39
   5  -4   2    7.11    0.36
   5  -4   2    6.68    0.43
   5   5  -2    9.04    0.44
   5  -5  -2    9.06    0.46
  -5  -5  -2    8.90    0.51
  -5   5  -2    9.95    0.48
   5  -5  -2    9.28    0.55
  -5  -5  -2    8.89    0.54
   5  -5  -2    8.52    0.49
   5  -5   2    9.45    0.44
  -5  -5   2    8.58    0.46
   5   5   2    9.28    0.51
   5  -5   2    9.36    0.54
   5   5   2    9.01    0.56
   5  -6  -2   96.45    3.27
   6   5  -2  101.32    3.27
   5  -6  -2   99.96    3.35
  -6  -5  -2  104.91    3.37
   5  -6  -2  101.17    3.31
  -5   6  -2  101.40    3.28
  -6  -5  -2  105.71    3.35
   5  -6   2   98.48    3.34
   5  -6   2  100.85    3.24
   6   5   2  103.87    3.38
   6   5   2  102.64    3.32
  -6  -5   2  104.67    3.17
   6   4  -2    8.67    0.46
  -4   6  -2    9.57    0.46
   4  -6  -2   10.26    0.58
  -6  -4  -2    9.05    0.55
   4  -6  -2    8.63    0.51
  -6  -4  -2    8.10    0.52
   4  -6  -2    9.46    0.49
   4  -6   2   10.22    0.45
   6   4   2    9.26    0.51
   6   4   2    9.89    0.54
   4  -6   2    9.10    0.54
   6   4   2    9.08    0.52
  -6  -4   2    9.59    0.39
  -6  -3  -2  165.96    5.23
   3  -6  -2  164.12    5.20
   3  -6  -2  164.00    5.16
   3  -6  -2  163.74    5.23
   6   3  -2  165.36    5.16
  -6  -3  -2  161.72    5.20
  -3   6  -2  162.25    5.13
   6   3   2  160.48    5.19
   6   3   2  164.56    5.19
   3  -6   2  167.96    5.10
   3  -6   2  165.61    5.21
   6   3   2  166.37    5.20
  -6  -2  -2    2.72    0.30
   6   2  -2    3.07    0.29
  -2   6  -2    2.69    0.22
   2  -6  -2    2.82    0.31
   2  -6  -2    2.33    0.31
   2  -6  -2    2.70    0.28
   2  -6   2    2.48    0.21
   2  -6   2    2.61    0.29
   6   2   2    3.02    0.27
   6   2   2    2.83    0.30
   6   2   2    2.52    0.27
   1  -6  -2  257.21    8.06
   1  -6  -2  264.92    8.13
  -6  -1  -2  266.73    8.12
   1  -6  -2  252.79    8.09
   6   1  -2  253.69    8.07
   6   1   2  257.68    8.09
  -1   6   2  261.95    8.15
   1  -6   2  264.14    8.08
   6   1   2  261.33    8.05
   6   1   2  258.46    8.07
  -6   0  -2   25.29    1.00
   0  -6  -2   27.68    0.99
   6   0  -2   25.32    0.99
   0   6  -2   27.26    0.88
   0  -6  -2   26.62    1.04
   6   0  -2   26.19    0.88
   0  -6  -2   26.65    1.02
   6   0   2   25.79    0.97
   0  -6   2   27.86    1.00
   0   6   2   26.84    1.06
   6   0   2   24.65    1.00
   6   0   2   24.20    0.96
   6  -1  -2  424.10   13.15
  -1  -6  -2  419.98   13.13
  -6   1  -2  419.93   13.16
   6  -1  -2  422.51   13.04
  -1  -6  -2  439.90   13.18
   1   6   2  428.52   13.22
   6  -1   2  429.77   13.16
   6  -1   2  418.02   13.10
  -1  -6   2  434.06   13.13
  -6   1   2  421.88   13.03
   6  -1   2  430.88   13.11
   2   6  -2    0.34    0.12
  -2  -6  -2    0.29    0.23
  -2  -6  -2    0.64    0.21
   6  -2  -2    0.54    0.20
   6  -2  -2    0.34    0.13
  -6   2  -2    0.40    0.18
  -6   2   2    0.30    0.11
  -2  -6   2    0.28    0.18
   2   6   2    0.42    0.20
   6  -2   2    0.15    0.16
   6  -2   2    0.39    0.16
   6  -2   2    0.37    0.21
  -3  -6  -2   54.54    1.91
   6  -3  -2   55.85    1.89
  -3  -6  -2   53.37    1.87
   3   6  -2   54.07    1.78
   6  -3  -2   54.62    1.79
   6  -3   2   56.40    1.89
   3   6   2   53.88    1.94
   6  -3   2   55.59    1.82
  -6   3   2   56.52    1.76
  -3  -6   2   53.37    1.84
   6  -4  -2  109.27    3.54
  -6   4  -2  107.55    3.49
  -4  -6  -2  107.81    3.52
  -4  -6  -2  113.70    3.55
   4   6  -2  107.54    3.43
   6  -4  -2  108.18    3.44
   4   6   2  106.16    3.59
   6  -4   2  108.01    3.45
   6  -4   2  106.66    3.53
  -4  -6   2  109.83    3.48
  -6   5  -2  138.33    4.45
   6  -5  -2  138.19    4.42
  -5  -6  -2  137.93    4.49
   5   6  -2  139.72    4.41
   6  -5  -2  141.69    4.46
  -5  -6  -2  142.56    4.52
   6  -5  -2  139.76    4.51
   6  -5   2  137.16    4.50
   5   6   2  140.85    4.56
   6  -5   2  139.65    4.41
  -5  -6   2  143.15    4.45
   6   6  -2   13.72    0.58
   6  -6  -2   10.30    0.58
   6  -6  -2   11.28    0.61
  -6   6  -2   11.72    0.60
  -6  -6  -2   14.44    0.70
   6  -6  -2   10.58    0.66
  -6  -6  -2   13.12    0.68
   6  -6   2   11.21    0.57
  -6  -6   2   14.14    0.48
   6   6   2   12.28    0.73
   6   6   2   14.26    0.65
   6  -6   2   11.30    0.67
  -6  -6   2   13.91    0.63
  -7  -6  -2    6.67    0.52
   6  -7  -2    6.11    0.50
   7   6  -2    6.61    0.42
   6  -7  -2    5.94    0.44
   6  -7  -2    6.28    0.44
  -7  -6  -2    6.73    0.52
  -7  -6   2    6.92    0.47
   7   6   2    6.02    0.47
   6  -7   2    6.93    0.43
  -7  -6   2    5.79    0.33
   7   6   2    7.58    0.60
   6  -7   2    7.24    0.55
  -7  -5  -2    1.99    0.32
   7   5  -2    1.85    0.25
  -7  -5  -2    1.90    0.34
   5  -7  -2    1.36    0.26
   5  -7  -2    1.25    0.32
   5  -7  -2    1.98    0.31
  -7  -5   2    1.60    0.19
   7   5   2    1.73    0.29
   5  -7   2    1.46    0.31
   5  -7   2    1.50    0.23
   7   5   2    1.94    0.30
   7   5   2    2.38    0.35
  -7  -4  -2    0.26    0.24
   4  -7  -2    0.34    0.21
   4  -7  -2    0.17    0.21
   7   4  -2    0.43    0.18
   4  -7  -2    0.10    0.25
  -7  -4  -2    0.02    0.20
   4  -7   2    0.39    0.25
   7   4   2    0.39    0.20
  -7  -4   2    0.67    0.14
   7   4   2    0.43    0.21
   7   4   2    0.44    0.21
   4  -7   2    0.25    0.17
  -7  -3  -2    0.94    0.25
   7   3  -2    1.48    0.23
   3  -7  -2    1.03    0.28
   3  -7  -2    1.11    0.24
   3  -7  -2    0.94    0.23
   7   3   2    1.49    0.25
   7   3   2    1.27    0.26
   3  -7   2    1.40    0.20
   3  -7   2    1.51    0.29
   7   3   2    1.50    0.24
   2  -7  -2   10.66    0.53
   2  -7  -2   10.23    0.59
  -7  -2  -2    9.79    0.57
   7   2  -2    9.69    0.51
   2  -7  -2    9.68    0.54
   2  -7   2   10.28    0.56
   2  -7   2   11.00    0.46
   7   2   2    9.68    0.51
   7   2   2    9.46    0.55
   1  -7  -2  122.05    3.85
  -7  -1  -2  122.38    3.90
   1  -7  -2  118.04    3.87
   1  -7  -2  119.98    3.91
   7   1  -2  116.21    3.84
   7   1   2  121.77    3.82
   7   1   2  123.38    3.88
   7   1   2  115.48    3.84
   1  -7   2  122.32    3.87
   7   0  -2   18.25    0.66
   0  -7  -2   16.90    0.75
  -7   0  -2   18.51    0.79
   0  -7  -2   17.50    0.81
   7   0  -2   18.56    0.76
   0  -7  -2   16.23    0.78
   7   0   2   18.46    0.75
   7   0   2   18.31    0.79
   7   0   2   18.69    0.72
   0  -7   2   16.94    0.76
   7  -1  -2   16.14    0.72
  -1  -7  -2   15.40    0.69
  -7   1  -2   15.14    0.70
   7  -1  -2   15.74    0.60
  -1  -7  -2   15.23    0.72
  -1  -7   2   15.06    0.69
   7  -1   2   15.52    0.66
   7  -1   2   15.65    0.65
   7  -1   2   15.90    0.71
  -2  -7  -2   39.06    1.47
   7  -2  -2   42.68    1.39
   7  -2  -2   41.71    1.49
  -2  -7  -2   41.83    1.51
   7  -2   2   42.16    1.51
  -2  -7   2   40.81    1.46
   7  -2   2   41.00    1.44
   7  -2   2   42.49    1.44
   7  -3  -2   47.34    1.66
   3   7  -2   45.24    1.53
   7  -3  -2   47.09    1.55
  -7   3  -2   47.31    1.63
  -3  -7  -2   45.01    1.66
  -3  -7  -2   44.29    1.63
  -3  -7   2   44.25    1.60
   7  -3   2   47.65    1.66
   7  -3   2   47.58    1.59
   7  -4  -2   21.62    0.96
  -4  -7  -2   23.17    0.96
  -4  -7  -2   21.12    0.96
  -7   4  -2   24.29    0.93
   7  -4  -2   24.33    0.88
   4   7  -2   22.47    0.85
   7  -4   2   23.72    0.98
  -4  -7   2   22.26    0.92
   7  -4   2   23.31    0.89
  -5  -7  -2   26.59    1.09
   7  -5  -2   25.07    1.10
  -5  -7  -2   27.32    1.11
   7  -5  -2   25.43    1.00
  -7   5  -2   25.64    1.04
   5   7  -2   27.83    0.99
  -5  -7   2   27.98    1.06
   7  -5   2   27.50    1.02
   7  -5   2   26.48    1.09
   6   7  -2    0.06    0.16
  -6  -7  -2    0.40    0.28
   7  -6  -2    0.29    0.27
   7  -6  -2    0.50    0.21
  -7   6  -2    0.45    0.20
  -6  -7  -2    0.51    0.26
   7  -6   2    0.50    0.21
  -6  -7   2   -0.05    0.14
   7  -6   2    0.19    0.26
  -6  -7   2    0.16    0.22
   7   7  -2    1.34    0.24
  -7  -7  -2    1.42    0.32
   7  -7  -2    1.04    0.26
  -7   7  -2    1.60    0.28
  -7  -7  -2    1.34    0.33
   7  -7  -2    1.75    0.36
  -7  -7   2    1.45    0.29
   7  -7   2    2.19    0.38
  -7  -7   2    1.51    0.19
   7  -7   2    1.35    0.26
   7  -8  -2    2.91    0.42
   8   7  -2    4.45    0.39
  -8  -7  -2    4.71    0.49
  -8  -7  -2    4.68    0.49
   7  -8  -2    4.04    0.40
   7  -8   2    3.35    0.45
   7  -8   2    3.11    0.36
   8   7   2    4.18    0.45
  -8  -7   2    4.19    0.31
  -8  -7   2    4.19    0.42
   8   6  -2    8.91    0.51
  -8  -6  -2    7.34    0.58
   6  -8  -2    7.91    0.53
  -8  -6  -2    8.15    0.59
   6  -8  -2    8.78    0.55
   6  -8  -2    7.99    0.62
   6  -8   2    7.45    0.59
  -8  -6   2    8.05    0.42
   8   6   2    9.14    0.56
   8   6   2    7.42    0.60
   8   6   2    9.36    0.57
   6  -8   2    7.82    0.50
   5  -8  -2   18.38    0.92
   5  -8  -2   19.50    0.87
  -8  -5  -2   19.22    0.91
   5  -8  -2   18.49    0.85
   8   5  -2   20.00    0.83
  -8  -5  -2   19.34    0.91
   5  -8   2   18.67    0.91
   5  -8   2   19.34    0.80
   8   5   2   20.38    0.89
  -8  -5   2   21.18    0.75
   8   5   2   19.78    0.92
   8   5   2   21.85    0.90
   4  -8  -2    4.86    0.42
   4  -8  -2    4.00    0.45
  -8  -4  -2    6.86    0.52
  -8  -4  -2    5.36    0.48
   8   4  -2    5.32    0.39
   4  -8  -2    5.24    0.42
   8   4   2    4.47    0.42
   8   4   2    7.25    0.55
  -8  -4   2    4.82    0.33
   4  -8   2    4.64    0.45
   8   4   2    4.43    0.40
   4  -8   2    4.64    0.36
   8   3  -2  243.33    7.79
  -8  -3  -2  249.71    7.86
   3  -8  -2  252.04    7.82
   3  -8  -2  247.14    7.80
   3  -8  -2  251.55    7.87
   8   3   2  247.56    7.81
   8   3   2  249.32    7.82
   3  -8   2  256.15    7.73
  -8  -3   2  252.41    7.72
   3  -8   2  245.56    7.84
   8   3   2  248.25    7.84
   2  -8  -2  138.57    4.49
  -8  -2  -2  143.47    4.48
   8   2  -2  135.21    4.42
   2  -8  -2  136.06    4.44
   2  -8  -2  134.29    4.42
   2  -8   2  135.29    4.33
   8   2   2  136.03    4.42
   8   2   2  143.17    4.47
   8   2   2  143.94    4.40
   2  -8   2  136.12    4.45
   8   1  -2  301.74    9.26
   1  -8  -2  288.79    9.27
   1  -8  -2  296.71    9.31
  -8  -1  -2  304.50    9.30
   1  -8  -2  293.33    9.26
   8   1   2  294.12    9.25
   8   1   2  304.76    9.29
   8   1   2  300.49    9.21
   1  -8   2  290.59    9.27
   0  -8  -2   83.65    2.85
  -8   0  -2   86.12    2.83
   8   0  -2   81.03    2.79
   0  -8  -2   84.13    2.80
   0  -8  -2   82.37    2.81
   8   0  -2   83.99    2.70
   8   0   2   83.25    2.78
   8   0   2   85.67    2.83
   0  -8   2   87.01    2.81
   8   0   2   87.37    2.74
  -8   1  -2  391.29   12.31
  -1  -8  -2  394.93   12.30
   8  -1  -2  389.86   12.19
   8  -1  -2  390.71   12.30
  -1  -8  -2  405.52   12.32
   8  -1   2  398.39   12.32
   8  -1   2  396.48   12.27
   8  -1   2  395.95   12.23
  -1  -8   2  409.47   12.30
   8  -2  -2   31.05    1.07
  -8   2  -2   29.27    1.15
  -2  -8  -2   31.01    1.19
  -2  -8  -2   28.62    1.15
   8  -2  -2   26.96    1.14
  -2  -8   2   28.89    1.15
   8  -2   2   29.48    1.18
   8  -2   2   30.61    1.12
   8  -2   2   29.50    1.08
  -3  -8  -2   30.55    1.17
   8  -3  -2   27.23    1.03
  -3  -8  -2   29.61    1.14
   8  -3  -2   27.31    1.15
  -8   3  -2   28.29    1.12
   3   8  -2   30.65    1.03
   8  -3   2   28.20    1.08
   8  -3   2   27.26    1.06
   8  -3   2   28.88    1.16
  -3  -8   2   30.03    1.13
  -4  -8  -2    8.87    0.57
  -4  -8  -2    8.75    0.57
   8  -4  -2    9.09    0.59
  -8   4  -2    8.57    0.53
   4   8  -2    9.14    0.45
   8  -4  -2    9.02    0.48
   8  -4   2    7.68    0.49
   8  -4   2    8.67    0.58
  -4  -8   2    9.72    0.54
  -5  -8  -2   24.77    1.03
  -8   5  -2   23.21    0.97
   5   8  -2   23.98    0.91
  -5  -8  -2   25.43    1.03
   8  -5  -2   22.64    1.02
   8  -5  -2   23.55    0.93
   8  -5   2   23.59    0.95
  -5  -8   2   22.45    0.98
   8  -5   2   23.27    1.03
  -6  -8  -2   -0.28    0.24
   8  -6  -2   -0.46    0.23
   6   8  -2   -0.16    0.16
   8  -6  -2   -0.07    0.20
  -8   6  -2   -0.07    0.18
  -6  -8  -2    0.22    0.28
  -6  -8   2    0.15    0.15
  -6  -8   2    0.07    0.23
   8  -6   2   -0.15    0.26
   8  -6   2    0.09    0.20
  -7  -8  -2    0.34    0.29
   8  -7  -2    0.08    0.22
   8  -7  -2    0.44    0.31
  -8   7  -2    0.16    0.20
  -7  -8  -2    0.19    0.30
   7   8  -2   -0.02    0.18
   8  -7   2    0.08    0.22
   8  -7   2    0.09    0.29
  -7  -8   2   -0.42    0.22
  -7  -8   2    0.02    0.15
   8   8  -2    3.07    0.35
   8  -8  -2    2.71    0.41
  -8  -8  -2    2.98    0.43
  -8  -8  -2    2.54    0.41
   8  -8  -2    2.28    0.35
  -8   8  -2    3.66    0.40
   8   8   2    2.59    0.38
  -8  -8   2    2.53    0.25
   8  -8   2    2.09    0.33
  -8  -8   2    2.75    0.39
   8  -8   2    2.30    0.41
   8  -9  -2   10.63    0.64
  -9  -8  -2    8.23    0.68
  -9  -8  -2    9.62    0.71
   9   8  -2    9.68    0.58
   8  -9  -2    9.36    0.72
  -9  -8   2    8.33    0.64
  -9  -8   2   10.04    0.50
   8  -9   2   10.48    0.75
   9   8   2    9.44    0.66
   8  -9   2   10.00    0.62
   7  -9  -2    0.32    0.34
  -9  -7  -2   -0.16    0.28
   9   7  -2    0.02    0.19
   7  -9  -2    0.35    0.27
  -9  -7  -2    0.02    0.29
   9   7   2    0.07    0.24
  -9  -7   2    0.37    0.28
   9   7   2   -0.04    0.24
  -9  -7   2   -0.04    0.18
   7  -9   2    0.08    0.25
   7  -9   2    0.20    0.31
   6  -9  -2   38.83    1.50
   9   6  -2   40.17    1.47
  -9  -6  -2   40.82    1.57
  -9  -6  -2   39.74    1.56
   6  -9  -2   41.08    1.51
   6  -9  -2   40.93    1.60
   9   6   2   39.09    1.52
   6  -9   2   38.30    1.44
   9   6   2   39.33    1.58
   9   6   2   41.04    1.53
  -9  -6   2   40.14    1.38
   6  -9   2   39.35    1.57
  -9  -5  -2    2.98    0.40
   5  -9  -2    3.43    0.39
   9   5  -2    4.62    0.40
   5  -9  -2    3.48    0.44
  -9  -5  -2    3.71    0.45
   5  -9  -2    3.45    0.39
   5  -9   2    4.30    0.37
   9   5   2    3.18    0.38
  -9  -5   2    3.31    0.29
   9   5   2    3.67    0.43
   9   5   2    3.37    0.42
   5  -9   2    3.83    0.46
   4  -9  -2   24.08    0.98
   9   4  -2   23.00    0.95
   4  -9  -2   22.76    1.05
   4  -9  -2   23.16    0.98
  -9  -4  -2   23.18    1.03
  -9  -4   2   22.64    0.87
   9   4   2   21.10    0.97
   9   4   2   23.57    0.98
   4  -9   2   23.53    1.02
   4  -9   2   22.95    0.91
   9   4   2   22.24    0.99
   3  -9  -2   42.24    1.56
   3  -9  -2   42.21    1.56
   3  -9  -2   41.63    1.61
  -9  -3  -2   42.07    1.60
   9   3  -2   42.83    1.54
   3  -9   2   41.59    1.59
   9   3   2   43.98    1.55
  -9  -3   2   42.10    1.46
   9   3   2   43.89    1.56
   9   3   2   42.09    1.58
   3  -9   2   42.14    1.47
   2  -9  -2    0.07    0.24
   2  -9  -2    0.05    0.24
   2  -9  -2    0.30    0.27
   9   2  -2    0.11    0.20
  -9  -2  -2    0.42    0.25
   9   2   2   -0.04    0.22
   2  -9   2    0.35    0.20
   9   2   2   -0.07    0.19
   9   2   2    0.10    0.18
   2  -9   2    0.01    0.26
  -9  -1  -2    1.96    0.33
   1  -9  -2    1.30    0.33
   1  -9  -2    1.84    0.32
   9   1  -2    1.97    0.30
   1  -9  -2    1.75    0.31
   9   1  -2    2.27    0.24
   9   1   2    1.77    0.31
   9   1   2    2.51    0.27
   1  -9   2    1.88    0.33
   9   1   2    2.02    0.29
  -9   0  -2    4.98    0.45
   0  -9  -2    4.72    0.44
   9   0  -2    5.36    0.34
   9   0  -2    4.64    0.40
   0  -9  -2    4.86    0.47
   0  -9  -2    5.39    0.45
   9   0   2    5.63    0.46
   9   0   2    5.37    0.38
   9   0   2    5.45    0.43
   0  -9   2    5.40    0.47
  -1  -9  -2   18.80    0.89
  -1  -9  -2   18.77    0.88
  -9   1  -2   21.24    0.91
   9  -1  -2   20.22    0.89
   9  -1  -2   20.57    0.78
   9  -1   2   20.20    0.90
  -1  -9   2   19.51    0.90
   9  -1   2   22.03    0.88
   9  -1   2   20.59    0.80
  -2  -9  -2    4.37    0.44
   9  -2  -2    5.80    0.48
  -2  -9  -2    3.97    0.42
  -9   2  -2    4.28    0.40
   9  -2  -2    4.76    0.35
   9  -2   2    5.12    0.37
   9  -2   2    5.61    0.48
   9  -2   2    5.66    0.43
  -2  -9   2    4.71    0.44
  -3  -9  -2    0.67    0.28
   9  -3  -2    0.62    0.27
  -3  -9  -2    0.47    0.27
   9  -3  -2    0.96    0.21
  -9   3  -2    0.67    0.23
   9  -3   2    0.48    0.22
  -3  -9   2    0.56    0.27
   9  -3   2    0.46    0.19
   9  -3   2    0.50    0.26
  -4  -9  -2    4.99    0.48
   9  -4  -2    6.57    0.52
   4   9  -2    4.93    0.37
   9  -4  -2    5.44    0.41
  -9   4  -2    6.35    0.47
  -4  -9  -2    5.40    0.49
   9  -4   2    5.64    0.44
  -4  -9   2    5.91    0.49
   9  -4   2    6.50    0.53
   5   9  -2    0.22    0.17
   9  -5  -2    0.04    0.27
  -9   5  -2    0.00    0.20
  -5  -9  -2    0.04    0.27
  -5  -9  -2    0.23    0.29
   9  -5  -2    0.05    0.20
   9  -5   2   -0.06    0.21
   9  -5   2    0.06    0.26
  -5  -9   2    0.30    0.26
  -9   6  -2   28.85    1.16
  -6  -9  -2   27.92    1.20
   9  -6  -2   30.23    1.13
  -6  -9  -2   27.99    1.21
   6   9  -2   27.70    1.08
   9  -6  -2   26.69    1.21
   9  -6   2   29.86    1.23
  -6  -9   2   27.57    1.17
   9  -6   2   29.29    1.14
  -7  -9  -2    7.90    0.63
   9  -7  -2    8.20    0.65
   9  -7  -2    8.30    0.55
  -7  -9  -2    8.15    0.63
  -9   7  -2    8.20    0.57
   7   9  -2    7.99    0.50
  -7  -9   2    8.27    0.60
  -7  -9   2    7.84    0.51
   9  -7   2    9.06    0.59
   9  -7   2    8.41    0.66
  -9   8  -2    2.05    0.34
   9  -8  -2    2.74    0.37
   9  -8  -2    2.65    0.46
  -8  -9  -2    2.38    0.43
  -8  -9  -2    2.19    0.42
   8   9  -2    2.24    0.33
  -8  -9   2    2.87    0.42
   9  -8   2    2.73    0.38
   9  -8   2    1.88    0.40
   9  -9  -2    4.86    0.56
  -9  -9  -2    3.97    0.51
  -9  -9  -2    2.31    0.45
   9   9  -2    3.41    0.40
   9  -9  -2    3.87    0.44
   9  -9   2    4.25    0.53
   9  -9   2    2.76    0.41
  -9  -9   2    3.21    0.47
   9   9   2    3.83    0.48
   9 -10  -2    5.98    0.65
 -10  -9  -2    5.27    0.59
  10   9  -2    5.89    0.52
   9 -10  -2    5.48    0.55
 -10  -9  -2    4.55    0.58
  10   9   2    4.52    0.51
 -10  -9   2    5.81    0.59
   9 -10   2    5.75    0.64
   9 -10   2    6.99    0.56
  10   8  -2    5.85    0.50
 -10  -8  -2    5.23    0.57
   8 -10  -2    7.00    0.65
 -10  -8  -2    5.18    0.59
   8 -10  -2    5.08    0.52
   8 -10   2    5.91    0.51
  10   8   2    5.61    0.57
 -10  -8   2    5.46    0.56
   8 -10   2    5.01    0.58
 -10  -7  -2   10.98    0.75
   7 -10  -2    9.53    0.74
  10   7  -2   11.15    0.64
   7 -10  -2   10.70    0.68
 -10  -7  -2   10.86    0.73
 -10  -7   2   11.34    0.55
   7 -10   2    9.05    0.74
 -10  -7   2    9.89    0.68
  10   7   2   10.87    0.67
   7 -10   2   10.05    0.63
  10   7   2   11.44    0.69
   6 -10  -2    2.11    0.38
 -10  -6  -2    1.72    0.37
 -10  -6  -2    2.31    0.41
   6 -10  -2    2.07    0.35
  10   6  -2    2.01    0.32
   6 -10  -2    1.72    0.40
  10   6   2    0.98    0.28
   6 -10   2    1.49    0.38
   6 -10   2    1.88    0.32
 -10  -6   2    1.85    0.27
  10   6   2    1.79    0.35
   5 -10  -2   12.05    0.80
   5 -10  -2   12.35    0.71
 -10  -5  -2   12.79    0.76
 -10  -5  -2   13.54    0.76
   5 -10  -2   12.73    0.71
  10   5  -2   11.74    0.67
   5 -10   2   12.12    0.76
  10   5   2   12.66    0.73
   5 -10   2   11.67    0.64
  10   5   2   12.80    0.71
 -10  -5   2   12.45    0.59
  10   5   2   12.56    0.71
   4 -10  -2    3.67    0.42
   4 -10  -2    3.08    0.45
 -10  -4  -2    4.34    0.48
   4 -10  -2    3.48    0.41
  10   4  -2    5.08    0.45
  10   4   2    5.53    0.49
   4 -10   2    3.88    0.37
  10   4   2    4.13    0.44
 -10  -4   2    3.95    0.34
   4 -10   2    2.43    0.41
  10   4   2    4.62    0.45
  10   3  -2   24.17    1.02
   3 -10  -2   23.03    1.10
 -10  -3  -2   24.53    1.09
   3 -10  -2   24.40    1.04
   3 -10  -2   24.17    1.06
 -10  -3   2   25.46    0.96
  10   3   2   25.52    1.07
   3 -10   2   24.34    1.10
   3 -10   2   24.49    0.97
  10   3   2   24.75    1.03
  10   3   2   26.50    1.06
 -10  -2  -2    0.29    0.25
   2 -10  -2    0.10    0.26
  10   2  -2    0.16    0.23
   2 -10  -2    0.18    0.27
   2 -10  -2   -0.36    0.30
  10   2   2   -0.13    0.25
  10   2   2    0.53    0.22
  10   2   2    0.14    0.23
   2 -10   2    0.30    0.22
   2 -10   2    0.54    0.31
  10   1  -2   99.21    3.38
   1 -10  -2  104.14    3.41
   1 -10  -2  104.37    3.46
  10   1  -2  101.07    3.28
   1 -10  -2  101.97    3.39
 -10  -1  -2  102.71    3.42
   1 -10   2  103.22    3.42
  10   1   2  104.99    3.38
  10   1   2  100.99    3.41
  10   1   2  101.12    3.31
   0 -10  -2    1.18    0.30
  10   0  -2    1.26    0.24
   0 -10  -2    1.48    0.35
 -10   0  -2    1.50    0.32
   0 -10  -2    1.71    0.39
  10   0  -2    1.73    0.32
  10   0   2    0.71    0.31
   0 -10   2    1.55    0.34
  10   0   2    1.17    0.22
  10   0   2    1.56    0.29
  10  -1  -2  144.68    4.75
 -10   1  -2  146.09    4.76
  -1 -10  -2  147.77    4.74
  -1 -10  -2  144.92    4.75
  10  -1  -2  144.04    4.64
  10  -1   2  148.97    4.77
  10  -1   2  149.69    4.72
  -1 -10   2  149.45    4.76
  10  -1   2  144.71    4.63
 -10   2  -2    0.81    0.27
  10  -2  -2    0.25    0.27
  10  -2  -2    0.86    0.22
  -2 -10  -2    0.61    0.31
  -2 -10  -2    0.05    0.25
  10  -2   2    0.88    0.21
  -2 -10   2    0.55    0.31
  10  -2   2    1.43    0.28
  10  -2   2    0.18    0.29
  -3 -10  -2   13.12    0.71
  -3 -10  -2   12.19    0.67
  10  -3  -2   10.88    0.57
  10  -3  -2   10.83    0.68
 -10   3  -2   11.66    0.67
  -3 -10   2   12.73    0.70
  10  -3   2   11.33    0.62
  10  -3   2   11.04    0.56
  10  -3   2   10.47    0.69
 -10   4  -2    0.72    0.26
  10  -4  -2    0.86    0.23
  -4 -10  -2    1.36    0.32
   4  10  -2    1.38    0.23
  10  -4  -2    0.53    0.28
  -4 -10  -2    1.43    0.34
  10  -4   2    0.83    0.26
  -4 -10   2    1.48    0.34
  10  -4   2    0.88    0.32
  10  -4   2    0.98    0.23
  10  -5  -2    8.57    0.66
  10  -5  -2    8.80    0.55
   5  10  -2   10.59    0.54
  -5 -10  -2   11.96    0.69
 -10   5  -2    9.94    0.62
  -5 -10  -2    9.81    0.65
  10  -5   2    8.92    0.67
  10  -5   2    9.00    0.59
  -5 -10   2   10.25    0.65
  10  -6  -2    5.89    0.49
   6  10  -2    6.35    0.43
  -6 -10  -2    5.35    0.52
  -6 -10  -2    6.74    0.59
 -10   6  -2    7.05    0.58
  10  -6  -2    7.17    0.61
  -6 -10   2    6.52    0.54
  10  -6   2    6.00    0.50
  10  -6   2    6.59    0.59
  -7 -10  -2    1.29    0.39
  -7 -10  -2    0.54    0.34
  10  -7  -2    0.73    0.33
 -10   7  -2    0.84    0.28
  10  -7  -2    0.82    0.28
   7  10  -2    0.66    0.24
  10  -7   2    1.32    0.32
  10  -7   2    0.70    0.35
  -7 -10   2    1.12    0.35
  10  -8  -2    0.71    0.39
  10  -8  -2    1.41    0.33
  -8 -10  -2    0.94    0.40
  -8 -10  -2    0.50    0.36
   8  10  -2    0.75    0.26
 -10   8  -2    1.72    0.35
  10  -8   2    1.03    0.40
  -8 -10   2    0.70    0.35
  10  -8   2    1.10    0.34
  -9 -10  -2   36.32    1.50
  10  -9  -2   35.18    1.41
  -9 -10  -2   35.83    1.51
  10  -9  -2   32.09    1.50
   9  10  -2   35.34    1.38
 -10   9  -2   36.43    1.43
  10  -9   2   35.94    1.41
  10  -9   2   34.91    1.52
  -9 -10   2   34.32    1.47
   9  10   2   33.35    1.45
  10 -10  -2   -0.20    0.39
  10 -10  -2    0.52    0.35
 -10 -10  -2    0.88    0.42
  10  10  -2    0.26    0.27
 -10 -10  -2    0.22    0.41
  10 -10   2    0.64    0.41
  10 -10   2    0.52    0.36
 -10 -10   2    0.37    0.38
  10  10   2   -0.04    0.29
 -11 -10  -2   20.62    1.15
 -11 -10  -2   19.64    1.09
  11  10  -2   18.86    0.98
  10 -11  -2   19.35    1.14
  10 -11  -2   20.82    1.06
  10 -11   2   19.73    1.02
  10 -11   2   21.64    1.15
 -11 -10   2   19.85    1.12
  11  10   2   19.89    1.05
   9 -11  -2    0.19    0.34
 -11  -9  -2    0.21    0.39
 -11  -9  -2    0.73    0.44
   9 -11  -2    0.63    0.43
  11   9  -2    0.58    0.30
 -11  -9   2    0.81    0.40
   9 -11   2    1.34    0.45
  11   9   2    0.66    0.30
   9 -11   2    0.58    0.36
   8 -11  -2   73.45    2.71
 -11  -8  -2   76.18    2.72
  11   8  -2   73.65    2.60
 -11  -8  -2   75.67    2.70
   8 -11  -2   72.90    2.62
   8 -11   2   72.63    2.57
   8 -11   2   76.90    2.73
  11   8   2   75.84    2.66
 -11  -8   2   73.31    2.64
   7 -11  -2    5.66    0.57
  11   7  -2    5.30    0.50
 -11  -7  -2    6.10    0.62
 -11  -7  -2    5.27    0.58
   7 -11  -2    4.83    0.56
   7 -11   2    4.83    0.59
  11   7   2    5.72    0.55
 -11  -7   2    5.68    0.45
  11   7   2    5.89    0.56
   7 -11   2    5.35    0.49
   6 -11  -2   27.55    1.23
   6 -11  -2   26.69    1.16
 -11  -6  -2   25.07    1.18
  11   6  -2   24.88    1.10
 -11  -6  -2   25.38    1.19
   6 -11  -2   27.34    1.13
   6 -11   2   25.13    1.19
  11   6   2   24.53    1.14
 -11  -6   2   24.00    1.00
  11   6   2   25.72    1.14
   6 -11   2   25.83    1.08
   5 -11  -2    1.46    0.39
 -11  -5  -2    1.22    0.38
  11   5  -2    1.33    0.31
   5 -11  -2    0.84    0.34
   5 -11  -2    0.95    0.32
   5 -11   2    0.99    0.38
  11   5   2    1.33    0.33
  11   5   2    1.08    0.32
   5 -11   2    1.32    0.31
 -11  -5   2    1.29    0.26
  11   5   2    1.25    0.31
   4 -11  -2   10.50    0.68
   4 -11  -2    9.04    0.71
 -11  -4  -2    9.63    0.68
  11   4  -2    8.95    0.61
   4 -11  -2    8.58    0.60
   4 -11   2    8.64    0.70
  11   4   2    9.87    0.63
  11   4   2    8.70    0.61
  11   4   2    9.43    0.64
 -11  -4   2    9.66    0.53
   4 -11   2    9.37    0.59
 -11  -3  -2    5.14    0.53
   3 -11  -2    6.71    0.57
   3 -11  -2    5.25    0.57
  11   3  -2    6.54    0.53
   3 -11  -2    6.34    0.53
   3 -11   2    6.25    0.59
   3 -11   2    5.42    0.44
  11   3   2    6.40    0.51
  11   3   2    6.44    0.56
  11   3   2    7.20    0.60
 -11  -3   2    5.68    0.43
   2 -11  -2   10.58    0.73
   2 -11  -2   10.47    0.63
 -11  -2  -2    9.67    0.67
  11   2  -2    9.98    0.63
   2 -11  -2    9.85    0.66
  11   2   2    9.88    0.58
 -11  -2   2    9.90    0.56
  11   2   2    9.42    0.63
   2 -11   2   10.93    0.58
  11   2   2   10.75    0.64
   2 -11   2   10.75    0.71
   1 -11  -2    2.17    0.39
  11   1  -2    1.16    0.23
  11   1  -2    0.92    0.29
   1 -11  -2    1.84    0.39
 -11  -1  -2    1.72    0.36
   1 -11  -2    1.74    0.34
   1 -11   2    2.22    0.40
  11   1   2    1.73    0.32
  11   1   2    1.75    0.27
  11   1   2    1.16    0.31
 -11   0  -2   11.19    0.69
   0 -11  -2   12.03    0.70
  11   0  -2   11.51    0.55
   0 -11  -2   11.04    0.72
  11   0  -2   10.40    0.65
   0 -11  -2    9.57    0.66
  11   0   2   10.40    0.67
  11   0   2   10.38    0.65
  11   0   2   11.92    0.56
   0 -11   2   11.24    0.71
 -11   1  -2    1.54    0.33
  -1 -11  -2    1.07    0.31
  11  -1  -2    1.81    0.35
  -1 -11  -2    1.84    0.38
  11  -1  -2    2.42    0.29
  11  -1   2    2.32    0.26
  11  -1   2    2.63    0.39
  11  -1   2    2.22    0.35
  -1 -11   2    1.17    0.35
  -2 -11  -2    6.89    0.59
 -11   2  -2    8.76    0.60
  11  -2  -2    8.14    0.48
  -2 -11  -2    7.88    0.57
  11  -2  -2    9.14    0.64
  -2 -11   2    7.46    0.61
  11  -2   2    7.80    0.46
  11  -2   2    7.12    0.56
  11  -2   2    7.81    0.61
  11  -3  -2    0.52    0.30
  -3 -11  -2    0.13    0.32
 -11   3  -2    0.82    0.29
  -3 -11  -2    0.61    0.31
  11  -3  -2    0.52    0.22
  11  -3   2    0.45    0.29
  11  -3   2    0.57    0.21
  11  -3   2    0.53    0.27
  -3 -11   2    0.79    0.34
  11  -4  -2   37.51    1.37
  -4 -11  -2   36.33    1.45
  11  -4  -2   35.85    1.49
 -11   4  -2   36.92    1.45
  -4 -11  -2   37.95    1.50
   4  11  -2   36.52    1.34
  11  -4   2   38.45    1.49
  11  -4   2   36.77    1.41
  -4 -11   2   35.91    1.47
  11  -4   2   34.87    1.32
   5  11  -2    0.37    0.21
  11  -5  -2    0.43    0.25
  -5 -11  -2    0.95    0.34
  11  -5  -2    0.33    0.31
  -5 -11  -2    0.75    0.35
 -11   5  -2    0.71    0.30
  -5 -11   2    0.36    0.32
  11  -5   2    0.15    0.21
  11  -5   2    0.86    0.34
  11  -5   2    0.31    0.27
   6  11  -2   19.38    0.84
  -6 -11  -2   18.85    0.97
  11  -6  -2   19.33    1.01
  -6 -11  -2   19.77    0.99
  11  -6  -2   18.94    0.88
 -11   6  -2   19.22    0.93
  -6 -11   2   18.47    0.96
  11  -6   2   18.25    0.91
  11  -6   2   18.87    0.98
  11  -7  -2    6.03    0.52
   7  11  -2    6.30    0.50
  -7 -11  -2    6.69    0.60
  11  -7  -2    5.55    0.62
  -7 -11  -2    6.08    0.63
 -11   7  -2    6.83    0.60
  11  -7   2    4.93    0.57
  11  -7   2    5.73    0.53
  -7 -11   2    5.50    0.57
 -11   8  -2   25.17    1.14
   8  11  -2   23.47    1.04
  11  -8  -2   24.39    1.22
  -8 -11  -2   24.67    1.21
  11  -8  -2   25.80    1.10
  -8 -11  -2   24.27    1.14
  11  -8   2   23.92    1.20
  -8 -11   2   23.84    1.19
  11  -8   2   24.34    1.11
  11  -9  -2    4.26    0.59
 -11   9  -2    3.24    0.47
  -9 -11  -2    5.38    0.60
  -9 -11  -2    4.43    0.60
   9  11  -2    4.57    0.47
  11  -9  -2    3.71    0.50
  11  -9   2    4.61    0.52
   9  11   2    4.27    0.53
  11  -9   2    5.07    0.60
  -9 -11   2    5.14    0.59
  10  11  -2    4.43    0.50
 -10 -11  -2    3.42    0.60
  11 -10  -2    4.73    0.64
 -10 -11  -2    4.23    0.57
 -11  10  -2    5.18    0.58
  11 -10  -2    4.19    0.53
  10  11   2    4.97    0.56
  11 -10   2    3.55    0.50
  11 -10   2    3.52    0.57
 -10 -11   2    3.57    0.55
  11 -11  -2    0.39    0.39
 -11 -11  -2    0.35    0.41
 -11 -11  -2    0.44    0.46
  11  11  -2    0.76    0.32
  11 -11  -2    0.77    0.45
  11 -11   2    0.49    0.40
  11 -11   2    0.29    0.44
  11  11   2    0.43    0.38
 -11 -11   2    1.12    0.48
  12  11  -2    5.60    0.59
 -12 -11  -2    4.25    0.62
  11 -12  -2    3.85    0.58
 -12 -11  -2    4.74    0.69
  11 -12  -2    4.23    0.67
  11 -12   2    4.49    0.67
  11 -12   2    3.60    0.56
  12  11   2    4.05    0.55
 -12 -11   2    4.55    0.66
  12  10  -2    0.66    0.33
  10 -12  -2    0.20    0.46
 -12 -10  -2    0.90    0.49
 -12 -10  -2    0.13    0.45
  10 -12  -2    1.27    0.44
  10 -12   2    0.76    0.48
  12  10   2    0.66    0.37
  10 -12   2    0.41    0.39
 -12 -10   2    1.37    0.49
  12   9  -2    0.36    0.29
 -12  -9  -2   -0.65    0.41
 -12  -9  -2    0.41    0.42
   9 -12  -2    0.21    0.45
   9 -12  -2    0.67    0.39
 -12  -9   2    0.14    0.41
   9 -12   2    0.33    0.38
   9 -12   2    0.56    0.46
  12   9   2    0.35    0.33
   8 -12  -2    0.48    0.42
 -12  -8  -2    0.11    0.41
   8 -12  -2    0.63    0.38
  12   8  -2    0.07    0.28
 -12  -8  -2   -0.33    0.36
 -12  -8   2    0.29    0.39
  12   8   2   -0.04    0.32
   8 -12   2   -0.29    0.32
   8 -12   2    0.32    0.42
 -12  -7  -2    0.20    0.38
 -12  -7  -2    0.22    0.38
  12   7  -2    1.26    0.33
   7 -12  -2    0.43    0.37
   7 -12  -2    0.17    0.41
  12   7   2    0.25    0.31
   7 -12   2    0.56    0.35
   7 -12   2    0.71    0.44
 -12  -7   2    0.79    0.34
  12   7   2    0.28    0.31
   6 -12  -2    0.93    0.42
  12   6  -2    1.25    0.34
   6 -12  -2    1.27    0.38
 -12  -6  -2    1.14    0.41
 -12  -6  -2    0.56    0.38
   6 -12  -2    1.05    0.36
 -12  -6   2    0.95    0.29
   6 -12   2    0.93    0.34
  12   6   2    0.66    0.32
  12   6   2    0.64    0.33
   6 -12   2    0.90    0.43
   5 -12  -2    1.45    0.39
 -12  -5  -2    2.22    0.44
  12   5  -2    1.30    0.32
   5 -12  -2    0.99    0.41
   5 -12  -2    2.09    0.40
  12   5   2    2.04    0.41
 -12  -5   2    1.59    0.30
  12   5   2    1.91    0.38
   5 -12   2    1.55    0.34
   5 -12   2    1.42    0.44
   4 -12  -2    2.13    0.39
  12   4  -2    2.80    0.40
   4 -12  -2    1.40    0.41
 -12  -4  -2    2.50    0.44
   4 -12  -2    2.65    0.43
  12   4   2    1.75    0.37
   4 -12   2    2.63    0.37
  12   4   2    1.98    0.40
   4 -12   2    2.34    0.47
 -12  -4   2    1.98    0.32
  12   4   2    2.53    0.39
   3 -12  -2   22.12    1.14
   3 -12  -2   21.08    1.01
 -12  -3  -2   21.14    1.06
   3 -12  -2   23.76    1.09
  12   3  -2   22.86    1.05
   3 -12   2   21.21    1.11
 -12  -3   2   22.62    0.95
  12   3   2   24.43    1.07
  12   3   2   23.65    1.07
   3 -12   2   22.16    0.96
  12   3   2   24.48    1.03
 -12  -2  -2    2.94    0.44
  12   2  -2    2.89    0.40
   2 -12  -2    3.20    0.43
   2 -12  -2    3.92    0.48
   2 -12  -2    3.52    0.50
  12   2   2    3.62    0.46
  12   2   2    2.51    0.34
   2 -12   2    3.58    0.50
 -12  -2   2    2.75    0.35
  12   2   2    2.71    0.39
   1 -12  -2   29.13    1.33
   1 -12  -2   31.63    1.31
 -12  -1  -2   30.41    1.30
  12   1  -2   30.51    1.15
   1 -12  -2   30.31    1.26
  12   1  -2   30.17    1.27
   1 -12   2   30.64    1.32
  12   1   2   30.79    1.26
  12   1   2   30.76    1.31
  12   1   2   29.13    1.16
  12   0  -2    0.98    0.30
   0 -12  -2    1.47    0.39
 -12   0  -2    1.40    0.34
  12   0  -2    1.39    0.27
   0 -12  -2    0.93    0.33
   0 -12   2    0.90    0.39
  12   0   2    1.77    0.28
  12   0   2    1.40    0.33
  12   0   2    1.15    0.36
  -1 -12  -2   69.49    2.38
  -1 -12  -2   67.00    2.42
  12  -1  -2   69.32    2.42
 -12   1  -2   67.71    2.41
  12  -1  -2   69.40    2.28
  -1 -12   2   66.49    2.42
  12  -1   2   67.77    2.37
  12  -1   2   64.12    2.39
  12  -1   2   65.01    2.23
 -12   2  -2    0.88    0.32
  -2 -12  -2    1.24    0.39
  -2 -12  -2    0.90    0.34
  12  -2  -2    1.20    0.36
  12  -2  -2    0.98    0.25
  12  -2   2    1.23    0.31
  -2 -12   2    0.58    0.36
  12  -2   2    0.75    0.35
  12  -2   2    1.09    0.23
  -3 -12  -2    5.03    0.55
 -12   3  -2    4.05    0.47
  12  -3  -2    5.42    0.46
  12  -3  -2    3.76    0.47
  -3 -12  -2    5.73    0.54
  -3 -12   2    5.79    0.58
  12  -3   2    4.68    0.47
  12  -3   2    5.00    0.38
  12  -3   2    3.88    0.51
  12  -4  -2    1.24    0.28
  -4 -12  -2    0.53    0.33
  -4 -12  -2    1.17    0.39
 -12   4  -2    0.79    0.31
  12  -4  -2    1.75    0.40
  12  -4   2    0.34    0.33
  -4 -12   2    0.96    0.38
  12  -4   2    0.81    0.31
  12  -4   2    1.21    0.24
  12  -5  -2    3.25    0.50
   5  12  -2    3.66    0.38
  -5 -12  -2    3.94    0.49
  -5 -12  -2    3.22    0.51
 -12   5  -2    3.17    0.44
  12  -5  -2    4.15    0.42
  -5 -12   2    4.36    0.53
  12  -5   2    3.65    0.49
  12  -5   2    4.57    0.48
  12  -5   2    3.64    0.36
  -6 -12  -2    0.46    0.36
  12  -6  -2    0.34    0.28
  12  -6  -2    0.96    0.40
  -6 -12  -2    0.11    0.37
 -12   6  -2    0.59    0.31
   6  12  -2    0.64    0.26
  -6 -12   2    0.60    0.38
  12  -6   2    0.30    0.35
  12  -6   2    0.72    0.32
  12  -7  -2    0.44    0.39
  12  -7  -2    0.49    0.31
   7  12  -2    0.26    0.24
 -12   7  -2    0.50    0.30
  -7 -12  -2    0.65    0.37
  -7 -12  -2    0.39    0.39
  -7 -12   2    0.31    0.37
  12  -7   2    0.98    0.41
  12  -7   2    0.87    0.36
  12  -8  -2    0.62    0.32
  -8 -12  -2    0.78    0.39
  -8 -12  -2    0.80    0.43
   8  12  -2    0.76    0.30
  12  -8  -2    0.78    0.41
 -12   8  -2    0.93    0.34
  -8 -12   2    0.75    0.44
  12  -8   2    0.70    0.38
  12  -8   2    0.44    0.39
  -9 -12  -2   11.22    0.91
  12  -9  -2   12.15    0.79
 -12   9  -2   10.86    0.78
  -9 -12  -2   12.18    0.81
  12  -9  -2   11.56    0.90
   9  12  -2   10.92    0.71
  12  -9   2    9.82    0.79
  12  -9   2   11.93    0.90
  -9 -12   2   12.48    0.91
 -12  10  -2    1.24    0.39
  12 -10  -2    1.52    0.43
  10  12  -2    1.71    0.38
 -10 -12  -2    1.80    0.49
 -10 -12  -2    2.11    0.57
  12 -10  -2    1.03    0.52
  10  12   2    2.05    0.43
  12 -10   2    2.07    0.52
 -10 -12   2    2.11    0.54
  12 -10   2    1.18    0.44
 -11 -12  -2   23.72    1.22
  11  12  -2   22.59    1.11
  12 -11  -2   22.49    1.18
 -11 -12  -2   22.81    1.26
 -12  11  -2   23.01    1.18
  12 -11  -2   21.88    1.32
 -11 -12   2   23.36    1.26
  11  12   2   22.71    1.19
  12 -11   2   22.02    1.15
  12 -11   2   22.58    1.29
  12 -12  -2    1.42    0.49
 -12 -12  -2    1.98    0.60
 -12 -12  -2    2.03    0.54
  12 -12  -2    1.98    0.61
  12  12  -2    1.91    0.42
 -12  12  -2    1.54    0.45
  12  12   2    1.53    0.47
  12 -12   2    1.59    0.56
 -12 -12   2    1.72    0.57
  12 -12   2    1.09    0.48
 -13 -12  -2   26.74    1.35
  12 -13  -2   23.69    1.47
  13  12  -2   24.95    1.25
  12 -13  -2   26.42    1.31
 -13 -12  -2   24.63    1.39
  12 -13   2   23.86    1.39
  12 -13   2   25.48    1.32
  13  12   2   27.48    1.36
 -13 -12   2   23.91    1.42
  11 -13  -2    1.51    0.56
  11 -13  -2    1.06    0.49
  13  11  -2    0.86    0.36
 -13 -11  -2    0.84    0.56
 -13 -11  -2    0.30    0.47
  11 -13   2    0.78    0.54
  13  11   2    1.48    0.43
 -13 -11   2    0.44    0.54
  11 -13   2    0.81    0.47
 -13 -10  -2   64.16    2.43
  10 -13  -2   61.89    2.49
  10 -13  -2   61.70    2.39
 -13 -10  -2   64.34    2.49
  13  10  -2   62.52    2.35
 -13 -10   2   65.92    2.45
  10 -13   2   63.01    2.36
  10 -13   2   61.33    2.48
  13  10   2   64.16    2.42
 -13  -9  -2    0.64    0.50
  13   9  -2    0.78    0.36
   9 -13  -2    0.75    0.50
   9 -13  -2    0.82    0.44
 -13  -9  -2    0.61    0.44
   9 -13   2    0.22    0.49
   9 -13   2    0.32    0.41
 -13  -9   2    0.41    0.46
  13   9   2    0.53    0.39
   8 -13  -2   46.24    1.96
   8 -13  -2   46.77    1.88
  13   8  -2   45.18    1.83
 -13  -8  -2   47.31    1.95
 -13  -8  -2   47.52    1.93
 -13  -8   2   47.03    1.91
  13   8   2   50.26    1.90
   8 -13   2   48.12    1.98
   8 -13   2   45.24    1.82
   7 -13  -2    0.72    0.46
 -13  -7  -2    0.74    0.44
 -13  -7  -2    0.68    0.41
   7 -13  -2    0.30    0.40
  13   7  -2    0.38    0.30
  13   7   2    0.74    0.36
   7 -13   2    0.81    0.47
   7 -13   2    0.45    0.37
  13   7   2    0.43    0.35
 -13  -6  -2   49.84    2.00
 -13  -6  -2   48.97    2.02
  13   6  -2   52.48    1.94
   6 -13  -2   52.46    1.98
   6 -13  -2   53.65    2.06
   6 -13  -2   51.22    1.93
   6 -13   2   50.58    1.89
  13   6   2   50.40    1.95
   6 -13   2   49.75    2.04
  13   6   2   52.18    1.98
 -13  -6   2   50.98    1.84
   5 -13  -2    8.08    0.65
   5 -13  -2   10.26    0.76
  13   5  -2    9.27    0.69
 -13  -5  -2    8.96    0.76
   5 -13  -2    8.86    0.76
   5 -13   2    9.69    0.70
  13   5   2    8.06    0.69
 -13  -5   2    8.47    0.59
   5 -13   2    8.79    0.78
  13   5   2    7.65    0.66
   4 -13  -2   27.99    1.34
   4 -13  -2   31.33    1.27
   4 -13  -2   30.87    1.32
  13   4  -2   27.40    1.23
 -13  -4  -2   26.89    1.30
 -13  -4   2   26.46    1.15
   4 -13   2   29.98    1.37
  13   4   2   27.40    1.25
   4 -13   2   30.02    1.19
  13   4   2   27.45    1.25
  13   4   2   26.70    1.24
  13   3  -2   -0.17    0.25
   3 -13  -2   -0.08    0.36
 -13  -3  -2   -0.17    0.31
   3 -13  -2    0.10    0.30
   3 -13  -2    0.14    0.35
 -13  -3   2    0.01    0.25
  13   3   2   -0.17    0.27
   3 -13   2   -0.03    0.28
  13   3   2   -0.25    0.27
   3 -13   2   -0.68    0.35
  13   3   2    0.23    0.26
   2 -13  -2    0.32    0.30
   2 -13  -2   -0.06    0.36
  13   2  -2   -0.04    0.20
   2 -13  -2   -0.19    0.34
  13   2  -2   -0.08    0.28
 -13  -2  -2   -0.03    0.30
  13   2   2   -0.03    0.28
   2 -13   2    0.51    0.38
 -13  -2   2   -0.15    0.23
  13   2   2   -0.08    0.27
  13   2   2   -0.10    0.26
  13   1  -2    0.63    0.30
   1 -13  -2    0.76    0.33
   1 -13  -2    0.59    0.39
  13   1  -2    0.71    0.25
   1 -13  -2    0.21    0.37
 -13  -1  -2    0.67    0.34
  13   1   2    0.47    0.32
  13   1   2    0.68    0.27
  13   1   2    0.69    0.31
   1 -13   2    0.84    0.41
 -13  -1   2    0.36    0.28
   0 -13  -2    0.86    0.33
 -13   0  -2    1.16    0.36
  13   0  -2    0.48    0.30
   0 -13  -2    1.91    0.44
  13   0  -2    0.91    0.27
  13   0   2    1.27    0.28
  13   0   2    0.44    0.32
   0 -13   2    1.03    0.41
  13   0   2    0.78    0.31
  -1 -13  -2    0.01    0.36
  13  -1  -2   -0.06    0.20
 -13   1  -2    0.24    0.29
  13  -1  -2    0.06    0.30
  -1 -13  -2    0.11    0.30
  13  -1   2   -0.03    0.29
  13  -1   2    0.97    0.23
  -1 -13   2    0.62    0.38
  13  -1   2    0.02    0.28
 -13   2  -2   12.85    0.78
  -2 -13  -2   11.47    0.81
  13  -2  -2   12.98    0.65
  13  -2  -2   13.45    0.83
  -2 -13  -2   10.84    0.71
  13  -2   2   12.21    0.59
  13  -2   2   11.06    0.75
  13  -2   2   13.27    0.81
  -2 -13   2   11.24    0.82
  -3 -13  -2    0.29    0.34
  13  -3  -2    0.06    0.24
 -13   3  -2    0.37    0.31
  13  -3  -2    0.25    0.31
  -3 -13  -2   -0.13    0.37
  13  -3   2   -0.12    0.28
  -3 -13   2   -0.43    0.36
  13  -3   2    0.58    0.35
  13  -4  -2   50.67    1.94
  -4 -13  -2   48.02    1.86
  -4 -13  -2   47.63    1.94
  13  -4  -2   49.15    1.78
 -13   4  -2   50.66    1.90
  13  -4   2   47.07    1.85
  13  -4   2   49.50    1.92
  -4 -13   2   49.98    1.93
  -5 -13  -2    0.35    0.35
  13  -5  -2    0.54    0.28
 -13   5  -2    0.41    0.31
   5  13  -2    0.13    0.23
  13  -5  -2    0.20    0.36
  -5 -13  -2   -0.01    0.40
  -5 -13   2    0.64    0.41
  13  -5   2    0.26    0.31
  13  -5   2    0.23    0.35
 -13   6  -2   31.94    1.40
  -6 -13  -2   32.55    1.40
   6  13  -2   32.29    1.30
  13  -6  -2   33.64    1.48
  -6 -13  -2   32.90    1.48
  13  -6  -2   33.45    1.33
  -6 -13   2   31.53    1.46
  13  -6   2   34.92    1.48
  13  -6   2   31.19    1.38
  -7 -13  -2    0.68    0.41
  13  -7  -2    1.57    0.37
  13  -7  -2    0.95    0.42
   7  13  -2    0.57    0.28
 -13   7  -2    0.99    0.38
  -7 -13  -2    0.94    0.48
  13  -7   2    0.85    0.39
  -7 -13   2    1.26    0.46
  13  -7   2    0.50    0.41
 -13   8  -2   70.17    2.62
  13  -8  -2   68.44    2.67
  -8 -13  -2   69.82    2.60
  -8 -13  -2   75.42    2.70
  13  -8  -2   72.98    2.55
   8  13  -2   70.51    2.51
  13  -8   2   73.40    2.60
  -8 -13   2   70.29    2.65
  13  -8   2   72.97    2.68
  -9 -13  -2    3.21    0.60
  13  -9  -2    3.77    0.60
  13  -9  -2    4.06    0.52
  -9 -13  -2    2.97    0.54
   9  13  -2    3.09    0.45
 -13   9  -2    3.55    0.53
  -9 -13   2    3.24    0.61
  13  -9   2    3.71    0.60
  13  -9   2    3.39    0.53
 -10 -13  -2   61.28    2.36
 -13  10  -2   60.96    2.36
  13 -10  -2   63.72    2.33
  13 -10  -2   62.39    2.49
 -10 -13  -2   58.93    2.44
  10  13  -2   64.87    2.29
  13 -10   2   62.69    2.34
  13 -10   2   63.70    2.44
 -10 -13   2   63.28    2.44
  10  13   2   61.62    2.37
  13 -11  -2    1.10    0.45
  11  13  -2    0.60    0.35
 -11 -13  -2    1.83    0.59
 -11 -13  -2    0.86    0.49
  13 -11  -2    1.21    0.59
 -13  11  -2    0.95    0.41
  13 -11   2    0.81    0.51
 -11 -13   2    0.89    0.57
  11  13   2    0.88    0.42
  13 -11   2    0.70    0.47
  13 -12  -2    5.47    0.80
  12  13  -2    6.94    0.67
 -12 -13  -2    5.35    0.81
  13 -12  -2    7.00    0.73
 -12 -13  -2    6.49    0.75
 -13  12  -2    7.26    0.75
  13 -12   2    7.30    0.75
 -12 -13   2    6.81    0.82
  13 -12   2    5.00    0.75
  12  13   2    5.20    0.66
  13  13  -2    1.09    0.41
  13 -13  -2    0.75    0.63
 -13 -13  -2    0.38    0.52
 -13 -13  -2    0.61    0.62
 -13  13  -2    0.26    0.41
  13 -13  -2    0.45    0.49
  13 -13   2    0.96    0.59
 -13 -13   2    0.78    0.62
  13  13   2    0.35    0.43
  13 -13   2    0.73    0.52
  13 -14  -2    4.22    0.80
 -14 -13  -2    4.97    0.83
  14  13  -2    4.87    0.62
  13 -14  -2    3.15    0.63
 -14 -13  -2    4.24    0.81
 -13  14  -2    4.02    0.64
  14  13   2    6.23    0.79
 -14 -13   2    6.26    0.84
  13 -14   2    4.00    0.78
 -14 -12  -2    0.70    0.60
  12 -14  -2    0.58    0.60
  14  12  -2    1.16    0.44
 -14 -12  -2    1.73    0.58
  12 -14  -2    2.62    0.60
  12 -14   2    2.07    0.65
  14  12   2    1.36    0.53
 -14 -12   2    2.11    0.65
  14  11  -2   -0.18    0.34
 -14 -11  -2   -0.66    0.45
  11 -14  -2   -0.17    0.53
 -14 -11  -2   -0.12    0.54
  11 -14  -2    0.00    0.46
 -14 -11   2    0.34    0.56
  14  11   2    0.07    0.43
  11 -14   2   -0.29    0.52
  10 -14  -2    0.70    0.57
 -14 -10  -2    0.65    0.48
  10 -14  -2    0.20    0.45
  14  10  -2    0.25    0.37
 -14 -10  -2    0.54    0.55
  14  10   2    0.16    0.41
  10 -14   2    0.67    0.83
  10 -14   2    0.03    0.53
 -14 -10   2    0.58    0.53
   9 -14  -2    0.51    0.55
  14   9  -2    0.11    0.33
   9 -14  -2   -0.03    0.42
 -14  -9  -2    0.28    0.52
 -14  -9  -2    0.41    0.46
 -14  -9   2    0.43    0.49
  14   9   2    0.77    0.41
   9 -14   2   -0.05    0.52
   9 -14   2    0.09    0.55
  14   8  -2    3.17    0.48
 -14  -8  -2    1.24    0.54
 -14  -8  -2    2.60    0.55
   8 -14  -2    3.85    0.65
   8 -14  -2    2.98    0.56
  14   8   2    2.04    0.47
   8 -14   2    2.90    0.60
   8 -14   2    2.15    0.51
 -14  -8   2    2.38    0.57
 -14  -7  -2    1.90    0.51
  14   7  -2    1.15    0.39
 -14  -7  -2    1.46    0.52
   7 -14  -2    1.54    0.49
   7 -14  -2    1.46    0.53
  14   7   2    1.64    0.45
  14   7   2    1.88    0.44
   7 -14   2    1.56    0.54
   7 -14   2    1.41    0.44
 -14  -6  -2    2.03    0.52
   6 -14  -2    2.23    0.52
  14   6  -2    1.37    0.38
 -14  -6  -2    1.69    0.48
   6 -14  -2    2.01    0.55
  14   6   2    2.16    0.47
  14   6   2    2.17    0.46
   6 -14   2    1.44    0.50
   6 -14   2    2.23    0.44
 -14  -6   2    2.09    0.42
   5 -14  -2   -0.23    0.34
   5 -14  -2    0.30    0.42
   5 -14  -2   -0.39    0.42
  14   5  -2   -0.09    0.30
 -14  -5  -2    0.26    0.41
   5 -14   2    0.53    0.45
   5 -14   2   -0.06    0.36
 -14  -5   2    0.23    0.30
  14   5   2    0.36    0.35
  14   5   2    0.27    0.35
 -14  -4  -2    0.46    0.38
   4 -14  -2    0.45    0.36
   4 -14  -2    0.19    0.41
  14   4  -2   -0.09    0.30
   4 -14  -2    0.24    0.45
   4 -14   2    0.50    0.35
   4 -14   2    0.27    0.45
  14   4   2    0.01    0.31
  14   4   2   -0.20    0.31
 -14  -4   2    0.32    0.29
   3 -14  -2    0.22    0.42
 -14  -3  -2   -0.02    0.35
   3 -14  -2    0.42    0.40
   3 -14  -2   -0.29    0.31
  14   3  -2    0.25    0.30
 -14  -3   2   -0.02    0.26
  14   3   2   -0.33    0.29
   3 -14   2   -0.12    0.42
  14   3   2    0.08    0.28
  14   3   2   -0.03    0.32
   3 -14   2   -0.20    0.31
  14   2  -2    4.06    0.42
   2 -14  -2    4.10    0.57
 -14  -2  -2    3.24    0.51
   2 -14  -2    2.42    0.54
   2 -14  -2    3.82    0.49
  14   2  -2    3.85    0.50
 -14  -2   2    3.91    0.46
  14   2   2    4.00    0.52
   2 -14   2    3.47    0.56
  14   2   2    3.57    0.50
  14   2   2    4.20    0.46
  14   1  -2    4.25    0.50
   1 -14  -2    3.54    0.48
 -14  -1  -2    2.89    0.48
  14   1  -2    4.54    0.44
   1 -14  -2    4.33    0.58
   1 -14  -2    3.25    0.56
 -14  -1   2    3.60    0.44
  14   1   2    2.20    0.45
  14   1   2    4.72    0.50
   1 -14   2    4.27    0.60
  14   1   2    4.27    0.53
 -14   0  -2    1.00    0.39
  14   0  -2    0.78    0.35
   0 -14  -2    1.29    0.38
  14   0  -2    1.26    0.29
   0 -14  -2    1.76    0.46
  14   0   2    1.37    0.38
   0 -14   2    1.67    0.48
 -14   0   2    0.95    0.34
  14   0   2    2.00    0.43
  -1 -14  -2    4.19    0.57
  14  -1  -2    4.87    0.56
 -14   1  -2    4.15    0.52
  14  -1  -2    4.49    0.44
  -1 -14  -2    4.21    0.51
  -1 -14   2    3.98    0.58
  14  -1   2    4.19    0.51
  14  -1   2    4.02    0.53
 -14   2  -2    0.33    0.33
  -2 -14  -2    0.71    0.42
  14  -2  -2    0.43    0.34
  14  -2  -2    0.29    0.26
  -2 -14  -2    0.44    0.34
  14  -2   2    0.21    0.33
  14  -2   2    0.44    0.35
  -2 -14   2    0.60    0.42
  -3 -14  -2    0.66    0.44
 -14   3  -2    1.57    0.41
  14  -3  -2    1.01    0.39
  -3 -14  -2    0.37    0.37
  14  -3  -2    0.56    0.27
  -3 -14   2    0.96    0.45
  14  -3   2    0.93    0.39
  14  -3   2    0.57    0.36
  -4 -14  -2    7.88    0.75
  14  -4  -2    7.33    0.59
  -4 -14  -2    7.66    0.66
 -14   4  -2    7.55    0.70
  14  -4  -2    6.98    0.67
  -4 -14   2    8.50    0.76
  14  -4   2    6.71    0.69
  14  -4   2    8.13    0.69
 -14   5  -2    1.42    0.40
  14  -5  -2    1.67    0.36
  -5 -14  -2    0.95    0.47
  -5 -14  -2    0.92    0.42
   5  14  -2    1.16    0.30
  14  -5  -2    1.36    0.45
  14  -5   2    1.29    0.44
  -5 -14   2    1.72    0.51
  14  -5   2    1.20    0.39
  -6 -14  -2   -0.17    0.45
  -6 -14  -2    0.65    0.41
   6  14  -2    0.74    0.29
  14  -6  -2    0.97    0.34
  14  -6  -2    0.68    0.42
 -14   6  -2    0.12    0.35
  14  -6   2    0.55    0.42
  14  -6   2    0.77    0.40
  -6 -14   2    0.83    0.47
 -14   7  -2    0.47    0.37
   7  14  -2    0.71    0.29
  14  -7  -2    0.56    0.46
  -7 -14  -2   -0.34    0.44
  14  -7  -2    0.20    0.33
  -7 -14  -2   -0.45    0.39
  14  -7   2    0.05    0.37
  -7 -14   2    0.31    0.46
  14  -7   2   -0.18    0.39
 -14   8  -2    0.82    0.41
  -8 -14  -2    0.91    0.53
   8  14  -2    0.71    0.32
  14  -8  -2    0.68    0.50
  14  -8  -2    0.54    0.37
  -8 -14  -2    0.38    0.42
  14  -8   2    0.92    0.48
  -8 -14   2    0.58    0.48
  14  -8   2    0.52    0.42
  14  -9  -2    1.02    0.51
 -14   9  -2    0.59    0.38
   9  14  -2    1.02    0.36
  -9 -14  -2    0.47    0.51
  14  -9  -2    0.71    0.39
  -9 -14  -2    0.72    0.48
  14  -9   2    0.47    0.45
  14  -9   2    0.29    0.46
  -9 -14   2    1.69    0.56
 -10 -14  -2    2.27    0.62
 -14  10  -2    0.80    0.41
  10  14  -2    1.56    0.40
 -10 -14  -2    1.54    0.51
  14 -10  -2    1.23    0.57
  14 -10  -2    1.54    0.44
 -10 -14   2    1.08    0.55
  14 -10   2    1.72    0.56
  10  14   2    0.98    0.43
  14 -10   2    1.70    0.51
 -11 -14  -2   -0.29    0.53
  14 -11  -2   -0.56    0.53
 -14  11  -2   -0.21    0.38
  11  14  -2   -0.11    0.34
 -11 -14  -2   -0.17    0.46
  14 -11  -2    0.01    0.40
  11  14   2    0.40    0.41
  14 -11   2    0.00    0.49
 -11 -14   2    0.26    0.55
  14 -11   2   -0.79    0.42
 -12 -14  -2    0.50    0.52
 -12 -14  -2   -0.56    0.57
  12  14  -2    0.63    0.38
  14 -12  -2    0.64    0.58
  14 -12  -2   -0.15    0.45
 -14  12  -2    0.65    0.44
  14 -12   2    0.89    0.52
  12  14   2   -0.18    0.44
  14 -12   2   -0.04    0.53
 -12 -14   2    0.15    0.58
  14 -13  -2   39.93    1.91
  14 -13  -2   36.16    1.66
 -14  13  -2   38.99    1.71
  13  14  -2   37.57    1.62
 -13 -14  -2   35.67    1.80
 -13 -14   2   33.48    1.79
  14 -13   2   34.49    1.71
  13  14   2   36.52    1.70
  14 -13   2   35.47    1.81
 -14  14  -2    1.75    0.55
  14  14  -2    1.11    0.45
 -14 -14  -2    0.93    0.70
  14 -14  -2    2.31    0.73
  14 -14  -2    2.13    0.59
  14  14   2    1.31    0.53
 -14 -14   2    2.24    0.72
  14 -14   2    0.97    0.64
  14 -15  -2    2.24    0.79
 -14  15  -2    2.14    0.60
  14 -15  -2    3.30    0.67
  15  14  -2    2.76    0.56
 -15 -14  -2    2.80    0.83
  14 -15   2    2.99    0.77
 -15 -14   2    3.65    0.84
  15  14   2    2.71    0.67
  13 -15  -2    0.97    0.53
  13 -15  -2    1.51    0.71
 -15 -13  -2    0.30    0.65
  15  13  -2   -0.29    0.38
 -13  15  -2    0.67    0.48
  13 -15   2    0.02    0.60
  15  13   2    0.59    0.52
 -15 -13   2    0.20    0.66
  12 -15  -2    5.77    0.87
 -15 -12  -2    4.68    0.81
  15  12  -2    5.96    0.70
  12 -15  -2    4.76    0.72
 -15 -12  -2    6.59    0.81
 -15 -12   2    6.89    0.88
  15  12   2    5.35    0.73
  12 -15   2    4.82    0.79
 -15 -11  -2    0.96    0.64
  11 -15  -2    0.95    0.63
  15  11  -2    0.73    0.44
  11 -15  -2    1.26    0.54
 -15 -11  -2    1.03    0.55
  15  11   2    0.33    0.47
 -15 -11   2    1.28    0.64
  11 -15   2    0.86    0.59
 -15 -10  -2   44.48    1.94
  15  10  -2   44.76    1.87
 -15 -10  -2   42.78    1.98
  10 -15  -2   41.27    1.88
  10 -15  -2   44.47    2.05
 -15 -10   2   46.69    2.01
  10 -15   2   42.20    2.02
  15  10   2   49.35    1.97
   9 -15  -2    2.19    0.64
  15   9  -2    0.76    0.41
 -15  -9  -2    1.22    0.55
   9 -15  -2    1.25    0.53
 -15  -9  -2    0.87    0.60
  15   9   2    1.06    0.47
   9 -15   2    0.65    0.58
 -15  -9   2    1.22    0.57
  15   8  -2   32.06    1.45
   8 -15  -2   31.99    1.60
 -15  -8  -2   31.58    1.55
   8 -15  -2   32.78    1.54
 -15  -8  -2   32.31    1.61
   8 -15   2   31.25    1.62
  15   8   2   32.92    1.52
 -15  -7  -2    1.64    0.57
   7 -15  -2    1.13    0.54
  15   7  -2    1.49    0.41
   7 -15  -2    2.23    0.56
 -15  -7  -2    1.13    0.50
   7 -15   2    0.58    0.53
  15   7   2    0.49    0.38
  15   7   2    1.84    0.49
 -15  -6  -2   21.50    1.22
  15   6  -2   21.08    1.12
   6 -15  -2   20.12    1.18
   6 -15  -2   19.73    1.22
   6 -15   2   23.07    1.29
  15   6   2   20.75    1.12
  15   5  -2    0.84    0.37
   5 -15  -2    0.52    0.40
   5 -15  -2    0.64    0.51
 -15  -5  -2    1.18    0.48
   5 -15  -2    0.51    0.45
   5 -15   2    1.02    0.53
  15   5   2    0.86    0.40
  15   5   2    0.82    0.41
 -15  -5   2    0.98    0.36
  15   4  -2   36.44    1.57
   4 -15  -2   38.10    1.56
   4 -15  -2   36.43    1.68
 -15  -4  -2   36.47    1.63
   4 -15  -2   39.11    1.66
  15   4   2   36.41    1.58
 -15  -4   2   36.18    1.48
  15   4   2   35.60    1.58
   4 -15   2   38.35    1.71
  15   3  -2    4.01    0.53
 -15  -3  -2    3.69    0.58
   3 -15  -2    2.82    0.58
   3 -15  -2    4.57    0.53
   3 -15  -2    3.24    0.61
  15   3   2    4.76    0.59
  15   3   2    3.80    0.54
 -15  -3   2    4.37    0.49
   3 -15   2    3.25    0.61
   2 -15  -2    3.55    0.61
  15   2  -2    3.56    0.42
   2 -15  -2    4.05    0.53
  15   2  -2    2.86    0.47
   2 -15  -2    2.76    0.56
 -15  -2  -2    2.84    0.51
 -15  -2   2    2.42    0.42
   2 -15   2    3.72    0.63
  15   2   2    2.44    0.48
  15   2   2    2.55    0.49
   1 -15  -2   -0.15    0.42
  15   1  -2    0.03    0.34
  15   1  -2    0.03    0.24
 -15  -1  -2   -0.27    0.33
   1 -15  -2   -0.18    0.34
 -15  -1   2   -0.53    0.28
  15   1   2   -0.21    0.32
  15   1   2   -0.35    0.33
   1 -15   2   -0.37    0.43
   0 -15  -2    3.26    0.48
 -15   0  -2    3.06    0.54
   0 -15  -2    3.30    0.58
  15   0  -2    3.09    0.49
  15   0  -2    4.51    0.46
  15   0   2    3.31    0.50
 -15   0   2    3.28    0.47
   0 -15   2    3.17    0.60
  15   0   2    2.06    0.47
  15  -1  -2    0.47    0.37
  -1 -15  -2    0.59    0.37
  15  -1  -2    0.88    0.31
 -15   1  -2    0.88    0.39
  -1 -15  -2    0.64    0.48
  15  -1   2    1.00    0.41
  15  -1   2    1.50    0.41
  -1 -15   2    1.18    0.51
 -15   2  -2   25.27    1.20
  -2 -15  -2   23.10    1.11
  -2 -15  -2   20.81    1.22
  15  -2  -2   24.89    1.23
  15  -2  -2   24.59    1.05
  15  -2   2   23.77    1.17
  15  -2   2   21.92    1.18
  -2 -15   2   23.70    1.26
  -3 -15  -2    6.66    0.74
  15  -3  -2    5.43    0.65
  -3 -15  -2    5.78    0.62
  15  -3  -2    4.81    0.49
 -15   3  -2    6.06    0.66
  15  -3   2    5.98    0.65
  -3 -15   2    5.07    0.67
  15  -3   2    5.33    0.62
  -4 -15  -2   42.65    1.70
 -15   4  -2   42.35    1.75
  15  -4  -2   42.80    1.63
  15  -4  -2   40.93    1.78
  -4 -15  -2   41.68    1.82
  15  -4   2   42.98    1.73
  -4 -15   2   41.92    1.81
  15  -4   2   39.07    1.75
  15  -5  -2    4.54    0.64
  -5 -15  -2    4.84    0.60
 -15   5  -2    5.75    0.63
  -5 -15  -2    4.77    0.70
  15  -5  -2    5.62    0.56
   5  15  -2    5.55    0.52
  -5 -15   2    5.84    0.71
  15  -5   2    3.83    0.60
  15  -5   2    4.46    0.59
 -15   6  -2   41.57    1.77
  15  -6  -2   42.14    1.84
  -6 -15  -2   42.29    1.74
   6  15  -2   43.15    1.65
  -6 -15  -2   43.99    1.87
  15  -6  -2   44.50    1.68
  15  -6   2   43.28    1.78
  -6 -15   2   42.38    1.86
  15  -6   2   40.78    1.79
 -15   7  -2    1.52    0.44
  15  -7  -2    1.24    0.39
  15  -7  -2    0.58    0.51
  -7 -15  -2    0.94    0.53
   7  15  -2    0.82    0.32
  -7 -15  -2    0.87    0.46
  15  -7   2    1.62    0.48
  15  -7   2    1.35    0.49
  -7 -15   2    1.13    0.53
  -8 -15  -2   25.23    1.29
 -15   8  -2   23.67    1.30
  15  -8  -2   25.70    1.22
  15  -8  -2   25.23    1.39
  -8 -15  -2   24.88    1.39
   8  15  -2   28.38    1.20
  -8 -15   2   27.75    1.43
  15  -8   2   26.19    1.37
  15  -8   2   24.28    1.29
 -15   9  -2    0.10    0.40
  15  -9  -2    0.57    0.41
  -9 -15  -2   -0.04    0.56
  -9 -15  -2    0.17    0.44
  15  -9  -2   -0.02    0.51
   9  15  -2    0.46    0.34
  15  -9   2    0.52    0.46
  15  -9   2   -0.40    0.45
  -9 -15   2    0.62    0.57
 -10 -15  -2   19.54    1.20
  15 -10  -2   20.72    1.15
  10  15  -2   19.81    1.06
 -10 -15  -2   22.23    1.30
  15 -10  -2   21.30    1.33
 -15  10  -2   21.42    1.20
  15 -10   2   19.99    1.21
  15 -10   2   21.53    1.30
 -10 -15   2   21.48    1.30
  10  15   2   20.55    1.18
 -15  11  -2   -0.47    0.37
  11  15  -2    0.51    0.38
  15 -11  -2    0.57    0.61
 -11 -15  -2   -0.26    0.58
  15 -11  -2    0.47    0.44
  15 -11   2   -0.02    0.50
  11  15   2    0.72    0.44
  15 -11   2    0.08    0.53
 -11 -15   2    0.60    0.62
 -12 -15  -2    2.14    0.70
  15 -12  -2    1.89    0.73
  15 -12  -2    1.82    0.54
  12  15  -2    1.39    0.46
 -15  12  -2    1.80    0.53
  15 -12   2    2.39    0.62
  15 -12   2    1.34    0.60
 -12 -15   2    1.57    0.70
  12  15   2    1.91    0.58
  15 -13  -2    0.83    0.65
 -13 -15  -2    1.19    0.71
  15 -13  -2    0.20    0.50
  13  15  -2    0.37    0.42
 -15  13  -2    0.69    0.47
  15 -13   2    0.46    0.60
  13  15   2   -0.12    0.44
 -13 -15   2   -0.27    0.65
  15 -13   2   -0.25    0.71
 -14 -15  -2    1.16    0.73
 -15  14  -2    1.44    0.56
  15 -14  -2    1.07    0.57
  15 -14  -2    1.82    0.79
  14  15  -2    1.46    0.51
  15 -14   2    1.70    0.69
 -14 -15   2    1.67    0.78
  14  15   2    1.17    0.56
  15  15  -2    3.26    0.61
  15 -15  -2    3.18    0.70
  15 -15  -2    4.67    0.90
 -15  15  -2    3.48    0.68
 -15 -15  -2    5.01    0.93
 -15 -15   2    4.77    0.93
  15  15   2    4.49    0.75
  15 -15   2    2.34    0.73
  15 -16  -2    4.98    0.80
 -15  16  -2    4.02    0.75
  15 -16  -2    3.33    0.90
  16  15  -2    3.23    0.61
 -16 -15  -2    3.68    0.90
  16  15   2    2.89    0.72
  15 -16   2    4.03    0.89
 -16 -15   2    4.49    0.95
 -16 -14  -2    3.14    0.87
  14 -16  -2    2.44    0.81
  14 -16  -2    3.08    0.71
  16  14  -2    1.46    0.53
 -14  16  -2    2.20    0.60
  16  14   2    0.84    0.60
  14 -16   2    2.09    0.77
 -16 -14   2    1.23    0.81
  16  13  -2    0.26    0.46
 -16 -13  -2    1.94    0.77
  13 -16  -2    1.71    0.64
  13 -16  -2    2.08    0.79
  13 -16   2    1.35    0.70
  16  13   2    1.34    0.59
 -16 -13   2    0.99    0.76
  16  12  -2    0.31    0.48
 -16 -12  -2   -0.30    0.64
  12 -16  -2    1.55    0.62
  12 -16  -2    0.32    0.66
  16  12   2    0.80    0.55
  12 -16   2    0.57    0.67
 -16 -12   2    0.01    0.69
 -16 -11  -2    1.90    0.74
  16  11  -2    1.28    0.48
 -16 -11  -2    1.82    0.62
  11 -16  -2    1.32    0.59
  11 -16  -2    1.07    0.67
  16  11   2    1.36    0.56
  11 -16   2    0.05    0.61
 -16 -11   2    1.65    0.69
  10 -16  -2    1.23    0.65
  10 -16  -2    2.26    0.62
 -16 -10  -2    0.88    0.59
  16  10  -2    1.67    0.48
 -16 -10  -2    1.80    0.70
 -16 -10   2    0.60    0.65
  16  10   2    1.17    0.51
  10 -16   2    1.50    0.68
 -16  -9  -2   -0.17    0.49
   9 -16  -2    0.15    0.61
   9 -16  -2    0.10    0.52
 -16  -9  -2   -1.35    0.52
  16   9  -2    0.23    0.41
  16   9   2    0.72    0.48
 -16  -9   2    0.03    0.57
   9 -16   2    0.04    0.59
 -16  -8  -2    0.64    0.52
 -16  -8  -2    0.02    0.56
   8 -16  -2    1.41    0.60
   8 -16  -2   -0.32    0.47
  16   8  -2    0.05    0.38
  16   8   2    0.43    0.44
   8 -16   2    0.65    0.59
 -16  -7  -2    0.60    0.51
   7 -16  -2    0.44    0.54
  16   7  -2    0.28    0.39
   7 -16  -2    0.50    0.53
 -16  -7  -2    0.14    0.58
  16   7   2    0.50    0.42
  16   7   2    0.40    0.45
   7 -16   2    0.34    0.57
  16   6  -2    1.90    0.45
 -16  -6  -2    3.08    0.60
   6 -16  -2    2.81    0.65
   6 -16  -2    3.01    0.63
  16   6   2    2.85    0.55
  16   6   2    2.38    0.52
   6 -16   2    2.71    0.64
   5 -16  -2    0.35    0.40
   5 -16  -2    0.97    0.54
   5 -16  -2    1.09    0.53
 -16  -5  -2    0.40    0.47
  16   5  -2    0.53    0.38
   5 -16   2    1.49    0.61
  16   5   2    0.48    0.40
 -16  -5   2    0.52    0.40
  16   5   2    0.02    0.38
   4 -16  -2    1.92    0.57
   4 -16  -2    2.04    0.48
  16   4  -2    1.92    0.46
   4 -16  -2    0.99    0.55
 -16  -4  -2    1.31    0.49
   4 -16   2    1.70    0.60
  16   4   2    1.22    0.46
  16   4   2    1.04    0.43
 -16  -4   2    2.10    0.43
  16   3  -2    1.04    0.41
   3 -16  -2    1.32    0.56
 -16  -3  -2    1.97    0.52
   3 -16  -2    1.91    0.45
   3 -16  -2    1.87    0.57
  16   3   2    1.52    0.46
 -16  -3   2    2.19    0.45
  16   3   2    1.18    0.44
   3 -16   2    2.08    0.59
  16   2  -2    1.17    0.42
   2 -16  -2    1.82    0.56
 -16  -2  -2    1.66    0.48
  16   2  -2    1.11    0.32
   2 -16  -2    0.74    0.41
   2 -16  -2    1.27    0.52
  16   2   2    1.25    0.44
   2 -16   2    1.16    0.52
  16   2   2    0.91    0.42
 -16  -2   2    1.43    0.40
 -16  -1  -2   -0.07    0.37
  16   1  -2   -0.35    0.33
   1 -16  -2   -0.37    0.44
  16   1  -2    0.11    0.27
   1 -16  -2    0.11    0.37
  16   1   2    0.31    0.37
  16   1   2   -0.35    0.33
   1 -16   2   -0.17    0.49
 -16  -1   2    0.00    0.34
   0 -16  -2    3.13    0.50
 -16   0  -2    3.58    0.58
  16   0  -2    2.73    0.42
   0 -16  -2    2.96    0.60
  16   0  -2    2.32    0.47
 -16   0   2    2.93    0.48
  16   0   2    2.31    0.49
  16   0   2    2.35    0.50
   0 -16   2    2.84    0.60
 -16   1  -2    0.49    0.40
  16  -1  -2    0.58    0.42
  -1 -16  -2    0.75    0.40
  16  -1  -2    0.58    0.30
  -1 -16  -2    1.12    0.52
  -1 -16   2    1.34    0.54
  16  -1   2    0.49    0.40
 -16   1   2    0.64    0.37
  16  -1   2    0.22    0.38
  -2 -16  -2   -0.09    0.37
  -2 -16  -2   -0.17    0.48
 -16   2  -2    0.27    0.39
  16  -2  -2    0.13    0.28
  16  -2  -2   -0.63    0.37
  -2 -16   2    0.53    0.50
  16  -2   2    0.08    0.39
  16  -2   2    0.21    0.39
  -3 -16  -2   -0.13    0.47
  16  -3  -2   -0.23    0.40
 -16   3  -2   -0.11    0.36
  16  -3  -2    0.35    0.31
  -3 -16  -2   -0.30    0.39
  16  -3   2   -0.15    0.37
  16  -3   2   -0.15    0.39
  -3 -16   2   -0.03    0.48
  16  -4  -2    0.14    0.31
 -16   4  -2    0.31    0.36
  -4 -16  -2   -0.44    0.49
  -4 -16  -2   -0.29    0.37
  16  -4  -2    0.59    0.42
  16  -4   2    0.99    0.44
  16  -4   2    0.18    0.40
  -4 -16   2    0.83    0.52
   5  16  -2    1.26    0.35
  -5 -16  -2    0.92    0.53
  16  -5  -2    0.96    0.47
 -16   5  -2    0.32    0.40
  16  -5  -2    0.34    0.34
  -5 -16  -2    0.31    0.43
  16  -5   2    0.95    0.47
  16  -5   2    0.31    0.41
  -5 -16   2    1.10    0.56
 -16   6  -2    0.60    0.43
  -6 -16  -2    0.34    0.44
   6  16  -2    0.62    0.34
  16  -6  -2    0.19    0.34
  16  -6  -2    0.92    0.51
  -6 -16  -2    1.01    0.58
  -6 -16   2    0.38    0.53
  16  -6   2    0.56    0.49
  16  -6   2    0.62    0.45
   7  16  -2   -0.11    0.32
 -16   7  -2    0.70    0.44
  -7 -16  -2    0.32    0.45
  -7 -16  -2    0.51    0.57
  16  -7  -2    0.73    0.39
  16  -7  -2   -0.58    0.49
  -7 -16   2    0.38    0.55
  16  -7   2    0.84    0.49
  16  -7   2    0.59    0.47
 -16   8  -2    1.44    0.50
  -8 -16  -2    1.20    0.62
  16  -8  -2    2.57    0.65
  -8 -16  -2    1.79    0.51
  16  -8  -2    1.45    0.44
   8  16  -2    1.88    0.42
  16  -8   2    0.82    0.52
  -8 -16   2    0.60    0.59
  16  -8   2    1.37    0.54
  16  -9  -2    0.77    0.61
   9  16  -2    1.19    0.39
 -16   9  -2    1.41    0.48
  16  -9  -2    1.75    0.48
  -9 -16  -2    1.05    0.61
  -9 -16   2    1.17    0.64
  16  -9   2    1.46    0.56
  16  -9   2    1.53    0.55
 -10 -16  -2    1.41    0.70
  16 -10  -2    2.04    0.52
  16 -10  -2    1.55    0.63
  10  16  -2    1.56    0.45
 -16  10  -2    1.78    0.51
  16 -10   2    0.61    0.53
  16 -10   2    1.26    0.57
 -10 -16   2    1.02    0.63
  10  16   2    0.84    0.49
 -11 -16  -2    2.74    0.74
 -16  11  -2    2.48    0.58
  16 -11  -2    2.46    0.56
  16 -11  -2    3.22    0.80
  11  16  -2    3.26    0.53
  11  16   2    3.35    0.62
  16 -11   2    2.77    0.65
 -11 -16   2    3.51    0.77
  16 -11   2    4.46    0.77
 -12 -16  -2    0.85    0.69
  16 -12  -2    1.49    0.73
  12  16  -2    1.22    0.45
  16 -12  -2    1.16    0.55
 -16  12  -2    0.35    0.48
 -12 -16   2    1.75    0.71
  16 -12   2    1.80    0.61
  12  16   2    1.02    0.55
  16 -12   2    0.46    0.58
  16 -13  -2    0.63    0.51
  16 -13  -2   -0.13    0.67
  13  16  -2    0.05    0.42
 -13 -16  -2   -0.01    0.66
 -16  13  -2   -0.01    0.45
  16 -13   2    0.26    0.62
 -13 -16   2   -0.07    0.69
  13  16   2    0.57    0.50
 -16  14  -2    1.09    0.55
  14  16  -2    1.06    0.49
  16 -14  -2    0.67    0.55
  16 -14  -2    1.33    0.79
 -14 -16  -2    1.02    0.77
  16 -14   2    2.73    0.78
 -14 -16   2    1.76    0.82
  14  16   2    1.71    0.60
  16 -15  -2    0.88    0.76
 -15 -16  -2    1.15    0.82
  15  16  -2    0.03    0.45
 -16  15  -2    0.34    0.53
  16 -15  -2    0.09    0.58
  16 -15   2    1.56    0.73
 -15 -16   2    0.60    0.79
  15  16   2    0.25    0.55
  16 -16  -2    0.77    0.91
  16  16  -2    0.63    0.52
  16 -16  -2    0.54    0.76
 -16  16  -2   -0.58    0.50
 -16 -16  -2   -0.07    0.79
  16 -16   2   -0.10    0.68
  16  16   2    0.25    0.60
 -16 -16   2   -0.50    0.78
  15 -17  -2    0.28    0.82
  17  15  -2   -0.56    0.47
 -17 -15  -2    0.49    0.80
 -15  17  -2   -0.50    0.55
  15 -17  -2    1.19    0.67
  17  15   2    0.44    0.63
 -17 -15   2    1.44    0.84
  15 -17   2    0.37    0.76
 -14  17  -2    0.64    0.55
  14 -17  -2    0.07    0.75
  14 -17  -2    1.54    0.65
 -17 -14  -2    1.38    0.82
  17  14  -2    0.53    0.52
  14 -17   2    0.18    0.73
 -17 -14   2    0.95    0.81
  17  14   2    0.29    0.61
  13 -17  -2   -0.03    0.71
  17  13  -2   -0.55    0.44
  13 -17  -2    0.11    0.62
 -17 -13  -2    0.70    0.75
  17  13   2    0.36    0.60
 -17 -13   2   -0.76    0.73
  13 -17   2    1.01    0.71
  17  12  -2    0.55    0.49
  12 -17  -2    0.34    0.59
 -17 -12  -2   -0.24    0.72
  12 -17  -2   -0.22    0.69
 -17 -12   2   -0.38    0.70
  12 -17   2   -0.43    0.64
  17  12   2   -0.02    0.57
  11 -17  -2    1.05    0.61
  17  11  -2    0.22    0.44
 -17 -11  -2   -0.29    0.65
  11 -17  -2   -0.19    0.64
 -17 -11  -2    0.27    0.59
  11 -17   2    0.67    0.65
 -17 -11   2    0.49    0.71
  17  11   2    0.06    0.51
  10 -17  -2   16.99    1.23
 -17 -10  -2   18.88    1.40
  10 -17  -2   19.11    1.36
 -17 -10  -2   17.23    1.28
  17  10  -2   19.43    1.15
 -17 -10   2   17.66    1.32
  10 -17   2   17.43    1.37
  17  10   2   18.10    1.22
  17   9  -2    0.86    0.47
   9 -17  -2    0.23    0.63
   9 -17  -2    1.52    0.63
 -17  -9  -2    0.64    0.67
 -17  -9  -2    1.26    0.61
 -17  -9   2    0.95    0.66
   9 -17   2    0.79    0.68
  17   9   2    0.95    0.52
   8 -17  -2   19.93    1.30
 -17  -8  -2   17.34    1.31
 -17  -8  -2   18.26    1.27
   8 -17  -2   20.20    1.34
  17   8  -2   20.11    1.19
   8 -17   2   18.68    1.35
  17   8   2   18.49    1.20
  17   7  -2    1.16    0.45
   7 -17  -2    0.47    0.57
 -17  -7  -2    0.87    0.57
 -17  -7  -2    0.70    0.62
   7 -17  -2    1.06    0.63
   7 -17   2    1.64    0.62
  17   7   2    0.52    0.45
  17   7   2    0.86    0.49
   6 -17  -2    9.04    0.97
  17   6  -2    7.80    0.76
 -17  -6  -2    7.98    0.89
   6 -17  -2    7.48    0.84
   6 -17   2    9.16    0.95
  17   6   2    7.24    0.81
  17   6   2    7.80    0.81
 -17  -5  -2    0.95    0.56
   5 -17  -2    1.25    0.59
  17   5  -2    2.08    0.49
   5 -17  -2    0.63    0.58
   5 -17   2    0.85    0.59
  17   5   2    1.53    0.54
  17   5   2    1.48    0.49
 -17  -4  -2    4.29    0.67
   4 -17  -2    4.80    0.75
   4 -17  -2    5.15    0.62
  17   4  -2    4.11    0.61
   4 -17  -2    5.84    0.77
  17   4   2    4.32    0.63
 -17  -4   2    4.13    0.56
  17   4   2    4.19    0.65
   4 -17   2    4.19    0.77
   3 -17  -2    0.66    0.44
   3 -17  -2    0.18    0.57
 -17  -3  -2    0.01    0.45
  17   3  -2    0.67    0.42
   3 -17  -2    0.25    0.54
  17   3   2    0.13    0.41
 -17  -3   2    0.85    0.41
   3 -17   2    0.28    0.53
  17   3   2    0.29    0.41
  17   2  -2    0.20    0.37
   2 -17  -2    0.37    0.40
   2 -17  -2    0.25    0.53
 -17  -2  -2   -0.02    0.44
  17   2  -2   -0.08    0.29
   2 -17   2    0.11    0.52
 -17  -2   2    0.69    0.42
  17   2   2   -0.16    0.39
  17   2   2    0.40    0.42
 -17  -1  -2    2.00    0.54
   1 -17  -2    1.43    0.46
  17   1  -2    2.17    0.40
   1 -17  -2    2.06    0.61
  17   1  -2    2.10    0.49
 -17  -1   2    1.69    0.44
  17   1   2    1.74    0.48
   1 -17   2    2.51    0.66
  17   1   2    2.27    0.52
  17   0  -2    0.19    0.32
   0 -17  -2    0.49    0.42
   0 -17  -2   -0.40    0.49
  17   0  -2    0.29    0.42
 -17   0  -2    0.25    0.43
 -17   0   2    0.20    0.38
  17   0   2    0.08    0.43
   0 -17   2    0.62    0.56
  17   0   2   -0.32    0.37
  17  -1  -2   -0.32    0.39
  -1 -17  -2   -0.02    0.40
 -17   1  -2    0.30    0.42
  17  -1  -2    0.09    0.31
  -1 -17  -2    0.16    0.51
  17  -1   2    0.17    0.42
  17  -1   2   -0.11    0.43
 -17   1   2    0.17    0.37
  -1 -17   2   -0.36    0.53
  17  -2  -2    4.17    0.64
  -2 -17  -2    3.40    0.56
  17  -2  -2    5.33    0.56
 -17   2  -2    4.18    0.63
  -2 -17  -2    4.61    0.72
  17  -2   2    4.21    0.63
 -17   2   2    4.77    0.61
  17  -2   2    2.97    0.57
  -2 -17   2    2.44    0.66
  -3 -17  -2    0.64    0.55
  -3 -17  -2    0.53    0.44
  17  -3  -2    0.77    0.35
 -17   3  -2    0.67    0.43
  17  -3  -2    0.35    0.47
  17  -3   2    0.88    0.45
  17  -3   2    0.13    0.43
  -3 -17   2    0.91    0.56
  17  -4  -2   22.22    1.07
  -4 -17  -2   20.33    1.14
  17  -4  -2   20.23    1.25
  -4 -17  -2   22.55    1.33
 -17   4  -2   21.80    1.22
  -4 -17   2   22.57    1.34
  17  -4   2   22.49    1.22
  17  -4   2   21.89    1.23
  -5 -17  -2    0.42    0.58
 -17   5  -2    1.00    0.47
  -5 -17  -2    0.69    0.46
  17  -5  -2    0.62    0.51
  17  -5  -2    0.99    0.38
  -5 -17   2    1.24    0.60
  17  -5   2    0.25    0.46
  17  -5   2    1.16    0.49
  17  -6  -2   22.49    1.14
  -6 -17  -2   22.88    1.20
  -6 -17  -2   24.73    1.42
  17  -6  -2   24.69    1.43
 -17   6  -2   22.52    1.27
  -6 -17   2   23.74    1.41
  17  -6   2   21.68    1.27
  17  -6   2   23.69    1.32
  17  -7  -2   -0.26    0.52
  17  -7  -2    0.20    0.38
  -7 -17  -2    0.36    0.59
  -7 -17  -2    0.65    0.71
 -17   7  -2    0.36    0.43
  17  -7   2    0.12    0.49
  -7 -17   2    0.44    0.60
  17  -7   2    1.03    0.52
  -8 -17  -2   25.18    1.46
  17  -8  -2   22.42    1.17
 -17   8  -2   20.53    1.28
  17  -8  -2   23.32    1.40
  17  -8   2   22.05    1.33
  17  -8   2   21.82    1.33
  -8 -17   2   22.17    1.42
  -9 -17  -2    0.86    0.64
 -17   9  -2    0.42    0.46
  17  -9  -2    0.57    0.42
  17  -9  -2    0.34    0.62
  -9 -17   2    0.62    0.64
  17  -9   2    0.26    0.55
  17  -9   2    0.55    0.57
 -10 -17  -2    6.93    0.92
  17 -10  -2    8.50    1.00
 -17  10  -2    8.42    0.94
  17 -10  -2    7.40    0.76
  17 -10   2    7.24    0.85
  10  17   2    8.57    0.88
 -10 -17   2    7.53    0.97
  17 -10   2    7.07    0.87
  17 -11  -2    0.27    0.48
 -11 -17  -2    0.70    0.70
 -17  11  -2    0.25    0.50
  11  17  -2    1.37    0.74
  17 -11  -2    1.40    0.73
  17 -11   2    0.88    0.58
  11  17   2    1.29    0.53
  17 -11   2    1.37    0.62
 -11 -17   2    0.47    0.69
  17 -12  -2   -0.33    0.65
  12  17  -2    0.37    0.52
 -12 -17  -2    1.50    0.76
 -17  12  -2    0.32    0.53
  17 -12  -2    0.71    0.53
  17 -12   2    0.08    0.57
  12  17   2    0.19    0.50
  17 -12   2   -0.21    0.55
 -12 -17   2    0.76    0.75
 -17  13  -2    0.24    0.51
  13  17  -2    0.27    0.51
  17 -13  -2    0.87    0.73
  17 -13  -2    0.13    0.75
 -13 -17  -2    0.24    0.75
  17 -13   2    0.01    0.62
 -13 -17   2    0.60    0.74
  13  17   2   -0.09    0.51
  14  17  -2   -0.19    0.47
  17 -14  -2   -0.39    0.74
 -14 -17  -2   -0.71    0.73
 -17  14  -2   -0.39    0.50
  14  17   2    0.87    0.54
 -14 -17   2   -0.55    0.73
  17 -14   2   -0.51    0.59
  15  17  -2   -0.01    0.50
 -15 -17  -2    1.04    0.82
 -17  15  -2   -0.34    0.53
  17 -15  -2    0.72    0.81
  17 -15   2   -0.09    0.69
  15  17   2   -0.17    0.60
 -15 -17   2   -0.03    0.79
  18  13  -2    4.51    0.73
 -18 -13  -2    7.09    1.07
  13 -18  -2    7.38    1.05
  13 -18  -2    7.86    0.94
 -18 -13   2    8.27    1.12
  18  13   2    7.43    0.94
  13 -18   2    7.79    1.03
 -18 -12  -2    1.00    0.81
  12 -18  -2    1.02    0.78
  12 -18  -2    1.87    0.71
  18  12  -2    0.66    0.50
  12 -18   2    1.31    0.75
 -18 -12   2    1.03    0.82
  18  12   2    1.49    0.66
  11 -18  -2    3.22    0.75
  18  11  -2    3.07    0.64
 -18 -11  -2    2.21    0.83
  11 -18  -2    3.05    0.81
  18  11   2    3.02    0.69
 -18 -11   2    2.38    0.84
  11 -18   2    2.61    0.80
 -18 -10  -2    1.52    0.76
 -18 -10  -2    1.06    0.69
  18  10  -2    1.10    0.52
  10 -18  -2    1.03    0.70
  10 -18  -2    1.51    0.65
  10 -18   2    2.13    0.78
  18  10   2    0.63    0.59
 -18 -10   2    0.57    0.72
   9 -18  -2    1.80    0.68
   9 -18  -2    0.92    0.70
  18   9  -2    0.79    0.52
 -18  -9  -2    0.37    0.71
 -18  -9  -2    1.74    0.65
 -18  -9   2    0.54    0.71
   9 -18   2    1.02    0.72
  18   9   2    0.97    0.55
   8 -18  -2    0.66    0.67
 -18  -8  -2   -0.79    0.53
   8 -18  -2    0.98    0.64
 -18  -8  -2    0.33    0.71
  18   8  -2   -0.18    0.44
  18   8   2    0.48    0.52
   8 -18   2   -0.15    0.64
 -18  -7  -2    1.60    0.64
   7 -18  -2    2.13    0.74
 -18  -7  -2    1.97    0.72
   7 -18  -2    2.52    0.69
  18   7  -2    2.46    0.57
  18   7   2    2.20    0.56
  18   7   2    1.88    0.59
   7 -18   2    2.37    0.73
   6 -18  -2    0.54    0.61
 -18  -6  -2    0.63    0.54
  18   6  -2    0.64    0.46
   6 -18  -2    0.81    0.63
   6 -18   2    2.14    0.70
  18   6   2    0.62    0.48
  18   6   2   -0.11    0.48
   5 -18  -2   14.58    1.16
  18   5  -2   15.59    1.07
   5 -18  -2   14.21    1.16
 -18  -5  -2   16.86    1.21
   5 -18   2   12.11    1.11
  18   5   2   12.87    1.02
  18   5   2   15.05    1.10
 -18  -4  -2    1.14    0.60
   4 -18  -2    1.40    0.49
  18   4  -2    1.17    0.49
   4 -18  -2    2.30    0.66
   4 -18  -2    0.98    0.62
 -18  -4   2    1.46    0.55
  18   4   2    1.49    0.57
   4 -18   2    1.51    0.67
  18   4   2    1.71    0.53
   3 -18  -2   43.64    1.99
   3 -18  -2   41.96    1.82
  18   3  -2   45.94    1.94
   3 -18  -2   42.76    2.00
 -18  -3  -2   44.41    1.96
   3 -18   2   44.43    2.04
  18   3   2   43.30    1.89
  18   3   2   45.14    1.94
 -18  -3   2   44.73    1.82
   2 -18  -2    0.34    0.43
   2 -18  -2    1.65    0.64
  18   2  -2    0.57    0.46
 -18  -2  -2    0.70    0.50
   2 -18   2    0.34    0.62
  18   2   2    0.75    0.50
  18   2   2    0.16    0.44
 -18  -2   2    0.46    0.41
   1 -18  -2   33.24    1.64
   1 -18  -2   33.17    1.47
  18   1  -2   33.28    1.57
 -18  -1  -2   31.70    1.57
 -18  -1   2   32.71    1.47
   1 -18   2   31.00    1.67
  18   1   2   29.37    1.50
  18   1   2   29.45    1.51
  18   0  -2    9.18    0.89
 -18   0  -2    9.22    0.89
   0 -18  -2    8.97    0.93
   0 -18  -2    8.14    0.75
  18   0   2    7.68    0.81
 -18   0   2    7.31    0.75
  18   0   2    8.81    0.87
   0 -18   2    8.55    0.95
  18  -1  -2   13.84    1.06
  -1 -18  -2   15.50    0.96
 -18   1  -2   15.40    1.12
  -1 -18  -2   14.45    1.16
  18  -1   2   13.22    1.02
  -1 -18   2   13.31    1.13
 -18   1   2   14.64    0.98
  18  -1   2   13.30    1.02
  -2 -18  -2    0.35    0.43
  -2 -18  -2    0.77    0.63
  18  -2  -2    1.31    0.56
 -18   2  -2    0.81    0.51
  18  -2   2    0.46    0.49
 -18   2   2    0.67    0.43
  -2 -18   2    0.72    0.62
  18  -2   2    0.47    0.46
 -18   3  -2   13.47    1.00
  -3 -18  -2   13.47    1.13
  18  -3  -2   12.41    1.02
  18  -3  -2   13.60    1.29
  -3 -18  -2   12.78    0.92
 -18   3   2   11.95    0.91
  18  -3   2   12.75    1.02
  18  -3   2   12.76    1.02
  -3 -18   2   14.93    1.18
  18  -4  -2    0.70    0.58
  18  -4  -2   -0.24    0.44
  -4 -18  -2   -0.57    0.56
  -4 -18  -2    0.73    0.45
 -18   4  -2    0.21    0.46
  18  -4   2    0.65    0.50
  -4 -18   2    0.47    0.61
  18  -4   2    0.11    0.48
  -5 -18  -2    1.35    0.60
  -5 -18  -2    1.75    0.68
  18  -5  -2    1.28    0.55
 -18   5  -2    1.46    0.54
  18  -5  -2    1.88    0.64
  18  -5   2    2.19    0.59
  -5 -18   2    1.69    0.67
  18  -5   2    1.59    0.54
  -6 -18  -2    0.32    0.64
 -18   6  -2    0.69    0.50
  18  -6  -2    0.49    0.65
  18  -6  -2    0.69    0.56
  -6 -18   2   -0.56    0.59
  18  -6   2    0.83    0.55
  18  -6   2    0.87    0.54
  -7 -18  -2   -0.22    0.63
 -18   7  -2    0.50    0.49
  18  -7  -2    0.15    0.61
  -7 -18   2   -0.05    0.64
  18  -7   2    0.29    0.54
  18  -7   2    0.23    0.55
  -8 -18  -2    0.08    0.66
 -18   8  -2    0.95    0.53
  18  -8  -2    0.51    0.60
  18  -8   2    0.45    0.58
  18  -8   2    0.54    0.57
  -8 -18   2    0.67    0.68
 -18   9  -2    7.72    0.90
  -9 -18  -2    5.79    0.92
  18  -9  -2    8.05    1.03
  18  -9   2    7.02    0.87
  -9 -18   2    7.69    0.99
  18  -9   2    7.31    0.88
  18 -10  -2    0.28    0.66
 -10 -18  -2    0.27    0.71
 -18  10  -2    0.09    0.51
 -10 -18   2    0.86    0.73
  10  18   2    0.02    0.48
  18 -10   2    0.10    0.61
  18 -10   2   -0.17    0.56
 -11 -18  -2    4.62    0.88
  18 -11  -2    2.36    0.81
 -18  11  -2    2.81    0.68
  11  18   2    3.61    0.67
  18 -11   2    2.29    0.69
  18 -11   2    1.90    0.67
 -11 -18   2    3.74    0.85
 -12 -18  -2    4.48    0.89
 -18  12  -2    3.86    0.74
  18 -12  -2    4.49    0.93
 -12 -18   2    4.34    0.93
  18 -12   2    4.32    0.84
  18 -12   2    3.52    0.77
  12  18   2    3.53    0.73
  18 -13  -2    2.32    0.86
 -13 -18  -2    1.19    0.82
 -18  13  -2    1.59    0.66
  18 -13   2    2.55    0.73
  13  18   2    2.04    0.65
 -13 -18   2    1.57    0.83
 -19 -12  -2    1.21    0.84
  12 -19  -2    0.00    0.66
  19  12  -2    0.51    0.53
  12 -19  -2    0.26    0.78
 -19 -12   2    0.17    0.84
  19  12   2    0.79    0.66
  12 -19   2   -0.31    0.73
  11 -19  -2    0.88    0.75
 -19 -11  -2    0.46    0.81
  19  11  -2    0.34    0.50
  11 -19  -2    1.25    0.72
  19  11   2    0.08    0.58
 -19 -11   2    0.15    0.79
  11 -19   2    0.68    0.76
 -19 -10  -2    9.09    1.12
  10 -19  -2    6.68    0.99
 -19 -10  -2    6.63    1.05
  19  10  -2    6.61    0.81
  10 -19  -2    6.51    0.91
  19  10   2    8.01    0.93
 -19 -10   2    7.88    1.07
  10 -19   2    5.37    0.96
 -19  -9  -2    0.60    0.63
   9 -19  -2   -0.51    0.61
   9 -19  -2    0.94    0.70
  19   9  -2    0.33    0.50
 -19  -9  -2    0.48    0.74
  19   9   2    0.40    0.56
   9 -19   2   -0.14    0.70
 -19  -9   2   -0.69    0.70
 -19  -8  -2    5.22    0.86
   8 -19  -2    7.24    0.98
  19   8  -2    5.49    0.74
 -19  -8  -2    6.78    1.00
   8 -19  -2    4.86    0.85
  19   8   2    6.57    0.86
   8 -19   2    5.63    0.93
  19   7  -2    0.89    0.52
 -19  -7  -2    0.05    0.72
   7 -19  -2   -0.43    0.65
 -19  -7  -2    1.04    0.62
   7 -19  -2    0.11    0.62
  19   7   2    0.01    0.47
  19   7   2    0.63    0.58
   7 -19   2    0.31    0.66
 -19  -6  -2   11.37    1.05
   6 -19  -2    9.48    1.06
   6 -19  -2   11.02    1.03
  19   6  -2   11.68    1.03
  19   6   2   11.63    1.04
  19   6   2    9.94    0.96
   6 -19   2   11.60    1.15
   5 -19  -2    1.29    0.71
  19   5  -2    0.50    0.50
 -19  -5  -2    1.11    0.59
   5 -19  -2    0.97    0.66
  19   5   2    0.57    0.50
  19   5   2    1.45    0.58
   5 -19   2    0.44    0.64
   4 -19  -2    7.79    0.92
   4 -19  -2    7.23    0.92
  19   4  -2    5.54    0.76
 -19  -4  -2    5.55    0.83
  19   4   2    6.80    0.83
  19   4   2    7.60    0.84
   4 -19   2    5.78    0.91
  19   3  -2    0.28    0.46
 -19  -3  -2    0.70    0.58
   3 -19  -2    0.96    0.65
   3 -19  -2   -0.21    0.46
 -19  -3   2    0.11    0.44
  19   3   2    1.00    0.54
   3 -19   2   -0.66    0.61
  19   3   2    0.41    0.47
  19   2  -2    1.09    0.52
 -19  -2  -2    1.02    0.56
   2 -19  -2    0.94    0.46
   2 -19  -2   -0.17    0.60
  19   2   2    0.36    0.54
   2 -19   2    0.44    0.68
 -19  -2   2    0.65    0.48
  19   2   2    0.50    0.49
  19   1  -2    1.15    0.54
 -19  -1  -2    1.08    0.56
   1 -19  -2    1.19    0.49
   1 -19  -2    2.15    0.71
 -19  -1   2    1.56    0.50
  19   1   2    1.82    0.58
   1 -19   2    0.31    0.67
  19   1   2    1.92    0.55
   0 -19  -2    1.50    0.51
  19   0  -2    0.41    0.49
 -19   0  -2    0.80    0.56
   0 -19  -2    1.35    0.67
   0 -19   2    0.30    0.68
  19   0   2    1.04    0.50
 -19   0   2    1.36    0.52
  19   0   2    1.11    0.57
  -1 -19  -2   -0.20    0.44
  -1 -19  -2    1.10    0.65
  19  -1  -2   -0.02    0.52
 -19   1  -2    0.26    0.50
  19  -1   2    0.65    0.48
  -1 -19   2    0.61    0.67
 -19   1   2    0.50    0.46
  19  -1   2    0.34    0.50
  -2 -19  -2    6.93    0.93
 -19   2  -2    8.15    0.91
  -2 -19  -2    6.89    0.73
  19  -2  -2    7.87    0.94
  19  -2   2    6.10    0.81
  19  -2   2    8.88    0.91
  -2 -19   2    7.53    0.97
 -19   2   2    7.91    0.81
 -19   3  -2    0.05    0.49
  -3 -19  -2    0.29    0.51
  -3 -19  -2   -0.06    0.63
  19  -3  -2    0.00    0.57
  19  -3   2    0.35    0.53
  -3 -19   2    0.18    0.65
 -19   3   2    0.27    0.46
  19  -3   2    0.88    0.53
 -19   4  -2    5.42    0.76
  19  -4  -2    7.50    0.91
  -4 -19  -2    5.66    0.90
  -4 -19   2    5.51    0.89
  19  -4   2    4.60    0.74
  19  -4   2    6.06    0.80
 -19   4   2    6.61    0.78
 -19   5  -2    1.74    0.59
  -5 -19  -2    1.73    0.71
  19  -5  -2    1.97    0.67
  19  -5   2    1.47    0.62
  -5 -19   2    2.26    0.77
 -19   5   2    2.57    0.61
  19  -5   2    1.48    0.60
  19  -6  -2   10.96    1.05
  -6 -19  -2   10.23    1.06
 -19   6  -2   12.27    1.09
  19  -6   2   10.10    0.97
  19  -6   2   11.28    1.06
  -6 -19   2    9.50    1.06
 -19   7  -2    0.29    0.53
  -7 -19  -2    0.38    0.71
  19  -7  -2   -0.60    0.64
  -7 -19   2    0.12    0.70
  19  -7   2    0.35    0.61
  19  -7   2    0.28    0.53
 -19   8  -2    3.79    0.73
  19  -8  -2    4.52    0.87
  -8 -19  -2    4.73    0.89
  19  -8   2    5.25    0.80
  -8 -19   2    5.97    0.94
  19  -8   2    4.83    0.82
  -9 -19  -2   -0.48    0.70
 -19   9  -2    0.30    0.49
  19  -9  -2    0.61    0.73
  19  -9   2    0.08    0.60
  19  -9   2   -0.33    0.54
  -9 -19   2    0.31    0.73
 -10 -19  -2    7.50    1.05
 -19  10  -2    6.48    0.86
  19 -10  -2    8.12    1.01
  10  19   2    7.30    0.89
  19 -10   2    5.91    0.90
  19 -10   2    5.74    0.86
 -10 -19   2    7.22    1.02
  19 -11  -2    0.66    0.80
 -11 -19  -2    0.84    0.78
 -19  11  -2    0.33    0.52
  19 -11   2    0.24    0.61
  11  19   2    0.69    0.54
 -11 -19   2    0.18    0.76
  19 -11   2    0.68    0.65
  19 -12  -2    0.50    0.79
 -12 -19  -2    0.52    0.77
 -19  12  -2   -0.01    0.57
 -12 -19   2    0.05    0.79
  19 -12   2   -1.10    1.00
  19 -12   2    0.60    0.67
  12  19   2   -0.79    0.53
  10 -20  -2   -0.02    0.69
  20  10  -2   -0.49    0.48
  10 -20  -2    0.54    0.79
 -20 -10  -2   -0.47    0.79
  10 -20   2    0.77    0.80
 -20 -10   2   -0.13    0.82
  20  10   2   -0.10    0.62
   9 -20  -2    0.69    0.72
  20   9  -2    0.80    0.52
 -20  -9  -2   -0.43    0.78
 -20  -9  -2    0.23    0.68
   9 -20  -2    0.17    0.75
  20   9   2   -0.44    0.58
   9 -20   2    0.49    0.75
 -20  -9   2   -0.44    0.77
 -20  -8  -2    0.63    0.67
 -20  -8  -2    0.55    0.79
   8 -20  -2    0.68    0.73
   8 -20  -2    0.12    0.67
  20   8  -2    0.34    0.50
  20   8   2   -0.35    0.61
   8 -20   2    0.38    0.75
 -20  -7  -2    1.65    0.82
   7 -20  -2    1.84    0.75
 -20  -7  -2    1.79    0.69
   7 -20  -2    1.16    0.75
  20   7  -2    1.62    0.62
   7 -20   2    1.04    0.76
  20   7   2    0.87    0.64
  20   7   2    0.98    0.53
   6 -20  -2    0.02    0.66
   6 -20  -2   -1.08    0.69
  20   6  -2    0.69    0.56
 -20  -6  -2   -0.06    0.58
  20   6   2    0.80    0.55
  20   6   2    0.93    0.62
   6 -20   2    1.44    0.77
   5 -20  -2   15.13    1.24
 -20  -5  -2   13.50    1.21
   5 -20  -2   12.39    1.20
  20   5  -2   15.37    1.15
   5 -20   2   12.59    1.23
  20   5   2   13.09    1.11
  20   5   2   17.41    1.23
 -20  -4  -2    0.67    0.62
   4 -20  -2    1.41    0.70
  20   4  -2    1.31    0.55
  20   4   2    0.16    0.54
  20   4   2   -0.06    0.50
   4 -20   2    0.46    0.72
   3 -20  -2   22.88    1.28
 -20  -3  -2   26.07    1.52
  20   3  -2   23.23    1.40
   3 -20  -2   24.44    1.54
  20   3   2   24.42    1.48
  20   3   2   20.45    1.32
   3 -20   2   22.20    1.56
   2 -20  -2    1.51    0.72
 -20  -2  -2    0.70    0.62
  20   2  -2    1.49    0.59
   2 -20  -2    1.34    0.55
  20   2   2    0.23    0.56
 -20  -2   2    0.78    0.52
  20   2   2    0.00    0.49
   2 -20   2    0.86    0.73
 -20  -1  -2   25.07    1.49
   1 -20  -2   25.34    1.56
   1 -20  -2   23.60    1.29
  20   1  -2   25.09    1.43
   1 -20   2   23.36    1.58
  20   1   2   24.92    1.47
 -20  -1   2   22.82    1.32
  20   1   2   22.45    1.36
  20   0  -2    1.89    0.64
   0 -20  -2    1.19    0.73
 -20   0  -2    0.37    0.56
   0 -20  -2    0.65    0.50
 -20   0   2    0.85    0.51
  20   0   2    0.18    0.50
  20   0   2    0.07    0.55
   0 -20   2    0.25    0.71
  20  -1  -2   23.10    1.43
  -1 -20  -2   23.42    1.29
  -1 -20  -2   22.18    1.52
 -20   1  -2   23.51    1.42
  -1 -20   2   25.32    1.60
  20  -1   2   22.58    1.35
  20  -1   2   24.71    1.46
 -20   1   2   24.43    1.34
  20  -2  -2   -0.06    0.62
 -20   2  -2    0.40    0.53
  -2 -20  -2    0.18    0.72
  -2 -20   2    0.69    0.74
  20  -2   2    0.43    0.56
  20  -2   2    1.27    0.59
 -20   2   2    0.67    0.49
 -20   3  -2    5.16    0.82
  20  -3  -2    3.87    0.80
  -3 -20  -2    5.03    0.92
 -20   3   2    3.69    0.65
  20  -3   2    3.90    0.76
  -3 -20   2    4.20    0.87
  20  -3   2    5.23    0.80
 -20   4  -2    0.39    0.52
  -4 -20  -2    0.48    0.73
  20  -4  -2    1.90    0.72
  -4 -20   2    0.45    0.71
  20  -4   2    1.34    0.61
  20  -4   2   -0.01    0.53
 -20   4   2    0.45    0.52
 -20   5  -2    1.57    0.62
  -5 -20  -2    0.85    0.74
  20  -5  -2    2.19    0.77
  20  -5   2    2.35    0.65
 -20   5   2    1.95    0.60
  -5 -20   2    1.39    0.76
  20  -5   2    1.14    0.59
  20  -6  -2    1.81    0.76
 -20   6  -2    1.90    0.63
  -6 -20  -2    3.20    0.83
  20  -6   2    2.83    0.68
 -20   6   2    2.36    0.65
  20  -6   2    2.51    0.70
  -6 -20   2    0.77    0.78
  -7 -20  -2    0.35    0.75
 -20   7  -2    1.13    0.62
  20  -7  -2    0.45    0.75
  20  -7   2    1.61    0.71
  -7 -20   2    0.08    0.75
  20  -7   2    1.75    0.66
  20  -8  -2    0.06    0.72
 -20   8  -2   -0.12    0.54
  -8 -20  -2    0.36    0.75
  20  -8   2    0.49    0.67
  -8 -20   2    0.42    0.78
  20  -8   2    1.04    0.61
 -20   9  -2    2.47    0.69
  20  -9  -2    2.63    0.88
  -9 -20  -2    2.69    0.86
  20  -9   2    1.73    0.69
  20  -9   2    2.90    0.78
  -9 -20   2    2.59    0.87
 -20  10  -2    0.53    0.57
 -10 -20  -2   -1.01    0.71
  20 -10  -2   -0.84    0.73
 -10 -20   2   -0.19    0.76
  20 -10   2    0.23    0.62
  10  20   2    0.54    0.52
  20 -10   2    0.32    0.70
 -21  -8  -2    2.72    0.80
  21   8  -2    2.14    0.68
 -21  -8  -2    3.22    0.96
   8 -21  -2    3.60    0.94
   8 -21  -2    3.70    0.91
  21   8   2    3.08    0.77
   8 -21   2    1.83    0.85
   7 -21  -2   -0.91    0.71
 -21  -7  -2    0.62    0.71
   7 -21  -2    0.79    0.75
 -21  -7  -2   -0.51    0.78
  21   7  -2   -0.69    0.53
  21   7   2   -0.37    0.57
   7 -21   2    0.57    0.78
   6 -21  -2    0.45    0.77
  21   6  -2    0.96    0.55
   6 -21  -2   -0.55    0.69
 -21  -6  -2    0.06    0.66
   6 -21   2    0.19    0.76
  21   6   2    0.64    0.57
  21   6   2   -0.10    0.64
  21   5  -2   -0.41    0.52
 -21  -5  -2    0.19    0.61
   5 -21  -2    1.35    0.78
   5 -21  -2    0.57    0.73
  21   5   2   -0.55    0.50
  21   5   2    0.23    0.62
   5 -21   2    0.30    0.75
   4 -21  -2    1.14    0.76
 -21  -4  -2    0.65    0.68
  21   4  -2    0.90    0.54
  21   4   2    0.22    0.55
   4 -21   2    0.72    0.77
  21   4   2   -0.11    0.60
   3 -21  -2   -0.03    0.70
 -21  -3  -2   -0.34    0.60
  21   3  -2    0.47    0.56
   3 -21   2   -0.93    0.71
  21   3   2   -0.05    0.58
  21   3   2    0.15    0.49
   2 -21  -2    0.19    0.54
   2 -21  -2   -0.20    0.70
 -21  -2  -2    0.05    0.64
  21   2  -2   -0.01    0.56
  21   2   2    0.96    0.60
   2 -21   2   -0.20    0.70
 -21  -2   2    0.08    0.52
  21   2   2    0.32    0.53
   1 -21  -2   -0.24    0.51
   1 -21  -2    0.97    0.76
 -21  -1  -2   -0.25    0.57
  21   1  -2    0.47    0.58
 -21  -1   2    0.39    0.53
   1 -21   2   -0.13    0.71
  21   1   2    0.89    0.64
  21   1   2   -0.47    0.47
 -21   0  -2   -0.79    0.56
  21   0  -2    0.05    0.55
   0 -21  -2   -0.40    0.71
  21   0   2    0.22    0.54
  21   0   2    0.54    0.62
 -21   0   2   -0.21    0.51
   0 -21   2   -1.07    0.67
  21  -1  -2    0.07    0.63
  -1 -21  -2    0.65    0.75
 -21   1  -2    0.11    0.61
 -21   1   2    0.36    0.50
  -1 -21   2   -0.49    0.72
  21  -1   2    0.15    0.52
  21  -1   2    0.47    0.58
  -2 -21  -2   -0.64    0.73
  21  -2  -2    0.00    0.63
 -21   2  -2    0.26    0.58
 -21   2   2    0.90    0.57
  21  -2   2    0.19    0.62
  21  -2   2   -0.07    0.51
  -2 -21   2   -0.18    0.75
  21  -3  -2    0.63    0.69
 -21   3  -2    1.60    0.66
  -3 -21  -2    1.33    0.76
  21  -3   2    1.27    0.58
  -3 -21   2    1.41    0.80
  21  -3   2    1.49    0.68
 -21   3   2    0.42    0.55
 -21   4  -2    3.52    0.77
  -4 -21  -2    4.42    0.93
  21  -4  -2    5.74    0.94
  21  -4   2    3.99    0.81
 -21   4   2    4.15    0.73
  21  -4   2    5.77    0.82
  -4 -21   2    4.02    0.95
  21  -5  -2    1.24    0.72
 -21   5  -2    1.10    0.64
  -5 -21  -2    0.20    0.77
  21  -5   2    1.62    0.70
  -5 -21   2    1.22    0.79
 -21   5   2    1.51    0.60
  21  -5   2    1.39    0.62
  21  -6  -2    3.89    0.87
  -6 -21  -2    4.33    0.92
 -21   6  -2    2.52    0.73
 -21   6   2    2.89    0.68
  -6 -21   2    3.14    0.88
  21  -6   2    3.08    0.82
  21  -6   2    2.08    0.68
  -7 -21  -2    0.70    0.80
 -21   7  -2    0.21    0.58
  21  -7  -2   -0.86    0.75
  21  -7   2    0.29    0.70
 -21   7   2    0.16    0.54
  -7 -21   2   -0.86    0.75
  21  -7   2    0.12    0.60
 -21   8  -2    1.14    0.68
  -8 -21  -2    1.45    0.86
  21  -8  -2    1.54    0.82
  -8 -21   2    1.42    0.88
  21  -8   2    1.49    0.65
 -21   8   2    1.39    0.67
  21  -8   2    1.67    0.78
 -22  -6  -2    0.83    0.70
   5 -22  -2   13.49    1.29
  22   5  -2   16.25    1.29
 -22  -5  -2   13.70    1.29
  22   5   2   16.67    1.21
   5 -22   2   12.40    1.31
  22   5   2   13.48    1.27
  22   4  -2   -0.09    0.60
 -22  -4  -2    1.08    0.75
   4 -22  -2    0.47    0.79
  22   4   2    0.88    0.70
  22   4   2    0.27    0.53
   4 -22   2   -0.51    0.75
  22   3  -2   10.45    1.07
 -22  -3  -2    8.87    1.08
   3 -22  -2    9.35    1.13
   3 -22   2    8.81    1.16
  22   3   2   13.05    1.16
  22   3   2    9.13    1.05
 -22  -2  -2    0.57    0.69
   2 -22  -2    0.84    0.81
  22   2  -2    0.77    0.64
  22   2   2    1.26    0.71
   2 -22   2    1.49    0.82
  22   2   2    1.44    0.61
 -22  -1  -2   26.20    1.67
  22   1  -2   25.03    1.59
   1 -22  -2   26.69    1.69
  22   1   2   22.18    1.42
 -22  -1   2   24.79    1.47
  22   1   2   23.06    1.60
 -22   0  -2    1.09    0.65
  22   0  -2    0.74    0.69
   0 -22  -2    1.66    0.86
 -22   0   2    0.65    0.59
   0 -22   2    1.05    0.83
  22   0   2    1.41    0.60
  22   0   2    1.71    0.68
  22  -1  -2   12.07    1.22
  -1 -22  -2   13.45    1.29
 -22   1  -2   13.00    1.22
  22  -1   2   13.33    1.14
  22  -1   2   13.83    1.21
  -1 -22   2   10.64    1.22
 -22   1   2   11.20    1.09
  22  -2  -2    3.29    0.83
  -2 -22  -2    2.18    0.88
 -22   2  -2    0.77    0.68
  -2 -22   2    1.62    0.88
 -22   2   2    2.46    0.68
  22  -2   2    1.40    0.60
  22  -2   2    2.72    0.76
  -3 -22  -2    7.35    1.10
 -22   3  -2    6.03    0.96
  22  -3  -2   10.36    1.17
  -3 -22   2    7.51    1.12
  22  -3   2    8.84    1.05
  22  -3   2    6.40    0.87
 -22   3   2    7.57    0.92
  22  -4  -2    1.02    0.75
  -4 -22  -2   -0.56    0.80
 -22   4  -2    0.08    0.62
  22  -4   2    0.29    0.58
  22  -4   2    0.72    0.67
  -4 -22   2    0.65    0.85
 -22   4   2    0.23    0.58
 -22   5  -2    2.20    0.71
  22  -5  -2    1.89    0.80
  -5 -22  -2    0.84    0.83
  -5 -22   2    1.71    0.90
  22  -5   2    2.08    0.71
  22  -5   2    3.26    0.85
 -22   5   2    1.63    0.66
   0   0  -3    0.15    0.15
   0   0  -3    0.05    0.11
   0   0   3   -0.22    0.14
   1   0  -3    0.56    0.17
   0  -1  -3    0.91    0.20
   0  -1  -3    0.92    0.17
   0   1  -3    0.68    0.12
   1   0  -3    0.63    0.14
   0   1  -3    0.99    0.18
  -1   0  -3    0.52    0.17
   0   1   3    0.62    0.17
   1   0   3    0.54    0.11
   1   0   3    0.55    0.18
   1  -1  -3  160.26    5.00
   1   1  -3  156.58    4.96
  -1  -1  -3  163.15    5.06
  -1   1  -3  162.30    5.03
   1   1  -3  162.07    5.00
   1  -1  -3  160.72    5.03
  -1   1   3  160.01    5.03
   1   1   3  156.71    5.04
   1  -1   3  158.59    4.94
   1   1   3  161.84    4.95
   1  -2  -3    2.82    0.29
   1  -2  -3    2.22    0.25
  -2  -1  -3    3.40    0.31
   2   1  -3    3.04    0.22
  -2  -1  -3    2.77    0.20
   2   1  -3    2.86    0.23
  -1   2  -3    3.37    0.27
   1  -2   3    2.81    0.21
  -1   2   3    2.17    0.24
   2   1   3    2.26    0.25
   2   1   3    2.71    0.23
  -1   2   3    2.86    0.21
   2   0  -3   10.55    0.47
   2   0  -3   10.76    0.46
   0  -2  -3   10.24    0.49
   0   2  -3   10.84    0.38
   0   2  -3   10.72    0.46
  -2   0  -3    9.58    0.50
   0  -2  -3   10.22    0.52
  -2   0  -3    9.84    0.39
   0   2   3   10.51    0.49
   0   2   3   10.53    0.40
   2   0   3   10.02    0.43
   2   0   3   10.35    0.52
   0  -2   3   10.64    0.42
   2  -1  -3    9.58    0.45
  -2   1  -3   10.10    0.48
   1   2  -3    9.36    0.37
   2  -1  -3    9.29    0.45
  -1  -2  -3    9.17    0.36
   1   2  -3    9.14    0.42
  -1  -2  -3    9.99    0.51
  -2   1  -3    9.53    0.37
   2  -1   3    9.95    0.41
  -2   1   3   10.12    0.46
   1   2   3    9.51    0.40
   1   2   3    8.90    0.47
   2  -2  -3    4.86    0.34
  -2   2  -3    4.98    0.34
   2   2  -3    5.69    0.28
   2   2  -3    6.22    0.29
  -2  -2  -3    5.12    0.39
   2  -2  -3    5.10    0.35
  -2  -2  -3    5.18    0.28
   2   2   3    5.90    0.31
   2  -2   3    5.37    0.31
  -2   2   3    5.35    0.34
   2  -2   3    4.97    0.24
   2   2   3    5.57    0.36
   3   2  -3   30.85    1.08
   3   2  -3   32.04    1.06
  -3  -2  -3   31.30    1.10
  -3  -2  -3   31.45    1.19
  -2   3  -3   32.14    1.12
   2  -3  -3   33.14    1.17
   2  -3  -3   31.81    1.16
   2  -3   3   32.22    1.11
   2  -3   3   32.36    1.01
   3   2   3   31.69    1.12
  -2   3   3   31.83    1.12
   3   2   3   31.43    1.16
   3   1  -3   71.01    2.30
   3   1  -3   72.33    2.29
  -3  -1  -3   70.89    2.29
   1  -3  -3   73.19    2.38
  -3  -1  -3   71.43    2.39
  -1   3  -3   70.26    2.31
   1  -3  -3   71.25    2.36
   1  -3   3   69.91    2.28
   3   1   3   73.75    2.32
   3   1   3   71.17    2.36
  -1   3   3   73.46    2.34
   0  -3  -3   21.41    0.73
   3   0  -3   23.24    0.80
   0  -3  -3   20.91    0.87
   3   0  -3   22.02    0.81
   0   3  -3   21.55    0.78
   0  -3  -3   19.69    0.84
  -3   0  -3   22.20    0.78
   0   3   3   21.43    0.76
   0   3   3   21.44    0.83
   3   0   3   23.13    0.87
   0  -3   3   21.48    0.75
   3   0   3   22.34    0.81
  -1  -3  -3  138.02    4.34
   3  -1  -3  139.46    4.41
  -1  -3  -3  142.01    4.47
   1   3  -3  141.51    4.35
   1   3  -3  139.68    4.30
  -3   1  -3  138.03    4.44
   3  -1  -3  138.80    4.40
   1   3   3  142.86    4.37
   3  -1   3  138.82    4.45
   3  -1   3  140.30    4.39
  -3   1   3  140.71    4.40
   3  -1   3  139.78    4.35
  -1  -3   3  139.40    4.32
   1   3   3  140.12    4.43
   2   3  -3    6.67    0.30
  -3   2  -3    6.75    0.40
  -2  -3  -3    6.05    0.34
  -2  -3  -3    6.67    0.45
   3  -2  -3    7.62    0.43
   3  -2  -3    7.22    0.39
   2   3  -3    6.51    0.31
  -3   2   3    6.75    0.38
   2   3   3    6.30    0.40
   3  -2   3    7.47    0.31
   3  -2   3    6.95    0.38
   2   3   3    6.95    0.36
   3  -3  -3  114.11    3.61
   3  -3  -3  110.07    3.61
  -3  -3  -3  108.53    3.65
  -3  -3  -3  110.37    3.56
  -3   3  -3  113.11    3.59
   3   3  -3  112.68    3.49
   3   3  -3  112.52    3.52
  -3   3   3  112.48    3.56
   3   3   3  114.83    3.58
   3   3   3  112.36    3.61
   3  -3   3  113.66    3.58
   3  -3   3  114.11    3.48
  -3   4  -3    7.22    0.41
   3  -4  -3    7.94    0.49
   4   3  -3    7.52    0.38
   3  -4  -3    7.44    0.47
   4   3  -3    8.10    0.32
   3  -4  -3    7.76    0.32
  -4  -3  -3    7.92    0.51
  -4  -3  -3    7.62    0.42
   3  -4   3    8.22    0.44
   4   3   3    8.07    0.44
   4   3   3    7.74    0.46
  -3   4   3    7.40    0.41
   3  -4   3    8.28    0.32
  -2   4  -3    4.38    0.31
  -4  -2  -3    5.42    0.43
   4   2  -3    5.15    0.31
   2  -4  -3    4.71    0.38
   2  -4  -3    4.37    0.24
   2  -4  -3    4.58    0.37
   4   2  -3    4.70    0.26
  -4  -2  -3    5.03    0.33
   4   2   3    4.95    0.36
  -2   4   3    4.06    0.32
   4   2   3    4.68    0.34
   2  -4   3    4.26    0.33
  -4  -1  -3    1.96    0.22
  -4  -1  -3    1.88    0.28
   4   1  -3    1.60    0.19
   4   1  -3    1.83    0.22
   1  -4  -3    1.91    0.17
   1  -4  -3    1.64    0.26
  -1   4  -3    2.26    0.21
   1  -4  -3    1.94    0.27
   4   1   3    1.71    0.23
   4   1   3    1.83    0.25
  -1   4   3    2.10    0.24
   1  -4   3    1.65    0.22
   4   0  -3    0.13    0.13
   0  -4  -3    0.14    0.18
   0   4  -3    0.29    0.12
  -4   0  -3    0.21    0.19
   4   0  -3    0.16    0.15
   0  -4  -3    0.27    0.19
   0  -4  -3    0.26    0.14
   4   0   3    0.24    0.17
   0  -4   3    0.40    0.15
   4   0   3    0.42    0.16
   4   0   3    0.31    0.13
   0   4   3    0.25    0.15
   1   4  -3    5.96    0.27
   4  -1  -3    4.68    0.32
  -4   1  -3    4.86    0.39
  -1  -4  -3    5.79    0.31
  -1  -4  -3    5.35    0.41
   4  -1  -3    4.95    0.35
  -4   1   3    4.97    0.33
   4  -1   3    5.03    0.35
  -1  -4   3    5.61    0.29
   1   4   3    5.25    0.37
   4  -1   3    5.19    0.39
   1   4   3    5.60    0.32
   4  -1   3    4.61    0.29
  -2  -4  -3   36.95    1.36
   2   4  -3   36.17    1.17
  -4   2  -3   37.90    1.31
   4  -2  -3   36.80    1.30
  -2  -4  -3   34.06    1.24
   2   4  -3   37.64    1.19
   4  -2  -3   35.49    1.27
   2   4   3   35.40    1.26
   2   4   3   37.13    1.31
   4  -2   3   37.17    1.21
  -2  -4   3   35.75    1.20
   4  -2   3   35.56    1.28
  -4   2   3   36.45    1.25
  -4   3  -3   80.60    2.67
   4  -3  -3   83.06    2.70
  -3  -4  -3   82.86    2.75
  -3  -4  -3   79.10    2.64
   4  -3  -3   82.99    2.67
   3   4  -3   81.01    2.58
  -3  -4   3   80.62    2.58
   4  -3   3   81.65    2.58
   3   4   3   81.04    2.70
   4  -3   3   82.26    2.67
   3   4   3   83.54    2.66
  -4   3   3   82.55    2.62
   4  -4  -3    0.35    0.22
   4  -4  -3    0.38    0.19
  -4  -4  -3    0.42    0.25
   4  -4  -3    0.21    0.10
   4   4  -3    0.34    0.13
  -4  -4  -3    0.63    0.20
  -4   4  -3    0.36    0.17
   4  -4   3    0.30    0.12
   4   4   3    0.34    0.18
   4   4   3    0.39    0.19
   4  -4   3    0.39    0.21
  -4   4   3    0.15    0.15
   4  -5  -3  154.41    4.86
   4  -5  -3  151.82    4.74
   4  -5  -3  151.26    4.89
   5   4  -3  149.67    4.78
  -4   5  -3  151.10    4.81
  -5  -4  -3  152.79    4.84
  -5  -4  -3  150.70    4.91
   5   4   3  152.33    4.87
  -4   5   3  154.81    4.83
   4  -5   3  152.27    4.85
   5   4   3  151.36    4.84
   4  -5   3  156.10    4.72
   3  -5  -3   53.62    1.79
   3  -5  -3   50.52    1.62
  -3   5  -3   49.04    1.68
  -5  -3  -3   47.82    1.78
  -5  -3  -3   46.61    1.70
   5   3  -3   49.13    1.67
   3  -5  -3   50.47    1.74
   5   3   3   47.42    1.72
  -3   5   3   52.49    1.72
   3  -5   3   51.45    1.58
   5   3   3   48.43    1.72
   3  -5   3   51.38    1.72
  -2   5  -3   69.89    2.26
   2  -5  -3   69.42    2.34
   2  -5  -3   71.15    2.36
   5   2  -3   69.36    2.27
  -5  -2  -3   67.94    2.29
  -5  -2  -3   69.03    2.37
   2  -5  -3   68.47    2.22
   2  -5   3   70.17    2.30
  -2   5   3   73.65    2.33
   5   2   3   68.05    2.31
   5   2   3   69.03    2.32
   5   1  -3    5.05    0.30
   1  -5  -3    4.76    0.32
  -5  -1  -3    5.10    0.42
   5   1  -3    4.73    0.35
   1  -5  -3    4.80    0.39
  -1   5  -3    5.35    0.30
   1  -5  -3    5.41    0.43
   5   1   3    5.28    0.37
  -1   5   3    5.55    0.40
   5   1   3    5.64    0.35
   1  -5   3    5.65    0.35
   5   1   3    5.19    0.39
   0  -5  -3   81.29    2.65
   0   5  -3   78.96    2.61
   5   0  -3   84.87    2.66
  -5   0  -3   84.34    2.76
   5   0  -3   84.61    2.71
   0  -5  -3   79.73    2.75
   0  -5  -3   82.76    2.75
   5   0   3   84.97    2.73
   5   0   3   84.37    2.72
   0   5   3   84.35    2.74
   0  -5   3   82.35    2.67
   5   0   3   83.78    2.67
   1   5  -3  108.21    3.42
   5  -1  -3  104.74    3.53
  -5   1  -3  111.28    3.57
  -1  -5  -3  111.41    3.60
   5  -1  -3  113.27    3.50
  -1  -5  -3  104.54    3.48
  -5   1   3  110.78    3.48
  -1  -5   3  109.77    3.48
   5  -1   3  112.33    3.56
   1   5   3  111.06    3.58
   5  -1   3  114.14    3.55
   5  -1   3  109.85    3.48
   5  -2  -3   49.41    1.75
  -2  -5  -3   49.76    1.79
   5  -2  -3   51.55    1.72
  -5   2  -3   51.30    1.76
  -2  -5  -3   50.30    1.70
   2   5  -3   52.34    1.61
  -2  -5   3   51.65    1.67
   2   5   3   51.84    1.71
  -5   2   3   48.99    1.66
   5  -2   3   47.77    1.73
   5  -2   3   49.85    1.66
   2   5   3   51.27    1.78
   3   5  -3    5.68    0.30
   5  -3  -3    6.79    0.40
   5  -3  -3    5.94    0.44
  -3  -5  -3    5.93    0.39
  -5   3  -3    6.26    0.41
  -3  -5  -3    6.38    0.49
   3   5   3    6.62    0.40
   5  -3   3    5.93    0.33
   3   5   3    6.59    0.44
  -3  -5   3    5.47    0.34
  -5   3   3    5.58    0.34
   5  -3   3    5.80    0.42
   5  -4  -3   27.10    0.87
   5  -4  -3   27.14    1.01
  -4  -5  -3   24.67    1.07
   4   5  -3   25.58    0.91
  -4  -5  -3   23.92    0.99
   5  -4  -3   24.55    1.04
  -5   4  -3   26.09    1.00
   5  -4   3   26.56    0.91
   4   5   3   26.32    1.00
   4   5   3   25.11    1.05
   5  -4   3   27.65    1.03
  -4  -5   3   25.41    0.94
  -5   4   3   25.89    0.95
   5  -5  -3   44.70    1.62
   5  -5  -3   44.89    1.67
   5   5  -3   46.40    1.54
  -5  -5  -3   46.18    1.70
  -5  -5  -3   44.83    1.62
  -5   5  -3   46.20    1.60
   5  -5  -3   43.89    1.51
  -5   5   3   45.52    1.58
   5  -5   3   46.18    1.65
   5   5   3   48.16    1.69
   5  -5   3   44.23    1.51
  -5  -5   3   46.01    1.55
   5   5   3   49.44    1.64
   5  -6  -3    0.91    0.20
   5  -6  -3    1.08    0.30
  -6  -5  -3    0.84    0.28
  -6  -5  -3    1.00    0.25
  -5   6  -3    0.33    0.18
   6   5  -3    0.88    0.19
   5  -6  -3    0.70    0.25
  -6  -5   3    0.77    0.12
   6   5   3    0.81    0.24
  -5   6   3    0.41    0.24
   5  -6   3    0.55    0.17
   6   5   3    1.78    0.38
   5  -6   3    0.90    0.27
   4  -6  -3   12.38    0.54
  -6  -4  -3   10.13    0.67
  -6  -4  -3   10.98    0.61
   4  -6  -3   13.21    0.69
   4  -6  -3   12.27    0.63
   6   4  -3   10.62    0.55
  -4   6  -3   13.96    0.58
   4  -6   3   13.45    0.50
   6   4   3   11.48    0.64
   6   4   3   10.83    0.61
  -4   6   3   14.47    0.65
   4  -6   3   12.80    0.64
   6   3  -3   33.13    1.19
   3  -6  -3   32.56    1.25
   3  -6  -3   33.33    1.29
   3  -6  -3   31.06    1.15
  -3   6  -3   32.64    1.17
  -6  -3  -3   32.98    1.29
  -6  -3  -3   33.83    1.24
   3  -6   3   32.81    1.24
   6   3   3   33.52    1.23
   6   3   3   35.03    1.25
   3  -6   3   33.50    1.08
  -3   6   3   32.04    1.24
  -6  -2  -3   13.13    0.62
   2  -6  -3   13.13    0.57
  -2   6  -3   13.42    0.55
  -6  -2  -3   12.99    0.69
   2  -6  -3   12.58    0.69
   2  -6  -3   12.74    0.65
   6   2  -3   12.64    0.59
   6   2   3   14.26    0.65
   2  -6   3   13.70    0.63
   6   2   3   13.56    0.63
  -2   6   3   12.72    0.65
   6   2   3   12.99    0.61
  -6  -1  -3    5.88    0.47
  -1   6  -3    7.56    0.34
   1  -6  -3    6.42    0.48
   6   1  -3    5.17    0.39
   1  -6  -3    6.86    0.47
   1  -6  -3    7.28    0.39
   6   1   3    4.71    0.38
  -1   6   3    6.62    0.47
   1  -6   3    6.75    0.41
   6   1   3    5.78    0.43
   6   1   3    5.90    0.42
  -6   0  -3    0.38    0.21
   0   6  -3    0.29    0.12
   6   0  -3    0.24    0.18
   0  -6  -3    0.42    0.18
   0  -6  -3    0.12    0.22
   0  -6  -3    0.32    0.23
   0  -6   3    0.22    0.19
   6   0   3    0.19    0.16
   6   0   3    0.15    0.20
   0   6   3    0.20    0.20
   6   0   3    0.40    0.18
   1   6  -3    1.16    0.11
  -1  -6  -3    1.38    0.29
   6  -1  -3    1.48    0.21
   1   6  -3    1.23    0.13
   6  -1  -3    1.42    0.25
  -1  -6  -3    1.52    0.24
  -6   1  -3    1.34    0.25
   1   6   3    1.42    0.27
  -6   1   3    1.10    0.18
   6  -1   3    0.93    0.22
   6  -1   3    1.38    0.21
  -1  -6   3    1.61    0.24
   6  -1   3    1.36    0.25
  -6   2  -3    0.08    0.19
   2   6  -3    0.52    0.11
  -2  -6  -3    0.18    0.24
   6  -2  -3    0.41    0.18
  -2  -6  -3    0.24    0.19
   6  -2  -3    0.74    0.23
   6  -2   3    0.41    0.22
   2   6   3    0.34    0.21
  -2  -6   3    0.89    0.21
   6  -2   3    0.00    0.18
   6  -2   3    0.33    0.15
  -6   2   3    0.34    0.14
  -3  -6  -3   14.30    0.66
   3   6  -3   15.96    0.57
   6  -3  -3   14.21    0.66
   6  -3  -3   15.38    0.73
  -6   3  -3   14.91    0.69
  -3  -6  -3   14.16    0.75
   3   6   3   15.55    0.75
   6  -3   3   15.06    0.70
   6  -3   3   15.04    0.62
  -6   3   3   14.02    0.58
  -3  -6   3   14.27    0.63
   4   6  -3   30.72    1.10
  -4  -6  -3   30.61    1.20
   6  -4  -3   32.70    1.25
   6  -4  -3   33.37    1.20
  -6   4  -3   32.87    1.21
  -4  -6  -3   32.23    1.28
   6  -4  -3   32.02    1.07
  -4  -6   3   29.90    1.14
   6  -4   3   32.79    1.23
   6  -4   3   32.98    1.12
   4   6   3   31.94    1.29
   4   6   3   30.28    1.19
  -6   4   3   32.54    1.12
  -6   5  -3    0.07    0.18
   6  -5  -3    0.08    0.20
  -5  -6  -3    0.10    0.26
   6  -5  -3    0.02    0.23
   5   6  -3    0.07    0.14
   6  -5  -3   -0.13    0.14
  -5  -6  -3    0.23    0.23
   6  -5   3    0.26    0.23
  -5  -6   3    0.16    0.19
   5   6   3    0.06    0.19
  -6   5   3   -0.33    0.17
   5   6   3    0.75    0.35
   6  -5   3    0.34    0.17
  -6  -6  -3   61.52    2.16
   6  -6  -3   58.88    2.14
   6  -6  -3   57.82    2.07
  -6   6  -3   58.39    2.05
   6  -6  -3   60.00    1.98
  -6  -6  -3   61.84    2.10
   6   6  -3   60.79    2.00
   6   6   3   59.21    2.15
  -6   6   3   55.02    2.03
  -6  -6   3   60.09    2.02
   6  -6   3   62.14    2.12
   6  -6   3   59.53    1.97
   6   6   3   64.07    2.11
   6  -7  -3   37.09    1.47
  -7  -6  -3   36.31    1.42
   6  -7  -3   36.97    1.32
   7   6  -3   37.84    1.34
   6  -7  -3   36.66    1.40
  -7  -6  -3   35.48    1.47
  -6   7  -3   34.80    1.35
   6  -7   3   35.51    1.29
  -7  -6   3   38.06    1.20
   7   6   3   37.77    1.49
   7   6   3   37.93    1.42
   6  -7   3   37.10    1.45
  -7  -6   3   37.79    1.35
  -7  -5  -3    0.33    0.24
   5  -7  -3    0.07    0.27
   5  -7  -3    0.29    0.22
  -7  -5  -3    0.07    0.28
   7   5  -3    0.40    0.18
   5  -7  -3    0.29    0.19
  -5   7  -3   -0.12    0.16
   5  -7   3    0.42    0.17
   7   5   3   -0.04    0.21
   5  -7   3    0.02    0.24
   7   5   3    0.12    0.22
  -7  -5   3    0.11    0.12
  -4   7  -3   28.34    1.06
  -7  -4  -3   28.47    1.13
  -7  -4  -3   27.48    1.19
   4  -7  -3   28.20    1.13
   7   4  -3   27.93    1.07
   4  -7  -3   27.72    1.05
   4  -7  -3   29.73    1.20
   4  -7   3   29.26    0.99
  -4   7   3   27.22    1.15
   4  -7   3   27.88    1.14
   7   4   3   29.93    1.17
   7   4   3   28.73    1.13
   7   4   3   28.64    1.14
  -7  -3  -3   15.34    0.77
   7   3  -3   17.28    0.74
  -3   7  -3   18.13    0.72
  -7  -3  -3   17.55    0.86
   3  -7  -3   17.21    0.81
   3  -7  -3   17.33    0.73
   3  -7  -3   19.52    0.88
   7   3   3   16.75    0.80
  -3   7   3   18.19    0.88
   7   3   3   20.15    0.83
   3  -7   3   18.61    0.65
   3  -7   3   18.36    0.81
   7   3   3   16.43    0.78
  -2   7  -3  136.09    4.32
  -7  -2  -3  141.37    4.49
   2  -7  -3  135.09    4.36
   7   2  -3  137.62    4.39
   2  -7  -3  132.64    4.47
   2  -7  -3  134.18    4.44
   2  -7   3  135.46    4.41
   7   2   3  142.11    4.41
   7   2   3  137.50    4.40
   7   2   3  143.51    4.44
  -2   7   3  138.93    4.48
   1  -7  -3    7.63    0.46
   1  -7  -3    7.44    0.53
   7   1  -3    8.05    0.48
   1  -7  -3    7.15    0.56
  -7  -1  -3    7.86    0.54
  -1   7  -3    7.47    0.37
  -1   7   3    9.28    0.57
   1  -7   3    9.31    0.51
   7   1   3    7.53    0.46
   7   1   3    8.04    0.51
   7   1   3    7.85    0.49
   0   7  -3  188.59    5.88
   0  -7  -3  195.52    6.11
   0   7  -3  186.69    5.92
  -7   0  -3  193.07    6.11
   0  -7  -3  193.30    6.12
   7   0  -3  189.06    6.06
   0  -7  -3  191.87    6.02
   7   0   3  194.82    6.06
   7   0   3  193.44    6.08
   7   0   3  188.84    6.02
   0  -7   3  193.71    6.04
   0   7   3  195.76    6.15
  -1  -7  -3   10.26    0.55
   7  -1  -3   10.46    0.57
  -7   1  -3    9.80    0.59
   1   7  -3    9.67    0.38
  -1  -7  -3    9.70    0.61
   1   7  -3   10.11    0.38
  -1  -7   3   10.84    0.56
   7  -1   3    9.52    0.50
   7  -1   3    9.69    0.58
  -7   1   3    9.97    0.45
   7  -1   3   10.66    0.57
   1   7   3   10.35    0.65
   2   7  -3  266.77    8.13
  -2  -7  -3  263.45    8.26
  -7   2  -3  266.06    8.31
  -2  -7  -3  267.51    8.34
   7  -2  -3  267.03    8.30
   7  -2   3  270.01    8.31
  -2  -7   3  258.90    8.23
   7  -2   3  261.44    8.22
   2   7   3  261.30    8.37
  -7   2   3  263.50    8.15
   7  -2   3  265.81    8.27
  -3  -7  -3   16.78    0.76
   7  -3  -3   16.46    0.81
   7  -3  -3   17.03    0.61
   3   7  -3   16.85    0.64
  -7   3  -3   17.18    0.79
   7  -3  -3   17.54    0.74
  -3  -7  -3   16.15    0.83
   7  -3   3   16.56    0.71
  -7   3   3   17.79    0.65
   7  -3   3   18.54    0.82
  -3  -7   3   16.03    0.73
   3   7   3   18.90    0.96
   7  -4  -3   66.29    2.17
  -4  -7  -3   71.10    2.40
  -7   4  -3   66.86    2.32
   7  -4  -3   68.60    2.30
   4   7  -3   69.05    2.20
  -4  -7  -3   70.05    2.32
   7  -4  -3   68.68    2.36
   4   7   3   69.54    2.45
   7  -4   3   67.10    2.24
   7  -4   3   64.26    2.34
  -4  -7   3   69.32    2.28
  -7   4   3   66.20    2.21
  -5  -7  -3    0.49    0.29
   7  -5  -3    0.26    0.27
   7  -5  -3    0.70    0.24
  -5  -7  -3    0.26    0.24
  -7   5  -3    0.41    0.20
   5   7  -3    0.23    0.16
   7  -5  -3    0.40    0.17
  -7   5   3    0.43    0.17
  -5  -7   3    0.34    0.22
   7  -5   3    0.21    0.25
   7  -5   3    0.65    0.20
   5   7   3    0.26    0.25
   6   7  -3    6.14    0.40
   7  -6  -3    6.02    0.52
   7  -6  -3    5.96    0.39
  -6  -7  -3    5.14    0.51
   7  -6  -3    6.17    0.49
  -6  -7  -3    6.74    0.52
  -7   6  -3    6.44    0.46
  -6  -7   3    6.01    0.46
   7  -6   3    5.62    0.41
   7  -6   3    6.65    0.55
   6   7   3    6.84    0.60
   7  -7  -3    0.29    0.30
  -7  -7  -3    0.15    0.30
   7   7  -3    0.41    0.19
   7  -7  -3    0.13    0.19
   7  -7  -3   -0.01    0.24
  -7  -7  -3   -0.16    0.25
  -7   7  -3    0.34    0.21
   7  -7   3    0.00    0.28
   7   7   3    0.26    0.25
  -7  -7   3    0.25    0.24
   7  -7   3    0.38    0.21
   7   7   3    0.73    0.29
  -8  -7  -3    1.04    0.36
   7  -8  -3    0.71    0.34
  -8  -7  -3    0.88    0.33
   7  -8  -3    0.77    0.29
  -7   8  -3    0.90    0.26
   8   7  -3    0.74    0.23
   7  -8  -3    1.18    0.26
  -8  -7   3    1.39    0.30
   8   7   3    0.81    0.28
   7  -8   3    0.98    0.25
   7  -8   3    0.55    0.33
   8   7   3    0.58    0.30
  -8  -6  -3   53.02    1.97
  -8  -6  -3   53.72    2.02
   6  -8  -3   57.99    1.89
   6  -8  -3   57.69    1.97
   6  -8  -3   55.12    2.03
   8   6  -3   51.63    1.88
  -6   8  -3   58.13    1.92
   8   6   3   52.08    2.02
  -8  -6   3   52.60    1.76
   8   6   3   52.27    1.97
   6  -8   3   57.67    1.85
   8   6   3   49.38    1.94
   6  -8   3   56.40    2.00
  -8  -5  -3   10.93    0.69
  -8  -5  -3    9.10    0.61
   8   5  -3   10.11    0.55
   5  -8  -3    9.28    0.54
   5  -8  -3    9.53    0.61
   5  -8  -3    9.36    0.69
  -5   8  -3   10.30    0.54
  -8  -5   3   10.46    0.44
   5  -8   3    9.46    0.64
   8   5   3   10.87    0.62
   8   5   3   10.33    0.61
   8   5   3   11.62    0.67
   5  -8   3    9.30    0.49
  -8  -4  -3    9.55    0.60
   8   4  -3   10.17    0.55
  -8  -4  -3    9.59    0.66
   4  -8  -3   10.00    0.54
   4  -8  -3    8.30    0.58
  -4   8  -3   10.02    0.51
   4  -8  -3    9.54    0.70
   8   4   3   10.16    0.61
   4  -8   3   10.30    0.62
   8   4   3    9.54    0.58
   8   4   3    9.48    0.60
   4  -8   3    9.92    0.47
  -8  -3  -3    3.65    0.45
   3  -8  -3    3.37    0.38
   3  -8  -3    4.04    0.36
   8   3  -3    3.43    0.34
   3  -8  -3    3.82    0.46
  -3   8  -3    3.79    0.30
  -8  -3  -3    4.64    0.43
   8   3   3    3.93    0.38
   3  -8   3    3.64    0.28
   3  -8   3    4.16    0.43
   8   3   3    3.25    0.36
   8   3   3    4.17    0.41
   2  -8  -3    8.09    0.54
   2  -8  -3    7.41    0.48
   2  -8  -3    8.28    0.59
  -8  -2  -3    6.39    0.54
   8   2  -3    7.07    0.48
  -2   8  -3    7.84    0.39
   8   2   3    6.30    0.47
   8   2   3    6.82    0.51
   8   2   3    7.26    0.49
  -2   8   3    8.52    0.60
   2  -8   3    8.21    0.53
  -1   8  -3    2.64    0.23
  -8  -1  -3    3.57    0.42
   8   1  -3    3.58    0.36
   1  -8  -3    2.63    0.39
   1  -8  -3    2.38    0.32
   1  -8  -3    2.28    0.36
   8   1   3    3.05    0.32
   1  -8   3    2.58    0.34
   8   1   3    4.24    0.37
  -1   8   3    3.47    0.42
   8   1   3    3.40    0.38
   0  -8  -3   44.13    1.57
   0   8  -3   44.36    1.44
   8   0  -3   44.62    1.60
   0  -8  -3   46.23    1.67
  -8   0  -3   42.25    1.63
   0  -8  -3   45.04    1.64
   0  -8   3   44.82    1.59
   8   0   3   43.10    1.62
   8   0   3   44.38    1.57
   0   8   3   45.82    1.73
   8   0   3   41.68    1.56
   1   8  -3   23.97    0.83
  -8   1  -3   26.24    1.05
  -1  -8  -3   22.42    0.98
   8  -1  -3   25.75    1.03
  -1  -8  -3   23.45    1.05
   1   8  -3   23.01    0.81
   8  -1   3   25.53    0.97
  -8   1   3   24.16    0.86
   8  -1   3   26.33    1.05
   8  -1   3   25.76    0.99
   1   8   3   24.74    1.13
  -1  -8   3   23.88    0.98
   8  -2  -3    4.69    0.25
   2   8  -3    5.46    0.28
  -8   2  -3    4.49    0.44
  -2  -8  -3    5.75    0.51
  -2  -8  -3    5.94    0.46
   8  -2  -3    4.51    0.43
   8  -2   3    4.49    0.40
   8  -2   3    4.48    0.44
  -2  -8   3    6.34    0.46
   2   8   3    6.38    0.56
   8  -2   3    4.25    0.37
  -8   2   3    4.12    0.28
   8  -3  -3    0.65    0.28
   8  -3  -3    0.53    0.14
  -3  -8  -3    0.22    0.24
  -8   3  -3    0.52    0.23
   3   8  -3    0.37    0.14
  -3  -8  -3    0.65    0.31
   3   8   3    0.14    0.25
   8  -3   3    0.57    0.21
   8  -3   3    0.47    0.26
  -8   3   3    0.54    0.14
   8  -3   3    0.46    0.22
  -3  -8   3    0.72    0.25
  -4  -8  -3   57.47    2.12
  -4  -8  -3   57.72    2.05
   8  -4  -3   61.69    2.11
   8  -4  -3   58.68    1.91
   4   8  -3   57.09    1.92
  -8   4  -3   60.93    2.07
  -8   4   3   60.53    1.92
   4   8   3   56.64    2.17
   8  -4   3   59.96    1.99
   8  -4   3   58.92    2.09
  -4  -8   3   54.64    2.01
   8  -5  -3    7.55    0.59
  -5  -8  -3    7.72    0.62
   8  -5  -3    7.72    0.43
   5   8  -3    8.13    0.44
  -5  -8  -3    8.03    0.59
  -8   5  -3    8.09    0.53
   5   8   3    7.90    0.69
   8  -5   3    8.78    0.49
   8  -5   3    8.03    0.60
  -5  -8   3    7.64    0.53
  -6  -8  -3   38.22    1.55
   6   8  -3   38.74    1.38
  -6  -8  -3   40.35    1.52
  -8   6  -3   36.94    1.47
   8  -6  -3   37.69    1.54
   8  -6  -3   40.48    1.39
   8  -6   3   39.33    1.54
  -6  -8   3   39.84    1.46
   8  -6   3   37.97    1.40
   6   8   3   41.91    1.64
  -8   7  -3    7.97    0.54
   8  -7  -3    7.30    0.48
   7   8  -3    8.02    0.49
  -7  -8  -3    9.17    0.65
   8  -7  -3    8.14    0.65
  -7  -8  -3    7.07    0.62
   8  -7   3    7.36    0.51
  -7  -8   3    8.43    0.56
   8  -7   3    6.81    0.60
   7   8   3    9.49    0.75
   8  -8  -3   46.40    1.89
   8  -8  -3   49.16    1.73
  -8  -8  -3   50.18    1.90
  -8  -8  -3   49.36    1.86
   8   8  -3   50.38    1.75
  -8   8  -3   49.17    1.79
   8  -8   3   46.04    1.71
   8   8   3   49.82    1.95
   8  -8   3   49.28    1.88
  -8  -8   3   49.55    1.80
  -9  -8  -3    0.14    0.33
  -9  -8  -3    0.55    0.38
   8  -9  -3    0.16    0.26
  -8   9  -3    0.54    0.26
   9   8  -3    0.07    0.22
   8  -9  -3    0.29    0.38
  -9  -8   3    0.45    0.30
   9   8   3    0.00    0.27
   9   8   3    0.00    0.31
   8  -9   3    0.17    0.26
   8  -9   3    0.12    0.35
  -9  -7  -3    3.12    0.45
   7  -9  -3    3.59    0.49
   9   7  -3    3.82    0.39
  -9  -7  -3    4.01    0.52
   7  -9  -3    3.95    0.46
  -7   9  -3    4.05    0.42
   7  -9  -3    4.19    0.41
   9   7   3    3.00    0.46
   7  -9   3    3.78    0.50
   9   7   3    3.90    0.46
   9   7   3    2.51    0.38
   7  -9   3    3.98    0.38
  -9  -7   3    3.35    0.42
  -9  -6  -3    0.15    0.32
   6  -9  -3    0.30    0.29
  -9  -6  -3    0.37    0.28
   6  -9  -3    0.25    0.25
   6  -9  -3    0.18    0.33
  -6   9  -3    0.14    0.20
   9   6  -3    0.39    0.22
   6  -9   3    0.35    0.22
  -9  -6   3    0.00    0.16
   9   6   3    0.51    0.29
   9   6   3    0.01    0.27
   9   6   3    0.04    0.24
   6  -9   3    0.20    0.32
   9   5  -3   19.66    0.89
   5  -9  -3   22.77    0.91
  -5   9  -3   21.43    0.88
  -9  -5  -3   21.45    1.03
   5  -9  -3   20.82    0.96
  -9  -5  -3   20.77    0.98
   5  -9  -3   21.96    1.07
   5  -9   3   22.28    1.01
   5  -9   3   20.34    0.82
   9   5   3   19.03    0.96
   9   5   3   22.24    0.97
  -9  -5   3   19.37    0.77
   9   5   3   19.15    0.94
   9   4  -3   54.18    1.87
  -4   9  -3   50.22    1.80
   4  -9  -3   50.61    1.84
  -9  -4  -3   54.83    1.94
   4  -9  -3   52.55    1.91
  -9  -4  -3   54.52    1.99
   4  -9  -3   52.67    1.98
   9   4   3   52.56    1.92
   9   4   3   55.07    1.91
   9   4   3   54.88    1.92
   4  -9   3   50.94    1.75
   4  -9   3   51.12    1.92
  -3   9  -3   10.55    0.53
   3  -9  -3   10.54    0.66
  -9  -3  -3   11.75    0.73
   3  -9  -3    9.27    0.72
   9   3  -3   11.70    0.61
   3  -9  -3   10.78    0.61
   3  -9   3   10.43    0.50
   3  -9   3   10.19    0.66
   9   3   3   12.44    0.64
   9   3   3   11.56    0.64
   9   3   3   12.15    0.68
   2  -9  -3   19.02    0.97
   9   2  -3   18.77    0.87
  -2   9  -3   20.67    0.77
  -9  -2  -3   19.12    0.94
   2  -9  -3   20.19    0.87
   2  -9  -3   18.79    0.91
   9   2   3   19.33    0.88
   9   2   3   20.05    0.92
   9   2   3   19.61    0.85
   2  -9   3   19.56    0.90
   1  -9  -3  111.57    3.78
  -1   9  -3  110.71    3.56
   1  -9  -3  116.11    3.69
   9   1  -3  112.77    3.70
   1  -9  -3  108.41    3.73
  -9  -1  -3  118.23    3.78
   9   1   3  114.36    3.66
   9   1   3  114.50    3.74
   1  -9   3  110.06    3.71
   9   1   3  112.89    3.69
   0  -9  -3   61.93    2.23
   0  -9  -3   65.48    2.28
   0   9  -3   61.78    2.02
  -9   0  -3   62.56    2.24
   0  -9  -3   63.18    2.17
   9   0  -3   64.91    2.21
   0  -9   3   63.96    2.20
   9   0   3   61.48    2.22
   9   0   3   63.13    2.16
   9   0   3   62.22    2.14
  -1  -9  -3   49.57    1.84
  -1  -9  -3   51.25    1.79
  -9   1  -3   49.48    1.83
   1   9  -3   49.16    1.59
   1   9  -3   48.90    1.62
   9  -1  -3   49.87    1.82
   9  -1   3   51.52    1.76
   9  -1   3   50.46    1.84
  -9   1   3   47.92    1.61
  -1  -9   3   50.07    1.80
   9  -1   3   52.04    1.76
   9  -2  -3   21.75    0.80
  -2  -9  -3   22.57    0.98
   9  -2  -3   23.07    1.02
  -2  -9  -3   21.56    1.01
  -9   2  -3   22.36    1.00
   2   9  -3   23.23    0.81
  -9   2   3   21.76    0.77
   9  -2   3   23.36    0.94
   9  -2   3   21.69    1.00
  -2  -9   3   22.64    0.97
   9  -2   3   23.74    0.94
   9  -3  -3    7.47    0.38
  -3  -9  -3    6.60    0.57
   3   9  -3    7.23    0.38
  -9   3  -3    7.39    0.55
  -3  -9  -3    7.37    0.54
   9  -3  -3    7.28    0.57
  -3  -9   3    7.60    0.53
   9  -3   3    6.71    0.47
   9  -3   3    7.02    0.50
  -9   3   3    7.42    0.35
   9  -3   3    7.14    0.56
  -9   4  -3    0.88    0.27
  -4  -9  -3    1.16    0.31
   9  -4  -3    1.33    0.21
  -4  -9  -3    1.19    0.36
   4   9  -3    1.31    0.20
   9  -4  -3    1.77    0.36
  -4  -9   3    1.14    0.28
   9  -4   3    1.57    0.34
   9  -4   3    1.28    0.26
   9  -5  -3    2.71    0.28
   5   9  -3    2.52    0.27
  -9   5  -3    1.73    0.33
   9  -5  -3    1.94    0.37
  -5  -9  -3    1.92    0.40
  -5  -9  -3    2.14    0.39
   9  -5   3    2.11    0.30
   9  -5   3    2.59    0.40
  -5  -9   3    2.92    0.37
   9  -6  -3    1.01    0.34
  -6  -9  -3    1.61    0.40
  -9   6  -3    0.97    0.29
   6   9  -3    1.77    0.26
  -6  -9  -3    1.75    0.37
   9  -6  -3    1.35    0.25
  -6  -9   3    1.35    0.33
   9  -6   3    1.38    0.36
   9  -6   3    1.45    0.28
   9  -7  -3    0.12    0.21
  -7  -9  -3    0.32    0.34
   9  -7  -3   -0.04    0.32
   7   9  -3   -0.11    0.19
  -9   7  -3    0.19    0.23
  -7  -9  -3   -0.12    0.29
  -7  -9   3   -0.26    0.27
   9  -7   3    0.14    0.24
   9  -7   3    0.11    0.32
   8   9  -3    6.31    0.48
   9  -8  -3    4.33    0.55
  -9   8  -3    6.43    0.56
   9  -8  -3    5.32    0.47
  -8  -9  -3    7.71    0.70
  -8  -9  -3    6.76    0.63
  -8  -9   3    6.06    0.55
   9  -8   3    6.22    0.61
   9  -8   3    5.60    0.48
   9  -9  -3   -0.03    0.26
  -9  -9  -3    0.24    0.37
  -9   9  -3    0.03    0.25
   9  -9  -3   -0.26    0.36
  -9  -9  -3    0.07    0.34
   9   9  -3    0.13    0.23
   9  -9   3    0.03    0.36
  -9  -9   3    0.05    0.33
   9  -9   3    0.26    0.28
 -10  -9  -3    3.65    0.57
  10   9  -3    4.42    0.46
  -9  10  -3    3.84    0.48
   9 -10  -3    4.74    0.49
 -10  -9  -3    5.52    0.63
   9 -10  -3    5.23    0.62
 -10  -9   3    5.01    0.55
   9 -10   3    4.50    0.59
   9 -10   3    4.71    0.47
  10   9   3    3.89    0.51
 -10  -8  -3   52.07    2.00
  -8  10  -3   50.02    1.87
 -10  -8  -3   50.43    1.97
   8 -10  -3   51.13    1.85
   8 -10  -3   47.13    2.00
  10   8  -3   50.91    1.84
  10   8   3   50.43    2.04
   8 -10   3   51.07    1.82
 -10  -8   3   51.12    1.90
  10   8   3   49.74    1.93
  10   8   3   52.02    1.95
   8 -10   3   50.69    1.99
   7 -10  -3    7.76    0.68
   7 -10  -3    8.87    0.66
  10   7  -3    8.87    0.59
   7 -10  -3    9.89    0.63
  -7  10  -3    9.13    0.58
 -10  -7  -3    9.49    0.77
 -10  -7  -3    8.67    0.69
  10   7   3    8.90    0.69
   7 -10   3    9.41    0.58
  10   7   3    9.64    0.79
 -10  -7   3    8.46    0.64
  10   7   3    8.56    0.71
   7 -10   3    8.96    0.74
   6 -10  -3   13.30    0.71
 -10  -6  -3   12.63    0.80
  10   6  -3   11.93    0.68
   6 -10  -3   13.24    0.76
  -6  10  -3   11.91    0.65
 -10  -6  -3   13.77    0.84
   6 -10  -3   12.24    0.84
  10   6   3   12.74    0.80
   6 -10   3   12.20    0.81
  10   6   3   11.69    0.73
 -10  -6   3   12.95    0.62
   6 -10   3   12.60    0.64
  10   6   3   11.25    0.73
   5 -10  -3   27.76    1.13
  -5  10  -3   27.48    1.08
 -10  -5  -3   28.01    1.22
   5 -10  -3   26.83    1.18
  10   5  -3   26.91    1.12
   5 -10  -3   27.43    1.27
 -10  -5  -3   27.68    1.27
  10   5   3   28.03    1.19
   5 -10   3   26.40    1.04
 -10  -5   3   28.11    1.01
  10   5   3   28.47    1.20
  10   5   3   27.10    1.20
   5 -10   3   25.72    1.21
   4 -10  -3   42.99    1.55
 -10  -4  -3   40.66    1.65
   4 -10  -3   41.49    1.59
  -4  10  -3   40.96    1.47
   4 -10  -3   41.52    1.67
  10   4  -3   39.14    1.54
 -10  -4  -3   38.98    1.60
  10   4   3   42.42    1.59
 -10  -4   3   41.27    1.43
   4 -10   3   42.76    1.44
  10   4   3   41.04    1.57
   4 -10   3   41.99    1.63
  10   4   3   41.15    1.60
  10   3  -3    0.15    0.22
   3 -10  -3   -0.12    0.26
  -3  10  -3    0.11    0.16
 -10  -3  -3   -0.05    0.28
   3 -10  -3   -0.35    0.30
   3 -10  -3    0.49    0.28
  10   3   3    0.19    0.22
  10   3   3    0.20    0.27
   3 -10   3    0.34    0.30
  10   3   3    0.47    0.26
   3 -10   3    0.24    0.20
  10   2  -3   -0.32    0.20
   2 -10  -3   -0.13    0.24
   2 -10  -3    0.02    0.25
  -2  10  -3   -0.05    0.14
   2 -10  -3    0.13    0.31
 -10  -2  -3    0.20    0.27
  10   2   3    0.02    0.25
   2 -10   3    0.05    0.28
  10   2   3    0.10    0.21
  10   2   3    0.24    0.23
   1 -10  -3   17.91    0.89
 -10  -1  -3   16.26    0.89
  -1  10  -3   17.87    0.69
  10   1  -3   18.63    0.87
   1 -10  -3   17.14    0.85
   1 -10  -3   18.58    0.96
  10   1   3   17.83    0.80
  10   1   3   19.00    0.90
   1 -10   3   17.34    0.87
  10   1   3   19.32    0.85
   0  10  -3   18.87    0.71
   0 -10  -3   18.49    0.88
   0 -10  -3   20.91    0.95
   0 -10  -3   19.58    0.98
 -10   0  -3   18.81    0.95
  10   0  -3   19.76    0.91
  10   0   3   19.63    0.87
  10   0   3   21.12    0.85
   0 -10   3   19.30    0.92
  10   0   3   18.42    0.92
  -1 -10  -3    3.90    0.45
  10  -1  -3    4.77    0.47
 -10   1  -3    3.37    0.42
  10  -1  -3    3.76    0.28
  -1 -10  -3    4.61    0.46
   1  10  -3    4.51    0.25
  10  -1   3    4.34    0.48
  -1 -10   3    4.85    0.47
  10  -1   3    4.84    0.41
 -10   1   3    3.81    0.25
  10  -1   3    4.88    0.44
   2  10  -3    2.42    0.24
  10  -2  -3    2.48    0.24
 -10   2  -3    1.63    0.36
  10  -2  -3    1.90    0.35
  -2 -10  -3    2.09    0.37
  -2 -10  -3    1.91    0.38
  10  -2   3    2.24    0.31
  -2 -10   3    2.40    0.39
  10  -2   3    1.58    0.36
  10  -2   3    1.85    0.31
 -10   3  -3   76.56    2.58
  10  -3  -3   75.38    2.58
  -3 -10  -3   69.78    2.57
  10  -3  -3   73.48    2.37
  -3 -10  -3   71.10    2.54
   3  10  -3   68.66    2.37
  10  -3   3   74.39    2.49
  -3 -10   3   71.16    2.52
  10  -3   3   74.76    2.48
  10  -3   3   77.00    2.59
  -4 -10  -3   49.23    1.82
  -4 -10  -3   49.25    1.86
  10  -4  -3   47.79    1.65
  10  -4  -3   47.92    1.84
 -10   4  -3   47.68    1.81
   4  10  -3   49.45    1.65
  10  -4   3   46.08    1.73
  10  -4   3   47.36    1.74
  -4 -10   3   51.95    1.81
  10  -4   3   48.09    1.85
  10  -5  -3    2.10    0.28
   5  10  -3    2.80    0.29
  -5 -10  -3    2.10    0.43
  -5 -10  -3    2.17    0.40
 -10   5  -3    1.54    0.33
  10  -5  -3    1.98    0.40
  -5 -10   3    2.10    0.37
  10  -5   3    2.00    0.33
  10  -5   3    1.95    0.41
  -6 -10  -3   25.03    1.17
   6  10  -3   26.71    1.02
  10  -6  -3   26.71    1.21
 -10   6  -3   25.78    1.14
  -6 -10  -3   27.06    1.20
  10  -6  -3   25.32    1.02
  -6 -10   3   25.27    1.13
  10  -6   3   26.46    1.09
  10  -6   3   25.60    1.18
 -10   7  -3    7.38    0.59
  10  -7  -3    9.18    0.73
   7  10  -3    7.00    0.49
  -7 -10  -3    6.16    0.61
  10  -7  -3    7.45    0.52
  -7 -10  -3    7.18    0.67
  -7 -10   3    7.50    0.62
  10  -7   3    8.57    0.71
  10  -7   3    8.33    0.56
  -8 -10  -3   18.89    1.01
  -8 -10  -3   17.51    1.02
 -10   8  -3   18.16    0.92
  10  -8  -3   17.60    0.84
   8  10  -3   17.05    0.82
  10  -8  -3   18.16    1.02
  10  -8   3   17.53    1.00
  -8 -10   3   18.04    0.95
  10  -8   3   18.75    0.89
 -10   9  -3    6.24    0.59
  -9 -10  -3    6.57    0.67
  -9 -10  -3    5.97    0.67
  10  -9  -3    7.40    0.59
  10  -9  -3    8.03    0.76
   9  10  -3    7.69    0.54
  10  -9   3    6.69    0.69
  10  -9   3    6.99    0.58
  -9 -10   3    6.47    0.63
 -10  10  -3   25.59    1.19
 -10 -10  -3   26.94    1.30
  10 -10  -3   25.54    1.32
 -10 -10  -3   27.31    1.32
  10 -10  -3   23.77    1.14
  10  10  -3   26.31    1.13
  10 -10   3   24.17    1.13
 -10 -10   3   25.55    1.23
  10 -10   3   26.98    1.31
  10  10   3   27.37    1.25
  11  10  -3    3.17    0.44
 -10  11  -3    3.33    0.49
 -11 -10  -3    3.23    0.57
  10 -11  -3    3.87    0.50
 -11 -10  -3    2.92    0.59
  10 -11  -3    3.83    0.62
  10 -11   3    2.77    0.58
  11  10   3    2.88    0.52
 -11 -10   3    3.25    0.56
   9 -11  -3    1.60    0.52
  -9  11  -3    1.60    0.36
   9 -11  -3    1.82    0.41
 -11  -9  -3    1.10    0.48
 -11  -9  -3    1.12    0.46
  11   9  -3    2.28    0.38
  11   9   3    0.97    0.41
 -11  -9   3    1.59    0.45
   9 -11   3    2.19    0.53
   9 -11   3    2.01    0.63
   8 -11  -3    0.27    0.31
 -11  -8  -3    0.15    0.40
  -8  11  -3    0.09    0.26
   8 -11  -3   -0.08    0.39
  11   8  -3    0.12    0.27
 -11  -8  -3    0.06    0.41
  11   8   3   -0.09    0.31
  11   8   3   -0.30    0.32
 -11  -8   3   -0.11    0.33
   8 -11   3    0.79    0.45
   8 -11   3    0.43    0.43
   7 -11  -3    0.43    0.40
 -11  -7  -3    0.44    0.40
 -11  -7  -3    0.80    0.40
  11   7  -3    0.90    0.29
  -7  11  -3    0.49    0.27
   7 -11  -3    0.45    0.32
   7 -11  -3    0.45    0.35
  11   7   3    0.81    0.33
  11   7   3    0.97    0.38
   7 -11   3    0.66    0.41
   7 -11   3    0.35    0.38
  11   7   3    0.58    0.35
  11   6  -3    0.37    0.26
   6 -11  -3    0.16    0.31
  -6  11  -3    0.49    0.25
 -11  -6  -3    0.81    0.40
 -11  -6  -3    0.65    0.37
   6 -11  -3    0.26    0.41
   6 -11  -3    0.42    0.34
  11   6   3    0.58    0.29
  11   6   3    0.57    0.34
   6 -11   3    0.59    0.39
  11   6   3    0.40    0.33
   6 -11   3    0.56    0.33
 -11  -5  -3    4.95    0.59
  11   5  -3    4.13    0.44
   5 -11  -3    3.36    0.44
   5 -11  -3    4.91    0.49
 -11  -5  -3    4.37    0.51
  -5  11  -3    3.80    0.39
   5 -11  -3    2.82    0.50
  11   5   3    3.04    0.43
  11   5   3    4.15    0.51
   5 -11   3    2.89    0.48
 -11  -5   3    4.27    0.36
   5 -11   3    4.23    0.43
  11   5   3    4.16    0.50
   4 -11  -3    1.73    0.36
   4 -11  -3    1.34    0.41
  11   4  -3    1.40    0.32
 -11  -4  -3    1.40    0.40
   4 -11  -3    2.25    0.41
  -4  11  -3    1.65    0.27
 -11  -4   3    1.88    0.27
   4 -11   3    2.00    0.42
  11   4   3    1.75    0.36
   4 -11   3    2.15    0.31
  11   4   3    1.45    0.34
  11   4   3    1.35    0.38
   3 -11  -3   21.39    1.10
  -3  11  -3   20.73    0.84
   3 -11  -3   22.17    0.99
   3 -11  -3   19.82    0.98
 -11  -3  -3   20.88    1.05
  11   3  -3   20.72    0.96
  11   3   3   20.25    1.00
  11   3   3   19.79    0.95
  11   3   3   20.86    0.97
   3 -11   3   21.21    1.04
   3 -11   3   20.92    0.85
   2 -11  -3   38.85    1.51
  11   2  -3   36.90    1.50
 -11  -2  -3   39.22    1.58
   2 -11  -3   38.43    1.53
  -2  11  -3   38.20    1.36
   2 -11  -3   38.73    1.61
   2 -11   3   39.37    1.56
  11   2   3   39.70    1.51
  11   2   3   39.73    1.55
  11   2   3   38.48    1.46
   1 -11  -3   49.35    1.90
 -11  -1  -3   53.25    1.95
   1 -11  -3   51.93    1.98
  11   1  -3   52.00    1.89
  -1  11  -3   46.24    1.69
   1 -11  -3   48.71    1.87
  11   1   3   53.16    1.93
  11   1   3   53.05    1.81
  11   1   3   54.95    1.89
   1 -11   3   48.68    1.90
   0 -11  -3   13.61    0.84
   0 -11  -3   13.54    0.75
 -11   0  -3   12.41    0.77
   0  11  -3   11.79    0.53
  11   0  -3   13.60    0.75
   0 -11  -3   12.26    0.76
  11   0   3   12.31    0.70
   0 -11   3   12.78    0.79
  11   0   3   13.98    0.80
  11   0   3   12.47    0.65
  11  -1  -3   22.88    1.04
 -11   1  -3   21.98    1.06
  -1 -11  -3   21.66    1.03
  -1 -11  -3   22.64    1.06
  11  -1  -3   21.35    0.83
  11  -1   3   22.32    1.06
  -1 -11   3   24.08    1.06
  11  -1   3   21.14    0.98
  11  -1   3   23.51    0.95
   2  11  -3   17.35    0.67
  11  -2  -3   15.57    0.86
  -2 -11  -3   17.15    0.89
 -11   2  -3   14.65    0.85
  11  -2  -3   14.41    0.65
  -2 -11  -3   17.08    0.87
  11  -2   3   16.73    0.77
  -2 -11   3   16.80    0.88
  11  -2   3   16.33    0.79
  11  -2   3   15.21    0.89
  -3 -11  -3   10.14    0.71
  11  -3  -3   10.56    0.71
 -11   3  -3    9.15    0.67
  11  -3  -3    9.51    0.49
  -3 -11  -3    9.05    0.68
   3  11  -3    9.79    0.50
  11  -3   3    9.87    0.59
  -3 -11   3   10.63    0.69
  11  -3   3    9.91    0.62
  11  -3   3    8.30    0.67
  -4 -11  -3    4.05    0.51
 -11   4  -3    3.64    0.47
  11  -4  -3    2.48    0.30
  11  -4  -3    2.43    0.44
   4  11  -3    3.31    0.31
  -4 -11  -3    2.50    0.44
  11  -4   3    3.29    0.37
  11  -4   3    3.43    0.48
  11  -4   3    3.08    0.39
  -4 -11   3    3.41    0.45
  11  -5  -3    0.95    0.24
   5  11  -3    1.24    0.25
  11  -5  -3    0.68    0.36
 -11   5  -3    0.87    0.31
  -5 -11  -3    0.89    0.37
  -5 -11  -3    0.86    0.38
  -5 -11   3    1.01    0.35
  11  -5   3    1.13    0.28
  11  -5   3    0.76    0.38
  11  -5   3    0.98    0.30
  -6 -11  -3    0.99    0.41
  11  -6  -3    1.41    0.39
  -6 -11  -3    1.48    0.43
 -11   6  -3    1.99    0.40
   6  11  -3    1.70    0.28
  11  -6  -3    1.14    0.28
  11  -6   3    1.09    0.40
  11  -6   3    1.44    0.34
  -6 -11   3    1.64    0.38
  -7 -11  -3    3.25    0.51
  -7 -11  -3    2.73    0.49
 -11   7  -3    4.27    0.51
   7  11  -3    2.75    0.35
  11  -7  -3    2.90    0.51
  11  -7  -3    3.71    0.41
  -7 -11   3    3.35    0.48
  11  -7   3    3.08    0.41
  11  -7   3    2.44    0.47
  -8 -11  -3    4.25    0.60
  -8 -11  -3    4.99    0.63
 -11   8  -3    6.57    0.63
   8  11  -3    5.02    0.47
  11  -8  -3    5.39    0.65
  11  -8  -3    5.23    0.49
  -8 -11   3    4.54    0.56
  11  -8   3    4.50    0.50
  11  -8   3    4.43    0.60
  -9 -11  -3    0.22    0.42
 -11   9  -3    1.24    0.38
  -9 -11  -3    0.78    0.43
  11  -9  -3    0.21    0.30
  11  -9  -3    0.60    0.46
   9  11  -3    0.40    0.27
  11  -9   3    0.85    0.43
  11  -9   3    1.06    0.38
  -9 -11   3    0.24    0.39
 -11  10  -3    1.09    0.40
 -10 -11  -3    0.64    0.49
  10  11  -3    1.80    0.35
 -10 -11  -3    1.30    0.48
  11 -10  -3    1.26    0.49
  11 -10  -3    1.17    0.38
 -10 -11   3    1.37    0.47
  11 -10   3    0.97    0.40
  10  11   3    0.98    0.40
  11 -10   3    0.85    0.48
 -11  11  -3    3.39    0.51
  11  11  -3    3.08    0.44
  11 -11  -3    3.37    0.51
 -11 -11  -3    3.56    0.63
 -11 -11  -3    3.98    0.63
  11 -11  -3    3.82    0.66
  11  11   3    3.91    0.59
 -11 -11   3    3.87    0.60
  11 -11   3    3.04    0.59
 -12 -11  -3   20.03    1.22
 -12 -11  -3   18.62    1.16
  11 -12  -3   18.52    1.03
  12  11  -3   18.25    1.00
 -11  12  -3   19.14    1.08
  11 -12  -3   18.62    1.22
  12  11   3   20.65    1.17
  11 -12   3   21.11    1.21
 -12 -11   3   19.76    1.16
 -12 -10  -3    3.19    0.61
  10 -12  -3    2.42    0.47
  12  10  -3    3.07    0.44
 -10  12  -3    4.62    0.55
  10 -12  -3    2.40    0.61
 -12 -10  -3    3.96    0.64
 -12 -10   3    2.96    0.57
  10 -12   3    1.90    0.56
  12  10   3    2.42    0.47
  12   9  -3   23.88    1.14
   9 -12  -3   24.52    1.17
  -9  12  -3   25.69    1.17
 -12  -9  -3   25.38    1.33
 -12  -9  -3   24.59    1.31
   9 -12  -3   26.98    1.39
   9 -12   3   26.65    1.37
  12   9   3   25.34    1.25
 -12  -9   3   24.42    1.23
   8 -12  -3    4.07    0.53
  -8  12  -3    5.31    0.54
 -12  -8  -3    4.17    0.62
  12   8  -3    4.05    0.48
 -12  -8  -3    3.93    0.60
   8 -12  -3    2.54    0.57
   8 -12   3    3.55    0.60
  12   8   3    3.56    0.51
 -12  -8   3    3.81    0.54
  12   8   3    3.76    0.54
 -12  -7  -3   22.80    1.18
   7 -12  -3   22.74    1.23
   7 -12  -3   22.99    1.09
  -7  12  -3   22.44    1.02
  12   7  -3   22.17    1.05
   7 -12  -3   21.40    1.09
 -12  -7  -3   21.40    1.18
   7 -12   3   22.73    1.21
  12   7   3   23.21    1.21
  12   7   3   23.50    1.12
  12   7   3   21.82    1.11
 -12  -6  -3    5.78    0.66
   6 -12  -3    7.80    0.77
  12   6  -3    7.71    0.61
  -6  12  -3    6.33    0.53
   6 -12  -3    6.46    0.61
   6 -12  -3    6.94    0.64
 -12  -6  -3    7.21    0.69
  12   6   3    7.75    0.69
  12   6   3    6.39    0.65
  12   6   3    6.90    0.63
   6 -12   3    5.73    0.64
  -5  12  -3   28.78    1.14
  12   5  -3   28.87    1.22
   5 -12  -3   29.75    1.25
 -12  -5  -3   26.98    1.33
 -12  -5  -3   26.66    1.28
   5 -12  -3   28.79    1.39
   5 -12  -3   29.43    1.27
  12   5   3   27.02    1.27
   5 -12   3   27.10    1.31
  12   5   3   30.18    1.27
  12   5   3   27.33    1.28
 -12  -5   3   29.25    1.12
   4 -12  -3    6.68    0.61
 -12  -4  -3    5.41    0.61
   4 -12  -3    4.81    0.53
  -4  12  -3    6.66    0.46
   4 -12  -3    5.57    0.62
  12   4  -3    6.55    0.57
  12   4   3    5.89    0.57
 -12  -4   3    6.49    0.48
  12   4   3    5.19    0.57
   4 -12   3    6.41    0.65
  12   4   3    5.42    0.55
   3 -12  -3   44.69    1.81
   3 -12  -3   43.81    1.69
   3 -12  -3   44.17    1.70
 -12  -3  -3   43.62    1.76
  12   3  -3   42.21    1.66
  12   3   3   44.08    1.69
 -12  -3   3   44.42    1.57
  12   3   3   41.04    1.69
   3 -12   3   42.74    1.74
  12   3   3   43.25    1.67
   2 -12  -3    0.43    0.33
  12   2  -3    0.16    0.27
   2 -12  -3    0.10    0.32
   2 -12  -3   -0.05    0.39
 -12  -2  -3    0.68    0.34
  12   2   3    0.20    0.28
  12   2   3    0.48    0.27
  12   2   3    0.23    0.31
   2 -12   3   -0.33    0.32
  12   1  -3    0.02    0.26
 -12  -1  -3    0.18    0.32
   1 -12  -3    0.57    0.39
   1 -12  -3    0.17    0.32
   1 -12  -3    0.01    0.31
  12   1   3    0.11    0.29
   1 -12   3    0.50    0.34
  12   1   3   -0.09    0.22
  12   1   3    0.26    0.27
   0 -12  -3    0.56    0.33
  12   0  -3    0.41    0.29
 -12   0  -3    0.44    0.30
   0 -12  -3    0.39    0.34
  12   0   3    0.21    0.30
  12   0   3   -0.11    0.27
  12   0   3   -0.11    0.22
   0 -12   3    0.43    0.36
  -1 -12  -3   18.92    0.95
  12  -1  -3   17.47    0.73
  12  -1  -3   19.38    0.97
 -12   1  -3   17.54    0.96
  -1 -12  -3   17.22    0.94
  12  -1   3   18.13    0.90
  12  -1   3   17.85    0.96
  12  -1   3   18.84    0.83
  -1 -12   3   17.63    0.95
  12  -2  -3    0.20    0.19
 -12   2  -3   -0.02    0.30
  12  -2  -3    0.36    0.29
  -2 -12  -3    0.38    0.33
  -2 -12  -3   -0.24    0.31
  12  -2   3    0.00    0.32
  12  -2   3   -0.10    0.21
  12  -2   3    0.07    0.25
  -2 -12   3    0.40    0.35
  -3 -12  -3   23.29    1.12
  -3 -12  -3   23.22    1.14
  12  -3  -3   23.19    0.92
 -12   3  -3   24.16    1.12
   3  12  -3   23.09    0.92
  12  -3  -3   24.13    1.14
  12  -3   3   24.44    1.06
  -3 -12   3   22.73    1.12
  12  -3   3   22.95    1.00
  12  -3   3   23.16    1.14
  12  -4  -3   19.28    1.03
  -4 -12  -3   17.44    0.97
 -12   4  -3   16.81    0.94
   4  12  -3   18.77    0.79
  12  -4  -3   19.45    0.80
  -4 -12  -3   20.48    1.05
  12  -4   3   16.98    0.86
  -4 -12   3   19.42    1.01
  12  -4   3   17.31    1.00
  12  -4   3   19.24    0.92
 -12   5  -3   54.49    2.01
  12  -5  -3   49.99    1.82
  12  -5  -3   55.93    2.06
  -5 -12  -3   50.99    2.01
   5  12  -3   52.69    1.83
  -5 -12  -3   52.86    2.03
  12  -5   3   53.49    2.04
  12  -5   3   51.74    1.93
  -5 -12   3   50.20    1.99
  12  -5   3   54.40    1.90
  12  -6  -3    9.67    0.61
 -12   6  -3   10.02    0.74
  -6 -12  -3   12.32    0.82
  -6 -12  -3   11.29    0.80
  12  -6  -3    9.06    0.77
   6  12  -3   10.84    0.60
  -6 -12   3   11.41    0.81
  12  -6   3   10.08    0.82
  12  -6   3   10.08    0.67
  12  -6   3   10.16    0.70
  12  -7  -3   17.52    1.08
  -7 -12  -3   17.11    1.03
  12  -7  -3   20.27    0.90
 -12   7  -3   21.05    1.04
  -7 -12  -3   17.65    1.08
   7  12  -3   20.22    0.89
  12  -7   3   18.69    0.99
  -7 -12   3   19.04    1.03
  12  -7   3   21.74    1.13
  -8 -12  -3   22.83    1.18
   8  12  -3   22.81    0.98
  -8 -12  -3   20.39    1.13
  12  -8  -3   23.29    1.22
 -12   8  -3   20.68    1.11
  12  -8  -3   21.66    0.99
  12  -8   3   22.34    1.19
  12  -8   3   18.44    1.02
  -8 -12   3   23.17    1.17
 -12   9  -3    9.01    0.77
   9  12  -3   11.63    0.68
  -9 -12  -3    9.90    0.85
  12  -9  -3   10.48    0.91
  -9 -12  -3   10.97    0.88
  12  -9  -3    9.26    0.71
  12  -9   3    9.71    0.86
  12  -9   3    9.08    0.72
  -9 -12   3   10.92    0.85
 -10 -12  -3    1.33    0.54
  10  12  -3    0.46    0.31
  12 -10  -3    0.63    0.51
 -10 -12  -3    0.95    0.50
  12 -10  -3    0.85    0.36
 -12  10  -3    1.03    0.38
 -10 -12   3    0.94    0.48
  10  12   3    0.69    0.38
  12 -10   3    0.75    0.39
  12 -10   3    0.07    0.46
 -11 -12  -3    5.07    0.71
 -12  11  -3    4.68    0.61
  12 -11  -3    5.46    0.60
 -11 -12  -3    5.46    0.75
  11  12  -3    5.25    0.55
  12 -11  -3    5.68    0.77
  11  12   3    5.59    0.68
  12 -11   3    5.57    0.76
 -11 -12   3    6.43    0.73
 -12 -12  -3    9.31    0.94
  12  12  -3    8.84    0.72
  12 -12  -3   10.43    0.81
 -12  12  -3    8.70    0.80
 -12 -12  -3    7.48    0.82
  12 -12  -3    8.42    0.92
  12 -12   3    9.58    0.93
 -12 -12   3    9.56    0.88
  12  12   3    8.05    0.82
 -13 -12  -3    1.98    0.63
 -13 -12  -3    2.27    0.69
  13  12  -3    2.37    0.46
  12 -13  -3    2.90    0.54
 -12  13  -3    3.51    0.57
  12 -13  -3    2.38    0.68
  12 -13   3    3.20    0.67
  13  12   3    2.08    0.54
 -13 -12   3    3.36    0.68
  13  11  -3    2.84    0.47
  11 -13  -3    2.68    0.65
 -13 -11  -3    2.90    0.65
 -13 -11  -3    2.66    0.66
  11 -13  -3    2.63    0.51
 -11  13  -3    2.51    0.50
  13  11   3    1.89    0.52
  11 -13   3    2.09    0.62
 -13 -11   3    2.55    0.61
  10 -13  -3    0.50    0.44
 -13 -10  -3    0.44    0.51
 -10  13  -3    0.68    0.37
 -13 -10  -3    0.18    0.52
  13  10  -3    0.87    0.35
  10 -13  -3    1.12    0.56
  13  10   3    0.36    0.42
  10 -13   3    0.61    0.51
 -13 -10   3    0.72    0.49
 -13  -9  -3    0.52    0.48
  -9  13  -3    0.22    0.31
   9 -13  -3    0.23    0.51
   9 -13  -3   -0.02    0.37
  13   9  -3    0.11    0.32
 -13  -9  -3    0.76    0.50
  13   9   3    0.21    0.35
   9 -13   3    0.47    0.50
 -13  -9   3    0.33    0.45
   8 -13  -3    2.01    0.46
 -13  -8  -3    1.47    0.50
  -8  13  -3    2.32    0.40
  13   8  -3    0.96    0.35
 -13  -8  -3    1.91    0.54
   8 -13  -3    1.53    0.57
  13   8   3    1.25    0.43
 -13  -8   3    2.39    0.50
   8 -13   3    1.97    0.56
  13   8   3    0.97    0.42
   7 -13  -3    0.05    0.37
 -13  -7  -3    0.68    0.45
 -13  -7  -3    0.52    0.45
  -7  13  -3    0.17    0.27
   7 -13  -3    0.56    0.40
  13   7  -3    0.51    0.32
   7 -13  -3    0.54    0.49
  13   7   3    0.08    0.37
   7 -13   3    0.13    0.44
  13   7   3    0.32    0.36
  -6  13  -3    3.00    0.41
   6 -13  -3    4.38    0.55
 -13  -6  -3    4.78    0.65
   6 -13  -3    3.39    0.59
   6 -13  -3    3.86    0.53
 -13  -6  -3    4.67    0.64
  13   6  -3    4.63    0.51
  13   6   3    4.93    0.63
   6 -13   3    4.93    0.65
  13   6   3    3.56    0.55
  13   6   3    4.04    0.53
   5 -13  -3    0.95    0.46
 -13  -5  -3    0.57    0.41
  13   5  -3    0.53    0.33
 -13  -5  -3    0.77    0.42
   5 -13  -3    0.93    0.39
   5 -13  -3    0.95    0.39
  13   5   3    1.28    0.39
   5 -13   3   -0.13    0.39
  13   5   3    0.49    0.34
  13   5   3    1.37    0.39
   4 -13  -3    0.43    0.37
   4 -13  -3    0.27    0.40
   4 -13  -3   -0.02    0.35
  13   4  -3    0.42    0.30
 -13  -4  -3    0.32    0.37
  13   4   3    0.28    0.32
 -13  -4   3   -0.25    0.24
  13   4   3    0.24    0.33
  13   4   3   -0.25    0.30
   4 -13   3    0.69    0.42
   3 -13  -3   14.27    0.89
  13   3  -3   17.94    0.91
 -13  -3  -3   16.55    0.98
   3 -13  -3   16.86    0.95
   3 -13  -3   16.45    1.03
  13   3   3   15.65    0.89
  13   3   3   16.65    0.93
  13   3   3   17.40    0.89
 -13  -3   3   17.57    0.81
   3 -13   3   13.95    0.96
   2 -13  -3   -0.20    0.39
   2 -13  -3   -0.19    0.34
   2 -13  -3   -0.52    0.32
  13   2  -3    0.03    0.29
 -13  -2  -3    0.02    0.32
  13   2   3    0.46    0.31
  13   2   3    0.09    0.26
   2 -13   3    0.32    0.40
  13   2   3    0.33    0.33
 -13  -1  -3   15.51    0.92
   1 -13  -3   14.32    0.87
   1 -13  -3   13.79    0.95
   1 -13  -3   13.71    0.87
  13   1  -3   15.29    0.85
  13   1   3   15.29    0.90
   1 -13   3   12.88    0.89
  13   1   3   14.41    0.82
  13   1   3   13.52    0.75
 -13   0  -3    0.01    0.31
   0 -13  -3    0.71    0.37
  13   0  -3    0.04    0.31
   0 -13  -3    0.45    0.37
  13   0   3    0.19    0.30
  13   0   3    0.00    0.23
  13   0   3    0.12    0.34
   0 -13   3    0.29    0.41
  13  -1  -3   14.25    0.85
  -1 -13  -3   14.61    0.86
  -1 -13  -3   13.08    0.82
  13  -1  -3   12.39    0.72
 -13   1  -3   13.65    0.86
  -1 -13   3   14.17    0.89
  13  -1   3   12.38    0.84
  13  -1   3   12.48    0.77
  13  -1   3   13.74    0.70
  13  -2  -3    2.41    0.32
  -2 -13  -3    1.83    0.45
  13  -2  -3    2.33    0.45
 -13   2  -3    1.88    0.43
  -2 -13  -3    2.49    0.47
  13  -2   3    1.80    0.31
  -2 -13   3    2.26    0.48
  13  -2   3    1.72    0.43
  13  -2   3    1.59    0.38
  -3 -13  -3    0.79    0.39
  13  -3  -3    1.18    0.39
  -3 -13  -3    1.78    0.46
  13  -3  -3    1.82    0.28
 -13   3  -3    1.51    0.43
  13  -3   3    1.80    0.45
  -3 -13   3    1.38    0.43
  13  -3   3    1.86    0.32
  13  -3   3    2.02    0.39
  13  -4  -3    0.51    0.22
  13  -4  -3   -0.41    0.34
  -4 -13  -3   -0.13    0.36
 -13   4  -3   -0.26    0.28
  -4 -13  -3   -0.28    0.35
  13  -4   3    0.00    0.24
  -4 -13   3   -0.17    0.37
  13  -4   3   -0.01    0.30
  13  -4   3    0.03    0.34
   5  13  -3    5.29    0.60
  13  -5  -3    4.03    0.42
  -5 -13  -3    6.18    0.65
 -13   5  -3    4.75    0.61
  -5 -13  -3    4.11    0.55
  13  -5  -3    3.33    0.55
  13  -5   3    4.59    0.53
  13  -5   3    4.36    0.45
  13  -5   3    5.62    0.62
  -5 -13   3    5.72    0.64
   6  13  -3    5.80    0.48
  -6 -13  -3    4.87    0.64
  13  -6  -3    5.57    0.65
  -6 -13  -3    5.44    0.63
  13  -6  -3    4.90    0.47
 -13   6  -3    5.91    0.66
  -6 -13   3    5.16    0.63
  13  -6   3    4.70    0.62
  13  -6   3    4.10    0.51
 -13   7  -3    0.95    0.38
  13  -7  -3    0.22    0.43
  13  -7  -3    0.64    0.31
  -7 -13  -3    0.87    0.46
  -7 -13  -3    0.48    0.45
   7  13  -3    0.58    0.27
  13  -7   3    0.28    0.43
  -7 -13   3    0.47    0.43
  13  -7   3    0.94    0.40
  13  -8  -3    0.82    0.50
  -8 -13  -3    0.61    0.51
   8  13  -3    0.85    0.31
  13  -8  -3    1.14    0.35
 -13   8  -3    0.36    0.36
  -8 -13  -3    0.84    0.48
  13  -8   3    0.78    0.39
  -8 -13   3    1.50    0.46
  13  -8   3   -0.18    0.42
 -13   9  -3   14.34    0.93
  13  -9  -3   17.34    1.11
   9  13  -3   13.81    0.81
  13  -9  -3   14.36    0.85
  -9 -13  -3   14.32    1.04
  -9 -13  -3   14.32    1.01
  13  -9   3   14.32    1.04
  13  -9   3   13.29    0.89
  -9 -13   3   13.78    1.02
  10  13  -3    5.14    0.54
  13 -10  -3    4.87    0.56
 -10 -13  -3    4.13    0.67
  13 -10  -3    5.09    0.75
 -13  10  -3    5.77    0.68
 -10 -13  -3    4.76    0.71
 -10 -13   3    4.90    0.69
  13 -10   3    5.11    0.60
  13 -10   3    5.19    0.71
 -13  11  -3    4.59    0.61
  13 -11  -3    4.44    0.56
  13 -11  -3    5.06    0.77
 -11 -13  -3    4.09    0.66
 -11 -13  -3    3.65    0.71
  11  13  -3    3.05    0.46
 -11 -13   3    4.13    0.70
  11  13   3    2.99    0.56
  13 -11   3    3.81    0.70
 -12 -13  -3    1.92    0.66
  13 -12  -3    1.86    0.50
 -13  12  -3    2.14    0.52
  13 -12  -3    2.65    0.69
 -12 -13  -3    2.15    0.62
  12  13  -3    2.34    0.43
  13 -12   3    2.74    0.67
 -12 -13   3    2.71    0.64
  12  13   3    2.12    0.56
 -13 -13  -3   19.16    1.30
 -13  13  -3   15.26    1.06
  13 -13  -3   15.82    1.22
 -13 -13  -3   15.37    1.17
  13  13  -3   16.33    1.00
  13 -13  -3   18.20    1.30
  13 -13   3   13.36    1.15
 -13 -13   3   17.46    1.25
  13  13   3   17.24    1.14
  13 -14  -3    2.62    0.76
 -14 -13  -3    2.40    0.69
  14  13  -3    2.57    0.52
 -13  14  -3    2.56    0.59
 -14 -13  -3    2.45    0.74
 -14 -13   3    2.94    0.72
  14  13   3    2.16    0.58
  13 -14   3    1.62    0.69
 -14 -12  -3    0.09    0.57
 -14 -12  -3    0.24    0.60
  12 -14  -3    0.69    0.61
  14  12  -3    0.36    0.38
  12 -14  -3    0.12    0.46
 -12  14  -3    0.45    0.43
  12 -14   3    0.17    0.58
 -14 -12   3    0.72    0.62
  14  12   3    0.56    0.48
 -14 -11  -3    8.99    0.95
  14  11  -3   10.03    0.80
 -14 -11  -3    8.41    0.90
  11 -14  -3    8.08    0.78
 -11  14  -3    8.47    0.77
  11 -14  -3    8.39    0.96
  11 -14   3    7.52    0.91
 -14 -11   3    9.00    0.89
  14  11   3   10.08    0.90
  10 -14  -3    3.07    0.70
  10 -14  -3    2.85    0.56
 -14 -10  -3    2.34    0.63
  14  10  -3    2.24    0.46
 -10  14  -3    2.46    0.48
 -14 -10  -3    3.10    0.71
  14  10   3    2.60    0.56
  10 -14   3    1.83    0.64
 -14 -10   3    2.88    0.61
   9 -14  -3   28.19    1.37
 -14  -9  -3   31.28    1.54
   9 -14  -3   28.28    1.55
 -14  -9  -3   26.86    1.47
  14   9  -3   31.38    1.37
  -9  14  -3   29.53    1.34
 -14  -9   3   29.82    1.44
   9 -14   3   29.11    1.53
  14   9   3   29.94    1.47
  -8  14  -3    3.48    0.47
   8 -14  -3    3.86    0.70
 -14  -8  -3    3.05    0.65
 -14  -8  -3    3.44    0.64
  14   8  -3    3.17    0.49
   8 -14  -3    4.31    0.59
  14   8   3    3.34    0.53
   8 -14   3    3.46    0.66
  14   8   3    2.72    0.52
 -14  -8   3    4.13    0.62
 -14  -7  -3   31.73    1.56
   7 -14  -3   32.83    1.60
  -7  14  -3   32.36    1.36
   7 -14  -3   33.71    1.49
  14   7  -3   34.75    1.44
 -14  -7  -3   32.91    1.57
   7 -14  -3   31.85    1.45
  14   7   3   32.94    1.49
   7 -14   3   31.89    1.57
  14   7   3   32.60    1.49
 -14  -6  -3    3.08    0.60
 -14  -6  -3    2.80    0.57
   6 -14  -3    2.21    0.48
   6 -14  -3    2.36    0.59
   6 -14  -3    1.72    0.50
  14   6  -3    2.53    0.46
  14   6   3    2.00    0.47
   6 -14   3    2.02    0.54
  14   6   3    3.25    0.56
  14   6   3    2.82    0.48
 -14  -5  -3    9.94    0.87
   5 -14  -3   10.31    0.80
 -14  -5  -3   12.26    0.95
   5 -14  -3   10.40    0.79
  14   5  -3    9.70    0.78
   5 -14  -3   10.22    0.91
  14   5   3   11.59    0.85
  14   5   3    9.70    0.77
  14   5   3   11.14    0.82
   5 -14   3    9.85    0.86
   4 -14  -3   -0.39    0.44
  14   4  -3    0.32    0.32
   4 -14  -3   -0.31    0.38
   4 -14  -3   -0.10    0.38
 -14  -4  -3   -0.42    0.36
   4 -14   3   -0.23    0.42
  14   4   3    0.06    0.33
  14   4   3    1.10    0.39
 -14  -4   3    0.42    0.30
  14   4   3    0.32    0.36
   3 -14  -3    8.29    0.73
   3 -14  -3    7.52    0.69
 -14  -3  -3    7.75    0.75
   3 -14  -3    6.05    0.71
  14   3  -3    6.52    0.63
 -14  -3   3    7.80    0.61
  14   3   3    8.34    0.68
  14   3   3    8.67    0.73
   3 -14   3    7.67    0.76
  14   3   3    7.04    0.71
 -14  -2  -3    0.64    0.38
   2 -14  -3    0.93    0.40
   2 -14  -3    0.15    0.42
  14   2  -3    0.95    0.36
   2 -14  -3    0.80    0.42
  14   2   3    1.04    0.41
   2 -14   3    0.95    0.45
  14   2   3    0.55    0.36
  14   2   3    0.50    0.31
 -14  -2   3    0.40    0.30
 -14  -1  -3    1.40    0.43
  14   1  -3    1.73    0.42
   1 -14  -3    2.26    0.54
   1 -14  -3    2.99    0.48
   1 -14  -3    2.53    0.48
  14   1   3    2.93    0.39
  14   1   3    1.12    0.40
  14   1   3    1.74    0.44
   1 -14   3    2.45    0.53
   0 -14  -3   -0.15    0.34
 -14   0  -3    0.18    0.35
   0 -14  -3    0.49    0.41
  14   0  -3   -0.06    0.29
  14   0   3   -0.37    0.32
  14   0   3   -0.22    0.24
  14   0   3    0.09    0.30
   0 -14   3    0.06    0.41
  14  -1  -3    8.11    0.70
  -1 -14  -3    8.62    0.75
 -14   1  -3    7.08    0.70
  -1 -14  -3    7.07    0.66
  14  -1   3    8.00    0.57
  14  -1   3    8.70    0.71
  -1 -14   3    7.31    0.73
  14  -1   3    8.64    0.76
  -2 -14  -3    0.80    0.44
 -14   2  -3    0.21    0.35
  14  -2  -3    0.24    0.34
  -2 -14  -3    0.47    0.40
  14  -2   3    0.11    0.36
  -2 -14   3    0.24    0.41
  14  -2   3    0.52    0.34
  14  -3  -3   16.31    0.99
  -3 -14  -3   16.03    0.99
  -3 -14  -3   17.58    1.05
 -14   3  -3   16.41    0.98
  14  -3   3   17.05    1.01
  -3 -14   3   16.08    1.02
  14  -3   3   16.54    0.94
  -4 -14  -3   13.68    0.95
  14  -4  -3   13.06    0.93
  -4 -14  -3   15.11    0.95
 -14   4  -3   14.87    0.92
  14  -4   3   13.49    0.93
  14  -4   3   14.87    0.88
  -4 -14   3   12.85    0.98
  14  -5  -3   44.58    1.89
  -5 -14  -3   46.68    1.90
 -14   5  -3   45.85    1.85
  -5 -14  -3   45.11    1.85
  14  -5   3   44.56    1.79
  -5 -14   3   44.29    1.87
  14  -5   3   45.75    1.89
  14  -6  -3    2.96    0.55
 -14   6  -3    2.14    0.46
  -6 -14  -3    2.36    0.55
  -6 -14  -3    2.37    0.50
  14  -6   3    2.48    0.53
  14  -6   3    2.42    0.48
  -6 -14   3    3.40    0.59
  -7 -14  -3   50.45    2.02
  -7 -14  -3   51.19    2.09
  14  -7  -3   49.39    2.08
 -14   7  -3   51.81    2.04
  14  -7   3   52.23    2.08
  -7 -14   3   48.58    2.03
  14  -7   3   48.02    1.96
  -8 -14  -3    3.67    0.62
  -8 -14  -3    4.15    0.68
  14  -8  -3    3.31    0.62
 -14   8  -3    4.14    0.60
  -8 -14   3    2.45    0.59
  14  -8   3    3.66    0.64
  14  -8   3    3.72    0.56
 -14   9  -3   14.08    0.97
  14  -9  -3   16.05    1.17
  -9 -14  -3   11.23    0.96
  -9 -14  -3   12.43    1.03
  14  -9   3   14.28    0.94
  14  -9   3   15.77    1.09
  -9 -14   3   15.26    1.07
  14 -10  -3    9.80    0.98
 -10 -14  -3    8.49    0.85
 -14  10  -3   11.50    0.94
  10  14  -3   10.83    0.84
 -10 -14  -3    9.05    0.92
  14 -10   3    7.56    0.76
 -10 -14   3    9.94    0.90
  14 -10   3    8.64    0.90
  11  14  -3   -0.18    0.33
 -14  11  -3   -0.23    0.40
 -11 -14  -3    0.34    0.52
 -11 -14  -3    0.29    0.58
  14 -11  -3   -0.12    0.57
  11  14   3   -0.21    0.40
  14 -11   3   -0.32    0.50
 -11 -14   3   -0.32    0.54
 -12 -14  -3   -0.18    0.59
  12  14  -3    0.32    0.37
 -12 -14  -3    0.97    0.57
 -14  12  -3    0.33    0.45
  14 -12  -3    0.49    0.61
  12  14   3   -0.08    0.44
  14 -12   3    0.04    0.57
 -12 -14   3    0.03    0.59
 -13 -14  -3    4.29    0.76
 -13 -14  -3    5.74    0.88
 -14  13  -3    3.72    0.65
  14 -13  -3    4.15    0.86
  13  14  -3    3.33    0.54
 -13 -14   3    4.22    0.80
  13  14   3    3.75    0.70
  14 -13   3    3.40    0.75
 -14  14  -3    2.84    0.63
  14  14  -3    2.85    0.54
  14 -14  -3    2.97    0.78
 -14 -14  -3    0.98    0.73
 -14 -14  -3    2.81    0.72
 -14 -14   3    2.39    0.75
  14 -14   3    2.64    0.75
  14  14   3    2.03    0.62
 -14  15  -3    2.94    0.64
  15  14  -3    2.69    0.57
  14 -15  -3    3.50    0.83
 -15 -14  -3    3.62    0.94
 -15 -14  -3    2.51    0.83
 -15 -14   3    3.78    0.83
  14 -15   3    2.89    0.81
  15  14   3    1.80    0.65
 -15 -13  -3    7.16    0.99
  13 -15  -3    9.10    1.07
 -15 -13  -3    7.01    0.89
 -13  15  -3    7.78    0.86
  15  13  -3    7.02    0.74
  13 -15   3    8.00    1.00
 -15 -13   3    8.38    0.97
  15  13   3    7.28    0.89
 -15 -12  -3    0.71    0.62
  12 -15  -3    1.03    0.66
 -12  15  -3    1.08    0.46
  15  12  -3    0.91    0.44
  12 -15  -3    1.04    0.51
 -15 -12  -3    0.21    0.66
  15  12   3    0.46    0.54
  12 -15   3    1.63    0.69
 -15 -12   3    0.83    0.65
  11 -15  -3    1.41    0.52
 -15 -11  -3    0.89    0.65
  15  11  -3    0.52    0.40
  11 -15  -3    0.90    0.68
 -11  15  -3    0.67    0.43
 -15 -11  -3    0.43    0.58
 -15 -11   3    0.62    0.61
  11 -15   3    0.27    0.59
  15  11   3    1.12    0.55
  10 -15  -3    1.32    0.51
  15  10  -3    0.89    0.40
 -15 -10  -3    1.80    0.66
 -10  15  -3    0.71    0.40
  10 -15  -3   -0.07    0.63
 -15 -10  -3    1.20    0.59
  15  10   3    0.54    0.50
  10 -15   3   -0.03    0.56
 -15 -10   3    1.35    0.60
 -15  -9  -3   -0.27    0.56
  -9  15  -3    0.28    0.33
 -15  -9  -3   -0.43    0.52
  15   9  -3    0.32    0.38
   9 -15  -3    0.19    0.44
   9 -15  -3   -0.79    0.54
 -15  -9   3   -0.12    0.50
  15   9   3    0.30    0.44
   9 -15   3    0.68    0.60
   8 -15  -3    0.33    0.59
  15   8  -3    0.05    0.35
 -15  -8  -3    0.15    0.53
   8 -15  -3   -0.05    0.45
 -15  -8  -3    0.28    0.52
  -8  15  -3    0.56    0.33
   8 -15   3   -0.59    0.51
  15   8   3    0.05    0.39
  15   8   3    0.06    0.42
  15   7  -3    3.56    0.53
   7 -15  -3    2.66    0.66
 -15  -7  -3    3.41    0.67
 -15  -7  -3    3.30    0.65
   7 -15  -3    3.57    0.58
  -7  15  -3    3.14    0.46
   7 -15  -3    2.93    0.56
  15   7   3    3.08    0.55
   7 -15   3    3.05    0.65
  15   7   3    3.14    0.56
 -15  -6  -3    0.60    0.51
   6 -15  -3    0.29    0.52
   6 -15  -3    0.00    0.43
  15   6  -3    0.81    0.37
   6 -15  -3    0.40    0.42
 -15  -6  -3    0.35    0.51
  15   6   3    0.30    0.40
  15   6   3   -0.32    0.37
   6 -15   3    0.64    0.54
 -15  -5  -3    9.61    0.90
   5 -15  -3    9.12    0.79
   5 -15  -3    8.17    0.85
  15   5  -3    8.24    0.73
   5 -15  -3    8.40    0.77
   5 -15   3    6.51    0.80
  15   5   3   10.06    0.89
  15   5   3    8.39    0.81
  15   5   3   10.16    0.85
  15   4  -3   -0.06    0.33
   4 -15  -3    0.00    0.43
 -15  -4  -3   -0.39    0.39
   4 -15  -3    0.15    0.39
   4 -15  -3   -0.21    0.49
  15   4   3    0.28    0.39
   4 -15   3   -0.16    0.47
 -15  -4   3   -0.38    0.38
  15   4   3   -0.08    0.35
  15   4   3    0.58    0.41
  15   3  -3    2.17    0.46
   3 -15  -3    2.19    0.59
   3 -15  -3    2.76    0.53
 -15  -3  -3    3.12    0.58
   3 -15  -3    3.01    0.57
 -15  -3   3    2.31    0.42
  15   3   3    3.14    0.53
  15   3   3    2.60    0.47
  15   3   3    3.39    0.55
   3 -15   3    2.73    0.57
  15   2  -3    0.27    0.37
 -15  -2  -3    1.02    0.44
   2 -15  -3    0.26    0.40
   2 -15  -3    0.64    0.53
   2 -15  -3    0.28    0.44
   2 -15   3    0.76    0.48
  15   2   3    0.85    0.41
  15   2   3    0.60    0.40
  15   2   3    0.59    0.38
 -15  -2   3    0.75    0.34
 -15  -1  -3   45.27    1.89
  15   1  -3   45.49    1.84
   1 -15  -3   44.87    1.85
   1 -15  -3   44.57    1.80
  15   1   3   41.66    1.83
   1 -15   3   43.12    1.89
  15   1   3   45.42    1.83
 -15  -1   3   46.21    1.73
   0 -15  -3    2.34    0.49
  15   0  -3    4.62    0.60
 -15   0  -3    4.22    0.63
   0 -15  -3    4.42    0.63
  15   0   3    4.48    0.59
  15   0   3    3.11    0.54
   0 -15   3    3.59    0.63
 -15   1  -3   26.20    1.33
  15  -1  -3   27.50    1.33
  -1 -15  -3   27.54    1.31
  -1 -15  -3   28.79    1.35
  15  -1   3   26.39    1.33
  -1 -15   3   27.37    1.38
  15  -1   3   25.25    1.25
  -2 -15  -3    0.00    0.44
  -2 -15  -3    0.15    0.39
 -15   2  -3    0.13    0.39
  15  -2  -3    0.30    0.41
  15  -2   3   -0.06    0.38
  -2 -15   3   -0.72    0.42
  15  -2   3    0.17    0.35
  15  -3  -3    1.71    0.50
  -3 -15  -3    3.49    0.59
 -15   3  -3    2.31    0.52
  -3 -15  -3    2.64    0.54
  15  -3   3    2.28    0.49
  15  -3   3    3.14    0.57
  -3 -15   3    2.76    0.58
 -15   4  -3   -0.18    0.34
  15  -4  -3    0.07    0.38
  -4 -15  -3   -0.01    0.43
  -4 -15  -3    0.03    0.46
  15  -4   3    0.37    0.42
  -4 -15   3    0.24    0.46
  15  -4   3   -0.37    0.35
 -15   5  -3    0.57    0.38
  15  -5  -3    0.75    0.48
  -5 -15  -3    0.77    0.51
  -5 -15  -3    0.66    0.44
  15  -5   3    0.38    0.39
  15  -5   3    1.48    0.51
  -5 -15   3    0.98    0.50
  -6 -15  -3    1.04    0.49
 -15   6  -3    1.33    0.47
  -6 -15  -3    1.44    0.58
  15  -6  -3    1.64    0.55
  -6 -15   3    1.35    0.55
  15  -6   3    1.33    0.51
  15  -6   3    0.65    0.43
  -7 -15  -3    0.03    0.47
 -15   7  -3   -0.39    0.38
  -7 -15  -3   -0.33    0.52
  15  -7  -3   -0.25    0.45
  15  -7   3   -0.15    0.42
  15  -7   3    0.03    0.44
  -7 -15   3    0.98    0.52
  15  -8  -3    2.42    0.61
  -8 -15  -3    1.24    0.55
 -15   8  -3    2.21    0.55
  -8 -15  -3    1.98    0.64
  15  -8   3    2.06    0.51
  15  -8   3    2.45    0.58
  -8 -15   3    2.57    0.62
  -9 -15  -3    2.99    0.70
  15  -9  -3    4.11    0.72
 -15   9  -3    5.55    0.73
  -9 -15  -3    5.51    0.72
  15  -9   3    4.73    0.64
  15  -9   3    3.33    0.67
  -9 -15   3    3.80    0.70
 -15  10  -3    0.05    0.43
 -10 -15  -3   -0.20    0.50
 -10 -15  -3    0.43    0.61
  15 -10  -3    0.36    0.59
  15 -10   3   -0.25    0.49
  15 -10   3   -0.53    0.48
 -10 -15   3    0.45    0.56
  15 -11  -3    6.72    0.88
 -11 -15  -3    6.24    0.80
 -15  11  -3    4.95    0.72
 -11 -15  -3    8.48    0.95
 -11 -15   3    6.06    0.83
  15 -11   3    5.80    0.82
  11  15   3    5.34    0.71
 -12 -15  -3    5.30    0.75
 -12 -15  -3    5.22    0.87
  15 -12  -3    5.31    0.88
 -15  12  -3    3.58    0.65
  12  15   3    3.72    0.65
 -12 -15   3    4.78    0.80
  15 -12   3    5.00    0.79
 -13 -15  -3    7.41    0.97
 -15  13  -3    5.91    0.78
 -13 -15  -3    5.60    0.83
  15 -13  -3    8.22    1.04
 -13 -15   3    7.86    0.98
  13  15   3    7.12    0.89
  15 -13   3    7.28    0.91
 -14 -15  -3    0.24    0.74
 -15  14  -3    0.13    0.49
  15 -14  -3   -0.38    0.68
 -14 -15   3    0.78    0.75
  14  15   3    0.05    0.54
  15 -14   3   -0.63    0.58
  15 -15  -3    2.93    0.88
 -15  15  -3    4.81    0.80
 -15 -15  -3    4.41    0.91
  15 -15   3    2.98    0.84
 -15 -15   3    5.49    0.98
  15  15   3    4.77    0.82
 -16 -15  -3   -0.20    0.75
 -15  16  -3    0.38    0.53
  15 -16  -3    0.31    0.81
  15 -16   3    0.67    0.77
  16  15   3    0.11    0.64
 -16 -15   3    0.73    0.84
 -16 -14  -3    1.10    0.81
  16  14  -3    0.79    0.48
  14 -16  -3    1.32    0.77
 -14  16  -3    0.93    0.54
  14 -16   3    0.24    0.68
 -16 -14   3    1.05    0.79
  16  14   3    1.28    0.64
  13 -16  -3    4.04    0.90
 -13  16  -3    3.88    0.67
  16  13  -3    3.56    0.62
 -16 -13  -3    3.29    0.79
 -16 -13  -3    2.90    0.83
 -16 -13   3    3.04    0.82
  13 -16   3    2.83    0.80
  16  13   3    4.07    0.78
 -12  16  -3    1.17    0.51
 -16 -12  -3    2.36    0.78
  16  12  -3    1.94    0.51
 -16 -12  -3    2.48    0.71
  12 -16  -3    1.33    0.67
  12 -16  -3    2.33    0.77
  12 -16   3    1.51    0.72
 -16 -12   3    3.24    0.80
  16  12   3    1.76    0.62
  16  11  -3   10.06    0.87
  11 -16  -3   12.01    0.96
  11 -16  -3    7.93    1.02
 -16 -11  -3   10.01    1.02
 -16 -11  -3   10.34    1.10
 -11  16  -3    8.98    0.84
  11 -16   3    7.40    0.96
  16  11   3   11.49    1.05
 -16 -11   3   10.97    1.05
  10 -16  -3    1.74    0.74
 -10  16  -3    1.05    0.44
 -16 -10  -3    1.75    0.68
  16  10  -3    1.87    0.48
  10 -16  -3    1.52    0.55
 -16 -10  -3    0.12    0.58
  16  10   3    0.80    0.53
  10 -16   3    1.75    0.67
 -16 -10   3    1.05    0.66
   9 -16  -3   24.06    1.50
 -16  -9  -3   22.31    1.42
 -16  -9  -3   19.50    1.33
  16   9  -3   22.61    1.22
  -9  16  -3   21.35    1.15
   9 -16  -3   21.85    1.27
 -16  -9   3   22.93    1.34
   9 -16   3   21.80    1.44
  16   9   3   23.23    1.35
 -16  -8  -3    1.19    0.58
   8 -16  -3    0.47    0.60
  -8  16  -3    0.64    0.35
 -16  -8  -3    0.61    0.59
  16   8  -3    0.79    0.41
   8 -16  -3    1.03    0.53
   8 -16   3    0.46    0.58
  16   8   3   -0.02    0.46
  16   8   3   -0.39    0.39
 -16  -7  -3   29.97    1.58
   7 -16  -3   31.02    1.50
 -16  -7  -3   30.08    1.60
   7 -16  -3   29.83    1.61
  16   7  -3   29.72    1.42
   7 -16   3   29.58    1.60
  16   7   3   29.58    1.47
  16   7   3   29.91    1.50
   6 -16  -3    2.58    0.57
   6 -16  -3    3.04    0.60
   6 -16  -3    2.87    0.68
 -16  -6  -3    2.52    0.66
 -16  -6  -3    1.86    0.59
  16   6  -3    3.29    0.56
   6 -16   3    3.52    0.68
  16   6   3    2.19    0.55
  16   6   3    2.49    0.56
   5 -16  -3   31.95    1.61
 -16  -5  -3   28.82    1.51
   5 -16  -3   30.36    1.46
  16   5  -3   29.27    1.42
   5 -16  -3   29.77    1.41
   5 -16   3   32.20    1.58
  16   5   3   28.06    1.44
  16   5   3   28.48    1.43
   4 -16  -3   -0.28    0.47
   4 -16  -3   -0.61    0.50
  16   4  -3    0.09    0.36
   4 -16  -3   -0.15    0.43
 -16  -4  -3   -0.02    0.45
  16   4   3    0.53    0.42
   4 -16   3    0.56    0.53
  16   4   3   -0.28    0.38
 -16  -3  -3    0.20    0.44
   3 -16  -3    0.54    0.44
   3 -16  -3   -0.09    0.51
   3 -16  -3    0.71    0.50
  16   3  -3    0.21    0.37
  16   3   3    0.45    0.43
 -16  -3   3    0.11    0.36
  16   3   3    0.61    0.42
   3 -16   3    0.13    0.51
   2 -16  -3    8.00    0.81
  16   2  -3    8.95    0.81
   2 -16  -3    8.90    0.78
   2 -16  -3    7.20    0.84
 -16  -2  -3    8.26    0.84
   2 -16   3    9.50    0.90
  16   2   3    8.60    0.81
  16   2   3   10.40    0.85
 -16  -2   3    8.95    0.72
   1 -16  -3    1.35    0.45
  16   1  -3    0.61    0.43
   1 -16  -3    1.72    0.54
 -16  -1  -3    1.06    0.45
  16   1   3    1.38    0.46
  16   1   3    0.98    0.44
 -16  -1   3    2.00    0.44
   1 -16   3    1.46    0.58
 -16   0  -3   -0.36    0.35
  16   0  -3    0.17    0.43
   0 -16  -3   -0.66    0.45
   0 -16  -3    0.32    0.42
  16   0   3    0.37    0.41
  16   0   3    0.30    0.43
   0 -16   3    0.04    0.49
  -1 -16  -3    4.26    0.65
  16  -1  -3    2.20    0.50
  -1 -16  -3    3.65    0.56
 -16   1  -3    2.64    0.55
  16  -1   3    3.68    0.56
  16  -1   3    2.61    0.55
  -1 -16   3    2.06    0.60
  -2 -16  -3    0.86    0.52
  16  -2  -3    0.14    0.41
  -2 -16  -3    0.24    0.44
 -16   2  -3    0.32    0.41
  -2 -16   3    0.12    0.50
  16  -2   3    0.18    0.39
  16  -2   3    0.84    0.45
  -3 -16  -3    6.46    0.77
 -16   3  -3    7.19    0.78
  -3 -16  -3    7.48    0.76
  16  -3  -3    5.23    0.68
  16  -3   3    5.93    0.72
  -3 -16   3    6.74    0.79
  16  -3   3    7.21    0.73
 -16   4  -3    0.77    0.45
  -4 -16  -3    0.75    0.52
  -4 -16  -3    0.81    0.48
  16  -4  -3    0.68    0.48
  -4 -16   3   -0.05    0.51
  16  -4   3    0.59    0.42
  16  -4   3    0.07    0.42
  -5 -16  -3   20.95    1.25
  16  -5  -3   18.81    1.21
  -5 -16  -3   18.90    1.14
 -16   5  -3   21.44    1.18
  16  -5   3   18.59    1.09
  16  -5   3   20.49    1.22
  -5 -16   3   19.32    1.26
  -6 -16  -3    0.87    0.51
  -6 -16  -3    1.51    0.60
 -16   6  -3    0.55    0.41
  16  -6  -3    1.02    0.55
  16  -6   3    0.90    0.46
  -6 -16   3    1.77    0.60
  16  -6   3    1.16    0.52
  16  -7  -3   29.23    1.59
 -16   7  -3   30.54    1.52
  -7 -16  -3   33.56    1.63
  -7 -16  -3   34.04    1.54
  -7 -16   3   34.05    1.61
  16  -7   3   29.27    1.53
  16  -7   3   29.80    1.49
  -8 -16  -3    0.35    0.50
  -8 -16  -3    0.42    0.60
 -16   8  -3    0.33    0.41
  16  -8  -3   -0.36    0.52
  16  -8   3    1.06    0.54
  -8 -16   3    0.80    0.59
  16  -8   3    0.63    0.48
  -9 -16  -3   22.52    1.38
 -16   9  -3   18.90    1.21
  16  -9  -3   20.55    1.35
  -9 -16  -3   19.60    1.22
  16  -9   3   18.79    1.22
  16  -9   3   19.32    1.25
  -9 -16   3   21.64    1.36
 -16  10  -3    1.55    0.55
  16 -10  -3    1.14    0.69
 -10 -16  -3    1.03    0.67
 -10 -16  -3   -0.18    0.51
  16 -10   3    0.55    0.83
 -10 -16   3    1.22    0.64
  16 -10   3    0.93    0.57
 -11 -16  -3    2.69    0.67
 -11 -16  -3    3.19    0.78
  16 -11  -3    4.58    0.82
 -16  11  -3    3.58    0.67
 -11 -16   3    4.54    0.80
  16 -11   3    2.91    0.70
  11  16   3    5.86    0.81
 -12 -16  -3    0.71    0.72
  16 -12  -3   -0.43    0.68
 -16  12  -3    0.51    0.49
  16 -12   3    1.16    0.66
  12  16   3    0.25    0.53
 -12 -16   3    0.65    0.66
 -13 -16  -3   -0.01    0.70
 -16  13  -3    0.06    0.48
  16 -13  -3    1.40    0.78
  16 -13   3    1.20    0.67
  13  16   3   -0.11    0.53
 -13 -16   3   -0.14    0.71
 -16  14  -3   -0.24    0.49
  16 -14  -3    0.09    0.76
 -14 -16  -3    0.24    0.74
  16 -14   3   -0.54    0.65
  14  16   3   -0.05    0.56
 -14 -16   3   -0.52    0.74
 -16  15  -3    1.56    0.61
 -15 -16  -3    2.05    0.83
  16 -15  -3    2.39    0.91
  15  16   3    2.88    0.74
  16 -15   3    1.47    0.75
 -15 -16   3    3.16    0.92
 -17 -14  -3    1.59    0.86
 -14  17  -3    1.74    0.63
  14 -17  -3    2.76    0.88
  17  14  -3    1.53    0.55
  14 -17   3    2.70    0.87
  17  14   3    4.01    0.81
 -17 -14   3    2.37    0.88
 -17 -13  -3    8.58    1.08
  13 -17  -3    7.41    1.09
 -13  17  -3    5.52    0.76
  17  13  -3    6.73    0.79
  17  13   3    7.44    0.93
  13 -17   3    5.17    0.93
 -17 -13   3    8.01    1.04
  12 -17  -3    1.74    0.81
  17  12  -3    0.56    0.49
 -17 -12  -3    1.13    0.76
 -12  17  -3    1.91    0.53
 -17 -12  -3    0.51    0.69
 -17 -12   3    0.93    0.78
  12 -17   3    0.77    0.73
  17  12   3    1.36    0.64
  11 -17  -3   -0.13    0.53
 -17 -11  -3    0.11    0.70
 -11  17  -3    0.05    0.41
  11 -17  -3    0.01    0.73
  17  11  -3    0.14    0.46
 -17 -11  -3    0.24    0.60
 -17 -11   3   -0.39    0.66
  17  11   3    0.08    0.56
  11 -17   3    0.17    0.66
 -10  17  -3    1.83    0.49
  10 -17  -3    2.59    0.63
 -17 -10  -3    2.30    0.73
  17  10  -3    1.24    0.47
 -17 -10  -3    1.95    0.77
  10 -17  -3    2.63    0.77
  10 -17   3    1.62    0.72
  17  10   3    1.41    0.64
 -17 -10   3    1.38    0.72
 -17  -9  -3    0.00    0.57
  17   9  -3    1.28    0.47
 -17  -9  -3   -0.28    0.64
   9 -17  -3    1.05    0.55
   9 -17  -3    0.27    0.66
 -17  -9   3   -0.24    0.61
   9 -17   3    0.09    0.64
  17   9   3    0.95    0.56
 -17  -8  -3    0.02    0.56
  17   8  -3    0.32    0.42
   8 -17  -3   -0.66    0.60
   8 -17  -3    0.72    0.56
 -17  -8  -3    0.70    0.65
  17   8   3    0.56    0.53
  17   8   3    0.32    0.49
   8 -17   3    0.60    0.64
   7 -17  -3   -0.07    0.54
   7 -17  -3    0.25    0.66
 -17  -7  -3    0.00    0.58
 -17  -7  -3    0.13    0.61
  17   7  -3   -0.02    0.40
   7 -17   3   -0.57    0.56
  17   7   3    0.46    0.49
  17   7   3    0.16    0.45
 -17  -6  -3    0.93    0.59
 -17  -6  -3    0.62    0.61
   6 -17  -3    0.87    0.55
  17   6  -3    0.66    0.45
   6 -17  -3    0.85    0.51
   6 -17  -3    0.62    0.64
   6 -17   3    0.57    0.57
  17   6   3    0.93    0.50
  17   6   3    0.88    0.51
  17   5  -3    6.71    0.74
 -17  -5  -3    7.41    0.88
   5 -17  -3    9.34    0.89
   5 -17  -3    7.44    0.93
   5 -17  -3    7.94    0.80
  17   5   3    8.07    0.85
   5 -17   3    8.62    0.90
  17   5   3    8.79    0.84
   4 -17  -3    1.15    0.58
   4 -17  -3    1.22    0.65
 -17  -4  -3    1.51    0.58
   4 -17  -3    0.94    0.48
  17   4  -3    1.34    0.47
  17   4   3    1.33    0.52
   4 -17   3    0.72    0.58
  17   4   3    1.03    0.49
   3 -17  -3   -0.09    0.52
   3 -17  -3    0.25    0.46
 -17  -3  -3    0.72    0.51
   3 -17  -3   -0.12    0.56
  17   3  -3    0.22    0.40
  17   3   3    0.27    0.43
   3 -17   3    0.10    0.54
  17   3   3    0.28    0.46
 -17  -2  -3    0.26    0.47
   2 -17  -3    0.65    0.49
  17   2  -3    0.43    0.42
   2 -17  -3    0.28    0.52
   2 -17   3    0.21    0.54
 -17  -2   3    0.02    0.37
  17   2   3    0.88    0.47
  17   2   3    0.34    0.45
  17   1  -3    2.81    0.57
   1 -17  -3    3.05    0.58
 -17  -1  -3    1.69    0.54
   1 -17  -3    2.13    0.62
 -17  -1   3    2.33    0.47
  17   1   3    2.49    0.54
   1 -17   3    3.34    0.69
  17   1   3    3.65    0.60
 -17   0  -3    1.88    0.55
  17   0  -3    3.10    0.60
   0 -17  -3    2.97    0.66
   0 -17  -3    2.16    0.53
  17   0   3    2.85    0.60
   0 -17   3    1.87    0.63
  17   0   3    2.15    0.52
 -17   0   3    2.39    0.49
 -17   1  -3   13.72    1.01
  -1 -17  -3   14.52    1.12
  17  -1  -3   14.68    1.03
  -1 -17  -3   13.71    0.94
  17  -1   3   13.04    0.99
  -1 -17   3   13.24    1.10
  17  -1   3   12.41    0.99
 -17   2  -3    1.35    0.51
  17  -2  -3    2.51    0.58
  -2 -17  -3    2.25    0.63
  -2 -17  -3    2.35    0.54
  17  -2   3    1.56    0.54
  -2 -17   3    1.58    0.63
  17  -2   3    1.35    0.51
 -17   3  -3    0.02    0.44
  17  -3  -3   -0.52    0.45
  -3 -17  -3   -0.02    0.52
  -3 -17  -3    0.35    0.49
  17  -3   3    0.54    0.45
  -3 -17   3   -0.24    0.54
  17  -3   3    0.26    0.45
  17  -4  -3    0.27    0.46
 -17   4  -3    0.19    0.46
  -4 -17  -3    1.41    0.60
  -4 -17  -3    0.04    0.44
  17  -4   3    0.01    0.44
  -4 -17   3    0.18    0.56
  17  -4   3    0.01    0.44
 -17   5  -3    1.16    0.48
  17  -5  -3    1.49    0.57
  -5 -17  -3    2.00    0.57
  -5 -17  -3    1.48    0.65
  17  -5   3    1.53    0.54
  -5 -17   3    2.04    0.64
  17  -5   3    1.60    0.54
  -6 -17  -3    0.26    0.61
  17  -6  -3   -0.57    0.52
  -6 -17  -3    0.63    0.51
 -17   6  -3    0.49    0.47
  -6 -17   3   -0.21    0.58
  17  -6   3    0.28    0.46
  17  -6   3    0.30    0.47
  -7 -17  -3   -0.25    0.48
  -7 -17  -3   -1.26    0.59
  17  -7  -3    0.55    0.57
 -17   7  -3    0.80    0.51
  17  -7   3   -0.41    0.46
  17  -7   3    0.63    0.55
  -7 -17   3   -0.28    0.58
  -8 -17  -3    0.82    0.67
 -17   8  -3    1.06    0.51
  -8 -17  -3    0.95    0.57
  17  -8  -3    0.76    0.61
  17  -8   3    1.22    0.55
  17  -8   3    0.30    0.55
  -8 -17   3    1.23    0.67
  -9 -17  -3    2.30    0.74
 -17   9  -3    1.69    0.60
  -9 -17  -3    2.77    0.65
  17  -9  -3    1.36    0.70
  17  -9   3    2.08    0.60
  -9 -17   3    3.40    0.76
  17  -9   3    2.78    0.69
 -10 -17  -3    2.15    0.75
 -17  10  -3    1.71    0.60
  17 -10  -3    0.54    0.75
 -10 -17   3    1.81    0.72
  17 -10   3    1.63    0.63
  17 -11  -3    1.93    0.78
 -17  11  -3    0.78    0.53
 -11 -17  -3    1.91    0.77
  17 -11   3    0.75    0.60
  11  17   3    1.08    0.57
 -11 -17   3    1.13    0.73
 -17  12  -3    2.20    0.64
 -12 -17  -3    2.09    0.80
  17 -12  -3    1.80    0.82
  12  17   3    1.77    0.61
 -12 -17   3    2.81    0.82
  17 -12   3    2.23    0.72
 -13 -17  -3   16.58    1.40
 -17  13  -3   15.59    1.26
  17 -13  -3   16.59    1.43
  13  17   3   17.15    1.33
 -13 -17   3   15.60    1.32
  17 -13   3   10.58    1.12
 -17  14  -3    0.36    0.57
 -14 -17  -3    1.16    0.80
  17 -14  -3    0.39    0.80
  17 -14   3    0.02    0.65
  14  17   3    0.38    0.59
 -14 -17   3    1.10    0.79
  18  13  -3    0.42    0.54
 -13  18  -3    1.61    0.57
 -18 -13  -3    0.65    0.81
  13 -18  -3    1.08    0.86
  13 -18   3    1.50    0.81
 -18 -13   3    1.54    0.85
  18  13   3    1.49    0.71
  12 -18  -3    5.07    0.97
 -18 -12  -3    4.44    0.91
  18  12  -3    3.40    0.65
 -18 -12  -3    3.57    0.90
 -12  18  -3    3.43    0.65
  12 -18   3    3.82    0.90
 -18 -12   3    5.22    0.96
  18  12   3    3.94    0.83
 -18 -11  -3    0.55    0.69
  11 -18  -3    0.92    0.65
 -18 -11  -3    1.16    0.78
  11 -18  -3    1.19    0.78
  18  11  -3    0.66    0.49
  11 -18   3    0.63    0.72
  18  11   3    0.28    0.64
 -18 -11   3    0.93    0.76
  18  10  -3    6.92    0.79
  10 -18  -3    7.03    0.85
 -18 -10  -3    6.23    0.92
  10 -18  -3    6.06    0.95
 -18 -10  -3    7.81    1.06
 -18 -10   3    7.33    1.00
  10 -18   3    6.45    0.97
  18  10   3    5.33    0.83
   9 -18  -3    4.40    0.89
   9 -18  -3    5.03    0.76
 -18  -9  -3    4.61    0.84
 -18  -9  -3    4.08    0.86
  18   9  -3    4.86    0.68
 -18  -9   3    3.49    0.81
  18   9   3    5.67    0.82
   9 -18   3    4.46    0.89
 -18  -8  -3    6.76    0.92
   8 -18  -3    7.35    0.98
   8 -18  -3    9.44    0.95
  18   8  -3    6.89    0.79
 -18  -8  -3    8.00    1.01
  18   8   3    8.27    0.92
  18   8   3    7.37    0.86
   8 -18   3    7.10    0.97
 -18  -7  -3   10.45    1.07
   7 -18  -3   11.06    0.99
 -18  -7  -3    7.33    0.96
   7 -18  -3    8.51    1.01
  18   7  -3    9.18    0.88
   7 -18   3    8.68    1.00
  18   7   3    9.81    0.94
  18   7   3    8.53    0.91
 -18  -6  -3   11.74    1.10
  18   6  -3   11.34    0.95
   6 -18  -3   11.15    0.99
 -18  -6  -3   13.09    1.16
   6 -18  -3    8.40    1.01
   6 -18  -3    9.27    0.88
  18   6   3   11.40    1.01
   6 -18   3    9.77    1.05
  18   6   3   10.41    0.97
 -18  -5  -3    8.26    0.95
   5 -18  -3   10.42    0.92
  18   5  -3    8.64    0.84
   5 -18  -3   10.09    1.05
   5 -18  -3    9.45    0.94
  18   5   3    9.18    0.91
   5 -18   3    8.09    0.98
  18   5   3    9.37    0.93
 -18  -4  -3    0.69    0.59
  18   4  -3    2.01    0.56
   4 -18  -3    2.37    0.72
   4 -18  -3    2.68    0.70
   4 -18  -3    3.32    0.63
  18   4   3    1.36    0.59
   4 -18   3    1.95    0.71
  18   4   3    1.79    0.53
 -18  -3  -3    1.47    0.59
   3 -18  -3    1.36    0.50
   3 -18  -3    1.61    0.67
  18   3  -3    0.30    0.44
   3 -18  -3    1.00    0.62
   3 -18   3    0.71    0.63
  18   3   3    1.19    0.57
  18   3   3    0.79    0.50
   2 -18  -3    1.00    0.61
 -18  -2  -3    1.02    0.53
   2 -18  -3    1.30    0.51
  18   2  -3    0.83    0.46
   2 -18   3    0.95    0.62
  18   2   3    0.77    0.52
 -18  -2   3    0.71    0.44
  18   2   3   -0.40    0.42
   1 -18  -3    0.23    0.59
  18   1  -3   -0.33    0.42
 -18  -1  -3    0.21    0.50
   1 -18  -3    0.05    0.47
  18   1   3    0.44    0.47
 -18  -1   3    0.00    0.41
   1 -18   3   -0.31    0.60
  18   1   3    0.10    0.46
   0 -18  -3    0.91    0.62
 -18   0  -3   -0.21    0.48
   0 -18  -3    0.13    0.48
  18   0  -3    0.41    0.50
   0 -18   3    0.55    0.61
 -18   0   3    1.00    0.45
  18   0   3    0.92    0.53
  18   0   3    0.60    0.50
 -18   1  -3    2.56    0.61
  18  -1  -3    2.74    0.61
  -1 -18  -3    3.28    0.74
  -1 -18  -3    2.87    0.61
  -1 -18   3    3.57    0.75
  18  -1   3    2.70    0.58
  18  -1   3    2.88    0.64
 -18   1   3    3.76    0.59
 -18   2  -3   15.02    1.13
  -2 -18  -3   16.29    1.20
  18  -2  -3   13.72    1.11
  -2 -18  -3   15.19    1.05
  18  -2   3   15.72    1.11
  -2 -18   3   13.96    1.19
  18  -2   3   16.78    1.14
  18  -3  -3    0.62    0.56
 -18   3  -3    1.54    0.59
  -3 -18  -3    1.22    0.53
  -3 -18  -3    1.63    0.68
  18  -3   3    1.84    0.59
  -3 -18   3    1.40    0.68
  18  -3   3    2.28    0.60
  -4 -18  -3    3.11    0.61
  18  -4  -3    2.02    0.63
  -4 -18  -3    3.34    0.75
 -18   4  -3    1.61    0.55
  18  -4   3    2.77    0.61
  -4 -18   3    1.66    0.67
  18  -4   3    2.15    0.59
  -5 -18  -3   16.59    1.10
  -5 -18  -3   16.10    1.24
 -18   5  -3   14.81    1.13
  18  -5  -3   16.43    1.23
  -5 -18   3   16.86    1.27
  18  -5   3   14.82    1.07
  18  -5   3   14.78    1.13
  -6 -18  -3    3.20    0.77
 -18   6  -3    3.75    0.68
  -6 -18  -3    3.10    0.64
  18  -6  -3    2.60    0.69
  18  -6   3    3.24    0.67
  -6 -18   3    3.01    0.73
  18  -6   3    3.92    0.68
  18  -7  -3   11.22    1.06
 -18   7  -3   12.91    1.13
  -7 -18  -3   12.94    1.05
  -7 -18  -3   16.07    1.25
  18  -7   3   11.43    1.06
  -7 -18   3    9.51    1.07
  18  -7   3   11.58    1.01
  -8 -18  -3    3.68    0.83
  18  -8  -3    4.90    0.85
  -8 -18  -3    6.24    1.02
 -18   8  -3    5.17    0.77
  18  -8   3    6.02    0.84
  -8 -18   3    4.75    0.86
  18  -8   3    6.98    0.81
  -9 -18  -3    9.03    1.02
  18  -9  -3    7.92    1.01
 -18   9  -3    7.29    0.92
  18  -9   3    7.21    0.87
  18  -9   3    4.51    0.79
  -9 -18   3    8.30    1.00
 -10 -18  -3    0.16    0.71
 -18  10  -3    0.88    0.57
  18 -10  -3   -0.25    0.71
 -10 -18   3    0.69    0.72
  18 -10   3   -0.02    0.57
  18 -11  -3    2.92    0.86
 -18  11  -3    3.91    0.76
 -11 -18  -3    2.75    0.86
  18 -11   3    3.19    0.74
 -11 -18   3    3.36    0.86
  11  18   3    3.04    0.69
  18 -12  -3    1.47    0.84
 -12 -18  -3    0.62    0.78
 -18  12  -3    1.17    0.56
 -12 -18   3    1.05    0.81
  18 -12   3    0.56    0.64
  12  18   3    0.85    0.63
 -18  13  -3    0.72    0.59
  18 -13  -3   -0.62    0.76
 -13 -18  -3    0.83    0.81
  13  18   3   -1.00    0.53
 -13 -18   3    2.07    0.87
  18 -13   3    0.69    0.65
  19  11  -3    0.89    0.53
 -19 -11  -3    0.27    0.72
  11 -19  -3    0.66    0.77
 -19 -11  -3    0.36    0.75
  11 -19   3    0.04    0.75
 -19 -11   3    0.04    0.77
  19  11   3    0.35    0.62
 -19 -10  -3    4.30    0.95
 -19 -10  -3    1.77    0.76
  10 -19  -3    2.83    0.90
  10 -19  -3    4.33    0.78
  19  10  -3    1.79    0.58
  10 -19   3    2.50    0.86
  19  10   3    3.25    0.76
 -19 -10   3    4.18    0.91
  19   9  -3   -0.11    0.46
 -19  -9  -3   -0.30    0.63
   9 -19  -3    0.61    0.62
 -19  -9  -3   -0.68    0.69
   9 -19  -3   -0.09    0.75
 -19  -9   3    0.09    0.74
   9 -19   3   -0.52    0.71
  19   9   3   -0.04    0.56
   8 -19  -3    0.12    0.61
 -19  -8  -3    0.36    0.64
  19   8  -3   -0.18    0.46
   8 -19  -3   -0.29    0.73
 -19  -8  -3   -0.41    0.70
  19   8   3    0.69    0.59
  19   8   3    0.53    0.54
   8 -19   3    0.59    0.73
   7 -19  -3    5.06    0.81
  19   7  -3    3.20    0.63
   7 -19  -3    2.21    0.82
 -19  -7  -3    4.06    0.90
 -19  -7  -3    1.87    0.74
  19   7   3    3.80    0.73
   7 -19   3    3.50    0.82
  19   7   3    2.28    0.62
   6 -19  -3   11.19    1.17
 -19  -6  -3   18.06    1.38
   6 -19  -3   11.60    1.08
 -19  -6  -3   12.60    1.19
  19   6  -3   10.74    0.99
   6 -19   3   13.47    1.23
  19   6   3   11.93    1.07
  19   6   3   12.59    1.09
  19   5  -3    6.66    0.79
   5 -19  -3    7.51    0.99
 -19  -5  -3    7.65    0.95
   5 -19  -3    7.95    0.93
   5 -19  -3    7.28    0.82
  19   5   3    7.18    0.90
  19   5   3    5.56    0.79
   5 -19   3    4.95    0.89
  19   4  -3   11.86    1.01
 -19  -4  -3   13.67    1.20
   4 -19  -3   15.07    1.18
   4 -19  -3   11.59    1.15
   4 -19  -3   10.53    0.95
   4 -19   3   10.22    1.11
  19   4   3   13.74    1.08
  19   4   3   12.14    1.07
   3 -19  -3    3.63    0.78
   3 -19  -3    3.68    0.63
 -19  -3  -3    2.13    0.69
  19   3  -3    2.63    0.62
  19   3   3    3.37    0.70
  19   3   3    2.86    0.67
   3 -19   3    3.88    0.81
   2 -19  -3   13.80    1.01
   2 -19  -3   13.38    1.12
 -19  -2  -3   12.58    1.12
  19   2  -3   11.47    1.04
  19   2   3   14.43    1.11
   2 -19   3   11.59    1.12
  19   2   3   13.78    1.14
   1 -19  -3   20.16    1.17
   1 -19  -3   18.24    1.31
 -19  -1  -3   17.05    1.28
  19   1  -3   19.15    1.26
  19   1   3   21.97    1.32
 -19  -1   3   18.02    1.11
   1 -19   3   20.98    1.40
  19   1   3   17.44    1.20
 -19   0  -3    5.17    0.80
   0 -19  -3    5.69    0.85
   0 -19  -3    6.44    0.77
  19   0  -3    5.33    0.81
 -19   0   3    4.69    0.68
   0 -19   3    6.86    0.93
  19   0   3    6.79    0.84
  19   0   3    5.68    0.77
  -1 -19  -3    0.67    0.53
  19  -1  -3    1.03    0.56
  -1 -19  -3    0.93    0.67
 -19   1  -3    0.70    0.53
  19  -1   3    0.92    0.54
  19  -1   3    0.09    0.52
  -1 -19   3    1.68    0.73
 -19   1   3    0.77    0.49
 -19   2  -3    0.77    0.57
  19  -2  -3    0.70    0.57
  -2 -19  -3    1.57    0.70
  -2 -19  -3    1.18    0.54
  19  -2   3    1.20    0.55
  19  -2   3    0.86    0.56
 -19   2   3    0.57    0.46
  -2 -19   3    1.29    0.71
  19  -3  -3    4.81    0.75
  -3 -19  -3    4.34    0.68
 -19   3  -3    4.01    0.72
  -3 -19  -3    2.44    0.75
  -3 -19   3    3.04    0.81
  19  -3   3    2.63    0.61
  19  -3   3    4.58    0.75
 -19   4  -3    7.58    0.93
  19  -4  -3    8.42    0.93
  -4 -19  -3    9.46    1.03
  -4 -19  -3    9.34    0.89
  -4 -19   3    9.41    1.04
  19  -4   3    8.34    0.93
  19  -4   3    7.82    0.87
 -19   5  -3    1.51    0.61
  -5 -19  -3    1.77    0.73
  19  -5  -3    0.83    0.64
  -5 -19  -3    1.52    0.59
  19  -5   3    0.85    0.55
  -5 -19   3    1.69    0.74
  19  -5   3    0.54    0.56
  19  -6  -3    0.22    0.67
  -6 -19  -3    0.86    0.63
 -19   6  -3   -0.07    0.51
  -6 -19  -3    0.48    0.69
  19  -6   3   -0.18    0.54
  -6 -19   3   -0.01    0.69
  19  -6   3   -0.07    0.52
  -7 -19  -3   -1.22    0.67
 -19   7  -3   -0.09    0.50
  19  -7  -3    0.00    0.64
  19  -7   3   -0.34    0.52
  19  -7   3    0.04    0.53
  -7 -19   3   -0.15    0.65
 -19   8  -3    1.55    0.61
  19  -8  -3    1.92    0.80
  -8 -19  -3    0.29    0.74
  19  -8   3    1.07    0.64
  -8 -19   3    0.00    0.74
  19  -8   3    1.72    0.65
 -19   9  -3    0.42    0.59
  19  -9  -3    0.37    0.76
  -9 -19  -3    0.06    0.73
  19  -9   3    0.20    0.61
  19  -9   3   -0.64    0.59
  -9 -19   3    0.39    0.75
 -19  10  -3    2.63    0.74
 -10 -19  -3    1.62    0.81
  19 -10  -3    1.78    0.86
  19 -10   3    2.25    0.71
 -10 -19   3    2.01    0.85
 -19  11  -3    2.28    0.68
 -11 -19  -3    2.78    0.88
  19 -11  -3    3.33    0.93
  19 -11   3    2.82    0.78
 -11 -19   3    2.09    0.88
  11  19   3    0.83    0.62
 -20 -10  -3    6.70    1.03
   9 -20  -3    0.84    0.67
 -20  -9  -3    1.03    0.75
   9 -20  -3    1.21    0.81
  20   9  -3    0.53    0.57
 -20  -9  -3    1.50    0.84
 -20  -9   3    3.80    0.92
   9 -20   3    0.85    0.83
  20   9   3    1.35    0.70
 -20  -8  -3    4.30    0.88
   8 -20  -3    7.37    0.95
  20   8  -3    6.69    0.85
   8 -20  -3    6.28    1.02
 -20  -8  -3    7.34    1.06
   8 -20   3    7.30    1.04
  20   8   3    7.97    0.98
   7 -20  -3    1.14    0.81
   7 -20  -3    1.72    0.73
 -20  -7  -3    1.66    0.82
 -20  -7  -3    2.25    0.76
  20   7  -3    1.97    0.62
   7 -20   3    0.61    0.78
  20   7   3    1.27    0.60
  20   7   3    1.70    0.72
   6 -20  -3    3.57    0.79
   6 -20  -3    3.23    0.89
 -20  -6  -3    4.20    0.93
 -20  -6  -3    2.97    0.83
  20   6  -3    3.52    0.67
   6 -20   3    2.24    0.82
  20   6   3    2.21    0.65
  20   6   3    4.15    0.81
 -20  -5  -3    3.01    0.77
  20   5  -3    2.36    0.64
   5 -20  -3    2.86    0.66
   5 -20  -3    4.70    0.82
   5 -20  -3    2.75    0.88
  20   5   3    2.27    0.71
  20   5   3    1.98    0.64
   5 -20   3    3.01    0.84
   4 -20  -3    6.31    0.79
  20   4  -3    6.02    0.80
   4 -20  -3    7.73    0.92
 -20  -4  -3    4.23    0.85
  20   4   3    6.59    0.85
   4 -20   3    5.87    0.97
  20   4   3    6.40    0.89
   3 -20  -3    0.39    0.67
 -20  -3  -3   -0.29    0.57
   3 -20  -3    0.89    0.57
  20   3  -3   -0.10    0.45
   3 -20   3    0.31    0.73
  20   3   3    0.45    0.58
  20   3   3    0.84    0.55
  20   2  -3    0.19    0.53
   2 -20  -3    0.63    0.55
 -20  -2  -3   -0.26    0.60
   2 -20  -3    0.67    0.70
  20   2   3   -0.90    0.48
   2 -20   3    0.22    0.69
  20   2   3    0.25    0.52
   1 -20  -3    0.56    0.67
   1 -20  -3    0.29    0.55
  20   1  -3    0.53    0.55
 -20  -1  -3   -0.30    0.58
  20   1   3   -0.42    0.48
 -20  -1   3    0.50    0.52
  20   1   3   -0.42    0.52
   1 -20   3    1.15    0.72
   0 -20  -3    3.64    0.81
  20   0  -3    4.31    0.81
   0 -20  -3    3.17    0.67
 -20   0  -3    5.34    0.86
 -20   0   3    3.73    0.68
  20   0   3    5.76    0.80
  20   0   3    5.15    0.80
   0 -20   3    2.83    0.83
  20  -1  -3    1.72    0.65
  -1 -20  -3    0.22    0.70
  -1 -20  -3    0.00    0.55
 -20   1  -3    0.35    0.58
  20  -1   3    0.49    0.56
  20  -1   3    1.05    0.60
 -20   1   3    0.80    0.53
  -1 -20   3    0.39    0.70
 -20   2  -3    5.19    0.83
  20  -2  -3    6.17    0.88
  -2 -20  -3    4.36    0.72
  -2 -20  -3    5.04    0.91
  20  -2   3    4.46    0.80
 -20   2   3    5.82    0.78
  -2 -20   3    5.13    0.91
  20  -2   3    5.61    0.83
  -3 -20  -3    3.78    0.84
 -20   3  -3    2.81    0.72
  20  -3  -3    4.22    0.82
  -3 -20  -3    3.22    0.67
  -3 -20   3    2.46    0.83
  20  -3   3    3.27    0.70
  20  -3   3    3.69    0.74
 -20   3   3    3.00    0.66
  20  -4  -3    8.51    1.05
 -20   4  -3    7.39    0.94
  -4 -20  -3    7.56    0.99
  -4 -20  -3    8.08    1.00
  -4 -20   3    6.41    1.00
  20  -4   3    7.76    0.93
  20  -4   3    8.22    0.93
 -20   4   3    8.24    0.91
  -5 -20  -3    3.29    0.87
  20  -5  -3    1.87    0.72
 -20   5  -3    3.44    0.73
  20  -5   3    2.30    0.69
  -5 -20   3    3.46    0.85
  20  -5   3    2.30    0.68
 -20   6  -3    8.06    0.96
  20  -6  -3   10.26    1.15
  -6 -20  -3    8.85    1.08
  20  -6   3   10.98    1.05
  -6 -20   3    8.00    1.04
  20  -6   3    6.79    0.89
 -20   7  -3    3.01    0.74
  20  -7  -3    4.45    0.93
  -7 -20  -3    3.98    0.90
  20  -7   3    2.83    0.69
  20  -7   3    5.41    0.83
  -7 -20   3    5.72    0.94
 -20   8  -3    6.57    0.88
  20  -8  -3    6.27    1.01
  -8 -20  -3    5.71    1.01
  20  -8   3    4.92    0.81
  20  -8   3    6.71    0.91
  -8 -20   3    5.64    0.97
  -9 -20  -3    0.90    0.80
 -20   9  -3    0.55    0.63
  20  -9  -3    1.41    0.81
  20  -9   3    0.26    0.61
  20  -9   3    0.39    1.23
  -9 -20   3    0.02    0.81
  21   7  -3    0.34    0.56
 -21  -7  -3    0.19    0.75
   7 -21  -3    0.72    0.82
   7 -21  -3    0.74    0.72
 -21  -7  -3    0.81    0.81
  21   7   3   -1.04    0.58
   7 -21   3   -0.02    0.79
  21   7   3   -0.07    0.53
   6 -21  -3    1.61    0.87
   6 -21  -3    1.94    0.75
  21   6  -3    2.69    0.69
 -21  -6  -3    2.15    0.79
 -21  -6  -3    1.61    0.87
  21   6   3    2.43    0.65
  21   6   3    2.96    0.78
   6 -21   3    2.38    0.90
  21   5  -3    0.97    0.58
 -21  -5  -3    0.03    0.67
   5 -21  -3    2.47    0.78
   5 -21  -3    1.08    0.80
   5 -21   3    0.40    0.79
  21   5   3   -0.05    0.64
  21   5   3    1.04    0.58
   4 -21  -3    8.27    0.90
 -21  -4  -3    7.33    1.03
  21   4  -3    9.12    0.98
   4 -21  -3    9.24    1.04
  21   4   3    9.37    1.06
  21   4   3    9.31    1.00
   4 -21   3    8.43    1.09
   3 -21  -3    3.00    0.81
   3 -21  -3    2.49    0.67
 -21  -3  -3    2.28    0.76
  21   3  -3    3.06    0.71
  21   3   3    3.36    0.79
  21   3   3    1.84    0.64
   3 -21   3    3.70    0.89
  21   2  -3   16.91    1.37
 -21  -2  -3   16.33    1.35
   2 -21  -3   17.00    1.21
   2 -21  -3   15.59    1.32
  21   2   3   16.32    1.23
   2 -21   3   15.91    1.35
  21   2   3   18.75    1.31
   1 -21  -3    1.74    0.79
  21   1  -3    2.02    0.69
 -21  -1  -3    1.42    0.70
   1 -21  -3    1.62    0.59
  21   1   3    2.25    0.69
   1 -21   3    2.49    0.85
  21   1   3    1.31    0.63
   0 -21  -3    3.06    0.68
   0 -21  -3    2.87    0.85
 -21   0  -3    1.92    0.71
  21   0  -3    2.25    0.73
 -21   0   3    2.59    0.65
   0 -21   3    2.42    0.85
  21   0   3    3.13    0.72
  21   0   3    2.76    0.69
  21  -1  -3    2.52    0.76
  -1 -21  -3    2.21    0.81
  -1 -21  -3    2.23    0.66
 -21   1  -3    1.35    0.68
  21  -1   3    1.31    0.62
  21  -1   3    1.30    0.63
 -21   1   3    1.48    0.59
  -1 -21   3    1.21    0.80
  -2 -21  -3   12.85    1.24
  -2 -21  -3   12.41    1.10
 -21   2  -3   12.64    1.23
  21  -2  -3   10.47    1.10
  21  -2   3   12.78    1.13
  -2 -21   3   13.63    1.29
  21  -2   3   10.81    1.08
 -21   2   3   11.33    1.03
  -3 -21  -3    0.14    0.78
 -21   3  -3    1.24    0.67
  21  -3  -3    1.34    0.76
  21  -3   3    1.68    0.68
 -21   3   3    1.79    0.61
  21  -3   3    1.82    0.70
  -3 -21   3    2.18    0.88
 -21   4  -3    3.18    0.77
  21  -4  -3    5.45    0.91
  -4 -21  -3    4.62    0.94
  -4 -21   3    5.07    0.97
 -21   4   3    2.90    0.69
  21  -4   3    5.43    0.83
  21  -4   3    3.00    0.72
  21  -5  -3    0.34    0.74
  -5 -21  -3   -0.39    0.77
 -21   5  -3   -0.11    0.57
 -21   5   3    0.04    0.55
  21  -5   3    0.37    0.64
  21  -5   3   -0.51    0.59
  -5 -21   3   -0.71    0.75
  21  -6  -3   -0.49    0.72
 -21   6  -3    1.29    0.70
  -6 -21  -3    1.19    0.82
  21  -6   3    1.33    0.66
  21  -6   3    0.49    0.67
  -6 -21   3    0.51    0.80
  21  -7  -3    1.14    0.80
 -21   7  -3    0.53    0.65
  -7 -21  -3   -0.77    0.74
  -7 -21   3    0.68    0.84
  21  -7   3   -0.52    0.65
  21  -7   3    0.24    0.61
 -22  -4  -3    1.03    0.77
   3 -22  -3   -0.67    0.72
 -22  -3  -3    0.26    0.70
  22   3  -3   -0.38    0.58
   3 -22  -3   -0.50    0.59
  22   3   3   -0.16    0.60
  22   3   3   -1.26    0.60
   3 -22   3   -0.70    0.81
  22   2  -3    0.18    0.65
 -22  -2  -3   -0.20    0.69
   2 -22  -3    0.92    0.60
   2 -22  -3    0.20    0.78
  22   2   3   -0.01    0.54
   2 -22   3   -0.17    0.76
  22   2   3   -0.21    0.62
   1 -22  -3    0.03    0.77
  22   1  -3    0.33    0.65
 -22  -1  -3    0.57    0.70
   1 -22  -3    0.33    0.61
  22   1   3    1.28    0.60
  22   1   3    1.88    0.75
   1 -22   3    0.31    0.82
   0 -22  -3   -0.20    0.69
   0 -22  -3   -0.17    0.76
 -22   0  -3   -0.95    0.60
  22   0  -3   -0.17    0.63
   0 -22   3   -0.68    0.76
  22   0   3    0.66    0.58
  22   0   3   -0.48    0.60
  22  -1  -3    0.19    0.65
 -22   1  -3    0.49    0.68
  -1 -22  -3    1.11    0.81
  22  -1   3    1.00    0.60
  22  -1   3    0.97    0.65
  -1 -22   3    0.10    0.80
 -22   1   3    1.70    0.63
  22  -2  -3    4.44    0.87
  -2 -22  -3    4.70    0.98
 -22   2  -3    5.14    0.89
  -2 -22   3    3.46    0.95
  22  -2   3    3.40    0.79
  22  -2   3    4.23    0.77
 -22   2   3    3.63    0.75
  -3 -22  -3   -0.59    0.81
 -22   3  -3    0.77    0.67
  22  -3  -3    0.09    0.76
  22  -3   3    0.54    0.66
  -3 -22   3    1.35    0.85
 -22   3   3    0.63    0.57
  22  -3   3    0.55    0.62
   0   0  -4  170.67    5.28
   0   0  -4  168.07    5.35
   0   0   4  168.50    5.38
   0  -1  -4    5.57    0.36
   0   1  -4    5.52    0.31
   0   1  -4    5.62    0.38
   0  -1  -4    5.47    0.40
   1   0  -4    5.04    0.34
  -1   0  -4    5.08    0.39
   1   0  -4    4.43    0.38
   0   1   4    5.34    0.42
   1   0   4    4.95    0.28
  -1   0   4    5.12    0.41
   0   1   4    5.08    0.25
   1   0   4    5.64    0.43
   1   1  -4    1.82    0.24
   1  -1  -4    1.91    0.24
  -1   1  -4    2.54    0.28
   1  -1  -4    1.95    0.27
  -1  -1  -4    1.23    0.25
   1   1  -4    1.50    0.19
   1  -1   4    2.34    0.20
  -1   1   4    1.97    0.27
   1   1   4    1.66    0.18
   1   1   4    1.83    0.27
  -2  -1  -4    1.42    0.27
  -1   2  -4    1.44    0.23
   1  -2  -4    1.05    0.23
   2   1  -4    1.37    0.21
   1  -2  -4    1.40    0.23
   2   1  -4    1.50    0.20
   2   1   4    1.13    0.24
  -1   2   4    1.80    0.15
   1  -2   4    2.13    0.19
   2   1   4    2.00    0.21
  -1   2   4    1.68    0.25
   2   0  -4  122.85    3.93
   0  -2  -4  122.43    3.93
   2   0  -4  123.52    3.90
   0   2  -4  121.73    3.83
   0   2  -4  119.68    3.92
  -2   0  -4  125.39    3.98
   0  -2  -4  121.62    3.98
   2   0   4  125.46    3.99
   0   2   4  122.56    3.97
   0   2   4  122.94    3.83
   2   0   4  122.25    3.86
  -2   0   4  127.54    3.97
   0  -2   4  122.50    3.81
  -2   1  -4    0.50    0.20
   1   2  -4    0.95    0.19
  -1  -2  -4    0.86    0.23
   2  -1  -4    1.10    0.23
   2  -1  -4    0.75    0.19
   1   2  -4    1.06    0.15
   1   2   4    0.82    0.22
   2  -1   4    0.70    0.16
   1   2   4    0.89    0.16
   2  -1   4    1.05    0.24
  -2   1   4    0.64    0.20
   2  -2  -4   68.82    2.28
   2   2  -4   66.53    2.19
  -2  -2  -4   66.31    2.34
   2  -2  -4   69.63    2.30
  -2   2  -4   67.40    2.29
   2   2  -4   67.69    2.23
  -2  -2  -4   66.03    2.15
   2   2   4   70.96    2.33
   2  -2   4   69.54    2.21
   2   2   4   68.53    2.22
  -2   2   4   71.21    2.29
  -3  -2  -4    4.45    0.41
   3   2  -4    4.70    0.32
   2  -3  -4    4.98    0.40
   2  -3  -4    4.44    0.38
  -3  -2  -4    4.60    0.30
   3   2  -4    4.85    0.32
  -2   3  -4    5.02    0.37
  -2   3   4    6.03    0.40
   2  -3   4    5.18    0.23
   2  -3   4    5.04    0.33
   3   2   4    4.68    0.34
   3   2   4    4.84    0.41
   3   1  -4   10.73    0.52
   3   1  -4   11.26    0.52
  -3  -1  -4   11.14    0.63
   1  -3  -4   12.69    0.62
  -3  -1  -4   11.05    0.47
   1  -3  -4   11.00    0.59
  -1   3  -4   12.03    0.55
  -1   3   4   12.18    0.47
  -1   3   4   12.77    0.59
   1  -3   4   12.85    0.50
   3   1   4   11.34    0.61
   3   1   4   11.08    0.53
   0  -3  -4    0.35    0.20
  -3   0  -4    0.61    0.22
   3   0  -4    0.91    0.20
   0  -3  -4    0.25    0.22
  -3   0  -4    1.08    0.15
   3   0  -4    1.21    0.21
   0   3  -4    0.58    0.17
   3   0   4    1.12    0.20
   0  -3   4    0.66    0.15
  -3   0   4    0.79    0.20
   0   3   4    0.66    0.20
   3   0   4    0.88    0.24
   0   3   4    0.40    0.14
   3  -1  -4    0.07    0.16
   1   3  -4    0.13    0.10
  -3   1  -4    0.28    0.19
  -1  -3  -4    0.05    0.22
   1   3  -4   -0.07    0.14
   3  -1  -4    0.02    0.17
  -3   1  -4    0.04    0.11
   1   3   4   -0.02    0.17
   1   3   4    0.06    0.13
  -3   1   4    0.02    0.17
  -1  -3   4    0.22    0.11
   3  -1   4    0.14    0.21
   3  -1   4    0.08    0.15
   2   3  -4    7.61    0.35
   3  -2  -4    7.10    0.46
  -2  -3  -4    6.79    0.34
   3  -2  -4    8.42    0.46
  -2  -3  -4    6.00    0.49
   2   3  -4    7.14    0.37
  -3   2  -4    7.81    0.46
   2   3   4    7.28    0.48
  -3   2   4    6.77    0.44
   3  -2   4    7.53    0.34
   2   3   4    7.18    0.40
   3  -2   4    7.06    0.41
   3   3  -4    0.28    0.14
   3  -3  -4    0.21    0.20
   3   3  -4    0.21    0.14
  -3   3  -4    0.49    0.20
  -3  -3  -4    0.40    0.16
  -3  -3  -4    0.35    0.25
   3  -3  -4    0.29    0.21
   3   3   4    0.33    0.18
   3  -3   4    0.33    0.18
   3  -3   4    0.48    0.11
  -3   3   4    0.34    0.18
   3   3   4    0.47    0.20
  -3   4  -4    0.64    0.20
  -4  -3  -4    0.12    0.22
  -4  -3  -4    0.18    0.17
   4   3  -4    0.01    0.13
   3  -4  -4    0.25    0.23
   4   3  -4    0.24    0.12
   3  -4  -4    0.03    0.20
   4   3   4    0.16    0.19
   4   3   4    0.24    0.19
   3  -4   4    0.37    0.10
  -3   4   4    0.47    0.19
   3  -4   4    0.37    0.19
   4   2  -4   78.75    2.55
  -4  -2  -4   77.43    2.69
   4   2  -4   79.26    2.53
  -4  -2  -4   79.07    2.55
  -2   4  -4   77.38    2.58
   2  -4  -4   80.77    2.66
   2  -4  -4   76.92    2.64
   2  -4   4   78.85    2.56
  -2   4   4   80.78    2.61
   4   2   4   78.86    2.59
   4   2   4   78.71    2.65
  -1   4  -4   31.63    1.12
   4   1  -4   31.13    1.12
   1  -4  -4   30.38    1.19
   1  -4  -4   29.93    1.21
   4   1  -4   30.21    1.09
  -4  -1  -4   30.56    1.08
  -4  -1  -4   30.67    1.22
  -1   4   4   30.59    1.16
   4   1   4   30.58    1.13
   1  -4   4   31.23    1.09
   4   1   4   33.03    1.22
   4   0  -4  164.38    5.21
   0  -4  -4  168.62    5.29
  -4   0  -4  161.59    5.31
   0   4  -4  168.35    5.20
   0  -4  -4  167.61    5.32
   0  -4  -4  167.91    5.10
   4   0  -4  163.90    5.23
  -4   0  -4  159.32    5.17
   0   4   4  169.08    5.27
   0   4   4  169.60    5.18
   4   0   4  162.04    5.22
   4   0   4  164.14    5.30
   0  -4   4  169.91    5.17
  -1  -4  -4    6.25    0.32
   4  -1  -4    6.86    0.41
  -4   1  -4    6.01    0.47
   1   4  -4    6.34    0.27
  -1  -4  -4    6.26    0.50
   1   4  -4    5.74    0.35
   4  -1  -4    6.40    0.43
   4  -1   4    6.81    0.48
   4  -1   4    6.92    0.36
   1   4   4    6.51    0.37
   1   4   4    7.05    0.46
  -4   1   4    6.98    0.44
  -1  -4   4    6.48    0.34
   4  -1   4    6.52    0.41
  -2  -4  -4   78.02    2.63
   2   4  -4   81.56    2.63
  -4   2  -4   85.65    2.77
  -2  -4  -4   79.35    2.80
   4  -2  -4   86.18    2.73
   4  -2  -4   84.79    2.75
   2   4  -4   81.18    2.60
   2   4   4   81.26    2.76
   4  -2   4   85.26    2.63
  -4   2   4   86.34    2.72
  -2  -4   4   80.82    2.60
   4  -2   4   86.01    2.72
   2   4   4   80.18    2.68
   4  -3  -4   21.84    0.92
  -4   3  -4   23.29    0.94
  -3  -4  -4   24.67    1.03
   4  -3  -4   22.33    0.96
   3   4  -4   23.54    0.80
  -3  -4  -4   22.36    0.85
   3   4  -4   22.49    0.81
  -3  -4   4   23.04    0.80
   3   4   4   22.56    0.96
   3   4   4   23.79    0.90
   4  -3   4   24.06    0.80
   4  -3   4   22.01    0.90
  -4   3   4   21.96    0.89
   4  -4  -4   22.64    0.93
  -4  -4  -4   21.61    0.86
  -4   4  -4   22.15    0.91
  -4  -4  -4   22.12    1.00
   4   4  -4   21.98    0.82
   4  -4  -4   20.77    0.95
   4   4  -4   22.42    0.77
  -4   4   4   22.89    0.88
   4  -4   4   22.26    0.77
   4   4   4   23.70    0.96
   4  -4   4   21.69    0.90
   4   4   4   21.25    0.89
   4  -5  -4    0.59    0.26
   5   4  -4    0.38    0.12
  -5  -4  -4    0.29    0.27
  -4   5  -4    0.21    0.20
   5   4  -4    0.33    0.17
   4  -5  -4    0.48    0.24
  -5  -4  -4    0.60    0.22
   4  -5   4    0.62    0.23
   5   4   4    0.44    0.22
   5   4   4    0.41    0.22
  -4   5   4    0.40    0.19
   4  -5   4    0.55    0.12
  -5  -3  -4   36.53    1.48
  -5  -3  -4   36.57    1.35
   5   3  -4   36.82    1.33
   3  -5  -4   39.63    1.45
   3  -5  -4   37.13    1.45
   5   3  -4   38.71    1.27
  -3   5  -4   38.36    1.37
   3  -5   4   37.85    1.37
  -3   5   4   40.01    1.40
   5   3   4   39.06    1.43
   5   3   4   38.62    1.39
  -5  -2  -4   -0.02    0.23
   2  -5  -4    0.26    0.25
   5   2  -4    0.04    0.13
   5   2  -4   -0.03    0.15
  -2   5  -4   -0.18    0.14
  -5  -2  -4   -0.04    0.16
   2  -5  -4   -0.07    0.22
  -2   5   4    0.44    0.23
   5   2   4    0.03    0.17
   5   2   4    0.08    0.20
   2  -5   4    0.14    0.19
   1  -5  -4    0.54    0.13
   1  -5  -4    0.43    0.23
  -5  -1  -4   -0.03    0.15
  -1   5  -4    0.27    0.15
   5   1  -4    0.28    0.15
  -5  -1  -4   -0.03    0.22
   5   1  -4   -0.05    0.16
   1  -5  -4    0.26    0.23
  -1   5   4    0.62    0.22
   5   1   4    0.22    0.19
   1  -5   4    0.26    0.18
   5   1   4    0.25    0.21
   5   0  -4    7.94    0.47
   5   0  -4    7.44    0.42
   0  -5  -4    7.49    0.54
  -5   0  -4    7.60    0.53
  -5   0  -4    7.15    0.41
   0  -5  -4    7.91    0.55
   0  -5  -4    7.71    0.37
   0   5  -4    7.96    0.40
   5   0   4    7.74    0.43
   5   0   4    7.88    0.52
   0  -5   4    7.16    0.41
   0   5   4    8.48    0.53
   5   0   4    8.13    0.48
  -5   1  -4    6.03    0.46
  -1  -5  -4    5.69    0.34
   1   5  -4    6.39    0.33
  -1  -5  -4    5.44    0.51
   5  -1  -4    5.40    0.42
   5  -1  -4    5.11    0.38
  -1  -5   4    5.88    0.36
   5  -1   4    5.32    0.35
  -5   1   4    5.35    0.40
   1   5   4    5.79    0.38
   5  -1   4    5.63    0.41
   5  -1   4    5.43    0.46
   1   5   4    7.49    0.50
   5  -2  -4   22.22    0.92
   5  -2  -4   22.45    0.88
  -5   2  -4   20.84    0.92
  -2  -5  -4   21.15    0.82
   2   5  -4   20.74    0.73
   2   5  -4   20.79    0.76
  -2  -5  -4   20.22    0.96
   2   5   4   23.00    0.96
  -2  -5   4   20.34    0.79
   5  -2   4   22.14    0.80
   5  -2   4   22.70    0.95
   5  -2   4   22.68    0.89
  -5   2   4   21.87    0.86
   2   5   4   21.19    0.85
   3   5  -4   69.21    2.31
   3   5  -4   71.09    2.34
   5  -3  -4   76.16    2.52
   5  -3  -4   80.15    2.49
  -3  -5  -4   72.16    2.56
  -3  -5  -4   68.49    2.41
  -5   3  -4   75.54    2.51
  -3  -5   4   72.36    2.36
  -5   3   4   75.71    2.43
   3   5   4   71.14    2.52
   3   5   4   71.63    2.44
   5  -3   4   78.08    2.48
   5  -3   4   77.54    2.36
  -5   4  -4    0.94    0.25
   4   5  -4    1.33    0.13
  -4  -5  -4    1.66    0.35
   5  -4  -4    1.27    0.30
  -4  -5  -4    0.89    0.23
   4   5  -4    1.38    0.18
   5  -4  -4    0.76    0.23
   5  -4   4    0.63    0.24
   5  -4   4    0.71    0.16
   4   5   4    1.09    0.25
  -4  -5   4    1.09    0.20
  -5   4   4    0.95    0.20
   4   5   4    0.94    0.27
  -5  -5  -4   59.79    2.23
  -5  -5  -4   60.49    2.10
  -5   5  -4   60.66    2.12
   5  -5  -4   63.03    2.19
   5   5  -4   62.49    2.03
   5  -5  -4   60.83    2.14
   5  -5   4   63.04    1.98
   5   5   4   60.73    2.12
   5   5   4   62.26    2.19
   5  -5   4   65.02    2.15
  -5   5   4   60.24    2.09
  -5  -5   4   60.27    2.01
  -6  -5  -4    3.45    0.47
   5  -6  -4    2.69    0.40
  -6  -5  -4    4.03    0.39
   5  -6  -4    2.81    0.37
  -5   6  -4    3.80    0.38
   5  -6  -4    3.23    0.24
   6   5  -4    3.63    0.31
   6   5   4    3.41    0.38
   6   5   4    4.28    0.43
   5  -6   4    3.24    0.40
  -5   6   4    2.81    0.34
   5  -6   4    3.75    0.26
  -4   6  -4   13.77    0.64
   4  -6  -4   12.93    0.69
  -6  -4  -4   13.57    0.66
   6   4  -4   13.10    0.61
   4  -6  -4   13.36    0.51
  -6  -4  -4   13.87    0.78
   4  -6  -4   13.87    0.76
  -4   6   4   13.16    0.67
   4  -6   4   13.11    0.49
   6   4   4   13.00    0.71
   6   4   4   12.39    0.67
   4  -6   4   13.41    0.68
   3  -6  -4    9.29    0.40
   3  -6  -4    8.61    0.62
  -6  -3  -4    9.40    0.52
   3  -6  -4    9.64    0.59
  -6  -3  -4    8.54    0.63
  -3   6  -4    9.92    0.51
   6   3  -4    8.90    0.49
  -3   6   4    9.95    0.56
   3  -6   4    9.55    0.54
   6   3   4    8.95    0.55
   6   3   4    8.14    0.55
  -6  -2  -4    0.67    0.28
   6   2  -4    0.98    0.21
  -6  -2  -4    0.74    0.22
   2  -6  -4    0.54    0.26
   6   2  -4    0.64    0.17
   2  -6  -4    0.80    0.17
   2  -6  -4    0.29    0.25
  -2   6  -4    0.93    0.19
   2  -6   4    0.76    0.23
  -2   6   4    0.69    0.23
   6   2   4    1.00    0.26
   6   2   4    0.95    0.25
  -1   6  -4    0.28    0.15
  -6  -1  -4    0.24    0.18
   6   1  -4    0.14    0.15
   1  -6  -4    0.13    0.15
   1  -6  -4    0.28    0.24
  -6  -1  -4   -0.07    0.24
   6   1  -4    0.35    0.20
   1  -6  -4   -0.02    0.23
  -1   6   4    0.50    0.23
   6   1   4    0.27    0.21
   6   1   4    0.28    0.22
   1  -6   4   -0.14    0.19
   6   1   4    0.05    0.17
   0  -6  -4    4.45    0.33
  -6   0  -4    4.92    0.46
   0   6  -4    3.96    0.29
   0  -6  -4    5.12    0.49
   6   0  -4    5.42    0.35
   0  -6  -4    3.98    0.42
   6   0  -4    5.40    0.41
   6   0   4    5.45    0.38
   0  -6   4    4.21    0.36
   6   0   4    4.91    0.42
   6   0   4    4.84    0.42
   0   6   4    4.85    0.44
  -6   1  -4    0.50    0.24
  -1  -6  -4    0.14    0.26
   6  -1  -4    0.00    0.19
  -1  -6  -4    0.26    0.18
   1   6  -4    0.05    0.12
   6  -1  -4    0.31    0.19
   6  -1   4    0.46    0.17
   6  -1   4    0.04    0.21
  -6   1   4    0.18    0.17
   6  -1   4    0.57    0.23
  -1  -6   4    0.28    0.19
   1   6   4    0.12    0.22
  -2  -6  -4   32.06    1.17
   2   6  -4   33.30    1.05
   2   6  -4   32.84    1.07
  -6   2  -4   31.27    1.26
  -2  -6  -4   33.10    1.33
   6  -2  -4   31.79    1.20
   6  -2  -4   30.95    1.25
   6  -2   4   31.51    1.14
  -6   2   4   30.12    1.16
   6  -2   4   32.51    1.24
  -2  -6   4   32.70    1.15
   6  -2   4   32.37    1.27
   2   6   4   35.35    1.31
   3   6  -4    2.44    0.20
  -3  -6  -4    3.85    0.35
  -6   3  -4    3.81    0.41
   6  -3  -4    3.08    0.34
  -3  -6  -4    2.57    0.39
   6  -3  -4    3.48    0.39
  -6   3   4    3.46    0.29
  -3  -6   4    2.76    0.28
   6  -3   4    3.70    0.28
   3   6   4    2.74    0.37
   6  -3   4    3.11    0.36
   3   6   4    3.66    0.36
  -4  -6  -4   15.75    0.71
   6  -4  -4   15.51    0.73
  -6   4  -4   16.15    0.76
   6  -4  -4   14.62    0.79
  -4  -6  -4   15.32    0.84
   4   6  -4   15.36    0.61
   6  -4   4   15.48    0.63
   6  -4   4   15.35    0.75
   4   6   4   16.46    0.82
  -6   4   4   15.71    0.66
  -4  -6   4   14.59    0.65
   4   6   4   15.51    0.73
  -5  -6  -4    7.27    0.51
   5   6  -4    7.61    0.40
   6  -5  -4    5.76    0.49
   6  -5  -4    6.88    0.56
  -6   5  -4    6.93    0.51
  -5  -6  -4    8.11    0.63
  -6   5   4    6.13    0.44
   6  -5   4    6.68    0.38
   5   6   4    7.66    0.51
  -5  -6   4    7.28    0.43
   5   6   4    7.58    0.60
   6  -5   4    6.74    0.52
   6  -6  -4    0.26    0.25
  -6   6  -4    0.45    0.23
   6   6  -4    0.58    0.18
   6  -6  -4    0.43    0.14
   6  -6  -4    0.33    0.30
  -6  -6  -4   -0.11    0.24
  -6  -6  -4   -0.27    0.29
   6   6   4    0.31    0.25
   6  -6   4    0.72    0.30
  -6  -6   4    0.28    0.21
   6   6   4    0.82    0.29
  -6   6   4    0.19    0.19
   6  -6   4    0.19    0.17
  -7  -6  -4    5.09    0.48
  -7  -6  -4    4.25    0.53
   7   6  -4    4.76    0.38
  -6   7  -4    4.26    0.42
   6  -7  -4    5.72    0.57
   6  -7  -4    3.93    0.33
   6  -7  -4    4.71    0.49
   7   6   4    4.73    0.48
   6  -7   4    4.71    0.36
  -6   7   4    4.74    0.44
   6  -7   4    4.87    0.49
  -7  -6   4    4.57    0.39
   7   6   4    5.02    0.52
   5  -7  -4   80.00    2.70
  -7  -5  -4   76.37    2.66
   7   5  -4   80.23    2.60
  -5   7  -4   78.02    2.64
   5  -7  -4   81.43    2.77
   5  -7  -4   76.70    2.52
  -7  -5  -4   77.00    2.77
   5  -7   4   79.29    2.69
  -5   7   4   77.30    2.68
   7   5   4   75.21    2.71
   5  -7   4   79.93    2.50
   7   5   4   80.09    2.69
   4  -7  -4    0.51    0.30
   4  -7  -4    0.19    0.26
   4  -7  -4    0.46    0.18
  -4   7  -4    0.53    0.21
  -7  -4  -4    0.58    0.25
  -7  -4  -4    1.08    0.33
   7   4  -4    0.81    0.22
  -4   7   4    0.62    0.24
   4  -7   4    0.37    0.25
   7   4   4    0.41    0.25
   4  -7   4    1.07    0.14
   7   4   4    1.05    0.29
  -7  -3  -4   30.85    1.24
  -7  -3  -4   32.54    1.37
   7   3  -4   30.15    1.21
   3  -7  -4   33.29    1.32
   3  -7  -4   34.66    1.35
   3  -7  -4   33.94    1.15
  -3   7  -4   33.59    1.20
   7   3   4   32.70    1.28
   3  -7   4   32.66    1.27
  -3   7   4   34.35    1.32
   7   3   4   31.84    1.26
   7   3   4   32.36    1.28
   2  -7  -4    0.18    0.27
   7   2  -4    1.11    0.24
  -7  -2  -4    0.92    0.25
   2  -7  -4    0.73    0.19
  -2   7  -4    0.43    0.18
   2  -7  -4    0.29    0.25
  -7  -2  -4    0.69    0.29
   7   2   4    0.63    0.26
  -2   7   4    0.93    0.26
   7   2   4    0.80    0.25
   2  -7   4    0.57    0.25
   7   2   4    0.72    0.23
  -7  -1  -4    5.43    0.51
   1  -7  -4    5.96    0.49
   1  -7  -4    6.96    0.40
  -1   7  -4    6.60    0.37
   1  -7  -4    7.13    0.59
   7   1  -4    6.30    0.45
   7   1   4    6.04    0.48
  -1   7   4    6.03    0.51
   7   1   4    6.10    0.48
   7   1   4    5.42    0.43
   1  -7   4    6.33    0.46
   7   0  -4    0.33    0.22
  -7   0  -4    0.40    0.27
   0  -7  -4    0.72    0.30
   0  -7  -4    0.51    0.21
   7   0  -4    0.74    0.20
   0  -7  -4    0.30    0.28
   0   7  -4    0.75    0.16
   0   7   4    0.43    0.25
   7   0   4    0.60    0.21
   7   0   4    0.73    0.26
   7   0   4    0.41    0.23
   0  -7   4    0.59    0.23
  -1  -7  -4    3.75    0.36
  -1  -7  -4    4.80    0.50
   7  -1  -4    5.45    0.39
   7  -1  -4    5.99    0.47
  -7   1  -4    6.34    0.53
   1   7  -4    3.76    0.26
  -1  -7   4    4.13    0.37
   1   7   4    4.58    0.48
  -7   1   4    4.62    0.36
   7  -1   4    6.15    0.48
   7  -1   4    5.59    0.39
   7  -1   4    6.06    0.48
  -2  -7  -4   17.11    0.73
   7  -2  -4   17.05    0.74
   2   7  -4   17.85    0.65
  -7   2  -4   14.71    0.79
  -2  -7  -4   16.55    0.86
   2   7  -4   16.29    0.57
   7  -2  -4   15.34    0.80
   7  -2   4   16.01    0.80
  -7   2   4   16.69    0.69
   7  -2   4   14.80    0.78
   2   7   4   17.68    0.87
  -2  -7   4   16.29    0.72
   7  -2   4   14.83    0.69
  -3  -7  -4   93.36    3.01
   3   7  -4   94.06    2.88
  -7   3  -4   88.43    3.09
  -3  -7  -4   93.21    3.15
   7  -3  -4   93.09    3.10
   7  -3  -4   91.35    3.02
  -3  -7   4   93.44    2.98
   3   7   4   92.09    3.15
   7  -3   4   92.63    3.09
  -7   3   4   87.33    2.94
   7  -3   4   90.01    3.07
   7  -3   4   89.78    2.95
  -7   4  -4   11.96    0.70
  -4  -7  -4   11.67    0.64
  -4  -7  -4   13.09    0.77
   4   7  -4   13.10    0.52
   7  -4  -4   12.67    0.72
   7  -4  -4   11.49    0.64
   7  -4   4   12.01    0.57
  -4  -7   4   12.36    0.60
   4   7   4   11.73    0.75
  -7   4   4   12.94    0.58
   7  -4   4   12.35    0.70
   5   7  -4  165.65    5.26
   7  -5  -4  175.27    5.40
  -5  -7  -4  164.76    5.37
   7  -5  -4  173.46    5.47
  -5  -7  -4  165.72    5.50
  -7   5  -4  167.14    5.41
   7  -5   4  167.64    5.42
  -7   5   4  171.10    5.32
   5   7   4  168.21    5.40
   7  -5   4  168.07    5.27
   5   7   4  165.79    5.50
  -5  -7   4  165.97    5.31
  -6  -7  -4    5.63    0.61
  -6  -7  -4    6.35    0.53
   7  -6  -4    7.10    0.61
   6   7  -4    5.94    0.40
   7  -6  -4    6.57    0.52
   7  -6  -4    6.59    0.35
  -7   6  -4    6.57    0.53
  -6  -7   4    5.82    0.46
   7  -6   4    6.15    0.41
   6   7   4    7.46    0.64
   6   7   4    5.66    0.51
   7  -6   4    7.39    0.59
  -7   6   4    6.37    0.48
   7  -7  -4  124.50    4.13
   7  -7  -4  120.02    3.86
   7   7  -4  119.37    3.93
   7  -7  -4  127.02    4.06
  -7   7  -4  121.05    4.03
  -7  -7  -4  122.93    4.05
  -7  -7  -4  124.68    4.16
   7  -7   4  123.54    3.90
   7   7   4  120.92    4.05
  -7  -7   4  122.22    3.96
   7  -7   4  123.66    4.08
   7   7   4  123.80    4.16
  -7   7   4  121.16    4.01
   7  -8  -4    5.09    0.53
  -8  -7  -4    5.55    0.63
  -8  -7  -4    5.80    0.55
   7  -8  -4    4.50    0.54
  -7   8  -4    4.21    0.44
   7  -8  -4    4.46    0.37
   8   7  -4    4.90    0.41
   8   7   4    4.94    0.56
   7  -8   4    5.31    0.56
   8   7   4    5.40    0.54
  -8  -7   4    5.84    0.48
  -6   8  -4    5.52    0.46
  -8  -6  -4    5.20    0.51
   6  -8  -4    3.81    0.51
   6  -8  -4    3.76    0.45
  -8  -6  -4    4.82    0.56
   6  -8  -4    4.61    0.36
   8   6  -4    5.11    0.42
   8   6   4    4.81    0.50
  -6   8   4    4.00    0.46
   6  -8   4    5.08    0.53
   8   6   4    5.19    0.53
   5  -8  -4   12.16    0.56
  -8  -5  -4   11.20    0.78
  -5   8  -4   11.00    0.61
   5  -8  -4   11.76    0.78
   5  -8  -4   11.70    0.71
   8   5  -4   12.24    0.62
  -8  -5  -4   12.03    0.70
   5  -8   4   11.13    0.70
   8   5   4   11.51    0.70
  -5   8   4   11.02    0.70
   8   5   4   11.80    0.68
   8   5   4   12.06    0.73
   8   4  -4    1.38    0.26
  -8  -4  -4    1.04    0.37
   4  -8  -4    0.82    0.33
  -4   8  -4    1.43    0.25
   4  -8  -4    1.00    0.32
  -8  -4  -4    1.52    0.31
   4  -8  -4    1.03    0.23
   4  -8   4    0.81    0.29
   8   4   4    0.62    0.25
   8   4   4    0.66    0.28
   8   4   4    1.16    0.32
  -4   8   4    1.61    0.31
  -3   8  -4    8.96    0.49
  -8  -3  -4    8.52    0.67
   3  -8  -4    9.13    0.62
   3  -8  -4   10.26    0.69
  -8  -3  -4    8.74    0.57
   3  -8  -4    8.63    0.49
   8   3  -4    9.83    0.55
   8   3   4   10.34    0.59
   8   3   4    9.65    0.62
   3  -8   4    9.29    0.60
  -3   8   4    8.81    0.62
   8   3   4    8.93    0.59
  -8  -2  -4    0.79    0.25
  -8  -2  -4    0.85    0.33
   2  -8  -4    1.16    0.35
   2  -8  -4    0.86    0.23
   2  -8  -4    0.93    0.33
  -2   8  -4    1.05    0.20
   8   2  -4    0.84    0.23
  -2   8   4    0.57    0.27
   2  -8   4    1.14    0.29
   8   2   4    0.75    0.28
   8   2   4    1.10    0.26
   8   2   4    0.83    0.26
   1  -8  -4    0.71    0.24
  -8  -1  -4    0.49    0.28
  -1   8  -4    0.78    0.18
   1  -8  -4    0.92    0.32
   8   1  -4    0.69    0.24
   1  -8  -4    0.33    0.28
   1  -8   4    1.09    0.29
  -1   8   4    0.32    0.27
   8   1   4    0.79    0.28
   8   1   4    0.23    0.21
   8   1   4    0.39    0.23
   0   8  -4    0.47    0.14
   8   0  -4    1.01    0.27
   0  -8  -4    0.42    0.30
   0  -8  -4    0.32    0.23
   0  -8  -4    0.52    0.32
  -8   0  -4    1.25    0.34
   8   0   4    0.61    0.27
   0  -8   4    1.01    0.26
   0   8   4    0.35    0.27
   8   0   4    0.43    0.22
   8   0   4    0.63    0.25
  -1  -8  -4    9.10    0.64
   1   8  -4    8.63    0.38
  -1  -8  -4    9.44    0.53
   8  -1  -4    8.51    0.59
  -8   1  -4    8.35    0.61
   8  -1   4    9.33    0.59
   8  -1   4    8.79    0.58
  -8   1   4    8.41    0.46
   1   8   4    8.51    0.65
  -1  -8   4    9.15    0.55
   8  -1   4    8.72    0.52
   2   8  -4    0.58    0.11
  -2  -8  -4    0.47    0.25
  -2  -8  -4    0.31    0.29
  -8   2  -4    0.97    0.29
   8  -2  -4    1.12    0.31
  -2  -8   4    0.65    0.25
   2   8   4    0.31    0.27
  -8   2   4    0.99    0.20
   8  -2   4    0.77    0.21
   8  -2   4    1.17    0.29
   8  -2   4    1.05    0.30
   3   8  -4   19.63    0.69
  -3  -8  -4   20.01    0.86
   8  -3  -4   18.61    0.92
  -8   3  -4   16.27    0.88
   8  -3  -4   18.41    0.83
  -3  -8  -4   18.90    0.98
  -3  -8   4   20.61    0.83
   8  -3   4   18.85    0.79
   8  -3   4   19.18    0.90
  -8   3   4   17.28    0.73
   3   8   4   19.18    0.98
   8  -3   4   18.25    0.88
   8  -4  -4    0.74    0.27
  -4  -8  -4    1.12    0.29
  -8   4  -4    1.47    0.32
   8  -4  -4    0.89    0.31
   4   8  -4    1.03    0.18
  -4  -8  -4    0.65    0.34
  -4  -8   4    1.26    0.26
   8  -4   4    1.46    0.25
   4   8   4    0.72    0.32
   8  -4   4    1.07    0.31
  -8   4   4    0.92    0.21
  -5  -8  -4    0.21    0.26
   5   8  -4    0.19    0.15
   8  -5  -4    0.26    0.26
  -5  -8  -4    0.38    0.32
   8  -5  -4    0.32    0.32
  -8   5  -4    0.05    0.23
   8  -5   4    0.04    0.19
  -8   5   4    0.25    0.19
   8  -5   4    0.33    0.28
  -5  -8   4    0.46    0.25
   5   8   4   -0.04    0.26
  -8   6  -4    6.63    0.53
   6   8  -4    6.23    0.41
   8  -6  -4    6.62    0.54
  -6  -8  -4    6.23    0.63
  -6  -8  -4    7.35    0.59
   8  -6  -4    6.23    0.61
  -8   6   4    6.38    0.47
   8  -6   4    5.99    0.44
   6   8   4    6.00    0.62
   8  -6   4    6.58    0.59
  -6  -8   4    6.72    0.51
   7   8  -4    0.48    0.21
  -7  -8  -4    0.64    0.32
   8  -7  -4   -0.06    0.33
  -7  -8  -4    0.50    0.36
   8  -7  -4    0.48    0.31
  -8   7  -4    0.56    0.26
   8  -7  -4    0.43    0.31
   8  -7   4    0.78    0.24
   8  -7   4    0.58    0.33
  -7  -8   4    1.01    0.30
   7   8   4    0.27    0.33
  -8   8  -4    2.12    0.37
   8  -8  -4    1.68    0.39
  -8  -8  -4    2.89    0.47
  -8  -8  -4    2.74    0.51
   8  -8  -4    2.64    0.50
   8   8  -4    2.56    0.33
   8  -8  -4    2.82    0.35
   8  -8   4    2.35    0.47
   8   8   4    1.80    0.45
  -8  -8   4    2.57    0.40
   8   8   4    3.58    0.46
  -9  -8  -4    5.84    0.60
   8  -9  -4    5.55    0.60
  -8   9  -4    5.04    0.52
   8  -9  -4    5.80    0.47
  -9  -8  -4    5.38    0.65
   9   8  -4    4.43    0.43
   8  -9  -4    4.63    0.55
   8  -9   4    5.79    0.62
   9   8   4    4.69    0.60
  -9  -8   4    5.79    0.52
   9   8   4    5.88    0.60
   9   7  -4  142.56    4.45
  -9  -7  -4  139.33    4.64
   7  -9  -4  131.41    4.38
   7  -9  -4  138.08    4.63
  -7   9  -4  134.62    4.48
   7  -9  -4  139.61    4.54
  -9  -7  -4  137.74    4.55
   9   7   4  136.06    4.55
   7  -9   4  131.24    4.57
   9   7   4  138.86    4.56
   9   7   4  137.58    4.64
  -9  -7   4  141.36    4.46
   9   6  -4    1.55    0.29
   6  -9  -4    0.74    0.34
  -6   9  -4    1.02    0.27
  -9  -6  -4    0.70    0.33
   6  -9  -4    1.01    0.28
  -9  -6  -4    1.23    0.41
   6  -9  -4    0.76    0.39
   9   6   4    0.84    0.30
   9   6   4    0.70    0.33
   6  -9   4    0.70    0.36
   9   6   4    0.44    0.33
   5  -9  -4   58.70    2.16
   9   5  -4   56.22    1.98
  -5   9  -4   55.85    1.96
   5  -9  -4   57.64    2.07
  -9  -5  -4   55.15    2.05
  -9  -5  -4   55.96    2.15
   5  -9  -4   57.93    1.93
   9   5   4   53.92    2.04
   9   5   4   53.08    2.05
   9   5   4   55.10    2.08
   5  -9   4   58.36    2.08
  -9  -4  -4    0.47    0.29
  -9  -4  -4    0.32    0.33
  -4   9  -4    0.31    0.20
   4  -9  -4    0.08    0.23
   4  -9  -4    0.41    0.29
   9   4  -4    0.29    0.22
   4  -9  -4    0.28    0.32
   9   4   4    0.32    0.26
  -4   9   4    0.20    0.27
   4  -9   4    0.10    0.28
   9   4   4    0.18    0.26
   9   4   4   -0.13    0.26
   3  -9  -4   19.95    0.93
   3  -9  -4   18.95    0.79
   3  -9  -4   18.86    0.97
  -3   9  -4   18.50    0.77
  -9  -3  -4   17.99    0.88
  -9  -3  -4   17.96    0.97
   9   3  -4   18.14    0.84
   3  -9   4   17.61    0.89
   9   3   4   16.99    0.89
   9   3   4   16.54    0.85
  -3   9   4   18.91    0.97
   9   3   4   17.40    0.86
   2  -9  -4    0.24    0.23
  -9  -2  -4    0.17    0.29
  -2   9  -4    0.18    0.16
   9   2  -4    0.34    0.23
   2  -9  -4    0.31    0.30
   2  -9  -4    0.37    0.32
   9   2   4    0.23    0.23
  -2   9   4    0.49    0.30
   9   2   4    0.11    0.23
   2  -9   4   -0.10    0.27
   9   2   4    0.17    0.26
   1  -9  -4    7.17    0.48
  -9  -1  -4    7.47    0.65
  -1   9  -4    6.65    0.37
   1  -9  -4    6.73    0.58
   9   1  -4    5.70    0.50
   1  -9  -4    5.70    0.57
   1  -9   4    7.60    0.57
   9   1   4    6.75    0.58
  -1   9   4    7.10    0.61
   9   1   4    4.55    0.44
   9   1   4    6.92    0.53
  -9   0  -4    1.52    0.34
   0  -9  -4    1.93    0.38
   0   9  -4    2.55    0.22
   0  -9  -4    1.26    0.36
   0  -9  -4    3.02    0.36
   9   0  -4    1.92    0.34
   0   9   4    2.33    0.40
   9   0   4    1.77    0.30
   9   0   4    2.28    0.38
   9   0   4    1.48    0.31
   0  -9   4    2.16    0.35
  -1  -9  -4    1.72    0.40
  -1  -9  -4    2.04    0.33
  -9   1  -4    1.47    0.36
   9  -1  -4    2.27    0.36
  -1  -9   4    1.75    0.33
   9  -1   4    2.01    0.34
   9  -1   4    1.69    0.29
  -9   1   4    2.38    0.25
   1   9   4    1.61    0.36
   9  -1   4    1.72    0.37
   9  -2  -4    9.79    0.64
  -2  -9  -4    8.92    0.69
  -2  -9  -4   10.41    0.61
  -9   2  -4    8.67    0.64
   2   9   4    9.41    0.72
   9  -2   4   10.33    0.64
   9  -2   4    9.40    0.65
  -2  -9   4   10.34    0.62
  -9   2   4    9.44    0.47
   9  -2   4   11.00    0.58
  -3  -9  -4   65.28    2.30
   9  -3  -4   69.27    2.38
  -9   3  -4   69.24    2.39
  -3  -9  -4   63.58    2.40
   3   9   4   63.91    2.45
  -9   3   4   66.86    2.15
   9  -3   4   67.01    2.36
   9  -3   4   64.28    2.24
   9  -3   4   69.07    2.33
  -3  -9   4   63.26    2.27
  -4  -9  -4    1.31    0.41
  -9   4  -4    0.85    0.31
   9  -4  -4    0.78    0.33
   4   9  -4    1.45    0.20
  -4  -9  -4    1.48    0.34
   9  -4   4    1.17    0.32
   9  -4   4    0.69    0.32
   9  -4   4    0.86    0.24
  -9   4   4    0.91    0.20
  -4  -9   4    1.85    0.34
   4   9   4    1.23    0.36
  -5  -9  -4   68.24    2.33
   5   9  -4   65.66    2.16
  -9   5  -4   66.11    2.35
   9  -5  -4   64.14    2.39
  -5  -9  -4   67.48    2.42
   9  -5   4   64.67    2.21
   5   9   4   64.43    2.47
  -5  -9   4   65.22    2.27
  -9   5   4   64.24    2.20
   9  -5   4   64.73    2.36
   9  -6  -4    2.03    0.43
  -6  -9  -4    1.56    0.37
  -6  -9  -4    0.92    0.39
  -9   6  -4    2.38    0.40
   6   9  -4    1.27    0.24
   9  -6   4    1.82    0.30
   9  -6   4    1.50    0.39
  -6  -9   4    1.08    0.33
   6   9   4    1.42    0.39
   7   9  -4  115.93    3.72
  -9   7  -4  108.85    3.84
   9  -7  -4  112.62    3.92
  -7  -9  -4  120.96    3.88
  -7  -9  -4  113.49    3.95
   7   9   4  113.38    4.01
   9  -7   4  112.21    3.72
  -7  -9   4  116.16    3.80
   9  -7   4  122.32    3.94
   8   9  -4    0.32    0.23
  -9   8  -4    0.40    0.28
  -8  -9  -4    0.00    0.32
   9  -8  -4    0.16    0.32
  -8  -9  -4    0.30    0.39
   9  -8  -4   -0.18    0.37
  -8  -9   4    0.42    0.33
   8   9   4    0.05    0.34
   9  -8   4    0.28    0.37
  -9  -9  -4   41.18    1.64
  -9   9  -4   40.03    1.56
   9   9  -4   39.38    1.46
  -9  -9  -4   37.98    1.70
   9  -9  -4   37.93    1.56
   9  -9  -4   36.63    1.66
   9   9   4   34.81    1.70
   9  -9   4   37.71    1.64
  -9  -9   4   39.22    1.53
   9 -10  -4    0.02    0.35
 -10  -9  -4   -0.36    0.41
  -9  10  -4    0.16    0.29
 -10  -9  -4   -0.02    0.41
  10   9  -4    0.36    0.26
   9 -10  -4    0.07    0.43
 -10  -9   4    0.33    0.37
   9 -10   4   -0.05    0.41
  10   9   4    0.27    0.32
  10   9   4    0.33    0.41
   8 -10  -4   -0.06    0.32
 -10  -8  -4    0.30    0.42
   8 -10  -4   -0.17    0.26
  10   8  -4   -0.06    0.23
  -8  10  -4   -0.37    0.24
   8 -10  -4    0.11    0.39
 -10  -8  -4    0.21    0.38
  10   8   4    0.22    0.32
  10   8   4   -0.26    0.32
 -10  -8   4    0.19    0.33
  10   8   4   -0.53    0.29
   8 -10   4   -0.43    0.36
   7 -10  -4    1.03    0.46
  -7  10  -4    1.14    0.32
 -10  -7  -4    1.25    0.46
  10   7  -4    1.52    0.31
   7 -10  -4    0.88    0.38
 -10  -7  -4    1.35    0.43
   7 -10  -4    1.42    0.32
  10   7   4    1.19    0.36
   7 -10   4    1.06    0.43
  10   7   4    1.15    0.36
  10   7   4    1.71    0.43
 -10  -7   4    1.32    0.35
 -10  -6  -4    0.80    0.39
   6 -10  -4    0.94    0.38
   6 -10  -4    1.00    0.28
  -6  10  -4    0.80    0.26
 -10  -6  -4    0.62    0.41
   6 -10  -4    0.66    0.42
  10   6  -4    1.18    0.29
  10   6   4    0.90    0.35
  10   6   4    0.80    0.36
   6 -10   4    0.61    0.38
  10   6   4    1.49    0.39
  -5  10  -4    4.86    0.43
   5 -10  -4    4.34    0.42
   5 -10  -4    4.35    0.55
   5 -10  -4    4.20    0.51
 -10  -5  -4    4.77    0.54
  10   5  -4    4.82    0.45
 -10  -5  -4    3.72    0.53
  10   5   4    4.80    0.53
  10   5   4    4.37    0.50
  10   5   4    4.27    0.53
   5 -10   4    3.58    0.51
   4 -10  -4   18.19    0.96
  -4  10  -4   19.58    0.84
   4 -10  -4   20.18    0.88
   4 -10  -4   21.32    1.08
 -10  -4  -4   19.45    1.05
  10   4  -4   20.02    0.91
 -10  -4  -4   21.28    1.00
  10   4   4   18.61    0.96
  10   4   4   20.66    0.96
   4 -10   4   18.02    0.97
  10   4   4   19.40    0.98
  10   3  -4    0.74    0.27
   3 -10  -4    0.31    0.31
   3 -10  -4    0.38    0.38
 -10  -3  -4    0.86    0.38
   3 -10  -4    0.88    0.28
  -3  10  -4    0.69    0.21
 -10  -3  -4    0.60    0.31
  10   3   4    0.72    0.32
  10   3   4    0.73    0.29
  10   3   4    0.55    0.28
   3 -10   4    0.89    0.34
 -10  -2  -4   42.09    1.71
   2 -10  -4   44.55    1.69
  -2  10  -4   41.71    1.48
   2 -10  -4   42.07    1.74
   2 -10  -4   41.21    1.56
  10   2  -4   41.78    1.61
  10   2   4   44.99    1.62
  10   2   4   42.55    1.67
  10   2   4   44.48    1.62
   2 -10   4   39.81    1.62
  -1  10  -4    8.55    0.46
 -10  -1  -4    9.17    0.70
  10   1  -4    9.73    0.64
   1 -10  -4   10.80    0.81
   1 -10  -4    9.19    0.69
   1 -10  -4    8.36    0.58
  10   1   4    9.68    0.62
   1 -10   4    8.88    0.66
  10   1   4   10.15    0.68
  10   1   4    9.32    0.60
  -1  10   4    8.62    0.73
 -10   0  -4   41.49    1.67
   0 -10  -4   41.31    1.55
   0 -10  -4   41.70    1.70
   0 -10  -4   42.98    1.67
  10   0  -4   41.67    1.61
  10   0   4   42.35    1.64
 -10   0   4   40.27    1.44
   0  10   4   40.32    1.72
   0 -10   4   41.42    1.60
  10   0   4   44.64    1.59
  10   0   4   41.84    1.56
  -1 -10  -4    2.91    0.40
  -1 -10  -4    3.27    0.49
  10  -1  -4    3.50    0.43
 -10   1  -4    2.54    0.41
  10  -1   4    3.37    0.46
   1  10   4    1.57    0.41
  10  -1   4    3.09    0.37
  10  -1   4    2.97    0.38
 -10   1   4    2.73    0.29
  -1 -10   4    2.50    0.40
  10  -2  -4   42.05    1.61
  -2 -10  -4   39.08    1.64
  -2 -10  -4   40.32    1.54
 -10   2  -4   40.79    1.63
  10  -2   4   42.70    1.52
   2  10   4   36.82    1.69
  -2 -10   4   39.79    1.55
  10  -2   4   42.52    1.56
  10  -2   4   41.30    1.62
  -3 -10  -4   -0.23    0.31
  -3 -10  -4    0.29    0.30
 -10   3  -4   -0.16    0.25
  10  -3  -4    0.15    0.30
  10  -3   4    0.45    0.31
  -3 -10   4    0.00    0.28
   3  10   4    0.13    0.32
  10  -3   4   -0.03    0.22
  10  -3   4    0.17    0.26
 -10   4  -4    5.08    0.55
  -4 -10  -4    5.35    0.53
  -4 -10  -4    5.28    0.61
  10  -4  -4    4.10    0.53
   4  10   4    3.81    0.55
  -4 -10   4    5.61    0.51
  10  -4   4    5.10    0.48
  10  -4   4    4.77    0.43
  10  -4   4    4.71    0.54
 -10   5  -4    0.22    0.29
  -5 -10  -4    0.18    0.30
  -5 -10  -4    0.54    0.39
  10  -5  -4    0.00    0.32
  -5 -10   4    0.16    0.29
  10  -5   4    0.09    0.24
  10  -5   4    0.37    0.28
  10  -5   4    0.33    0.33
   5  10   4    0.15    0.35
  10  -6  -4    4.01    0.56
  -6 -10  -4    4.41    0.59
 -10   6  -4    4.77    0.53
  -6 -10  -4    5.13    0.55
   6  10  -4    5.33    0.48
  10  -6   4    5.22    0.46
   6  10   4    5.98    0.67
  -6 -10   4    5.71    0.53
  10  -6   4    4.41    0.55
  10  -7  -4    1.06    0.44
   7  10  -4    0.62    0.22
  -7 -10  -4    0.63    0.37
  -7 -10  -4    0.90    0.44
 -10   7  -4    0.60    0.32
  -7 -10   4    1.03    0.36
  10  -7   4    1.32    0.31
  10  -7   4    0.54    0.39
   7  10   4    0.53    0.38
 -10   8  -4    0.98    0.33
  -8 -10  -4    1.61    0.44
  -8 -10  -4    1.17    0.46
   8  10  -4    0.54    0.25
  10  -8  -4    0.69    0.43
  -8 -10   4    0.91    0.38
  10  -8   4    1.03    0.43
   8  10   4    0.79    0.42
  -9 -10  -4   -0.45    0.38
   9  10  -4    0.01    0.24
  -9 -10  -4    0.39    0.40
  10  -9  -4    0.46    0.44
 -10   9  -4    0.35    0.31
  -9 -10   4    0.13    0.35
   9  10   4   -0.27    0.37
  10  -9   4   -0.05    0.40
 -10 -10  -4    1.72    0.52
  10 -10  -4    2.33    0.55
  10  10  -4    1.69    0.34
 -10 -10  -4    1.66    0.50
 -10  10  -4    1.74    0.42
 -10 -10   4    1.41    0.45
  10  10   4    1.87    0.46
  10 -10   4    1.35    0.48
  10 -11  -4    1.42    0.54
 -11 -10  -4    1.61    0.55
 -11 -10  -4    1.97    0.56
  11  10  -4    1.26    0.35
 -10  11  -4    2.09    0.44
  10 -11   4    1.61    0.52
  11  10   4    1.65    0.46
 -11 -10   4    2.56    0.52
   9 -11  -4    0.60    0.50
 -11  -9  -4    1.05    0.49
 -11  -9  -4    1.32    0.49
  11   9  -4    0.69    0.30
  -9  11  -4    0.38    0.33
   9 -11   4    1.11    0.48
 -11  -9   4    0.97    0.42
  11   9   4    1.14    0.49
  11   9   4    1.24    0.41
  11   8  -4   13.70    0.76
  -8  11  -4   13.01    0.79
 -11  -8  -4   13.24    0.94
   8 -11  -4   12.25    0.98
   8 -11  -4   13.78    0.78
   8 -11  -4   12.71    0.85
 -11  -8  -4   10.95    0.95
 -11  -8   4   13.63    0.85
  11   8   4   14.20    0.92
  11   8   4   13.30    0.86
  11   8   4   13.54    0.99
   8 -11   4   12.70    0.95
 -11  -7  -4   27.16    1.34
 -11  -7  -4   26.98    1.29
  11   7  -4   26.91    1.16
   7 -11  -4   25.90    1.35
   7 -11  -4   24.17    1.22
  -7  11  -4   24.99    1.13
   7 -11  -4   26.41    1.12
   7 -11   4   26.73    1.31
  11   7   4   28.38    1.26
  11   7   4   27.73    1.25
  11   7   4   25.99    1.32
   6 -11  -4    1.07    0.39
 -11  -6  -4    1.24    0.41
   6 -11  -4    1.88    0.37
  11   6  -4    1.41    0.33
  -6  11  -4    1.91    0.33
 -11  -6  -4    0.87    0.45
   6 -11  -4    1.53    0.49
   6 -11   4    1.26    0.44
  11   6   4    1.36    0.42
  11   6   4    0.81    0.37
  11   6   4    0.86    0.33
 -11  -5  -4   32.90    1.45
 -11  -5  -4   30.76    1.34
  11   5  -4   29.11    1.25
   5 -11  -4   29.84    1.23
   5 -11  -4   29.23    1.33
  -5  11  -4   28.65    1.19
   5 -11  -4   31.30    1.44
  11   5   4   29.62    1.33
   5 -11   4   29.84    1.36
  11   5   4   31.97    1.32
  11   5   4   31.45    1.37
   4 -11  -4    1.72    0.45
 -11  -4  -4    1.31    0.41
  11   4  -4    2.25    0.37
 -11  -4  -4    1.99    0.43
   4 -11  -4    1.18    0.39
  -4  11  -4    2.15    0.31
   4 -11  -4    1.82    0.36
  11   4   4    1.85    0.38
   4 -11   4    1.70    0.43
  11   4   4    1.98    0.43
  11   4   4    1.64    0.38
   3 -11  -4    6.27    0.68
 -11  -3  -4    6.98    0.70
   3 -11  -4    6.82    0.64
  11   3  -4    5.75    0.54
  -3  11  -4    6.36    0.43
   3 -11  -4    6.27    0.53
  11   3   4    6.54    0.63
  11   3   4    5.52    0.55
  11   3   4    6.19    0.56
   3 -11   4    5.44    0.59
  11   2  -4    0.31    0.28
   2 -11  -4   -0.03    0.36
 -11  -2  -4    0.38    0.37
   2 -11  -4    0.11    0.31
   2 -11  -4    0.47    0.31
  11   2   4    0.42    0.33
   2 -11   4    0.38    0.34
  11   2   4    0.16    0.27
  11   2   4    0.28    0.28
   1 -11  -4    0.37    0.30
  11   1  -4    1.04    0.31
   1 -11  -4    0.16    0.36
   1 -11  -4    0.90    0.38
 -11  -1  -4    0.29    0.33
  11   1   4    0.12    0.27
   1 -11   4    0.70    0.36
  11   1   4    0.05    0.25
  11   1   4    0.65    0.34
  11   0  -4    0.02    0.27
   0 -11  -4    0.15    0.35
   0 -11  -4   -0.04    0.35
 -11   0  -4    0.33    0.31
   0 -11  -4    0.15    0.30
  11   0   4    0.16    0.26
  11   0   4    0.28    0.25
   0 -11   4    0.47    0.34
  11   0   4    0.22    0.30
  11  -1  -4   21.51    1.05
  -1 -11  -4   23.20    1.02
 -11   1  -4   21.87    1.09
  -1 -11  -4   21.56    1.09
  -1 -11   4   22.13    1.04
  11  -1   4   21.03    1.07
  11  -1   4   21.64    0.98
  11  -1   4   22.41    0.99
  -2 -11  -4    0.39    0.36
  -2 -11  -4    0.07    0.31
  11  -2  -4    0.02    0.28
 -11   2  -4    0.37    0.31
  11  -2   4    0.79    0.28
  11  -2   4   -0.14    0.32
  -2 -11   4    0.02    0.32
  11  -2   4    0.54    0.27
  -3 -11  -4    9.55    0.69
 -11   3  -4   11.36    0.74
  11  -3  -4    9.39    0.74
  -3 -11  -4    9.39    0.77
  11  -3   4    9.68    0.65
  11  -3   4   10.18    0.74
  -3 -11   4    9.24    0.70
  11  -3   4    8.15    0.60
  -4 -11  -4    2.28    0.44
 -11   4  -4    2.64    0.47
  -4 -11  -4    1.68    0.46
  11  -4  -4    2.42    0.46
  11  -4   4    2.12    0.37
  11  -4   4    2.06    0.44
  11  -4   4    2.63    0.37
  -4 -11   4    3.04    0.46
  11  -5  -4   66.04    2.47
  -5 -11  -4   63.45    2.47
 -11   5  -4   66.87    2.44
  -5 -11  -4   67.46    2.42
  11  -5   4   68.79    2.38
  -5 -11   4   63.60    2.37
  11  -5   4   65.73    2.31
  11  -5   4   70.08    2.49
 -11   6  -4    2.90    0.48
  -6 -11  -4    1.99    0.51
  11  -6  -4    1.95    0.45
  -6 -11  -4    2.39    0.47
  -6 -11   4    2.02    0.43
  11  -6   4    1.51    0.44
  11  -6   4    1.21    0.32
  -7 -11  -4   27.52    1.34
  11  -7  -4   26.07    1.33
 -11   7  -4   25.99    1.24
  -7 -11  -4   27.79    1.29
  -7 -11   4   28.20    1.24
  11  -7   4   26.75    1.31
  11  -7   4   27.02    1.16
  -8 -11  -4    6.81    0.73
  11  -8  -4    8.01    0.79
 -11   8  -4    6.73    0.67
  -8 -11  -4    6.99    0.69
  11  -8   4    8.26    0.77
  -8 -11   4    7.56    0.68
  11  -9  -4   13.07    1.00
  -9 -11  -4   15.66    1.06
 -11   9  -4   13.60    0.88
  -9 -11  -4   16.14    1.02
  11  -9   4   13.34    0.99
  -9 -11   4   14.36    0.93
  10  11  -4   -0.05    0.28
 -10 -11  -4    0.71    0.49
 -10 -11  -4   -0.53    0.40
 -11  10  -4    0.02    0.34
  11 -10  -4   -0.25    0.46
  11 -10   4    0.20    0.46
 -10 -11   4    0.38    0.43
 -11 -11  -4   -0.08    0.46
  11 -11  -4   -0.18    0.47
 -11 -11  -4   -0.38    0.44
 -11  11  -4    0.18    0.35
  11  11  -4    0.14    0.30
  11 -11   4    0.23    0.48
  11  11   4   -0.54    0.35
 -11 -11   4    0.42    0.46
 -12 -11  -4    0.07    0.53
 -11  12  -4    0.11    0.37
  11 -12  -4    0.35    0.53
 -12 -11  -4   -0.14    0.52
  12  11  -4    0.48    0.33
 -12 -11   4    0.57    0.48
  11 -12   4    0.35    0.52
  12  11   4    0.28    0.44
 -12 -10  -4    3.85    0.67
 -12 -10  -4    3.90    0.65
 -10  12  -4    4.70    0.58
  10 -12  -4    3.65    0.68
  12  10  -4    3.35    0.47
  10 -12   4    3.09    0.64
  12  10   4    2.97    0.55
 -12 -10   4    4.83    0.63
 -12  -9  -4    0.17    0.47
  12   9  -4    0.12    0.29
   9 -12  -4   -0.14    0.49
  -9  12  -4   -0.02    0.29
 -12  -9  -4    0.29    0.47
  12   9   4    1.01    0.53
  12   9   4    0.81    0.45
 -12  -9   4   -0.05    0.39
   9 -12   4    0.49    0.49
   8 -12  -4    0.06    0.48
 -12  -8  -4   -0.06    0.43
   8 -12  -4    0.38    0.42
 -12  -8  -4    0.34    0.43
  -8  12  -4    0.43    0.32
   8 -12  -4    0.17    0.36
  12   8  -4   -0.32    0.26
  12   8   4    0.62    0.44
   8 -12   4    1.10    0.49
  12   8   4   -0.33    0.34
 -12  -8   4    0.33    0.39
  12   8   4    0.43    0.38
  -7  12  -4    0.28    0.28
   7 -12  -4   -0.04    0.31
 -12  -7  -4    0.35    0.43
 -12  -7  -4    0.58    0.48
   7 -12  -4    0.55    0.39
  12   7  -4    0.20    0.29
   7 -12  -4   -0.44    0.42
  12   7   4    0.40    0.35
  12   7   4    0.14    0.34
   7 -12   4    0.21    0.41
  12   7   4    0.07    0.37
   6 -12  -4    9.72    0.68
  -6  12  -4   10.15    0.64
 -12  -6  -4    8.08    0.79
   6 -12  -4    9.83    0.76
 -12  -6  -4   11.25    0.83
   6 -12  -4   11.51    0.94
  12   6  -4   10.24    0.71
  12   6   4    9.10    0.75
   6 -12   4   10.21    0.85
  12   6   4   11.27    0.89
  12   6   4   10.02    0.76
   5 -12  -4   -0.11    0.31
 -12  -5  -4   -0.40    0.34
   5 -12  -4   -0.13    0.36
   5 -12  -4   -0.14    0.40
  -5  12  -4    0.08    0.23
 -12  -5  -4   -0.23    0.39
  12   5  -4    0.37    0.29
  12   5   4    0.21    0.32
  12   5   4   -0.37    0.30
   5 -12   4   -0.12    0.37
  12   5   4   -0.43    0.32
  12   4  -4   13.56    0.79
   4 -12  -4   12.10    0.76
  -4  12  -4   12.49    0.66
 -12  -4  -4   12.25    0.90
 -12  -4  -4   13.94    0.86
   4 -12  -4   11.90    0.82
   4 -12  -4   12.84    0.94
  12   4   4   11.91    0.82
   4 -12   4   12.31    0.88
  12   4   4   13.00    0.83
  12   4   4   13.17    0.80
  12   3  -4    0.96    0.33
   3 -12  -4    1.09    0.48
   3 -12  -4    1.26    0.36
 -12  -3  -4    0.95    0.42
   3 -12  -4    1.36    0.42
  12   3   4    0.48    0.33
  12   3   4    0.82    0.36
  12   3   4    0.66    0.32
   3 -12   4    1.29    0.42
   2 -12  -4   32.41    1.55
  12   2  -4   37.65    1.47
   2 -12  -4   33.86    1.40
   2 -12  -4   36.31    1.51
 -12  -2  -4   35.30    1.54
   2 -12   4   34.59    1.49
  12   2   4   35.60    1.41
  12   2   4   32.58    1.47
  12   2   4   33.01    1.43
 -12  -1  -4    6.96    0.71
  12   1  -4    8.24    0.67
   1 -12  -4    6.16    0.63
   1 -12  -4    6.79    0.61
   1 -12  -4    6.67    0.71
  12   1   4    8.46    0.72
  12   1   4    7.96    0.60
   1 -12   4    6.66    0.66
  12   1   4    8.25    0.65
  12   0  -4  129.33    4.37
   0 -12  -4  130.60    4.40
 -12   0  -4  128.32    4.44
   0 -12  -4  132.86    4.32
  12   0   4  130.21    4.40
  12   0   4  134.60    4.33
  12   0   4  130.66    4.29
   0 -12   4  130.44    4.37
  -1 -12  -4    3.00    0.47
  -1 -12  -4    3.43    0.55
 -12   1  -4    2.07    0.42
  12  -1  -4    2.36    0.44
  -1 -12   4    2.52    0.47
  12  -1   4    2.37    0.38
  12  -1   4    2.17    0.40
  12  -1   4    1.97    0.46
 -12   2  -4   39.60    1.63
  12  -2  -4   38.36    1.59
  -2 -12  -4   38.52    1.62
  -2 -12  -4   39.14    1.56
  12  -2   4   38.33    1.51
  -2 -12   4   39.37    1.59
  12  -2   4   35.54    1.60
  12  -2   4   38.72    1.51
  12  -3  -4   -0.19    0.33
  -3 -12  -4    0.13    0.35
  -3 -12  -4   -0.22    0.36
 -12   3  -4    0.11    0.30
  12  -3   4   -0.13    0.34
  12  -3   4    0.08    0.28
  -3 -12   4    0.55    0.38
  12  -3   4    0.11    0.29
  12  -4  -4    0.87    0.39
  -4 -12  -4    0.61    0.42
 -12   4  -4    0.80    0.38
  -4 -12  -4    1.84    0.44
  12  -4   4    1.31    0.42
  -4 -12   4    1.02    0.40
  12  -4   4    1.49    0.34
  12  -4   4    1.49    0.35
 -12   5  -4    1.64    0.42
  12  -5  -4    1.63    0.45
  -5 -12  -4    1.79    0.46
  -5 -12  -4    1.69    0.50
  -5 -12   4    1.94    0.45
  12  -5   4    2.22    0.38
  12  -5   4    2.17    0.47
  12  -5   4    2.23    0.40
  12  -6  -4    4.72    0.60
 -12   6  -4    4.94    0.61
  -6 -12  -4    4.09    0.61
  -6 -12  -4    4.18    0.58
  12  -6   4    4.84    0.53
  -6 -12   4    4.90    0.58
  12  -6   4    4.56    0.61
  12  -6   4    4.74    0.50
 -12   7  -4    0.23    0.35
  12  -7  -4    0.12    0.43
  -7 -12  -4    0.51    0.44
  -7 -12  -4    0.25    0.39
  -7 -12   4    0.43    0.40
  12  -7   4    0.45    0.42
  12  -7   4    0.36    0.32
  -8 -12  -4    1.41    0.51
 -12   8  -4    2.48    0.51
  12  -8  -4    1.52    0.49
  -8 -12  -4    1.78    0.51
  -8 -12   4    1.99    0.49
  12  -8   4    2.01    0.53
  -9 -12  -4    1.51    0.52
 -12   9  -4    2.13    0.48
  -9 -12  -4    2.04    0.56
  12  -9  -4    1.17    0.55
  -9 -12   4    2.39    0.52
  12  -9   4    2.25    0.55
 -12  10  -4    3.49    0.55
 -10 -12  -4    4.10    0.69
 -10 -12  -4    4.55    0.67
  12 -10  -4    5.18    0.74
  12 -10   4    4.97    0.70
 -10 -12   4    4.79    0.66
  12 -11  -4    0.70    0.58
 -12  11  -4    0.96    0.42
 -11 -12  -4    0.53    0.55
 -11 -12  -4    1.11    0.56
 -11 -12   4    1.33    0.53
  12 -11   4    1.00    0.54
  11  12   4    0.47    0.43
  12 -12  -4   14.46    1.14
 -12  12  -4   10.51    0.90
 -12 -12  -4   11.58    1.05
 -12 -12  -4   10.96    1.02
  12  12   4    9.92    0.92
 -12 -12   4   10.33    0.91
  12 -12   4   11.88    1.05
 -13 -12  -4    0.65    0.61
  12 -13  -4    0.30    0.61
 -12  13  -4    0.44    0.41
 -13 -12  -4    0.19    0.57
  12 -13   4    0.04    0.55
  13  12   4    0.23    0.48
 -13 -12   4    0.67    0.58
  13  11  -4    0.79    0.36
 -13 -11  -4    0.76    0.59
 -11  13  -4    0.17    0.38
 -13 -11  -4   -0.23    0.55
  11 -13  -4    1.34    0.62
 -13 -11   4    0.33    0.51
  13  11   4    0.49    0.47
  11 -13   4    0.25    0.54
 -13 -10  -4    3.30    0.67
 -10  13  -4    3.99    0.56
  13  10  -4    2.27    0.43
  10 -13  -4    2.80    0.72
 -13 -10  -4    1.98    0.63
 -13 -10   4    3.24    0.59
  13  10   4    1.73    0.51
  10 -13   4    2.62    0.65
 -13  -9  -4    9.59    0.91
  13   9  -4    7.92    0.67
 -13  -9  -4    7.30    0.85
   9 -13  -4    7.95    0.87
  -9  13  -4    8.34    0.72
  13   9   4    8.86    0.81
 -13  -9   4    8.49    0.77
  13   9   4    6.46    0.71
   9 -13   4    8.57    0.88
   8 -13  -4    1.41    0.48
   8 -13  -4    1.63    0.58
 -13  -8  -4    1.31    0.52
 -13  -8  -4    1.70    0.57
  13   8  -4    0.91    0.35
   8 -13  -4    1.74    0.48
  -8  13  -4    0.94    0.34
  13   8   4    1.34    0.50
 -13  -8   4    1.69    0.49
  13   8   4    0.83    0.42
  13   8   4    1.47    0.48
   8 -13   4    0.95    0.55
  13   7  -4    8.58    0.68
   7 -13  -4    7.42    0.66
   7 -13  -4    7.89    0.75
 -13  -7  -4    9.78    0.87
   7 -13  -4    8.05    0.84
 -13  -7  -4    6.91    0.82
  -7  13  -4    7.42    0.63
   7 -13   4    7.04    0.76
  13   7   4    8.27    0.85
  13   7   4    6.91    0.71
  13   7   4    8.23    0.78
 -13  -6  -4   14.13    0.97
   6 -13  -4   13.54    0.84
  -6  13  -4   13.29    0.77
 -13  -6  -4   12.34    0.99
  13   6  -4   14.53    0.85
   6 -13  -4   13.88    1.04
   6 -13  -4   12.23    0.89
  13   6   4   14.25    0.93
  13   6   4   12.96    0.96
  13   6   4   15.77    0.96
   6 -13   4   12.79    0.97
 -13  -5  -4    7.17    0.79
  -5  13  -4    8.96    0.97
   5 -13  -4    7.98    0.74
 -13  -5  -4    7.75    0.78
   5 -13  -4   10.19    0.72
   5 -13  -4    8.03    0.82
  13   5  -4    8.23    0.69
  13   5   4    7.38    0.74
  13   5   4    7.22    0.71
   5 -13   4    8.54    0.79
  13   5   4    8.52    0.75
   4 -13  -4   -0.01    0.34
   4 -13  -4   -0.01    0.47
 -13  -4  -4    0.12    0.39
  13   4  -4    0.57    0.31
   4 -13  -4    0.16    0.37
 -13  -4  -4    0.33    0.42
  13   4   4    0.61    0.39
  13   4   4    1.32    0.39
  13   4   4   -0.07    0.33
   4 -13   4    0.41    0.43
   3 -13  -4    1.18    0.51
   3 -13  -4    1.59    0.45
   3 -13  -4    2.93    0.48
 -13  -3  -4    2.72    0.54
  13   3  -4    2.50    0.43
  13   3   4    2.26    0.42
  13   3   4    2.42    0.46
  13   3   4    2.08    0.47
   3 -13   4    3.34    0.55
  13   2  -4    0.11    0.29
   2 -13  -4    0.15    0.37
   2 -13  -4   -0.14    0.42
   2 -13  -4   -0.05    0.35
 -13  -2  -4   -0.48    0.35
  13   2   4   -0.04    0.35
  13   2   4    0.17    0.33
   2 -13   4    0.46    0.41
  13   2   4    0.14    0.30
   1 -13  -4    1.45    0.50
 -13  -1  -4    0.75    0.40
   1 -13  -4    1.79    0.43
   1 -13  -4    2.50    0.50
  13   1  -4    1.54    0.41
   1 -13   4    1.40    0.45
  13   1   4    1.66    0.44
  13   1   4    1.70    0.39
  13   1   4    1.74    0.35
  13   0  -4    3.83    0.54
   0 -13  -4    5.23    0.63
 -13   0  -4    4.77    0.62
   0 -13  -4    5.59    0.59
   0 -13   4    4.81    0.58
  13   0   4    5.80    0.63
  13   0   4    4.63    0.48
  13   0   4    4.85    0.54
  13  -1  -4    0.20    0.33
  -1 -13  -4    0.13    0.39
  -1 -13  -4    0.30    0.37
 -13   1  -4    0.17    0.34
  -1 -13   4    0.21    0.40
  13  -1   4    0.19    0.31
  13  -1   4    0.42    0.37
  13  -1   4    0.53    0.29
 -13   2  -4    7.18    0.72
  13  -2  -4    7.50    0.70
  -2 -13  -4    8.55    0.71
  -2 -13  -4    6.72    0.70
  13  -2   4    8.00    0.62
  -2 -13   4    8.43    0.73
  13  -2   4    7.77    0.73
  13  -2   4    6.97    0.63
  -3 -13  -4    1.90    0.47
  13  -3  -4    3.87    0.55
  -3 -13  -4    2.17    0.51
 -13   3  -4    2.47    0.50
  13  -3   4    2.51    0.41
  -3 -13   4    1.71    0.48
  13  -3   4    2.43    0.51
  13  -3   4    2.61    0.42
  -4 -13  -4    1.53    0.47
  13  -4  -4    2.23    0.49
 -13   4  -4    1.81    0.46
  -4 -13  -4    2.46    0.53
  13  -4   4    1.93    0.38
  13  -4   4    2.31    0.41
  -4 -13   4    2.07    0.50
  13  -4   4    2.60    0.52
 -13   5  -4   21.13    1.14
  13  -5  -4   19.49    1.15
  -5 -13  -4   22.20    1.14
  -5 -13  -4   20.67    1.18
  13  -5   4   18.47    0.99
  -5 -13   4   22.01    1.12
  13  -5   4   20.95    1.16
  13  -5   4   20.72    1.01
  -6 -13  -4    0.66    0.46
 -13   6  -4    0.54    0.40
  -6 -13  -4    0.52    0.46
  13  -6  -4    0.55    0.44
  13  -6   4    0.88    0.35
  13  -6   4    0.81    0.46
  13  -6   4    0.27    0.34
  -6 -13   4    0.57    0.43
  -7 -13  -4   18.34    1.10
  -7 -13  -4   18.14    1.11
 -13   7  -4   17.41    1.06
  13  -7  -4   17.64    1.12
  13  -7   4   17.58    1.13
  13  -7   4   17.40    0.97
  -7 -13   4   18.55    1.06
  13  -7   4   18.48    0.97
  -8 -13  -4    0.72    0.51
  -8 -13  -4    0.91    0.50
 -13   8  -4    0.63    0.41
  13  -8  -4    0.73    0.48
  13  -8   4    0.80    0.48
  -8 -13   4    0.41    0.45
  13  -9  -4    1.68    0.59
  -9 -13  -4    1.06    0.52
  -9 -13  -4    0.85    0.54
 -13   9  -4    0.26    0.41
  13  -9   4    0.48    0.51
  -9 -13   4    1.89    0.55
 -10 -13  -4    1.73    0.58
 -10 -13  -4    1.34    0.56
  13 -10  -4    1.53    0.60
 -13  10  -4    0.61    0.42
 -10 -13   4    1.02    0.53
  13 -10   4    1.29    0.55
  13 -11  -4    0.48    0.60
 -11 -13  -4    0.61    0.55
 -11 -13  -4    1.15    0.59
 -13  11  -4    0.64    0.45
 -11 -13   4    0.37    0.55
  11  13   4   -0.03    0.43
  13 -11   4    0.60    0.54
 -12 -13  -4    0.01    0.56
 -13  12  -4    0.41    0.43
  13 -12  -4    0.11    0.60
 -12 -13  -4    1.33    0.65
  13 -12   4    0.60    0.58
 -12 -13   4    0.71    0.59
  12  13   4    0.50    0.52
 -13 -13  -4    0.78    0.67
  13 -13  -4    0.00    0.66
 -13  13  -4   -0.10    0.43
 -13 -13  -4   -0.01    0.59
  13 -13   4   -0.02    0.58
  13  13   4   -0.33    0.50
 -13 -13   4   -0.01    0.57
 -14 -13  -4    3.61    0.83
 -14 -13  -4    2.05    0.69
  13 -14  -4    4.36    0.87
 -13  14  -4    2.81    0.61
 -14 -13   4    3.87    0.79
  14  13   4    3.00    0.68
  13 -14   4    4.04    0.83
 -14 -12  -4   11.59    1.10
  12 -14  -4   10.37    1.10
 -12  14  -4    9.31    0.87
 -14 -12  -4    8.38    0.99
  14  12   4    9.09    0.92
 -14 -12   4   10.05    0.96
  12 -14   4   10.18    1.04
 -11  14  -4   -0.30    0.36
  11 -14  -4    0.01    0.61
 -14 -11  -4   -0.53    0.57
 -14 -11  -4   -0.10    0.58
  14  11  -4   -0.23    0.34
 -14 -11   4   -0.44    0.52
  14  11   4    0.35    0.46
  11 -14   4   -0.05    0.57
 -14 -10  -4    4.92    0.76
 -14 -10  -4    2.94    0.70
  10 -14  -4    3.48    0.76
  14  10  -4    3.09    0.49
 -10  14  -4    3.61    0.55
  14  10   4    3.70    0.61
  10 -14   4    2.59    0.68
 -14 -10   4    3.22    0.64
 -14  -9  -4    0.12    0.53
  14   9  -4    0.27    0.34
   9 -14  -4    0.52    0.59
  -9  14  -4    0.63    0.37
 -14  -9  -4    0.24    0.54
 -14  -9   4    0.59    0.50
   9 -14   4    0.21    0.53
  14   9   4    0.26    0.46
  14   9   4    0.12    0.44
 -14  -8  -4    0.14    0.52
 -14  -8  -4   -0.38    0.48
   8 -14  -4   -1.03    0.49
   8 -14  -4   -0.28    0.41
  14   8  -4   -0.32    0.32
   8 -14  -4    0.24    0.49
  -8  14  -4   -0.14    0.30
  14   8   4    0.68    0.50
   8 -14   4    0.28    0.52
  14   8   4   -0.08    0.42
 -14  -8   4   -0.16    0.45
  14   8   4    0.07    0.41
   7 -14  -4    0.65    0.54
  -7  14  -4    0.09    0.31
   7 -14  -4   -0.47    0.36
 -14  -7  -4   -0.28    0.47
 -14  -7  -4   -0.90    0.43
   7 -14  -4   -0.02    0.43
  14   7  -4    0.51    0.34
  14   7   4   -0.19    0.41
  14   7   4   -0.33    0.36
  14   7   4   -0.39    0.36
   7 -14   4   -0.25    0.49
   6 -14  -4   13.50    1.10
 -14  -6  -4   16.42    1.12
   6 -14  -4   16.19    0.95
  14   6  -4   15.84    0.94
   6 -14  -4   16.56    1.02
 -14  -6  -4   16.88    1.13
  14   6   4   18.05    1.13
   6 -14   4   15.37    1.09
  14   6   4   18.21    1.07
  14   6   4   17.23    1.05
  14   5  -4    3.41    0.51
   5 -14  -4    2.80    0.55
   5 -14  -4    3.66    0.53
 -14  -5  -4    3.31    0.63
   5 -14  -4    2.31    0.61
 -14  -5  -4    3.59    0.62
   5 -14   4    2.34    0.56
  14   5   4    2.51    0.50
  14   5   4    3.83    0.63
  14   5   4    2.70    0.54
   4 -14  -4   22.00    1.13
   4 -14  -4   23.89    1.34
   4 -14  -4   24.62    1.21
 -14  -4  -4   22.65    1.29
  14   4  -4   24.00    1.17
 -14  -4  -4   23.12    1.24
  14   4   4   22.70    1.21
   4 -14   4   22.65    1.26
  14   4   4   21.51    1.20
  14   4   4   22.11    1.20
   3 -14  -4    1.68    0.48
   3 -14  -4    1.37    0.46
  14   3  -4    2.22    0.47
 -14  -3  -4    1.61    0.50
   3 -14  -4    1.70    0.58
  14   3   4    1.40    0.41
  14   3   4    1.91    0.45
   3 -14   4    1.53    0.52
  14   3   4    1.52    0.47
  14   2  -4   52.49    2.01
   2 -14  -4   48.42    2.13
   2 -14  -4   52.49    1.99
   2 -14  -4   50.15    2.04
 -14  -2  -4   50.52    2.11
  14   2   4   52.15    2.06
  14   2   4   50.99    2.01
  14   2   4   51.68    1.96
   2 -14   4   52.77    2.09
 -14  -1  -4    0.36    0.40
  14   1  -4    0.22    0.36
   1 -14  -4    0.43    0.40
   1 -14  -4    0.56    0.49
   1 -14  -4    0.31    0.42
   1 -14   4    0.85    0.49
  14   1   4    0.88    0.37
  14   1   4    0.33    0.41
  14   1   4    0.72    0.34
   0 -14  -4   48.66    2.00
  14   0  -4   52.35    2.02
   0 -14  -4   50.08    1.96
 -14   0  -4   49.10    2.04
  14   0   4   49.39    2.02
  14   0   4   51.81    1.87
   0 -14   4   47.81    2.00
  14   0   4   50.39    1.95
  14  -1  -4   16.96    0.99
  -1 -14  -4   15.91    0.97
  -1 -14  -4   16.29    1.03
 -14   1  -4   14.69    1.00
  14  -1   4   15.50    0.92
  -1 -14   4   14.34    1.01
  14  -1   4   14.85    0.83
  14  -1   4   15.89    1.01
 -14   2  -4   40.80    1.83
  -2 -14  -4   44.71    1.84
  -2 -14  -4   44.65    1.80
  14  -2  -4   44.69    1.85
  14  -2   4   43.40    1.84
  -2 -14   4   43.60    1.83
  14  -2   4   43.69    1.68
  14  -2   4   44.66    1.75
  14  -3  -4    8.00    0.76
  -3 -14  -4   10.27    0.86
  -3 -14  -4    8.19    0.76
 -14   3  -4    9.69    0.86
  14  -3   4    7.86    0.68
  14  -3   4    9.28    0.67
  -3 -14   4    7.57    0.76
  14  -3   4    7.91    0.79
 -14   4  -4   12.11    0.97
  14  -4  -4   12.45    0.96
  -4 -14  -4    9.05    0.82
  -4 -14  -4   10.75    0.89
  14  -4   4   10.38    0.77
  14  -4   4   10.63    0.78
  14  -4   4   11.69    0.94
  -4 -14   4    8.63    0.81
  14  -5  -4    0.46    0.46
 -14   5  -4    0.34    0.42
  -5 -14  -4    0.59    0.48
  -5 -14  -4    0.73    0.49
  14  -5   4    1.21    0.40
  -5 -14   4    0.54    0.46
  14  -5   4    0.58    0.44
  -6 -14  -4   -0.05    0.49
  14  -6  -4    0.43    0.43
 -14   6  -4    0.50    0.42
  -6 -14  -4   -0.19    0.45
  14  -6   4    0.76    0.46
  -6 -14   4    0.57    0.47
  14  -6   4    0.97    0.40
 -14   7  -4    1.13    0.46
  14  -7  -4    1.79    0.57
  -7 -14  -4    1.63    0.55
  -7 -14  -4    1.84    0.57
  14  -7   4    1.34    0.51
  14  -7   4    1.63    0.44
  -7 -14   4    1.74    0.54
 -14   8  -4    9.17    0.86
  -8 -14  -4    7.15    0.81
  14  -8  -4    8.24    0.89
  -8 -14  -4    8.19    0.86
  14  -8   4    7.94    0.85
  -8 -14   4    7.24    0.79
  14  -9  -4    1.42    0.59
  -9 -14  -4    1.43    0.61
  -9 -14  -4    1.71    0.59
 -14   9  -4    1.74    0.51
  -9 -14   4    1.53    0.55
  14  -9   4    0.86    0.51
 -14  10  -4    7.48    0.81
 -10 -14  -4    6.48    0.82
 -10 -14  -4    6.89    0.86
  14 -10  -4    7.76    0.90
  14 -10   4    7.76    0.86
 -10 -14   4    7.35    0.82
 -14  11  -4   -0.20    0.39
 -11 -14  -4    1.43    0.64
  14 -11  -4    0.01    0.59
 -11 -14  -4    0.46    0.57
  11  14   4    0.62    0.49
  14 -11   4   -0.03    0.54
 -11 -14   4   -0.03    0.57
  14 -12  -4   31.03    1.74
 -12 -14  -4   34.22    1.74
 -14  12  -4   30.23    1.58
 -12 -14  -4   28.13    1.63
  14 -12   4   32.02    1.70
 -12 -14   4   29.10    1.58
  12  14   4   32.54    1.61
 -13 -14  -4    3.59    0.75
 -13 -14  -4    3.34    0.81
 -14  13  -4    2.60    0.60
  14 -13  -4    1.64    0.74
  14 -13   4    3.37    0.75
 -13 -14   4    3.45    0.77
  13  14   4    2.39    0.68
 -14  14  -4   14.38    1.17
  14 -14  -4   17.94    1.44
 -14 -14  -4   13.25    1.21
 -14 -14  -4   19.56    1.41
  14  14   4   18.24    1.26
  14 -14   4   14.41    1.29
 -14 -14   4   17.23    1.31
 -15 -14  -4    0.49    0.78
 -15 -14  -4    0.02    0.66
 -14  15  -4    0.32    0.50
  14 -15  -4    1.50    0.83
  15  14   4    0.32    0.60
  14 -15   4    0.58    0.71
 -15 -14   4   -0.82    0.67
 -15 -13  -4    0.46    0.72
 -15 -13  -4    1.25    0.71
  13 -15  -4    0.51    0.74
 -13  15  -4    0.85    0.53
  15  13   4    1.41    0.65
 -15 -13   4    1.91    0.72
  13 -15   4    1.14    0.72
 -15 -12  -4   -0.28    0.68
  12 -15  -4    1.09    0.73
 -15 -12  -4    0.85    0.67
 -12  15  -4    0.68    0.46
 -15 -12   4    1.47    0.66
  15  12   4    0.97    0.57
  12 -15   4    0.32    0.66
 -11  15  -4    4.58    0.64
 -15 -11  -4    4.97    0.86
  11 -15  -4    5.28    0.92
  15  11  -4    2.93    0.53
 -15 -11  -4    4.18    0.78
  11 -15   4    3.10    0.78
 -15 -11   4    3.56    0.74
  15  11   4    4.07    0.72
 -15 -10  -4    0.26    0.61
  15  10  -4    0.59    0.40
 -10  15  -4    0.34    0.39
  10 -15  -4   -0.48    0.61
 -15 -10  -4    0.02    0.55
  15  10   4   -0.69    0.48
  10 -15   4    0.45    0.61
 -15 -10   4   -0.30    0.53
  -9  15  -4    0.32    0.37
 -15  -9  -4    0.42    0.59
  15   9  -4    0.36    0.37
   9 -15  -4    0.08    0.59
 -15  -9  -4    0.60    0.58
  15   9   4    0.08    0.45
 -15  -9   4    0.23    0.52
  15   9   4   -0.35    0.47
   9 -15   4    0.57    0.61
 -15  -8  -4    1.14    0.60
  15   8  -4    0.80    0.41
   8 -15  -4    0.88    0.64
 -15  -8  -4    1.30    0.61
   8 -15  -4    1.22    0.53
  15   8   4    1.20    0.47
   8 -15   4    2.11    0.62
  15   8   4    1.56    0.55
 -15  -7  -4    0.49    0.54
 -15  -7  -4    0.01    0.52
   7 -15  -4    0.04    0.47
  15   7  -4    0.20    0.35
   7 -15  -4    0.17    0.42
   7 -15  -4   -0.30    0.57
   7 -15   4   -0.51    0.49
  15   7   4    0.55    0.46
  15   7   4   -0.36    0.39
  15   7   4    1.23    0.58
   6 -15  -4    6.66    0.68
 -15  -6  -4    5.23    0.74
  15   6  -4    4.99    0.60
 -15  -6  -4    4.90    0.78
   6 -15  -4    3.84    0.61
   6 -15  -4    3.31    0.74
  15   6   4    5.66    0.70
  15   6   4    6.72    0.77
  15   6   4    2.93    0.58
   6 -15   4    5.01    0.71
   5 -15  -4   -0.31    0.55
 -15  -5  -4    0.58    0.50
   5 -15  -4    0.12    0.42
  15   5  -4    0.48    0.38
 -15  -5  -4    0.08    0.48
   5 -15  -4    0.86    0.45
  15   5   4    0.43    0.42
  15   5   4    0.19    0.42
   5 -15   4    1.08    0.55
  15   5   4    0.06    0.40
 -15  -4  -4   -0.38    0.44
   4 -15  -4    0.39    0.43
  15   4  -4    0.45    0.38
   4 -15  -4    0.07    0.42
   4 -15  -4   -0.08    0.52
  15   4   4   -0.12    0.39
   4 -15   4   -0.07    0.47
  15   4   4    0.00    0.36
  15   4   4   -0.19    0.38
 -15  -3  -4    1.30    0.51
   3 -15  -4    1.12    0.48
   3 -15  -4    0.77    0.46
  15   3  -4    0.87    0.40
   3 -15  -4    0.64    0.56
  15   3   4    1.38    0.43
  15   3   4    1.42    0.49
   3 -15   4    1.10    0.51
  15   3   4    2.01    0.49
  15   2  -4    5.52    0.62
   2 -15  -4    5.23    0.64
   2 -15  -4    6.61    0.83
   2 -15  -4    5.48    0.67
 -15  -2  -4    4.21    0.67
  15   2   4    5.32    0.58
  15   2   4    5.22    0.67
   2 -15   4    3.71    0.64
  15   2   4    5.40    0.63
 -15  -1  -4    3.52    0.63
   1 -15  -4    3.16    0.59
  15   1  -4    4.07    0.57
   1 -15  -4    2.86    0.56
  15   1   4    2.58    0.56
  15   1   4    3.96    0.49
  15   1   4    3.46    0.55
   1 -15   4    4.14    0.66
   0 -15  -4    7.06    0.75
 -15   0  -4    7.32    0.77
   0 -15  -4    7.09    0.72
  15   0  -4    8.73    0.76
   0 -15   4    8.50    0.82
  15   0   4    5.63    0.69
  15   0   4    8.05    0.74
  15   0   4    7.96    0.64
  -1 -15  -4   -0.19    0.44
  15  -1  -4    0.42    0.41
  -1 -15  -4    0.61    0.48
 -15   1  -4    0.53    0.42
  15  -1   4    0.76    0.45
  -1 -15   4   -0.13    0.46
  15  -1   4   -0.13    0.36
  15  -2  -4    0.34    0.42
 -15   2  -4    0.59    0.40
  -2 -15  -4    0.37    0.48
  -2 -15  -4    0.48    0.47
  15  -2   4    1.05    0.41
  15  -2   4    0.70    0.45
  -2 -15   4    0.63    0.49
  -3 -15  -4    9.86    0.88
  -3 -15  -4    8.92    0.81
 -15   3  -4    6.20    0.75
  15  -3  -4    8.87    0.85
  -3 -15   4    7.76    0.81
  15  -3   4    6.22    0.65
  15  -3   4    7.74    0.78
  -4 -15  -4    1.47    0.52
 -15   4  -4    1.71    0.50
  15  -4  -4    1.06    0.48
  -4 -15  -4    1.86    0.55
  15  -4   4    2.00    0.53
  15  -4   4    1.33    0.43
  -4 -15   4    1.21    0.52
  -5 -15  -4    3.31    0.64
  15  -5  -4    2.63    0.59
  -5 -15  -4    3.44    0.61
 -15   5  -4    2.84    0.56
  15  -5   4    3.64    0.54
  15  -5   4    3.40    0.62
  -5 -15   4    2.73    0.60
 -15   6  -4   10.22    0.95
  -6 -15  -4   10.65    0.92
  -6 -15  -4    8.32    0.86
  15  -6  -4   11.94    1.04
  15  -6   4    7.18    0.83
  15  -6   4   10.00    0.79
  -6 -15   4    7.90    0.82
  15  -7  -4    5.94    0.78
  -7 -15  -4    4.10    0.70
 -15   7  -4    4.74    0.70
  -7 -15  -4    5.90    0.79
  15  -7   4    3.14    0.55
  -7 -15   4    5.94    0.76
  15  -7   4    4.99    0.71
 -15   8  -4   -0.22    0.43
  -8 -15  -4    0.23    0.51
  15  -8  -4    0.62    0.57
  -8 -15  -4    0.54    0.57
  15  -8   4    0.27    0.50
  -8 -15   4    0.25    0.54
  -9 -15  -4    7.72    0.90
  15  -9  -4    7.81    0.93
  -9 -15  -4    5.58    0.79
 -15   9  -4    6.93    0.81
  15  -9   4    5.08    0.76
  -9 -15   4    6.76    0.82
 -15  10  -4    0.99    0.51
  15 -10  -4    1.97    0.70
 -10 -15  -4    1.82    0.67
 -10 -15  -4    1.71    0.63
  15 -10   4    1.31    0.62
 -10 -15   4    1.87    0.65
 -15  11  -4    0.27    0.51
 -11 -15  -4    0.27    0.64
  15 -11  -4    0.13    0.65
 -11 -15  -4   -0.60    0.57
  15 -11   4    0.60    0.57
  11  15   4    0.67    0.53
 -11 -15   4    1.14    0.62
 -15  12  -4    0.19    0.48
  15 -12  -4   -0.50    0.68
 -12 -15  -4    0.15    0.66
 -12 -15  -4    0.68    0.63
  15 -12   4    0.43    0.61
  12  15   4    0.41    0.56
 -12 -15   4    0.61    0.65
 -15  13  -4    0.86    0.51
 -13 -15  -4    0.96    0.74
 -13 -15  -4    0.14    0.64
  15 -13  -4   -0.18    0.73
 -13 -15   4   -0.33    0.66
  13  15   4   -0.25    0.55
  15 -13   4    1.05    0.68
 -14 -15  -4    1.92    0.80
  15 -14  -4   -0.41    0.70
 -14 -15  -4    1.80    0.76
 -15  14  -4    1.30    0.58
 -14 -15   4    0.85    0.76
  14  15   4    1.09    0.64
  15 -14   4    1.73    0.75
  15 -15  -4    0.17    0.77
 -15 -15  -4    0.32    0.68
 -15  15  -4    0.02    0.51
 -15 -15  -4   -1.37    0.72
 -15 -15   4   -1.08    0.72
  15  15   4   -0.30    0.60
  15 -15   4    1.74    0.78
  14 -16  -4   11.00    1.25
 -14  16  -4   11.89    1.07
 -16 -14  -4   10.11    1.13
 -16 -14  -4   13.26    1.29
  14 -16   4   11.09    1.22
 -16 -14   4   12.26    1.24
  16  14   4   17.15    1.36
 -16 -13  -4    1.33    0.81
 -16 -13  -4    0.49    0.71
 -13  16  -4    0.59    0.51
  13 -16  -4    0.99    0.80
 -16 -13   4    0.19    0.77
  13 -16   4    0.78    0.72
  16  13   4    0.59    0.64
 -12  16  -4   14.80    1.07
 -16 -12  -4   15.72    1.34
  12 -16  -4   16.67    1.37
 -16 -12  -4   12.73    1.21
  12 -16   4   13.39    1.24
 -16 -12   4   17.28    1.44
  16  12   4   13.56    1.19
 -16 -11  -4   -0.52    0.60
  16  11  -4   -0.35    0.37
 -11  16  -4   -0.20    0.40
  11 -16  -4   -0.04    0.68
 -16 -11  -4    0.33    0.70
 -16 -11   4    0.47    0.70
  16  11   4    0.27    0.58
  11 -16   4   -0.36    0.64
 -16 -10  -4    3.16    0.79
  10 -16  -4    3.34    0.80
  16  10  -4    2.68    0.54
 -16 -10  -4    3.31    0.78
  10 -16   4    2.42    0.75
 -16 -10   4    2.78    0.83
  16  10   4    3.23    0.67
 -16  -9  -4    0.29    0.59
  16   9  -4   -0.64    0.36
 -16  -9  -4   -0.25    0.56
   9 -16  -4    0.78    0.67
  16   9   4    0.09    0.47
  16   9   4   -0.34    0.48
 -16  -9   4    0.16    0.69
   9 -16   4    0.11    0.60
   8 -16  -4    3.79    0.78
   8 -16  -4    3.09    0.63
 -16  -8  -4    2.90    0.72
  16   8  -4    3.40    0.57
 -16  -8  -4    2.23    0.69
   8 -16   4    2.64    0.70
  16   8   4    4.31    0.70
  16   8   4    3.79    0.68
   7 -16  -4    0.78    0.51
 -16  -7  -4    0.27    0.57
   7 -16  -4    0.64    0.64
  16   7  -4    0.49    0.41
 -16  -7  -4    1.19    0.62
   7 -16  -4    0.00    0.48
   7 -16   4   -0.62    0.54
  16   7   4    0.00    0.46
  16   7   4    0.75    0.46
 -16  -6  -4   20.22    1.32
  16   6  -4   21.92    1.19
   6 -16  -4   19.74    1.43
 -16  -6  -4   20.10    1.32
   6 -16  -4   19.77    1.17
   6 -16  -4   22.32    1.22
  16   6   4   18.68    1.20
   6 -16   4   21.49    1.35
  16   6   4   20.73    1.32
  16   6   4   22.90    1.30
   5 -16  -4    2.47    0.56
 -16  -5  -4    2.76    0.67
   5 -16  -4    1.92    0.66
  16   5  -4    2.67    0.51
   5 -16  -4    2.00    0.58
 -16  -5  -4    1.93    0.61
  16   5   4    2.10    0.54
  16   5   4    3.03    0.59
   5 -16   4    2.18    0.64
  16   5   4    2.85    0.59
   4 -16  -4   22.27    1.21
   4 -16  -4   20.97    1.22
   4 -16  -4   21.34    1.39
  16   4  -4   22.34    1.20
 -16  -4  -4   21.29    1.32
  16   4   4   20.03    1.20
  16   4   4   22.62    1.26
   4 -16   4   21.56    1.32
  16   4   4   20.35    1.19
 -16  -3  -4    0.72    0.50
   3 -16  -4    1.15    0.52
   3 -16  -4    0.62    0.61
  16   3  -4    0.92    0.43
   3 -16  -4    0.40    0.50
   3 -16   4    0.61    0.57
  16   3   4    0.86    0.43
  16   3   4    0.85    0.46
   2 -16  -4   64.25    2.46
   2 -16  -4   62.81    2.46
 -16  -2  -4   61.26    2.56
  16   2  -4   64.44    2.48
   2 -16  -4   65.24    2.62
   2 -16   4   63.60    2.55
  16   2   4   66.27    2.47
  16   2   4   64.14    2.50
   1 -16  -4    2.48    0.57
  16   1  -4    3.16    0.57
   1 -16  -4    3.18    0.61
 -16  -1  -4    2.63    0.58
  16   1   4    3.85    0.59
   1 -16   4    2.90    0.66
  16   1   4    3.20    0.60
   0 -16  -4    6.71    0.76
   0 -16  -4    6.74    0.76
  16   0  -4    5.46    0.68
 -16   0  -4    5.30    0.72
  16   0   4    6.05    0.74
   0 -16   4    7.26    0.82
  16   0   4    6.57    0.71
  -1 -16  -4    1.84    0.57
  16  -1  -4    1.16    0.48
  -1 -16  -4    1.62    0.54
 -16   1  -4    0.92    0.50
  16  -1   4    1.27    0.52
  16  -1   4    0.99    0.46
  -1 -16   4    0.96    0.58
 -16   2  -4    8.42    0.88
  16  -2  -4   11.80    0.96
  -2 -16  -4    9.79    0.88
  -2 -16  -4   11.50    0.93
  16  -2   4   10.56    0.85
  16  -2   4   10.08    0.93
  -2 -16   4    9.46    0.93
  -3 -16  -4   -0.09    0.49
  -3 -16  -4    0.44    0.53
  16  -3  -4    0.71    0.48
 -16   3  -4    0.82    0.45
  -3 -16   4   -0.11    0.52
  16  -3   4    1.28    0.47
  16  -3   4    0.34    0.45
  -4 -16  -4   18.43    1.12
  16  -4  -4   14.76    1.10
  -4 -16  -4   16.51    1.08
 -16   4  -4   14.22    1.08
  16  -4   4   14.88    1.10
  16  -4   4   14.96    0.99
  -4 -16   4   14.67    1.10
 -16   5  -4    1.23    0.53
  -5 -16  -4    1.68    0.60
  -5 -16  -4    1.55    0.59
  16  -5  -4    0.95    0.51
  16  -5   4    2.04    0.50
  16  -5   4    1.64    0.57
  -5 -16   4    1.33    0.56
  16  -6  -4    1.16    0.55
  -6 -16  -4    2.13    0.61
 -16   6  -4    1.50    0.54
  -6 -16  -4    2.27    0.64
  -6 -16   4    1.57    0.61
  16  -6   4    1.71    0.50
  16  -6   4    1.71    0.58
  16  -7  -4    2.20    0.62
 -16   7  -4    2.10    0.59
  -7 -16  -4    0.82    0.59
  -7 -16  -4    1.87    0.65
  -7 -16   4    2.11    0.65
  16  -7   4    1.42    0.61
  16  -7   4    1.31    0.57
 -16   8  -4    2.08    0.60
  -8 -16  -4    1.14    0.65
  -8 -16  -4    2.09    0.63
  16  -8  -4    1.55    0.63
  -8 -16   4    0.89    0.62
  16  -8   4    1.01    0.56
  -9 -16  -4    1.44    0.65
  -9 -16  -4    1.72    0.70
  16  -9  -4    1.71    0.68
 -16   9  -4    1.85    0.57
  16  -9   4    2.39    0.64
  -9 -16   4    1.68    0.66
  16 -10  -4    8.95    1.06
 -10 -16  -4    8.97    0.96
 -10 -16  -4    9.82    1.03
 -16  10  -4   10.52    1.00
 -10 -16   4   10.14    1.01
  16 -10   4   10.04    1.03
 -11 -16  -4    2.30    0.73
  16 -11  -4    0.21    0.71
 -16  11  -4    1.17    0.55
 -11 -16  -4    0.25    0.62
  16 -11   4    0.68    0.63
 -11 -16   4    0.16    0.64
  11  16   4    0.17    0.53
  16 -12  -4   29.74    1.72
 -16  12  -4   25.21    1.54
 -12 -16  -4   24.29    1.59
 -12 -16  -4   24.98    1.57
 -12 -16   4   26.50    1.59
  16 -12   4   25.57    1.60
  12  16   4   25.35    1.50
 -13 -16  -4    0.67    0.69
  16 -13  -4    1.65    0.85
 -16  13  -4    1.73    0.63
 -13 -16  -4    2.04    0.82
  13  16   4    1.93    0.72
  16 -13   4    1.56    0.74
 -13 -16   4    1.82    0.76
 -16  14  -4   22.57    1.49
 -14 -16  -4   22.11    1.68
  16 -14  -4   21.66    1.63
  16 -14   4   21.60    1.58
 -14 -16   4   19.50    1.48
  14  16   4   21.15    1.47
 -17 -13  -4    0.85    0.84
  13 -17  -4    1.74    0.87
 -17 -13  -4    1.28    0.77
 -13  17  -4    2.12    0.73
 -17 -13   4    2.42    1.24
  13 -17   4    1.42    0.80
  17  13   4    1.35    0.70
 -17 -12  -4    1.35    0.80
  12 -17  -4    1.25    0.83
 -17 -12  -4    2.43    0.81
  17  12   4    2.01    0.67
  12 -17   4    0.61    0.74
  11 -17  -4    5.38    0.97
  17  11  -4    5.84    0.72
 -17 -11  -4    5.55    0.94
 -17 -11  -4    6.72    1.00
  17  11   4    4.50    0.79
  11 -17   4    6.13    0.95
  10 -17  -4    2.04    0.78
  17  10  -4    1.62    0.52
 -17 -10  -4    1.51    0.75
 -17 -10  -4    1.79    0.76
  10 -17   4    1.25    0.73
  17  10   4    1.67    0.62
 -17  -9  -4    5.06    0.88
  17   9  -4    6.24    0.71
 -17  -9  -4    5.67    0.92
   9 -17  -4    8.30    1.05
  17   9   4    4.25    0.73
  17   9   4    2.95    0.63
   9 -17   4    5.04    0.89
 -17  -8  -4    2.78    0.76
   8 -17  -4    3.38    0.83
  17   8  -4    2.05    0.53
 -17  -8  -4    2.62    0.79
  17   8   4    1.24    0.59
  17   8   4    3.16    0.61
   8 -17   4    2.28    0.73
   7 -17  -4    4.41    0.92
  17   7  -4    3.46    0.59
 -17  -7  -4    2.90    0.72
   7 -17  -4    2.71    0.66
   7 -17  -4    2.48    0.78
 -17  -7  -4    3.75    0.77
  17   7   4    4.09    0.71
  17   7   4    2.34    0.61
   7 -17   4    3.06    0.75
  17   6  -4    2.80    0.56
 -17  -6  -4    2.35    0.70
 -17  -6  -4    2.30    0.69
   6 -17  -4    1.78    0.57
   6 -17  -4    2.07    0.74
   6 -17  -4    1.95    0.58
  17   6   4    2.54    0.61
  17   6   4    1.72    0.56
   6 -17   4    3.19    0.73
   5 -17  -4    3.82    0.81
 -17  -5  -4    1.49    0.64
   5 -17  -4    3.15    0.62
  17   5  -4    3.01    0.56
   5 -17  -4    1.93    0.60
 -17  -5  -4    3.56    0.72
   5 -17   4    1.62    0.67
  17   5   4    2.50    0.61
  17   5   4    2.76    0.62
   4 -17  -4   -0.73    0.48
   4 -17  -4    0.04    0.52
 -17  -4  -4   -0.23    0.54
  17   4  -4    0.47    0.43
   4 -17  -4   -0.25    0.60
  17   4   4    0.32    0.45
  17   4   4    0.10    0.45
   4 -17   4   -0.46    0.55
 -17  -3  -4    1.89    0.65
   3 -17  -4    2.01    0.59
  17   3  -4    1.28    0.51
   3 -17  -4    2.14    0.60
   3 -17  -4    1.53    0.67
  17   3   4    0.89    0.51
  17   3   4    1.44    0.51
   3 -17   4    1.45    0.65
 -17  -2  -4    2.11    0.63
   2 -17  -4    1.53    0.58
  17   2  -4    2.57    0.57
   2 -17  -4    2.87    0.64
  17   2   4    2.08    0.58
  17   2   4    2.48    0.55
   2 -17   4    2.38    0.68
   1 -17  -4    0.20    0.48
  17   1  -4    0.97    0.51
   1 -17  -4    0.28    0.52
 -17  -1  -4    0.88    0.54
   1 -17   4    0.67    0.57
  17   1   4    0.13    0.46
  17   1   4    0.85    0.47
 -17  -1   4    0.17    0.42
   0 -17  -4    1.26    0.56
   0 -17  -4    0.81    0.53
  17   0  -4    0.56    0.48
 -17   0  -4    0.30    0.48
  17   0   4    0.37    0.45
  17   0   4    0.66    0.50
   0 -17   4    0.25    0.56
  17  -1  -4    1.77    0.56
 -17   1  -4    2.14    0.58
  -1 -17  -4    2.80    0.63
  -1 -17  -4    1.85    0.58
  -1 -17   4    1.87    0.64
  17  -1   4    1.94    0.52
  17  -1   4    1.90    0.56
  -2 -17  -4    3.06    0.63
  -2 -17  -4    2.64    0.66
 -17   2  -4    4.38    0.71
  17  -2  -4    4.47    0.69
  17  -2   4    3.10    0.58
  17  -2   4    2.52    0.58
  -2 -17   4    2.47    0.69
  -3 -17  -4    0.67    0.59
 -17   3  -4    1.19    0.51
  17  -3  -4    0.74    0.56
  -3 -17  -4    0.98    0.54
  17  -3   4    0.84    0.47
  -3 -17   4    0.94    0.61
  17  -3   4    0.56    0.50
  -4 -17  -4    0.35    0.52
 -17   4  -4   -0.06    0.47
  -4 -17  -4    0.26    0.59
  17  -4  -4    0.56    0.57
  -4 -17   4    0.37    0.58
  17  -4   4    0.46    0.52
  17  -4   4    0.75    0.46
  17  -5  -4    4.10    0.71
  -5 -17  -4    4.45    0.73
 -17   5  -4    4.10    0.72
  -5 -17  -4    4.15    0.73
  17  -5   4    2.89    0.65
  17  -5   4    4.22    0.64
  -5 -17   4    3.67    0.75
  -6 -17  -4    2.79    0.66
  -6 -17  -4    2.37    0.69
 -17   6  -4    3.52    0.70
  17  -6  -4    1.92    0.65
  -6 -17   4    3.41    0.73
  17  -6   4    1.63    0.61
  17  -6   4    2.72    0.59
  17  -7  -4    3.42    0.74
  -7 -17  -4    3.26    0.75
  -7 -17  -4    3.43    0.72
 -17   7  -4    2.90    0.69
  17  -7   4    2.29    0.67
  17  -7   4    3.44    1.10
  -7 -17   4    2.54    0.71
  17  -8  -4    2.28    0.74
  -8 -17  -4    2.02    0.73
  -8 -17  -4    1.93    0.67
 -17   8  -4    1.70    0.57
  17  -8   4    2.23    0.64
  -8 -17   4    2.46    0.70
  -9 -17  -4    1.73    0.66
  -9 -17  -4    1.72    0.72
  17  -9  -4   -0.04    0.67
 -17   9  -4    0.97    0.56
  -9 -17   4    0.42    0.66
  17  -9   4    1.50    0.64
 -10 -17  -4    0.50    0.64
  17 -10  -4    1.03    0.76
 -10 -17  -4    1.23    0.72
 -17  10  -4    0.85    0.59
 -10 -17   4    0.41    0.67
  17 -10   4    1.82    0.67
 -11 -17  -4    1.82    0.72
 -17  11  -4    1.53    0.61
 -11 -17  -4    0.95    0.76
  17 -11  -4    1.91    0.79
  11  17   4    1.06    0.61
  17 -11   4    0.91    0.65
 -11 -17   4    1.01    0.75
 -12 -17  -4    0.31    0.73
 -12 -17  -4   -0.27    0.63
  17 -12  -4   -0.84    0.72
 -17  12  -4   -0.01    0.56
 -12 -17   4    1.30    0.74
  17 -12   4    0.59    0.65
  12  17   4   -0.25    0.57
 -17  13  -4    0.54    0.62
 -13 -17  -4    0.02    0.75
  17 -13  -4   -0.20    0.83
  17 -13   4    0.35    0.66
  13  17   4    0.16    0.62
 -13 -17   4    0.12    0.75
 -18 -12  -4    5.51    0.96
  12 -18   4    4.74    0.97
  18  12   4    7.51    0.95
 -18 -11  -4    1.18    0.74
  18  11  -4   -0.08    0.49
 -18 -11  -4   -0.19    0.76
  11 -18  -4   -0.29    0.76
  18  11   4    0.40    0.63
  11 -18   4    0.08    0.72
 -18 -10  -4   -0.83    0.62
  18  10  -4   -0.32    0.46
 -18 -10  -4    0.93    0.76
  10 -18  -4    0.42    0.76
  18  10   4    0.62    0.62
  10 -18   4    0.21    0.72
   9 -18  -4    0.36    0.72
 -18  -9  -4   -1.19    0.63
  18   9  -4    0.45    0.46
 -18  -9  -4    0.20    0.74
  18   9   4    0.20    0.58
   9 -18   4   -0.08    0.67
 -18  -8  -4   -0.18    0.68
   8 -18  -4   -0.08    0.72
 -18  -8  -4    0.16    0.66
  18   8  -4   -0.04    0.43
  18   8   4    0.09    0.56
  18   8   4    0.08    0.50
   8 -18   4   -0.05    0.65
   7 -18  -4    0.71    0.58
 -18  -7  -4    1.41    0.68
 -18  -7  -4    0.43    0.69
   7 -18  -4    0.54    0.75
  18   7  -4    1.09    0.51
  18   7   4    1.65    0.58
   7 -18   4    1.24    0.71
  18   7   4    0.89    0.57
 -18  -6  -4    3.02    0.79
  18   6  -4    2.20    0.57
   6 -18  -4    1.82    0.63
 -18  -6  -4    2.06    0.75
   6 -18  -4    1.80    0.78
   6 -18  -4    1.53    0.62
   6 -18   4    0.96    0.70
  18   6   4    1.98    0.61
  18   6   4    1.31    0.59
   5 -18  -4    1.63    0.61
 -18  -5  -4    1.55    0.71
   5 -18  -4    1.39    0.75
  18   5  -4    1.87    0.54
   5 -18  -4    1.63    0.60
 -18  -5  -4    1.50    0.67
   5 -18   4    2.18    0.74
  18   5   4    1.60    0.58
  18   5   4    1.58    0.56
  18   4  -4    4.97    0.71
 -18  -4  -4    3.72    0.76
   4 -18  -4    4.01    0.71
   4 -18  -4    3.17    0.79
   4 -18  -4    3.78    0.66
   4 -18   4    4.15    0.81
  18   4   4    3.94    0.70
  18   4   4    3.53    0.68
   3 -18  -4    0.56    0.55
  18   3  -4    0.65    0.49
   3 -18  -4    1.42    0.60
   3 -18  -4    1.45    0.71
 -18  -3  -4    0.22    0.58
  18   3   4   -0.50    0.48
  18   3   4    1.01    0.51
   3 -18   4    1.90    0.70
 -18  -2  -4   24.95    1.48
   2 -18  -4   25.15    1.36
   2 -18  -4   25.03    1.42
  18   2  -4   22.19    1.34
  18   2   4   25.33    1.41
   2 -18   4   23.70    1.49
  18   2   4   21.16    1.33
   1 -18  -4    0.87    0.58
 -18  -1  -4    1.87    0.61
  18   1  -4    1.66    0.54
   1 -18  -4    1.26    0.61
  18   1   4    3.05    0.62
   1 -18   4    2.30    0.71
  18   1   4    0.94    0.53
   0 -18  -4   12.17    0.99
   0 -18  -4   11.63    1.01
  18   0  -4   12.13    1.08
 -18   0  -4   10.66    1.07
  18   0   4   10.01    0.94
  18   0   4    9.50    0.99
 -18   0   4   12.04    0.90
   0 -18   4   12.89    1.14
 -18   1  -4    0.27    0.51
  -1 -18  -4    0.64    0.62
  -1 -18  -4    0.10    0.53
  18  -1  -4    0.19    0.49
  18  -1   4    0.04    0.48
  18  -1   4    0.18    0.52
  -1 -18   4    1.34    0.70
  -2 -18  -4   17.27    1.16
  -2 -18  -4   15.96    1.23
  18  -2  -4   15.98    1.25
 -18   2  -4   14.84    1.19
  -2 -18   4   17.76    1.31
  18  -2   4   14.93    1.11
  18  -2   4   15.17    1.17
 -18   3  -4    0.38    0.54
  -3 -18  -4    0.50    0.61
  18  -3  -4    0.76    0.57
  -3 -18  -4    1.40    0.61
  18  -3   4    0.72    0.55
  -3 -18   4    1.23    0.69
  18  -3   4    0.37    0.48
 -18   4  -4    2.27    0.62
  18  -4  -4    1.23    0.64
  -4 -18  -4    3.30    0.75
  -4 -18  -4    2.90    0.67
  -4 -18   4    2.58    0.73
  18  -4   4    1.65    0.61
  18  -4   4    2.41    0.57
  18  -5  -4    0.54    0.59
  -5 -18  -4    0.13    0.56
 -18   5  -4    0.26    0.52
  -5 -18  -4   -0.09    0.58
  -5 -18   4    0.39    0.62
  18  -5   4   -0.40    0.48
  18  -5   4    0.62    0.57
  -6 -18  -4   -0.16    0.55
  -6 -18  -4    0.24    0.65
  18  -6  -4    0.04    0.60
 -18   6  -4    1.13    0.58
  -6 -18   4    0.89    0.67
  18  -6   4   -0.37    0.49
  18  -6   4    0.35    0.54
 -18   7  -4    0.12    0.50
  18  -7  -4   -0.17    0.60
  -7 -18  -4   -0.91    0.64
  -7 -18  -4   -1.53    0.53
  -7 -18   4    0.97    0.69
  18  -7   4   -0.02    0.54
  18  -8  -4   -0.62    0.61
  -8 -18  -4    0.50    0.60
 -18   8  -4    0.80    0.62
  -8 -18  -4   -0.30    0.70
  -8 -18   4    1.87    0.72
  18  -8   4    0.73    0.62
  -9 -18  -4   -0.11    0.72
  18  -9  -4    0.84    0.77
 -18   9  -4    0.50    0.59
  -9 -18  -4    0.78    0.62
  18  -9   4    1.26    0.66
  -9 -18   4    0.32    0.71
 -18  10  -4    6.33    0.88
 -10 -18  -4    5.39    0.95
  18 -10  -4    6.58    0.99
 -10 -18  -4    8.42    0.99
 -10 -18   4    8.34    1.04
  18 -10   4    6.68    0.95
  18 -11  -4    0.70    0.79
 -18  11  -4    0.06    0.58
 -11 -18  -4    0.99    0.79
  11  18   4    0.64    0.61
  18 -11   4    0.46    0.65
 -11 -18   4    0.05    0.72
 -18  12  -4    9.26    1.09
  18 -12  -4    8.12    1.18
  12  18   4    6.69    0.96
  18 -12   4    5.82    0.91
  19  10  -4    1.57    0.59
 -19 -10  -4    2.76    0.82
 -19 -10  -4    2.45    0.85
  10 -19  -4    3.19    0.94
  10 -19   4    2.38    0.86
  19  10   4    2.02    0.73
 -19  -9  -4   21.27    1.62
  19   9  -4   21.88    1.33
 -19  -9  -4   23.12    1.61
   9 -19  -4   23.99    1.76
  19   9   4   19.79    1.50
   9 -19   4   22.89    1.68
   8 -19  -4    0.54    0.81
 -19  -8  -4    1.92    0.80
 -19  -8  -4   -0.02    0.67
  19   8  -4    1.26    0.54
  19   8   4    1.59    0.66
  19   8   4    0.19    0.55
   8 -19   4    0.78    0.76
 -19  -7  -4   17.65    1.44
 -19  -7  -4   12.97    1.26
   7 -19  -4   14.90    1.33
  19   7  -4   11.17    1.04
  19   7   4   14.20    1.19
  19   7   4   13.37    1.18
   7 -19   4   12.66    1.24
   6 -19  -4    0.85    0.60
   6 -19  -4    0.53    0.76
   6 -19  -4    0.47    0.87
  19   6  -4    0.00    0.50
 -19  -6  -4   -0.48    0.68
 -19  -6  -4    1.09    0.72
  19   6   4    0.40    0.56
   6 -19   4    0.57    0.73
  19   6   4    0.50    0.56
   5 -19  -4    5.61    0.78
 -19  -5  -4    4.36    0.92
   5 -19  -4    6.46    0.82
  19   5  -4    3.74    0.67
 -19  -5  -4    3.33    0.82
   5 -19  -4    5.75    0.96
   5 -19   4    4.67    0.85
  19   5   4    3.46    0.71
  19   5   4    4.27    0.78
  19   4  -4   -0.58    0.45
 -19  -4  -4    0.36    0.65
   4 -19  -4   -0.24    0.54
   4 -19  -4    0.12    0.77
   4 -19  -4    0.55    0.60
  19   4   4    0.60    0.58
   4 -19   4    0.07    0.65
  19   4   4    0.74    0.54
   3 -19  -4    1.58    0.66
 -19  -3  -4    1.05    0.64
  19   3  -4    1.25    0.55
   3 -19  -4    0.85    0.58
  19   3   4    0.09    0.51
   3 -19   4    1.49    0.73
  19   3   4    0.08    0.53
   2 -19  -4   -0.50    0.60
   2 -19  -4    0.81    0.57
  19   2  -4    0.66    0.54
 -19  -2  -4    0.97    0.63
  19   2   4    1.53    0.59
  19   2   4    0.62    0.55
   2 -19   4    0.48    0.63
 -19  -1  -4   -0.28    0.57
  19   1  -4    0.39    0.51
   1 -19  -4    0.66    0.59
   1 -19  -4   -0.27    0.61
  19   1   4    0.50    0.56
   1 -19   4    0.44    0.67
  19   1   4    0.19    0.51
 -19   0  -4   -0.43    0.53
   0 -19  -4   -0.01    0.63
  19   0  -4   -0.31    0.48
   0 -19  -4   -0.38    0.51
   0 -19   4   -0.12    0.64
 -19   0   4    0.26    0.62
  19   0   4   -0.21    0.49
  19   0   4    0.83    0.54
  19  -1  -4    3.06    0.73
  -1 -19  -4    1.37    0.67
 -19   1  -4    1.47    0.62
  -1 -19  -4    1.44    0.59
  -1 -19   4    2.59    0.76
  19  -1   4    2.86    0.67
  19  -1   4    1.20    0.58
 -19   1   4    1.50    0.54
  -2 -19  -4    0.00    0.53
  -2 -19  -4   -0.02    0.63
 -19   2  -4    0.81    0.58
  19  -2  -4    0.97    0.60
  19  -2   4   -0.48    0.50
  19  -2   4    0.53    0.51
  -2 -19   4    0.44    0.67
 -19   3  -4    7.68    0.98
  19  -3  -4    4.78    0.82
  -3 -19  -4    5.88    0.81
  -3 -19  -4    6.96    0.91
  19  -3   4    5.93    0.82
  19  -3   4    7.55    0.86
  -3 -19   4    6.44    0.94
  -4 -19  -4    0.66    0.60
 -19   4  -4    1.13    0.59
  -4 -19  -4    0.49    0.66
  19  -4  -4   -0.31    0.60
  -4 -19   4    0.58    0.69
  19  -4   4    0.01    0.52
  19  -4   4    0.41    0.52
 -19   5  -4   10.73    1.06
  -5 -19  -4   10.18    1.06
  19  -5  -4   11.53    1.14
  -5 -19  -4    8.35    0.92
  19  -5   4   11.35    1.01
  19  -5   4    8.11    0.93
  -5 -19   4   10.38    1.10
  19  -6  -4    2.84    0.80
  -6 -19  -4    3.87    0.83
  -6 -19  -4    1.95    0.68
 -19   6  -4    2.30    0.71
  19  -6   4    3.70    0.68
  -6 -19   4    1.68    0.77
  19  -6   4    1.69    0.64
  -7 -19  -4    5.43    0.82
  -7 -19  -4    6.11    0.96
 -19   7  -4    7.79    1.01
  19  -7  -4    9.23    1.11
  19  -7   4    4.63    0.80
  -7 -19   4    6.60    0.96
 -19   8  -4    0.50    0.55
  -8 -19  -4   -0.10    0.71
  19  -8  -4    0.55    0.70
  -8 -19  -4    0.21    0.64
  -8 -19   4    1.00    0.78
  19  -8   4    0.30    0.60
  -9 -19  -4    6.60    1.00
 -19   9  -4    9.58    1.13
  19  -9  -4   10.34    1.20
  19  -9   4    5.11    0.88
  -9 -19   4    7.17    1.04
 -19  10  -4    0.08    0.60
  19 -10  -4    0.96    0.78
 -10 -19  -4   -0.95    0.74
 -10 -19   4    0.05    0.75
  19 -10   4    0.60    0.64
 -20  -8  -4   -0.79    0.75
  20   8  -4    0.03    0.52
   8 -20  -4    0.35    0.86
 -20  -8  -4    0.42    0.80
   8 -20   4    0.23    0.76
  20   8   4    0.56    0.59
  20   8   4   -0.36    0.62
 -20  -7  -4    1.10    0.76
 -20  -7  -4   -0.69    0.76
   7 -20  -4    0.81    0.90
  20   7  -4   -0.39    0.51
  20   7   4    1.13    0.69
  20   7   4    0.49    0.59
   7 -20   4    0.03    0.75
   6 -20  -4   -0.41    0.78
 -20  -6  -4    0.05    0.69
  20   6  -4   -0.28    0.49
   6 -20  -4    0.48    0.58
 -20  -6  -4    0.84    0.80
   6 -20   4    0.33    0.74
  20   6   4    0.66    0.61
  20   6   4   -0.52    0.61
   5 -20  -4   -0.10    0.60
 -20  -5  -4   -0.05    0.71
   5 -20  -4   -0.08    0.66
  20   5  -4    0.37    0.51
   5 -20  -4    0.28    0.80
 -20  -5  -4   -0.09    0.71
   5 -20   4    0.03    0.72
  20   5   4   -0.35    0.58
  20   5   4    0.65    0.61
 -20  -4  -4    3.36    0.84
   4 -20  -4    2.84    0.74
   4 -20  -4    3.52    0.73
  20   4  -4    3.35    0.71
   4 -20   4    3.96    0.88
  20   4   4    1.84    0.67
  20   4   4    3.82    0.75
  20   3  -4    0.31    0.52
   3 -20  -4    0.71    0.59
   3 -20  -4    0.44    0.64
 -20  -3  -4   -0.71    0.59
   3 -20   4   -0.30    0.72
  20   3   4   -0.63    0.55
  20   3   4   -0.40    0.52
 -20  -2  -4    2.82    0.78
  20   2  -4    1.24    0.64
   2 -20  -4    3.39    0.71
   2 -20  -4    3.57    0.80
  20   2   4    1.86    0.68
   2 -20   4    3.57    0.87
  20   2   4    2.01    0.65
 -20  -1  -4   -0.15    0.59
  20   1  -4   -0.12    0.55
   1 -20  -4    1.06    0.70
   1 -20  -4    0.03    0.58
  20   1   4   -0.47    0.51
  20   1   4    0.41    0.57
   1 -20   4   -0.42    0.69
  20   0  -4    3.70    0.77
   0 -20  -4    3.63    0.77
   0 -20  -4    6.13    0.90
 -20   0  -4    6.85    0.97
  20   0   4    4.63    0.78
  20   0   4    4.84    0.78
   0 -20   4    4.54    0.92
  -1 -20  -4    2.79    0.78
  20  -1  -4    1.32    0.64
 -20   1  -4    1.84    0.68
  -1 -20  -4    1.91    0.66
 -20   1   4    1.92    0.59
  -1 -20   4    1.98    0.82
  20  -1   4    0.90    0.59
  20  -1   4    1.62    0.65
 -20   2  -4    1.92    0.71
  20  -2  -4    4.17    0.78
  -2 -20  -4    3.69    0.73
  -2 -20  -4    3.54    0.83
 -20   2   4    2.89    0.65
  20  -2   4    3.94    0.74
  20  -2   4    3.43    0.77
  -2 -20   4    4.85    0.93
  -3 -20  -4    0.67    0.71
  -3 -20  -4    1.65    0.66
 -20   3  -4    0.03    0.59
  20  -3  -4    1.23    0.72
  20  -3   4    0.36    0.55
  -3 -20   4    0.48    0.75
  20  -3   4    0.21    0.58
  20  -4  -4    0.08    0.68
  -4 -20  -4   -0.09    0.54
 -20   4  -4    1.21    0.64
  -4 -20  -4    1.34    0.75
  20  -4   4    0.38    0.58
  -4 -20   4   -0.02    0.74
  20  -4   4    0.47    0.58
  -5 -20  -4    0.64    0.75
  20  -5  -4    0.51    0.64
 -20   5  -4    0.20    0.61
  -5 -20  -4    0.67    0.65
  20  -5   4    0.85    0.61
  20  -5   4    0.53    0.55
  -5 -20   4    0.18    0.71
  -6 -20  -4   -1.03    0.71
  -6 -20  -4   -0.11    0.61
  20  -6  -4    0.23    0.74
 -20   6  -4   -0.67    0.56
  -6 -20   4    0.65    0.75
  20  -6   4    0.04    0.64
  20  -6   4    0.66    0.62
  20  -7  -4   -0.22    0.73
 -20   7  -4   -0.55    0.55
  -7 -20  -4   -0.57    0.71
  -7 -20  -4   -0.09    0.84
  -7 -20   4    0.08    0.78
  20  -7   4   -0.45    0.56
 -20   8  -4    1.68    0.71
  20  -8  -4    2.00    0.86
  -8 -20  -4   -1.31    0.73
  -8 -20   4   -0.10    0.79
  20  -8   4    0.28    0.63
  21   5  -4   13.12    1.19
   5 -21  -4   13.57    1.14
   5 -21  -4   12.23    1.30
 -21  -5  -4   13.45    1.36
 -21  -5  -4   11.92    1.29
  21   5   4   17.22    1.36
  21   5   4   11.56    1.15
   5 -21   4   11.55    1.26
   4 -21  -4    1.41    0.75
   4 -21  -4    2.07    0.71
 -21  -4  -4    1.36    0.76
  21   4  -4    0.87    0.59
  21   4   4    1.21    0.68
  21   4   4    0.66    0.60
   4 -21   4    1.65    0.82
 -21  -3  -4    0.74    0.71
   3 -21  -4    1.15    0.62
   3 -21  -4    0.60    0.72
  21   3  -4   -0.06    0.60
  21   3   4    0.47    0.60
   3 -21   4    0.54    0.80
  21   3   4   -0.14    0.61
   2 -21  -4    1.13    0.73
  21   2  -4    0.29    0.56
   2 -21  -4    0.40    0.65
 -21  -2  -4    0.74    0.72
  21   2   4    0.60    0.60
  21   2   4   -0.40    0.61
   2 -21   4   -0.32    0.75
  21   1  -4    0.14    0.60
 -21  -1  -4   -0.63    0.63
   1 -21  -4    0.45    0.72
   1 -21  -4    0.66    0.61
  21   1   4   -0.13    0.58
   1 -21   4   -0.63    0.74
  21   1   4   -0.42    0.56
   0 -21  -4    0.31    0.64
  21   0  -4    0.40    0.63
   0 -21  -4    0.94    0.74
 -21   0  -4   -0.19    0.64
  21   0   4   -0.41    0.55
   0 -21   4    0.39    0.77
  21   0   4    0.71    0.64
  21  -1  -4    5.98    0.92
  -1 -21  -4    4.15    0.77
  -1 -21  -4    4.73    0.90
 -21   1  -4    5.20    0.91
  21  -1   4    4.99    0.85
  21  -1   4    4.69    0.84
  -1 -21   4    4.42    0.95
  -2 -21  -4    0.89    0.76
 -21   2  -4    0.50    0.65
  -2 -21  -4    0.37    0.63
  21  -2  -4    0.80    0.68
 -21   2   4    0.44    0.56
  21  -2   4    0.72    0.61
  -2 -21   4    0.24    0.78
  21  -2   4    1.11    0.64
  -3 -21  -4   11.04    1.07
  21  -3  -4   14.26    1.32
 -21   3  -4   10.86    1.18
  -3 -21  -4   11.19    1.19
 -21   3   4   10.99    1.07
  -3 -21   4   13.31    1.27
  21  -3   4   12.82    1.23
  21  -3   4   13.00    1.15
  -4 -21  -4    4.34    0.94
 -21   4  -4    3.79    0.83
  -4 -21  -4    3.80    0.78
  21  -4  -4    4.01    0.90
  -4 -21   4    3.94    0.95
  21  -4   4    3.72    0.78
  21  -4   4    4.18    0.81
 -21   5  -4   20.21    1.51
  -5 -21  -4   21.67    1.61
  21  -5  -4   21.68    1.63
  -5 -21  -4   16.42    1.61
  21  -5   4   18.50    1.41
  -5 -21   4   19.51    1.59
  21  -5   4   21.07    1.43
   0   0  -5   -0.15    0.20
   0   0  -5    0.08    0.16
   0   0   5    0.19    0.22
   0   0   5    0.09    0.11
  -1   0  -5    0.57    0.23
   0   1  -5    0.82    0.23
   1   0  -5    0.48    0.21
   0  -1  -5    0.85    0.21
   1   0  -5    0.88    0.20
   0  -1  -5    0.41    0.24
   0   1  -5    0.84    0.18
  -1   0   5    0.40    0.22
   0   1   5    0.73    0.13
   0   1   5    0.97    0.27
   0  -1   5    0.68    0.12
   1   0   5    0.76    0.16
   1   0   5    0.32    0.23
   0  -1   5    0.32    0.23
   1  -1  -5   13.74    0.68
   1   1  -5   13.52    0.58
  -1  -1  -5   12.80    0.69
  -1   1  -5   13.70    0.68
   1  -1  -5   14.68    0.64
   1   1  -5   12.89    0.64
   1   1   5   13.11    0.54
   1  -1   5   13.29    0.54
   1   1   5   13.28    0.71
  -1   1   5   13.65    0.70
   1  -1   5   12.00    0.71
   2   1  -5    7.10    0.45
   1  -2  -5    6.59    0.46
  -2  -1  -5    6.90    0.51
   1  -2  -5    7.06    0.51
   2   1  -5    6.90    0.41
  -1   2  -5    6.69    0.46
  -1   2   5    6.97    0.32
   2   1   5    7.94    0.40
  -1   2   5    6.24    0.50
   1  -2   5    6.89    0.36
   2   1   5    7.21    0.54
   2   0  -5    2.48    0.30
   2   0  -5    2.02    0.26
   0   2  -5    1.88    0.28
  -2   0  -5    2.52    0.35
   0  -2  -5    1.72    0.32
   0  -2  -5    1.04    0.24
   0   2   5    1.88    0.19
   2   0   5    1.77    0.31
   0   2   5    1.32    0.28
   0  -2   5    2.06    0.19
  -2   0   5    2.09    0.31
   2   0   5    2.46    0.25
   1   2  -5    5.16    0.40
   2  -1  -5    5.98    0.43
   1   2  -5    5.82    0.33
  -1  -2  -5    5.67    0.49
  -2   1  -5    5.59    0.47
   2  -1  -5    6.14    0.45
   1   2   5    5.54    0.48
   2  -1   5    4.36    0.44
   2  -1   5    5.14    0.34
   1   2   5    5.76    0.33
  -2   1   5    6.15    0.47
  -2   2  -5   27.68    1.11
   2   2  -5   27.96    1.05
   2  -2  -5   28.35    1.13
   2  -2  -5   27.48    1.09
   2   2  -5   27.18    1.00
  -2  -2  -5   27.29    1.17
  -2   2   5   29.95    1.14
   2   2   5   28.69    1.16
   2   2   5   27.08    1.01
   2  -2   5   28.30    1.01
   3   2  -5   32.43    1.13
  -2   3  -5   29.96    1.20
   3   2  -5   33.07    1.15
   2  -3  -5   30.65    1.22
  -3  -2  -5   32.52    1.05
  -3  -2  -5   34.79    1.33
   2  -3  -5   30.13    1.24
   2  -3   5   29.57    1.12
  -2   3   5   30.04    1.22
  -2   3   5   30.64    1.05
   3   2   5   31.36    1.27
   3   2   5   33.39    1.16
   1  -3  -5   19.40    0.88
   3   1  -5   19.47    0.79
   1  -3  -5   19.16    0.85
  -3  -1  -5   19.27    0.90
  -1   3  -5   19.21    0.81
   3   1  -5   18.50    0.77
   3   1   5   17.45    0.87
   3   1   5   19.71    0.77
  -1   3   5   18.30    0.69
   1  -3   5   18.16    0.72
  -1   3   5   19.62    0.86
   3   0  -5   25.67    1.03
   3   0  -5   27.04    1.05
  -3   0  -5   27.18    1.13
   0   3  -5   28.66    1.05
   0  -3  -5   27.29    1.14
   0  -3  -5   27.08    1.08
   3   0   5   25.52    1.00
  -3   0   5   26.94    1.10
   0   3   5   28.09    0.96
   0  -3   5   27.29    0.94
   0   3   5   27.19    1.11
   3   0   5   26.01    1.13
   3  -1  -5   35.56    1.29
   1   3  -5   34.59    1.14
   3  -1  -5   32.86    1.26
  -1  -3  -5   33.44    1.35
   1   3  -5   35.00    1.24
  -3   1  -5   34.16    1.33
   1   3   5   33.77    1.19
   1   3   5   34.38    1.32
  -1  -3   5   33.55    1.12
   3  -1   5   35.82    1.37
   3  -1   5   32.49    1.21
  -3   1   5   32.91    1.30
   3  -2  -5    2.07    0.30
  -3   2  -5    2.13    0.32
   3  -2  -5    2.40    0.33
   2   3  -5    3.33    0.29
   2   3  -5    2.42    0.22
  -2  -3  -5    2.66    0.40
   2   3   5    3.09    0.30
  -3   2   5    2.10    0.30
   2   3   5    3.22    0.36
   3  -2   5    2.08    0.27
  -3  -3  -5   64.10    2.09
   3  -3  -5   64.68    2.26
   3   3  -5   66.70    2.15
   3   3  -5   63.86    2.12
  -3   3  -5   66.26    2.26
   3  -3  -5   66.42    2.27
   3   3   5   63.99    2.28
  -3   3   5   66.97    2.25
   3  -3   5   64.37    2.07
   3  -3   5   64.90    2.18
   3   3   5   65.41    2.19
  -4  -3  -5   22.11    1.03
   3  -4  -5   21.04    0.97
   4   3  -5   21.53    0.84
  -3   4  -5   21.96    0.93
   3  -4  -5   23.43    0.98
   4   3  -5   20.98    0.82
  -4  -3  -5   20.75    0.82
  -3   4   5   22.00    0.93
   3  -4   5   21.78    0.73
   4   3   5   22.99    0.91
   3  -4   5   21.27    0.88
   4   3   5   21.90    0.98
  -4  -2  -5   10.52    0.69
   4   2  -5   11.51    0.56
   2  -4  -5   10.91    0.65
   2  -4  -5   12.12    0.67
  -2   4  -5   12.68    0.61
  -4  -2  -5   11.38    0.51
   4   2  -5   12.36    0.56
   4   2   5   10.96    0.67
  -2   4   5   12.90    0.64
   2  -4   5   10.68    0.55
   4   2   5   11.92    0.59
  -4  -1  -5    3.47    0.27
   4   1  -5    3.11    0.31
  -4  -1  -5    3.01    0.41
   1  -4  -5    2.05    0.32
   1  -4  -5    2.45    0.37
   4   1  -5    2.87    0.30
  -1   4  -5    2.34    0.29
   1  -4   5    2.94    0.29
  -1   4   5    2.50    0.33
   4   1   5    2.69    0.31
   4   1   5    2.88    0.37
  -1   4   5    2.67    0.25
   4   0  -5    1.69    0.26
   0  -4  -5    1.36    0.32
   4   0  -5    1.16    0.24
   0  -4  -5    1.64    0.30
  -4   0  -5    1.39    0.19
   0   4  -5    1.72    0.25
  -4   0  -5    1.04    0.28
   0  -4   5    1.72    0.22
   4   0   5    1.06    0.28
  -4   0   5    1.48    0.28
   0   4   5    1.04    0.25
   0   4   5    1.69    0.22
   4   0   5    1.27    0.24
   1   4  -5    5.34    0.38
  -4   1  -5    6.80    0.51
  -1  -4  -5    7.46    0.58
  -4   1  -5    5.89    0.32
   1   4  -5    6.08    0.28
   4  -1  -5    5.46    0.44
   4  -1  -5    6.14    0.44
  -1  -4   5    5.84    0.34
   1   4   5    6.26    0.38
   1   4   5    6.27    0.48
  -4   1   5    6.33    0.48
   4  -1   5    5.90    0.43
   4  -1   5    5.59    0.50
  -4   2  -5   23.35    0.84
   4  -2  -5   23.90    1.00
  -2  -4  -5   24.40    1.08
  -4   2  -5   23.73    1.02
   2   4  -5   23.50    0.89
  -2  -4  -5   24.11    0.82
   4  -2  -5   24.27    0.98
   2   4  -5   23.61    0.83
   4  -2   5   23.37    0.95
   4  -2   5   23.09    1.05
  -2  -4   5   24.35    0.83
  -4   2   5   23.45    0.99
   2   4   5   24.04    1.02
   4  -2   5   24.31    0.87
   2   4   5   23.31    0.92
   4  -3  -5   22.47    0.98
  -3  -4  -5   24.05    1.09
   3   4  -5   23.42    0.85
   3   4  -5   23.55    0.86
  -3  -4  -5   23.15    0.85
  -4   3  -5   21.59    0.99
   4  -3  -5   23.40    1.01
  -3  -4   5   24.27    0.81
  -4   3   5   23.88    0.97
   3   4   5   22.55    0.93
   3   4   5   24.47    1.03
   4  -3   5   22.67    0.82
   4  -3   5   23.62    0.94
   4  -4  -5   43.26    1.66
  -4   4  -5   41.88    1.62
  -4  -4  -5   42.58    1.51
   4   4  -5   45.30    1.50
   4   4  -5   45.49    1.48
  -4  -4  -5   42.60    1.71
   4  -4  -5   45.36    1.66
   4  -4   5   45.36    1.59
   4   4   5   45.88    1.67
   4   4   5   45.32    1.59
  -4  -4   5   44.69    1.43
  -4   4   5   42.79    1.59
   4  -4   5   43.67    1.43
  -4   5  -5    2.22    0.32
  -5  -4  -5    2.26    0.42
   5   4  -5    2.10    0.22
   4  -5  -5    1.53    0.35
  -5  -4  -5    2.84    0.31
   5   4  -5    2.16    0.26
   4  -5  -5    1.53    0.33
   5   4   5    2.03    0.32
   4  -5   5    1.84    0.32
   5   4   5    1.98    0.34
  -4   5   5    1.98    0.30
  -5  -3  -5   29.39    1.28
   5   3  -5   28.51    1.04
   5   3  -5   28.77    1.09
   3  -5  -5   30.19    1.22
   3  -5  -5   29.58    1.22
  -5  -3  -5   28.08    1.08
  -3   5  -5   29.65    1.15
   5   3   5   28.41    1.20
  -3   5   5   31.31    1.18
   3  -5   5   30.40    1.14
   5   3   5   28.72    1.15
   5   2  -5   39.76    1.38
   2  -5  -5   38.86    1.53
  -2   5  -5   41.42    1.45
  -5  -2  -5   39.33    1.57
  -5  -2  -5   39.95    1.39
   2  -5  -5   40.19    1.54
   5   2  -5   38.72    1.41
   5   2   5   38.80    1.45
  -2   5   5   39.85    1.48
   2  -5   5   39.76    1.42
   5   2   5   39.96    1.53
   5   1  -5   19.07    0.78
   1  -5  -5   18.99    0.92
  -1   5  -5   19.37    0.80
   5   1  -5   18.72    0.82
   1  -5  -5   21.08    0.93
  -5  -1  -5   18.01    0.92
  -5  -1  -5   17.80    0.75
   5   1   5   19.83    0.84
  -1   5   5   21.34    0.90
   1  -5   5   19.70    0.79
   5   1   5   17.67    0.90
  -5   0  -5   85.48    2.76
  -5   0  -5   87.28    2.95
   0   5  -5   82.02    2.78
   0  -5  -5   86.42    2.95
   5   0  -5   86.16    2.84
   0  -5  -5   88.08    2.91
   5   0  -5   85.73    2.81
   0  -5   5   82.07    2.75
   0   5   5   87.20    2.89
   5   0   5   85.69    2.92
  -5   0   5   85.90    2.87
   5   0   5   84.99    2.84
   1   5  -5   10.99    0.53
  -5   1  -5   11.84    0.70
   5  -1  -5   12.70    0.61
  -5   1  -5   11.60    0.52
  -1  -5  -5   10.50    0.69
   5  -1  -5   11.67    0.63
  -1  -5  -5   11.20    0.45
   5  -1   5   11.00    0.60
   5  -1   5   11.92    0.55
  -5   1   5   12.04    0.63
   1   5   5   11.20    0.66
   1   5   5   10.42    0.55
   5  -1   5   12.05    0.70
  -1  -5   5   11.38    0.52
  -2  -5  -5    5.13    0.32
   2   5  -5    4.47    0.32
   5  -2  -5    4.73    0.44
   5  -2  -5    5.23    0.43
  -5   2  -5    5.29    0.50
   2   5  -5    5.08    0.26
  -2  -5  -5    5.17    0.51
   5  -2   5    5.28    0.49
   5  -2   5    4.51    0.33
  -5   2   5    4.96    0.41
   5  -2   5    5.04    0.43
   2   5   5    5.26    0.39
  -2  -5   5    4.27    0.33
   2   5   5    3.32    0.40
  -3  -5  -5   29.64    1.23
   5  -3  -5   27.97    1.13
   5  -3  -5   28.17    1.10
  -5   3  -5   26.10    1.12
   3   5  -5   25.82    0.94
  -3  -5  -5   25.22    0.97
   3   5  -5   26.88    0.93
  -5   3   5   25.91    1.05
   5  -3   5   25.08    1.06
   3   5   5   25.85    1.04
   5  -3   5   27.03    0.95
   3   5   5   27.48    1.15
  -3  -5   5   26.74    0.94
  -4  -5  -5    1.46    0.24
   4   5  -5    1.29    0.19
  -4  -5  -5    0.84    0.33
   5  -4  -5    1.22    0.31
   5  -4  -5    0.52    0.25
  -5   4  -5    1.04    0.28
   4   5  -5    1.16    0.17
  -4  -5   5    1.10    0.20
   5  -4   5    1.14    0.18
   4   5   5    1.24    0.27
   5  -4   5    0.96    0.28
  -5   4   5    1.08    0.25
   4   5   5    1.22    0.30
   5  -5  -5   14.85    0.78
   5   5  -5   16.05    0.66
  -5   5  -5   15.41    0.78
   5  -5  -5   16.28    0.85
  -5  -5  -5   14.49    0.88
  -5  -5  -5   14.97    0.70
   5   5   5   16.03    0.77
   5   5   5   15.76    0.83
  -5  -5   5   15.96    0.65
   5  -5   5   15.15    0.77
  -5   5   5   13.38    0.71
  -6  -5  -5    0.96    0.37
   5  -6  -5    0.83    0.31
   6   5  -5    1.13    0.23
  -5   6  -5    1.60    0.31
   5  -6  -5    0.81    0.34
  -6  -5  -5    1.28    0.28
   6   5   5    1.06    0.30
   5  -6   5    0.93    0.30
   6   5   5    1.01    0.32
  -5   6   5    1.77    0.31
   4  -6  -5   60.60    2.12
   4  -6  -5   61.66    2.09
  -4   6  -5   57.31    2.00
   6   4  -5   53.02    1.85
  -6  -4  -5   54.44    1.96
  -6  -4  -5   53.49    2.13
   6   4  -5   54.91    1.93
  -4   6   5   59.18    2.04
   4  -6   5   59.24    2.02
   6   4   5   56.11    2.02
   6   4   5   57.56    2.07
   6   3  -5   -0.07    0.15
  -6  -3  -5    0.02    0.26
   3  -6  -5   -0.08    0.24
  -6  -3  -5    0.14    0.20
   3  -6  -5    0.12    0.27
   6   3  -5   -0.36    0.17
  -3   6  -5   -0.01    0.19
   3  -6   5   -0.17    0.21
   6   3   5    0.06    0.23
   6   3   5   -0.11    0.22
  -3   6   5   -0.28    0.21
   6   2  -5   14.03    0.68
  -6  -2  -5   14.65    0.83
   6   2  -5   14.59    0.62
  -6  -2  -5   13.66    0.65
   2  -6  -5   14.79    0.80
   2  -6  -5   13.37    0.78
  -2   6  -5   14.04    0.66
  -2   6   5   14.39    0.76
   6   2   5   15.17    0.77
   6   2   5   14.03    0.72
   2  -6   5   14.08    0.69
   6   1  -5    2.29    0.27
   1  -6  -5    2.37    0.38
  -6  -1  -5    2.61    0.43
  -1   6  -5    2.45    0.29
  -6  -1  -5    3.02    0.31
   6   1  -5    2.20    0.30
   1  -6  -5    1.89    0.36
   6   1   5    2.01    0.28
   6   1   5    2.39    0.33
   6   1   5    1.92    0.34
   1  -6   5    2.20    0.30
  -1   6   5    2.05    0.35
  -6   0  -5    0.95    0.32
   0  -6  -5   -0.11    0.24
  -6   0  -5    0.58    0.20
   0   6  -5    0.31    0.17
   0  -6  -5    0.44    0.14
   6   0  -5    0.28    0.19
   6   0  -5    0.49    0.23
   0  -6  -5    0.66    0.29
   6   0   5    0.43    0.24
   0  -6   5    0.45    0.20
  -6   0   5    0.63    0.24
   6   0   5    0.56    0.26
   6   0   5    0.30    0.20
   0   6   5    0.20    0.25
  -1  -6  -5    2.18    0.23
   1   6  -5    1.58    0.22
   6  -1  -5    1.54    0.30
   6  -1  -5    1.96    0.29
  -6   1  -5    0.82    0.30
  -1  -6  -5    1.03    0.33
  -6   1  -5    1.92    0.26
   6  -1   5    2.02    0.26
   6  -1   5    2.20    0.32
   6  -1   5    1.89    0.34
  -1  -6   5    1.68    0.26
   1   6   5    1.72    0.34
  -6   1   5    1.98    0.30
   6  -2  -5   29.57    1.15
  -6   2  -5   31.01    1.24
  -2  -6  -5   27.74    1.04
   2   6  -5   28.44    1.02
  -2  -6  -5   28.73    1.28
   6  -2  -5   30.17    1.20
  -2  -6   5   27.43    1.06
   6  -2   5   30.75    1.25
   6  -2   5   32.85    1.19
   2   6   5   27.11    1.21
  -6   2   5   28.99    1.13
   6  -2   5   29.31    1.06
   2   6   5   26.94    1.11
   6  -3  -5    6.10    0.49
  -6   3  -5    6.15    0.55
  -3  -6  -5    4.22    0.50
  -3  -6  -5    5.48    0.40
   6  -3  -5    4.68    0.46
  -3  -6   5    4.94    0.37
   6  -3   5    4.74    0.35
   6  -3   5    4.12    0.48
   3   6   5    5.07    0.50
   3   6   5    5.41    0.45
   6  -3   5    5.54    0.47
  -6   3   5    4.24    0.39
  -4  -6  -5   82.22    2.76
  -4  -6  -5   85.51    2.98
   6  -4  -5   84.01    2.90
  -6   4  -5   83.80    2.88
   6  -4  -5   86.59    2.86
   4   6  -5   83.18    2.69
  -4  -6   5   83.79    2.71
   4   6   5   83.02    2.92
   6  -4   5   81.19    2.84
   4   6   5   85.34    2.82
   6  -4   5   83.74    2.69
  -6   4   5   84.87    2.78
  -5  -6  -5    4.01    0.40
   5   6  -5    4.13    0.32
  -6   5  -5    3.34    0.42
   6  -5  -5    3.27    0.42
   6  -5  -5    3.62    0.45
  -5  -6  -5    4.02    0.54
  -6   5   5    4.05    0.39
   5   6   5    3.64    0.46
   6  -5   5    4.01    0.44
   5   6   5    3.86    0.43
  -5  -6   5    3.79    0.33
   6  -6  -5  136.40    4.42
  -6  -6  -5  129.14    4.52
  -6   6  -5  137.34    4.41
   6  -6  -5  137.13    4.48
   6   6  -5  131.15    4.26
  -6  -6  -5  132.39    4.34
   6  -6   5  134.02    4.41
  -6  -6   5  137.02    4.38
  -6   6   5  136.32    4.36
   6   6   5  132.18    4.39
   6   6   5  133.44    4.48
  -7  -6  -5    7.04    0.70
  -7  -6  -5    6.12    0.53
   6  -7  -5    6.32    0.64
  -6   7  -5    6.23    0.56
   7   6  -5    6.04    0.45
   6  -7  -5    5.83    0.55
   6  -7   5    7.32    0.61
   7   6   5    6.82    0.62
  -6   7   5    4.56    0.48
   7   6   5    6.59    0.58
   5  -7  -5    0.81    0.37
   5  -7  -5    0.66    0.32
  -7  -5  -5    0.35    0.37
  -5   7  -5    0.93    0.26
   7   5  -5    0.51    0.22
  -7  -5  -5    0.54    0.28
   5  -7   5    1.00    0.33
   7   5   5    0.36    0.29
  -5   7   5    0.54    0.26
   7   5   5    0.45    0.30
   4  -7  -5    9.66    0.74
  -4   7  -5   10.11    0.58
   4  -7  -5    9.33    0.66
   7   4  -5    9.55    0.56
  -7  -4  -5    9.60    0.60
  -7  -4  -5    9.42    0.77
   7   4   5   10.50    0.66
   7   4   5    9.61    0.63
  -4   7   5   10.08    0.65
   4  -7   5   10.33    0.64
   7   3  -5    0.89    0.25
   3  -7  -5    0.72    0.34
  -7  -3  -5    0.60    0.34
   3  -7  -5    0.20    0.30
  -3   7  -5    0.54    0.22
  -7  -3  -5    0.49    0.25
   7   3   5    0.64    0.28
  -3   7   5    0.44    0.26
   7   3   5    0.72    0.29
   3  -7   5    0.78    0.27
  -2   7  -5   14.46    0.67
  -7  -2  -5   15.17    0.71
  -7  -2  -5   14.22    0.85
   7   2  -5   14.72    0.72
   2  -7  -5   14.80    0.82
   2  -7  -5   13.69    0.83
   7   2  -5   16.27    0.65
   7   2   5   13.78    0.78
   7   2   5   13.30    0.74
   7   2   5   14.51    0.72
   2  -7   5   14.48    0.74
  -2   7   5   14.82    0.80
   1  -7  -5    0.91    0.19
  -1   7  -5    0.96    0.21
  -7  -1  -5    0.50    0.23
   7   1  -5    0.57    0.24
   1  -7  -5    0.15    0.29
  -7  -1  -5    0.31    0.29
   7   1  -5    0.77    0.21
   1  -7  -5    0.89    0.34
   7   1   5    0.36    0.27
   7   1   5    0.72    0.27
   7   1   5    0.51    0.23
   1  -7   5    0.69    0.25
  -1   7   5    0.48    0.27
   0   7  -5   62.09    2.09
   7   0  -5   66.39    2.15
   0  -7  -5   61.98    2.28
  -7   0  -5   64.09    2.16
   0  -7  -5   62.40    2.30
  -7   0  -5   67.76    2.33
   7   0  -5   63.97    2.21
   0  -7  -5   62.10    2.06
   7   0   5   63.09    2.22
   7   0   5   62.62    2.15
   0  -7   5   59.74    2.14
   7   0   5   61.68    2.26
   0   7   5   63.77    2.28
  -7   0   5   63.98    2.19
  -1  -7  -5    1.30    0.38
  -1  -7  -5    2.20    0.27
   7  -1  -5    1.70    0.28
   7  -1  -5    1.79    0.32
  -7   1  -5    1.22    0.35
   1   7  -5    1.67    0.23
   7  -1   5    1.66    0.34
   7  -1   5    1.40    0.32
  -1  -7   5    2.08    0.29
  -7   1   5    1.40    0.28
   7  -1   5    1.45    0.24
   1   7   5    1.71    0.36
  -2  -7  -5   81.13    2.86
   7  -2  -5   82.34    2.72
  -7   2  -5   80.19    2.82
  -2  -7  -5   80.27    2.64
   7  -2  -5   81.48    2.78
   7  -2   5   80.67    2.76
   7  -2   5   79.41    2.80
  -2  -7   5   79.48    2.65
  -7   2   5   80.13    2.68
   2   7   5   82.19    2.84
   7  -2   5   79.63    2.64
   7  -3  -5    0.74    0.27
   7  -3  -5    0.63    0.30
  -3  -7  -5    0.17    0.34
  -3  -7  -5    0.37    0.24
  -7   3  -5    0.41    0.28
   3   7   5    0.90    0.33
   7  -3   5    0.97    0.21
   7  -3   5    0.83    0.31
  -7   3   5    0.53    0.22
   7  -3   5    0.71    0.28
  -3  -7   5    0.47    0.24
  -4  -7  -5    1.75    0.30
  -4  -7  -5    1.50    0.41
   7  -4  -5    1.20    0.31
  -7   4  -5    0.70    0.28
   7  -4  -5    0.93    0.32
   7  -4   5    0.48    0.20
   4   7   5    0.82    0.33
   7  -4   5    0.68    0.29
  -7   4   5    0.90    0.24
  -4  -7   5    1.40    0.25
   4   7   5    0.91    0.28
  -7   5  -5    1.62    0.35
   7  -5  -5    1.60    0.40
  -5  -7  -5    2.56    0.35
  -5  -7  -5    2.76    0.50
   7  -5  -5    1.12    0.32
   5   7   5    2.18    0.41
   5   7   5    1.69    0.34
  -7   5   5    1.21    0.28
  -5  -7   5    3.31    0.33
   7  -5   5    2.03    0.38
  -6  -7  -5    1.48    0.44
   7  -6  -5    1.41    0.36
   6   7  -5    1.58    0.33
  -6  -7  -5    2.47    0.37
  -7   6  -5    1.46    0.34
   7  -6  -5    2.25    0.43
   6   7   5    2.30    0.38
  -7   6   5    1.92    0.32
   6   7   5    1.08    0.38
  -6  -7   5    1.62    0.33
   7  -6   5    2.29    0.39
  -7   7  -5    0.65    0.30
  -7  -7  -5    1.14    0.34
   7  -7  -5    0.93    0.36
   7  -7  -5    0.82    0.39
  -7  -7  -5    0.81    0.42
   7   7  -5    1.09    0.25
   7   7   5    0.84    0.33
  -7   7   5    0.64    0.28
   7  -7   5    0.65    0.35
   7   7   5    0.74    0.36
  -8  -7  -5    0.63    0.42
  -7   8  -5    1.17    0.32
  -8  -7  -5    0.68    0.34
   7  -8  -5    0.94    0.38
   7  -8  -5    1.17    0.42
   8   7  -5    0.59    0.24
  -7   8   5    1.01    0.31
   8   7   5    0.81    0.34
   7  -8   5    0.95    0.37
   8   7   5    0.66    0.38
   6  -8  -5  131.84    4.35
   8   6  -5  128.37    4.21
  -8  -6  -5  131.88    4.46
  -8  -6  -5  129.82    4.30
  -6   8  -5  127.77    4.29
   6  -8  -5  135.76    4.43
   8   6   5  133.12    4.34
   6  -8   5  126.71    4.34
  -6   8   5  127.22    4.33
   8   6   5  133.18    4.41
   5  -8  -5    0.59    0.34
  -5   8  -5    0.85    0.28
  -8  -5  -5    0.69    0.31
   5  -8  -5    0.62    0.40
   8   5  -5    0.53    0.24
  -8  -5  -5    0.74    0.38
   8   5   5    0.41    0.32
   5  -8   5    0.56    0.33
  -5   8   5    0.41    0.29
   8   5   5    0.39    0.29
   4  -8  -5   43.83    1.71
  -8  -4  -5   44.21    1.79
  -8  -4  -5   43.08    1.63
   8   4  -5   44.98    1.60
   4  -8  -5   42.52    1.76
  -4   8  -5   43.14    1.60
   8   4   5   41.98    1.69
   8   4   5   43.70    1.66
   4  -8   5   44.80    1.67
   8   4   5   44.31    1.68
  -4   8   5   43.76    1.71
   3  -8  -5    0.45    0.30
   3  -8  -5    0.11    0.32
  -3   8  -5    0.20    0.20
   8   3  -5    0.12    0.22
  -8  -3  -5    0.15    0.25
  -8  -3  -5    0.03    0.33
   3  -8   5    0.58    0.28
  -3   8   5    0.41    0.27
   8   3   5    0.33    0.30
   8   3   5    0.51    0.25
   8   3   5    0.03    0.26
  -2   8  -5    2.61    0.30
  -8  -2  -5    1.36    0.39
   2  -8  -5    2.22    0.42
   2  -8  -5    2.10    0.41
  -8  -2  -5    1.84    0.32
   8   2  -5    1.29    0.29
   2  -8   5    3.43    0.40
   8   2   5    1.63    0.33
  -2   8   5    1.53    0.36
   8   2   5    1.60    0.36
   8   2   5    1.66    0.32
   8   1  -5    1.58    0.31
   1  -8  -5    2.21    0.26
  -1   8  -5    1.74    0.24
  -8  -1  -5    1.09    0.27
  -8  -1  -5    0.68    0.34
   1  -8  -5    1.73    0.40
   1  -8  -5    2.49    0.44
   8   1   5    1.53    0.34
   1  -8   5    1.32    0.30
   8   1   5    1.69    0.29
  -1   8   5    1.18    0.34
   8   1   5    1.33    0.33
  -8   0  -5    1.75    0.39
   8   0  -5    1.45    0.33
   0  -8  -5    1.56    0.37
   8   0  -5    1.48    0.27
   0  -8  -5    1.34    0.25
   0  -8  -5    0.82    0.34
   8   0   5    1.83    0.29
   8   0   5    1.80    0.35
   0  -8   5    1.21    0.28
  -8   0   5    1.48    0.28
   0   8   5    0.44    0.31
   8   0   5    1.33    0.33
   8  -1  -5   -0.01    0.23
  -1  -8  -5    0.17    0.23
  -1  -8  -5    0.56    0.31
  -8   1  -5    0.23    0.30
   8  -1  -5    0.19    0.22
   1   8   5    0.51    0.31
  -1  -8   5    0.12    0.24
  -8   1   5    0.36    0.22
   8  -1   5    0.08    0.27
   8  -1   5    0.08    0.20
   8  -1   5    0.05    0.26
  -2  -8  -5   21.73    1.08
   8  -2  -5   21.55    0.94
  -8   2  -5   23.31    1.07
  -2  -8  -5   21.23    0.90
   8  -2  -5   21.47    1.01
   8  -2   5   21.93    1.00
  -8   2   5   20.75    0.89
   8  -2   5   21.52    0.89
   8  -2   5   24.05    1.06
  -2  -8   5   20.56    0.92
   2   8   5   21.40    1.09
  -3  -8  -5    0.90    0.39
   8  -3  -5    0.97    0.29
  -3  -8  -5    1.16    0.29
   8  -3  -5    1.17    0.33
  -8   3  -5    1.54    0.37
  -3  -8   5    0.89    0.29
   3   8   5    0.58    0.34
  -8   3   5    1.00    0.24
   8  -3   5    0.87    0.32
   8  -3   5    0.71    0.32
   8  -3   5    1.03    0.24
  -8   4  -5   36.76    1.50
  -4  -8  -5   36.31    1.56
   8  -4  -5   36.50    1.41
  -4  -8  -5   33.24    1.37
   8  -4  -5   37.64    1.51
   8  -4   5   37.58    1.31
  -4  -8   5   35.98    1.35
   8  -4   5   36.68    1.49
   8  -4   5   38.75    1.48
   4   8   5   33.09    1.53
  -8   4   5   35.43    1.32
   8  -5  -5    6.30    0.55
  -5  -8  -5    7.26    0.57
  -5  -8  -5    6.88    0.69
  -8   5  -5    6.75    0.60
   8  -5  -5    6.75    0.64
   5   8   5    7.51    0.69
  -8   5   5    6.40    0.50
  -5  -8   5    6.22    0.50
   8  -5   5    6.90    0.61
   8  -6  -5   77.99    2.85
   8  -6  -5   77.84    2.76
  -8   6  -5   76.77    2.79
  -6  -8  -5   83.43    2.75
  -6  -8  -5   79.46    2.90
  -6  -8   5   82.42    2.70
  -8   6   5   73.61    2.68
   8  -6   5   80.41    2.81
   6   8   5   85.16    2.93
   6   8   5   79.26    2.77
  -8   7  -5    0.48    0.30
   8  -7  -5    0.77    0.39
   8  -7  -5    0.59    0.35
  -7  -8  -5    1.34    0.47
  -7  -8  -5    1.16    0.35
  -7  -8   5    1.39    0.51
   7   8   5    0.76    0.39
  -8   7   5    0.71    0.28
   7   8   5    0.58    0.33
   8  -7   5    0.70    0.35
  -8  -8  -5   58.94    2.23
  -8   8  -5   55.74    2.07
   8  -8  -5   52.74    2.17
   8  -8  -5   52.38    2.07
  -8  -8  -5   60.93    2.10
   8   8   5   52.53    2.20
   8  -8   5   52.78    2.11
   8   8   5   59.98    2.11
  -8   8   5   52.79    2.04
   8  -9  -5    0.33    0.37
   8  -9  -5    0.44    0.42
  -9  -8  -5    0.28    0.41
  -9  -8  -5    0.69    0.38
  -8   9  -5    0.12    0.30
   9   8   5    0.20    0.39
   9   8   5    0.42    0.35
   8  -9   5    0.30    0.39
  -7   9  -5    0.53    0.30
   9   7  -5    0.56    0.26
   7  -9  -5    0.56    0.43
  -9  -7  -5    0.21    0.36
  -9  -7  -5    0.73    0.42
   7  -9  -5    0.27    0.37
  -7   9   5    0.52    0.34
   7  -9   5    0.67    0.38
   9   7   5    0.71    0.39
   9   7   5    0.15    0.32
  -9  -6  -5    2.63    0.44
  -6   9  -5    3.20    0.41
  -9  -6  -5    1.73    0.46
   9   6  -5    3.61    0.39
   6  -9  -5    2.32    0.45
   6  -9  -5    1.97    0.49
   9   6   5    2.32    0.45
   9   6   5    2.21    0.42
  -6   9   5    3.68    0.49
   6  -9   5    3.20    0.49
   9   6   5    2.47    0.46
  -9  -5  -5   -0.11    0.29
   5  -9  -5   -0.05    0.33
   9   5  -5   -0.21    0.23
  -5   9  -5    0.03    0.24
  -9  -5  -5   -0.17    0.33
   5  -9  -5    0.14    0.38
   9   5   5    0.05    0.30
  -5   9   5    0.18    0.28
   9   5   5   -0.09    0.29
   5  -9   5    0.64    0.35
   9   5   5   -0.15    0.27
  -9  -4  -5    1.94    0.47
  -9  -4  -5    2.21    0.39
   4  -9  -5    2.06    0.43
  -4   9  -5    2.15    0.33
   4  -9  -5    2.41    0.48
   9   4  -5    2.09    0.34
   9   4   5    2.51    0.42
   4  -9   5    1.66    0.40
   9   4   5    2.88    0.43
   9   4   5    2.69    0.41
  -4   9   5    1.79    0.38
  -9  -3  -5    0.36    0.28
   3  -9  -5    0.65    0.39
  -3   9  -5    0.51    0.22
   3  -9  -5    0.40    0.35
   9   3  -5    0.32    0.25
  -9  -3  -5    0.23    0.34
   9   3   5    0.27    0.27
   9   3   5    0.25    0.29
   3  -9   5    0.79    0.32
   9   3   5    0.13    0.31
  -3   9   5    0.91    0.35
  -9  -2  -5   44.18    1.64
  -9  -2  -5   45.79    1.79
   2  -9  -5   43.04    1.58
   2  -9  -5   45.41    1.75
  -2   9  -5   43.15    1.54
   2  -9  -5   42.88    1.78
   9   2  -5   42.88    1.63
  -2   9   5   42.09    1.76
   9   2   5   42.02    1.68
   9   2   5   43.37    1.68
   9   2   5   44.17    1.64
   2  -9   5   42.69    1.65
   1  -9  -5    2.62    0.48
  -9  -1  -5    4.01    0.45
  -9  -1  -5    3.48    0.54
   1  -9  -5    4.12    0.37
   1  -9  -5    2.32    0.44
   9   1  -5    3.99    0.45
   1  -9   5    3.25    0.43
   9   1   5    3.91    0.45
   9   1   5    3.91    0.42
  -1   9   5    3.98    0.52
   9   1   5    3.71    0.47
   9   0  -5   56.86    2.06
  -9   0  -5   54.20    2.15
   0  -9  -5   56.90    2.15
   0  -9  -5   58.22    1.96
   0  -9  -5   57.87    2.17
   9   0   5   59.98    2.02
   9   0   5   56.31    2.09
  -9   0   5   55.16    1.97
   9   0   5   58.33    2.10
   0  -9   5   57.49    2.03
   0   9   5   55.37    2.18
  -1  -9  -5    7.31    0.68
   9  -1  -5    5.18    0.53
  -1  -9  -5    6.21    0.48
  -9   1  -5    5.27    0.56
   1   9   5    5.12    0.59
   9  -1   5    5.55    0.57
  -1  -9   5    5.46    0.49
   9  -1   5    4.94    0.52
   9  -1   5    5.46    0.46
  -9   1   5    4.97    0.40
  -9   2  -5   20.07    1.03
   9  -2  -5   20.73    0.99
  -2  -9  -5   21.69    1.09
  -2  -9  -5   20.41    0.90
   9  -2   5   18.56    0.99
   9  -2   5   18.00    0.97
  -9   2   5   18.74    0.83
  -2  -9   5   22.52    0.94
   2   9   5   23.71    1.15
   9  -2   5   19.36    0.87
   9  -3  -5   -0.35    0.29
   9  -3  -5    0.31    0.26
  -3  -9  -5   -0.28    0.33
  -9   3  -5    0.68    0.32
  -3  -9  -5    0.31    0.28
  -9   3   5    0.20    0.20
   9  -3   5   -0.01    0.28
   9  -3   5    0.00    0.28
   9  -3   5   -0.07    0.22
   3   9   5    0.14    0.34
  -3  -9   5    0.15    0.28
  -4  -9  -5    3.77    0.55
   9  -4  -5    3.69    0.49
  -9   4  -5    4.73    0.55
   9  -4  -5    5.70    0.50
  -4  -9  -5    5.80    0.51
  -9   4   5    4.98    0.51
   4   9   5    4.37    0.58
   9  -4   5    4.93    0.53
  -4  -9   5    4.67    0.46
   9  -4   5    5.05    0.42
   9  -4   5    4.53    0.52
  -5  -9  -5   -0.19    0.28
  -5  -9  -5    0.27    0.39
   9  -5  -5    0.32    0.29
   9  -5  -5    0.10    0.35
  -9   5  -5    0.15    0.32
   9  -5   5    0.12    0.31
  -5  -9   5    0.17    0.28
   5   9   5    0.57    0.36
   9  -5   5    0.28    0.32
   9  -5   5    0.20    0.37
   9  -6  -5    1.21    0.37
  -9   6  -5    2.05    0.40
  -6  -9  -5    2.32    0.41
  -6  -9  -5    1.58    0.48
   9  -6  -5    2.02    0.46
   6   9   5    2.64    0.49
  -6  -9   5    2.30    0.37
   9  -6   5    1.77    0.42
  -7  -9  -5    0.75    0.45
  -9   7  -5    0.83    0.34
   9  -7  -5    0.98    0.45
  -7  -9  -5    0.76    0.36
   9  -7  -5    0.68    0.33
   9  -7   5    1.29    0.42
   7   9   5    0.53    0.40
  -7  -9   5    0.77    0.44
   9  -8  -5    0.64    0.43
  -8  -9  -5    0.49    0.36
  -8  -9  -5    0.47    0.43
  -9   8  -5    0.83    0.37
   9  -8  -5    0.83    0.38
   9  -8   5    0.25    0.38
   8   9   5    0.55    0.44
   9  -9  -5    0.70    0.43
   9  -9  -5    0.38    0.37
  -9  -9  -5    1.13    0.44
  -9  -9  -5    1.96    0.52
  -9   9  -5    0.41    0.35
   9  -9   5    0.59    0.43
   9   9   5    0.18    0.42
 -10  -9  -5    7.33    0.73
   9 -10  -5    8.10    0.83
   9 -10  -5    6.34    0.68
  -9  10  -5    9.24    0.74
 -10  -9  -5    6.46    0.80
  10   9   5    6.53    0.68
  10   9   5    6.15    0.68
  10   9   5    7.90    0.85
   9 -10   5    6.60    0.74
  10   8  -5    1.10    0.33
 -10  -8  -5    0.71    0.47
   8 -10  -5    0.76    0.43
 -10  -8  -5    0.91    0.44
   8 -10  -5    0.72    0.49
  -8  10  -5    1.13    0.37
   8 -10   5    1.28    0.47
  10   8   5    1.77    0.50
  10   8   5    1.30    0.43
  10   8   5    1.06    0.41
 -10  -7  -5    0.78    0.38
  -7  10  -5    0.28    0.29
  10   7  -5    0.42    0.27
   7 -10  -5    0.16    0.36
 -10  -7  -5   -0.08    0.41
   7 -10  -5    0.36    0.46
   7 -10   5    0.17    0.39
  10   7   5    0.49    0.39
  10   7   5    0.21    0.34
  10   7   5    0.08    0.34
 -10  -6  -5   20.02    1.17
  10   6  -5   21.35    0.97
   6 -10  -5   19.88    1.16
 -10  -6  -5   20.59    1.06
   6 -10  -5   19.47    1.06
  -6  10  -5   20.53    0.97
  10   6   5   22.39    1.08
  10   6   5   20.09    1.11
   6 -10   5   20.51    1.08
  10   6   5   19.55    1.05
   5 -10  -5    0.69    0.38
   5 -10  -5    0.87    0.44
 -10  -5  -5    0.13    0.41
 -10  -5  -5    0.65    0.34
  10   5  -5    0.44    0.27
  -5  10  -5    0.97    0.29
  10   5   5    0.16    0.33
  10   5   5    0.56    0.35
  10   5   5    0.33    0.32
  -5  10   5    0.30    0.34
   5 -10   5    0.26    0.36
 -10  -4  -5   -0.17    0.28
   4 -10  -5   -0.06    0.33
 -10  -4  -5   -0.03    0.38
  10   4  -5    0.35    0.26
  -4  10  -5   -0.02    0.22
   4 -10  -5    0.32    0.40
  -4  10   5   -0.28    0.29
  10   4   5    0.32    0.32
  10   4   5   -0.34    0.28
   4 -10   5    0.20    0.32
  10   4   5    0.15    0.30
   3 -10  -5    1.63    0.45
   3 -10  -5    1.20    0.40
 -10  -3  -5    2.09    0.49
  10   3  -5    1.91    0.35
 -10  -3  -5    1.73    0.38
  10   3   5    1.53    0.36
  10   3   5    1.73    0.36
  10   3   5    1.04    0.38
   3 -10   5    1.64    0.40
  -3  10   5    1.66    0.43
   2 -10  -5    3.79    0.56
  10   2  -5    3.53    0.44
   2 -10  -5    2.97    0.48
   2 -10  -5    4.54    0.42
 -10  -2  -5    4.55    0.49
 -10  -2  -5    3.45    0.55
  10   2   5    4.45    0.47
  10   2   5    2.92    0.43
  10   2   5    4.43    0.53
  -2  10   5    3.95    0.54
   2 -10   5    4.06    0.49
 -10  -1  -5   -0.17    0.31
   1 -10  -5    0.11    0.39
   1 -10  -5    0.49    0.27
   1 -10  -5    0.26    0.38
  10   1  -5    0.22    0.27
  -1  10   5    0.26    0.33
   1 -10   5    0.36    0.32
  10   1   5    0.38    0.29
  10   1   5    0.05    0.25
  10   1   5    0.08    0.30
  10   0  -5    0.40    0.30
   0 -10  -5    0.32    0.36
   0 -10  -5    0.46    0.27
   0 -10  -5   -0.01    0.35
 -10   0  -5    0.68    0.36
   0  10   5   -0.06    0.34
  10   0   5    0.00    0.27
  10   0   5    0.50    0.27
 -10   0   5    0.86    0.29
   0 -10   5    0.70    0.31
  10   0   5    0.23    0.31
 -10   1  -5    1.34    0.39
  10  -1  -5    1.37    0.36
  -1 -10  -5    0.73    0.30
  -1 -10  -5    0.51    0.39
  10  -1   5    1.24    0.34
  -1 -10   5    1.13    0.35
  10  -1   5    0.74    0.35
  10  -1   5    0.98    0.30
   1  10   5    0.09    0.34
  -2 -10  -5    3.23    0.54
 -10   2  -5    3.80    0.51
  10  -2  -5    4.73    0.54
  -2 -10  -5    3.81    0.44
  -2 -10   5    3.74    0.46
  10  -2   5    5.15    0.56
  10  -2   5    4.44    0.43
   2  10   5    3.36    0.54
  10  -2   5    5.01    0.51
 -10   3  -5    0.02    0.29
  10  -3  -5   -0.29    0.29
  -3 -10  -5    0.16    0.37
  -3 -10  -5    0.83    0.32
   3  10   5   -0.39    0.30
  10  -3   5    0.17    0.30
  -3 -10   5   -0.18    0.31
  10  -3   5    0.22    0.32
  10  -3   5    0.13    0.25
  10  -4  -5   10.96    0.80
  -4 -10  -5   12.30    0.73
  -4 -10  -5   11.45    0.85
 -10   4  -5   10.97    0.80
   4  10   5   10.53    0.87
  10  -4   5   10.23    0.78
  10  -4   5   10.58    0.77
  10  -4   5    9.81    0.62
  -4 -10   5   12.13    0.72
  -5 -10  -5   11.59    0.77
 -10   5  -5   10.61    0.80
  -5 -10  -5   12.40    0.95
  10  -5  -5   12.02    0.85
  -5 -10   5   11.90    0.74
  10  -5   5   12.27    0.83
  10  -5   5   12.66    0.81
  10  -5   5   13.42    1.06
   5  10   5   11.60    0.89
  -6 -10  -5   34.86    1.46
 -10   6  -5   37.73    1.53
  10  -6  -5   35.57    1.56
  -6 -10  -5   34.26    1.59
   6  10   5   33.70    1.64
  10  -6   5   36.13    1.54
  -6 -10   5   34.69    1.42
  -7 -10  -5    0.29    0.36
  -7 -10  -5    0.85    0.44
  10  -7  -5    0.82    0.42
 -10   7  -5    0.43    0.35
  -7 -10   5    0.90    0.41
   7  10   5    0.18    0.38
  10  -7   5    0.93    0.42
  10  -8  -5   23.25    1.31
 -10   8  -5   23.15    1.20
  10  -8  -5   23.84    1.17
  -8 -10  -5   26.46    1.39
  -8 -10  -5   28.28    1.26
   8  10   5   27.25    1.43
  10  -8   5   24.20    1.27
 -10   9  -5    6.88    0.69
  -9 -10  -5    6.41    0.69
  10  -9  -5    6.09    0.76
  -9 -10  -5    6.67    0.79
  10  -9  -5    5.70    0.63
   9  10   5    6.64    0.83
  10  -9   5    7.90    0.79
 -10  10  -5    4.40    0.57
 -10 -10  -5    5.18    0.73
 -10 -10  -5    4.43    0.63
  10 -10  -5    4.52    0.71
  10 -10  -5    3.30    0.53
  10 -10   5    3.46    0.62
  10  10   5    3.62    0.65
 -11 -10  -5    0.23    0.48
  10 -11  -5    0.59    0.55
 -11 -10  -5    0.08    0.52
 -10  11  -5    0.63    0.38
  10 -11   5    0.31    0.46
  11  10   5    0.26    0.44
  11  10   5    0.32    0.50
 -11  -9  -5    1.10    0.47
   9 -11  -5    0.97    0.44
   9 -11  -5    0.19    0.51
  -9  11  -5    0.67    0.37
 -11  -9  -5    0.60    0.50
  11   9   5    0.52    0.41
  11   9   5    0.01    0.35
   9 -11   5    1.43    0.52
  11   9   5    0.21    0.43
  -8  11  -5    0.19    0.31
   8 -11  -5    0.40    0.42
  11   8  -5   -0.01    0.26
   8 -11  -5   -0.33    0.48
 -11  -8  -5    0.35    0.41
 -11  -8  -5   -0.47    0.46
   8 -11   5    0.45    0.47
  11   8   5   -0.32    0.37
  11   8   5   -0.34    0.34
  11   8   5   -0.48    0.45
 -11  -7  -5    7.97    0.83
  11   7  -5    6.62    0.57
  -7  11  -5    7.75    0.65
   7 -11  -5    5.14    0.61
   7 -11  -5    5.01    0.71
 -11  -7  -5    8.66    0.76
  11   7   5    7.08    0.70
  11   7   5    5.49    0.65
  11   7   5    6.63    0.72
   7 -11   5    5.62    0.69
 -11  -6  -5    0.73    0.40
   6 -11  -5    0.48    0.44
  11   6  -5    0.11    0.28
 -11  -6  -5    0.08    0.44
   6 -11  -5    0.15    0.37
  -6  11  -5    0.83    0.31
  11   6   5    0.22    0.36
  11   6   5    0.29    0.39
   6 -11   5    0.68    0.40
  11   6   5    0.36    0.36
  11   5  -5   18.19    0.90
 -11  -5  -5   18.81    1.12
   5 -11  -5   16.97    1.01
   5 -11  -5   12.29    1.01
 -11  -5  -5   17.75    0.97
  -5  11  -5   14.68    0.83
   5 -11   5   16.24    0.98
  11   5   5   19.93    0.99
  11   5   5   18.25    0.99
  11   5   5   16.74    0.99
 -11  -4  -5    0.53    0.40
   4 -11  -5    0.90    0.41
  11   4  -5    0.48    0.30
   4 -11  -5    0.58    0.47
 -11  -4  -5    0.88    0.36
   4 -11   5    0.61    0.39
  11   4   5    0.56    0.36
  11   4   5    0.25    0.30
  11   4   5    0.41    0.34
   3 -11  -5   34.71    1.55
  11   3  -5   31.39    1.36
 -11  -3  -5   33.22    1.53
   3 -11  -5   33.28    1.45
 -11  -3  -5   32.34    1.39
  11   3   5   30.54    1.38
  11   3   5   31.56    1.37
  11   3   5   31.31    1.42
   3 -11   5   36.09    1.45
  11   2  -5    8.81    0.68
 -11  -2  -5    9.07    0.68
 -11  -2  -5    8.77    0.79
   2 -11  -5    8.62    0.60
   2 -11  -5    7.74    0.70
   2 -11  -5    8.45    0.79
  -2  11   5    7.45    0.76
   2 -11   5    9.45    0.74
  11   2   5    8.71    0.64
  11   2   5    8.44    0.67
  11   2   5    7.86    0.72
   1 -11  -5   18.62    1.13
   1 -11  -5   18.92    1.08
  11   1  -5   22.04    1.05
 -11  -1  -5   21.91    1.15
   1 -11  -5   20.51    0.95
  11   1   5   22.56    1.04
  11   1   5   22.27    1.09
   1 -11   5   19.06    1.03
  -1  11   5   19.90    1.17
  11   1   5   20.50    1.00
  11   0  -5   49.99    1.95
 -11   0  -5   48.34    2.03
   0 -11  -5   53.49    2.05
   0 -11  -5   51.57    1.86
  11   0   5   50.75    1.90
  11   0   5   52.54    1.99
  11   0   5   50.76    1.93
   0 -11   5   51.26    1.94
   0  11   5   54.45    2.15
 -11   1  -5    9.79    0.77
  -1 -11  -5    8.61    0.64
  -1 -11  -5    9.56    0.78
  11  -1  -5    8.83    0.72
   1  11   5    9.76    0.88
  11  -1   5    9.59    0.70
  -1 -11   5    8.94    0.70
  11  -1   5    9.33    0.76
  11  -1   5    8.44    0.62
  -2 -11  -5   22.09    1.19
  11  -2  -5   21.49    1.09
 -11   2  -5   20.82    1.12
  -2 -11  -5   23.07    1.03
  11  -2   5   20.46    1.05
  -2 -11   5   22.04    1.05
  11  -2   5   22.39    0.99
   2  11   5   19.50    1.21
  11  -2   5   21.75    1.12
 -11   3  -5    5.50    0.63
  11  -3  -5    6.18    0.66
  -3 -11  -5    9.26    0.79
  -3 -11  -5    8.77    0.65
  11  -3   5    6.72    0.68
   3  11   5    6.88    0.78
  -3 -11   5    9.22    0.68
  11  -3   5    6.36    0.54
  11  -3   5    6.94    0.62
  11  -4  -5    6.96    0.68
  -4 -11  -5    7.23    0.63
 -11   4  -5    9.37    0.80
  -4 -11  -5    5.56    0.69
   4  11   5    6.17    0.74
  11  -4   5    5.78    0.64
  11  -4   5    6.04    0.52
  -4 -11   5    7.01    0.61
  11  -4   5    4.99    0.56
  -5 -11  -5    4.57    0.65
 -11   5  -5    7.28    0.71
  -5 -11  -5    4.85    0.57
  11  -5  -5    5.57    0.62
  11  -5   5    5.72    0.65
  -5 -11   5    4.82    0.55
  11  -5   5    7.14    0.63
   5  11   5    3.65    0.63
  11  -6  -5    3.36    0.55
  -6 -11  -5    2.47    0.47
 -11   6  -5    2.16    0.47
  -6 -11  -5    3.23    0.58
  11  -6   5    2.93    0.48
  -6 -11   5    2.75    0.49
   6  11   5    2.66    0.60
  11  -6   5    2.30    0.51
 -11   7  -5    0.91    0.41
  -7 -11  -5    1.18    0.45
  11  -7  -5    0.57    0.46
  -7 -11  -5    0.63    0.47
  -7 -11   5    1.09    0.41
   7  11   5    0.48    0.46
  11  -7   5    0.63    0.41
 -11   8  -5    5.61    0.66
  -8 -11  -5    5.78    0.66
  11  -8  -5    4.01    0.63
  -8 -11  -5    4.13    0.68
   8  11   5    5.27    0.78
  -8 -11   5    5.30    0.91
  11  -8   5    4.92    0.65
  11  -9  -5    0.13    0.47
  -9 -11  -5    0.71    0.47
 -11   9  -5    0.39    0.39
  -9 -11  -5    0.26    0.49
  11  -9   5    0.79    0.47
   9  11   5    0.45    0.48
 -10 -11  -5    0.83    0.56
 -10 -11  -5    1.36    0.52
 -11  10  -5    1.90    0.48
  11 -10  -5    1.02    0.56
  10  11   5    1.82    0.59
  11 -10   5    1.35    0.53
 -11  11  -5   10.53    0.87
 -11 -11  -5    9.26    0.88
  11 -11  -5    6.63    0.82
 -11 -11  -5    8.71    0.93
  11 -11   5    9.01    0.91
  11  11   5    7.25    0.80
  11 -12  -5   10.27    1.04
 -12 -11  -5    9.09    0.91
 -11  12  -5    9.83    0.85
 -12 -11  -5    7.13    0.89
  11 -12   5    6.15    0.82
  12  11   5    7.45    0.83
 -10  12  -5    1.98    0.47
 -12 -10  -5    2.66    0.63
 -12 -10  -5    2.86    0.67
  10 -12  -5    2.06    0.67
  12  10   5    2.51    0.55
  10 -12   5    0.90    0.53
  12  10   5    2.43    0.66
   9 -12  -5    8.04    0.78
   9 -12  -5    9.70    0.96
  -9  12  -5    9.52    0.77
 -12  -9  -5    9.13    0.93
 -12  -9  -5   11.29    0.92
   9 -12   5    8.30    0.86
  12   9   5    7.74    0.89
  12   9   5   10.55    0.91
  12   9   5    8.75    0.84
 -12  -8  -5   11.47    0.91
 -12  -8  -5    8.49    0.88
   8 -12  -5   11.24    0.88
  12   8  -5   10.50    0.73
   8 -12  -5    8.15    0.89
  -8  12  -5    9.94    0.76
  12   8   5   10.74    0.90
  12   8   5   12.60    0.96
  12   8   5    9.74    0.94
   8 -12   5   10.48    0.92
   7 -12  -5    9.19    0.91
  -7  12  -5   12.20    0.80
 -12  -7  -5   12.40    0.96
 -12  -7  -5   12.68    1.03
  12   7  -5   13.00    0.79
   7 -12  -5   12.75    0.90
  12   7   5   11.56    0.97
   7 -12   5   11.83    0.96
  12   7   5   13.29    0.90
  12   7   5   13.15    0.91
   6 -12  -5   18.11    1.05
 -12  -6  -5   17.15    1.03
  12   6  -5   16.46    0.93
 -12  -6  -5   18.97    1.17
   6 -12  -5   18.32    1.20
  12   6   5   15.86    1.10
  12   6   5   17.94    1.04
   6 -12   5   19.13    1.10
  12   6   5   15.71    0.99
 -12  -5  -5   32.29    1.43
   5 -12  -5   29.06    1.43
   5 -12  -5   32.15    1.56
 -12  -5  -5   30.88    1.54
  12   5  -5   30.60    1.35
  12   5   5   30.69    1.43
   5 -12   5   33.28    1.47
  12   5   5   31.45    1.40
  12   5   5   32.45    1.46
   4 -12  -5    0.51    0.49
 -12  -4  -5    0.63    0.40
  12   4  -5    1.55    0.39
 -12  -4  -5    0.92    0.49
   4 -12  -5    0.88    0.44
  12   4   5    1.56    0.44
   4 -12   5    1.15    0.44
  12   4   5    1.05    0.39
  12   4   5    0.58    0.36
   3 -12  -5    0.95    0.48
   3 -12  -5    1.14    0.44
  12   3  -5    0.48    0.32
 -12  -3  -5    0.64    0.38
 -12  -3  -5    0.74    0.43
   3 -12   5    0.37    0.42
  12   3   5    0.09    0.32
  12   3   5    0.42    0.38
  12   3   5    0.61    0.36
   2 -12  -5    3.32    0.60
 -12  -2  -5    3.97    0.53
   2 -12  -5    3.07    0.52
  12   2  -5    3.37    0.49
   2 -12  -5    3.71    0.47
 -12  -2  -5    3.21    0.60
  12   2   5    2.94    0.51
   2 -12   5    3.14    0.53
  12   2   5    3.37    0.47
  12   2   5    3.52    0.50
  12   1  -5   14.18    0.87
   1 -12  -5   16.10    1.04
   1 -12  -5   14.00    0.93
   1 -12  -5   15.35    0.83
 -12  -1  -5   13.62    0.97
  12   1   5   15.07    0.93
   1 -12   5   13.95    0.89
  12   1   5   14.93    0.87
  12   1   5   14.35    0.85
  12   0  -5   -0.22    0.31
   0 -12  -5    0.79    0.45
 -12   0  -5    0.27    0.37
   0 -12  -5   -0.49    0.31
   0 -12   5    0.04    0.37
  12   0   5    0.18    0.31
  12   0   5    0.41    0.32
  12   0   5    0.43    0.37
 -12   1  -5    4.76    0.64
  -1 -12  -5    4.89    0.62
  12  -1  -5    6.69    0.66
  -1 -12  -5    7.05    0.60
  12  -1   5    5.04    0.61
  -1 -12   5    5.57    0.63
  12  -1   5    6.08    0.59
  12  -1   5    5.49    0.54
 -12   2  -5    0.70    0.40
  -2 -12  -5    1.10    0.39
  12  -2  -5    0.80    0.37
  -2 -12  -5    0.73    0.45
  12  -2   5    0.66    0.34
  12  -2   5    0.97    0.33
  -2 -12   5    0.62    0.41
  12  -2   5    0.88    0.40
  -3 -12  -5   57.90    2.25
  -3 -12  -5   56.60    2.10
  12  -3  -5   59.45    2.23
 -12   3  -5   53.99    2.21
  -3 -12   5   56.14    2.12
   3  12   5   58.87    2.37
  12  -3   5   55.83    2.19
  12  -3   5   56.19    2.12
  12  -3   5   55.42    2.05
  12  -4  -5    1.43    0.45
 -12   4  -5    1.18    0.44
  -4 -12  -5    0.52    0.40
  -4 -12  -5    1.04    0.48
  12  -4   5    1.65    0.37
   4  12   5    0.31    0.44
  12  -4   5    1.20    0.46
  12  -4   5    1.75    0.41
  -4 -12   5    0.56    0.43
  -5 -12  -5    1.05    0.43
  12  -5  -5    0.39    0.43
 -12   5  -5    0.18    0.36
  -5 -12  -5    0.53    0.47
  -5 -12   5    0.01    0.40
   5  12   5    0.35    0.43
  12  -5   5    0.29    0.34
  12  -5   5    0.25    0.40
  -6 -12  -5   12.85    1.01
 -12   6  -5   11.06    0.87
  12  -6  -5   12.17    0.95
  -6 -12  -5   13.20    0.91
  12  -6   5   11.23    0.92
  12  -6   5   10.96    0.84
  -6 -12   5   13.46    0.87
  -7 -12  -5    9.33    0.81
  -7 -12  -5    7.42    0.84
  12  -7  -5    9.43    0.89
 -12   7  -5   10.65    0.89
  12  -7   5    9.71    0.88
  12  -7   5   10.21    0.80
  -7 -12   5    8.45    0.74
  -8 -12  -5   10.94    0.99
 -12   8  -5   10.17    0.88
  12  -8  -5    9.55    0.91
  -8 -12  -5   12.17    0.93
  -8 -12   5   11.59    1.07
  12  -8   5    9.40    0.90
  12  -9  -5    1.10    0.57
 -12   9  -5    1.06    0.44
  -9 -12  -5    1.47    0.56
  -9 -12  -5    0.90    0.50
  12  -9   5    1.08    0.51
  12 -10  -5    0.97    0.57
 -10 -12  -5    0.73    0.55
 -12  10  -5    0.40    0.43
 -10 -12  -5    0.90    0.52
  12 -10   5    0.88    0.56
 -11 -12  -5    2.71    0.70
 -11 -12  -5    2.23    0.63
  12 -11  -5    2.54    0.70
 -12  11  -5    1.69    0.51
  11  12   5    1.90    0.56
  12 -11   5    2.91    0.68
  12 -12  -5    0.11    0.64
 -12 -12  -5   -0.29    0.55
 -12 -12  -5   -0.16    0.56
 -12  12  -5    0.09    0.42
  12  12   5    0.28    0.49
  12 -12   5    0.17    0.56
 -13 -12  -5    7.00    0.89
 -12  13  -5    4.58    0.66
 -13 -12  -5    5.40    0.84
  12 -13  -5    4.82    0.88
  12 -13   5    4.17    0.81
  13  12   5    7.51    0.90
 -13 -11  -5    7.90    0.98
 -11  13  -5   10.22    0.89
 -13 -11  -5    7.35    0.90
  11 -13  -5    9.53    1.02
  11 -13   5    8.18    0.95
  13  11   5    9.12    0.92
  10 -13  -5   -0.09    0.60
 -13 -10  -5   -0.02    0.56
 -10  13  -5   -0.21    0.34
 -13 -10  -5    0.17    0.55
  13  10   5   -0.05    0.47
  13  10   5    0.64    0.58
  10 -13   5   -0.47    0.53
 -13  -9  -5    0.18    0.53
   9 -13  -5   -0.94    0.53
  -9  13  -5    0.38    0.36
   9 -13  -5    0.39    0.48
 -13  -9  -5   -0.10    0.50
  13   9   5    0.19    0.51
   9 -13   5    0.28    0.52
  13   9   5   -0.30    0.40
  13   9   5    0.45    0.45
  -8  13  -5    0.28    0.43
   8 -13  -5    0.64    0.46
   8 -13  -5   -0.07    0.54
 -13  -8  -5    0.23    0.54
  13   8  -5    0.52    0.36
 -13  -8  -5    0.12    0.47
  13   8   5    0.23    0.42
  13   8   5    0.14    0.44
  13   8   5    0.69    0.53
   8 -13   5   -0.28    0.51
   7 -13  -5    4.20    0.72
  13   7  -5    3.39    0.49
 -13  -7  -5    4.59    0.77
 -13  -7  -5    5.24    0.69
   7 -13  -5    3.27    0.58
  13   7   5    3.35    0.58
   7 -13   5    3.40    0.63
  13   7   5    4.72    0.66
  13   7   5    5.86    0.74
  13   6  -5    1.94    0.42
 -13  -6  -5    2.63    0.57
 -13  -6  -5    1.38    0.55
   6 -13  -5    2.42    0.54
   6 -13  -5    2.40    0.62
   6 -13   5    2.56    0.59
  13   6   5    1.72    0.48
  13   6   5    2.25    0.53
  13   6   5    1.09    0.45
 -13  -5  -5    0.00    0.41
 -13  -5  -5    0.72    0.51
  13   5  -5    0.18    0.32
   5 -13  -5   -0.08    0.42
   5 -13  -5   -0.26    0.49
  13   5   5    0.24    0.41
   5 -13   5    0.44    0.46
  13   5   5   -0.22    0.35
  13   5   5    0.49    0.41
 -13  -4  -5    0.31    0.43
   4 -13  -5    0.60    0.43
  13   4  -5    0.36    0.36
   4 -13  -5    1.25    0.55
 -13  -4  -5    0.65    0.48
  13   4   5    1.61    0.48
  13   4   5    0.98    0.44
   4 -13   5    0.81    0.48
  13   4   5    1.08    0.41
 -13  -3  -5   38.61    1.65
 -13  -3  -5   37.72    1.76
   3 -13  -5   42.24    1.81
   3 -13  -5   34.14    1.64
  13   3  -5   39.90    1.61
  13   3   5   39.92    1.65
  13   3   5   38.29    1.62
   3 -13   5   36.00    1.67
  13   3   5   37.91    1.66
   2 -13  -5   10.43    0.79
   2 -13  -5    9.47    0.83
   2 -13  -5    9.28    0.89
 -13  -2  -5   10.24    0.95
  13   2  -5   11.11    0.81
  13   2   5   10.03    0.87
   2 -13   5    9.45    0.82
  13   2   5   11.72    0.81
  13   2   5   10.77    0.80
  13   1  -5   24.10    1.19
   1 -13  -5   23.84    1.12
   1 -13  -5   23.95    1.33
   1 -13  -5   23.70    1.24
 -13  -1  -5   21.46    1.26
  13   1   5   22.83    1.16
  13   1   5   23.53    1.23
   1 -13   5   24.17    1.23
  13   1   5   23.20    1.12
 -13   0  -5   -0.54    0.38
   0 -13  -5    0.48    0.46
  13   0  -5    0.35    0.36
   0 -13  -5    0.27    0.38
  13   0   5    0.45    0.33
  13   0   5    0.35    0.40
   0 -13   5    0.21    0.41
  13   0   5    0.33    0.32
 -13   1  -5    8.94    0.85
  -1 -13  -5    9.02    0.74
  13  -1  -5   11.41    0.83
  -1 -13  -5   10.10    0.87
  -1 -13   5   10.49    0.82
  13  -1   5    9.88    0.85
  13  -1   5    9.09    0.73
  13  -1   5   10.96    0.77
  13  -2  -5    0.67    0.39
 -13   2  -5   -0.10    0.39
  -2 -13  -5    1.27    0.43
  -2 -13  -5   -0.31    0.39
  13  -2   5    0.53    0.35
  13  -2   5    0.13    0.40
  13  -2   5    0.26    0.31
  -2 -13   5    0.26    0.42
  -3 -13  -5    6.22    0.72
  13  -3  -5    7.49    0.74
  -3 -13  -5   10.29    0.78
 -13   3  -5    7.56    0.77
  13  -3   5   10.15    0.77
  13  -3   5   10.81    0.89
  13  -3   5   11.05    0.73
  -3 -13   5    8.58    0.76
 -13   4  -5   15.51    1.01
  13  -4  -5   15.05    1.00
  -4 -13  -5   12.33    0.99
  -4 -13  -5   14.40    0.93
  -4 -13   5   14.90    0.95
  13  -4   5   14.73    1.00
  13  -4   5   15.33    0.91
  13  -4   5   13.43    0.82
  -5 -13  -5    3.29    0.62
  -5 -13  -5    4.89    0.62
  13  -5  -5    2.12    0.52
 -13   5  -5    2.15    0.50
  13  -5   5    3.24    0.50
  -5 -13   5    4.45    0.60
  13  -5   5    3.42    0.60
 -13   6  -5    2.85    0.54
  -6 -13  -5    3.01    0.58
  -6 -13  -5    3.17    0.65
  13  -6  -5    3.20    0.61
  13  -6   5    2.88    0.58
  13  -6   5    3.47    0.51
  -6 -13   5    3.86    0.61
  -7 -13  -5   -0.66    0.46
 -13   7  -5    0.27    0.40
  -7 -13  -5    0.38    0.49
  13  -7  -5   -0.43    0.45
  13  -7   5   -0.14    0.45
  -7 -13   5    0.21    0.45
  13  -7   5    0.59    0.39
  -8 -13  -5    0.37    0.49
  -8 -13  -5   -0.06    0.49
  13  -8  -5    0.57    0.54
 -13   8  -5   -0.05    0.39
  13  -8   5    0.18    0.40
  13  -8   5   -0.53    0.45
  -8 -13   5    0.33    0.54
  -9 -13  -5    3.13    0.63
  13  -9  -5    2.59    0.66
 -13   9  -5    3.00    0.58
  -9 -13  -5    2.10    0.65
  13  -9   5    2.14    0.61
  13 -10  -5    0.29    0.60
 -10 -13  -5    0.59    0.55
 -10 -13  -5    0.07    0.54
 -13  10  -5    0.50    0.46
  13 -10   5   -0.18    0.51
  13 -11  -5   16.70    1.27
 -11 -13  -5   15.19    1.14
 -13  11  -5   15.64    1.13
 -11 -13  -5   10.40    1.04
  11  13   5   14.58    1.17
  13 -11   5   14.76    1.20
 -13  12  -5    7.65    0.87
  13 -12  -5    7.26    0.97
 -12 -13  -5    8.44    0.95
 -12 -13  -5    8.04    0.96
  13 -12   5    7.54    0.95
  12  13   5    9.70    0.98
 -13 -13  -5   13.11    1.16
 -13  13  -5   15.29    1.19
  13 -13  -5   13.58    1.28
 -13 -13  -5   13.65    1.24
  13 -13   5   13.85    1.25
  13  13   5   13.57    1.16
  13 -14  -5    5.67    0.95
 -14 -13  -5    5.68    0.93
 -13  14  -5    5.50    0.76
 -14 -13  -5    4.34    0.85
  13 -14   5    4.13    0.84
  14  13   5    6.27    0.90
 -12  14  -5   -0.56    0.40
 -14 -12  -5   -0.50    0.60
  12 -14  -5    0.36    0.68
 -14 -12  -5    0.55    0.68
  14  12   5   -0.30    0.55
  12 -14   5    0.53    0.64
  11 -14  -5   10.89    1.14
 -11  14  -5    9.16    0.86
 -14 -11  -5    9.83    1.07
 -14 -11  -5   11.33    1.07
  11 -14   5    7.22    0.93
  14  11   5    8.94    0.91
 -14 -10  -5    2.61    0.70
 -14 -10  -5    3.17    0.70
  10 -14  -5    2.22    0.74
 -10  14  -5    2.68    0.62
  14  10   5    4.11    0.70
  10 -14   5    4.00    0.74
 -14  -9  -5    8.72    0.90
   9 -14  -5    4.38    0.67
 -14  -9  -5    8.38    0.96
   9 -14  -5    7.27    0.91
  14   9   5    7.36    0.81
  14   9   5    6.65    0.92
   9 -14   5    7.05    0.86
  14   9   5    6.88    0.81
 -14  -8  -5    1.26    0.60
   8 -14  -5    1.41    0.67
 -14  -8  -5    2.26    0.63
  14   8  -5    1.16    0.40
   8 -14  -5    0.45    0.51
  14   8   5    3.08    0.66
  14   8   5    0.87    0.49
   8 -14   5    1.38    0.61
  14   8   5    1.62    0.54
   7 -14  -5    9.43    0.99
   7 -14  -5    9.11    0.88
 -14  -7  -5    9.79    0.91
  14   7  -5    9.66    0.78
 -14  -7  -5    9.57    0.99
   7 -14   5    7.82    0.86
  14   7   5   11.11    0.92
  14   7   5    9.01    0.92
  14   7   5   10.60    0.92
 -14  -6  -5   -0.50    0.49
   6 -14  -5    0.20    0.56
   6 -14  -5   -0.01    0.47
  14   6  -5    0.21    0.35
 -14  -6  -5   -0.41    0.45
  14   6   5    0.46    0.47
  14   6   5    0.97    0.43
   6 -14   5    0.36    0.50
  14   6   5   -0.70    0.40
 -14  -5  -5   12.23    1.07
   5 -14  -5    9.11    0.95
  14   5  -5   10.41    0.82
 -14  -5  -5   12.23    0.98
   5 -14  -5    9.89    0.89
  14   5   5   11.61    0.95
  14   5   5   10.44    0.87
  14   5   5   11.21    0.95
   5 -14   5   10.26    0.92
 -14  -4  -5    1.13    0.50
  14   4  -5    1.55    0.43
 -14  -4  -5    1.38    0.56
   4 -14  -5    0.99    0.50
   4 -14  -5    0.54    0.57
  14   4   5    1.29    0.45
  14   4   5    0.99    0.43
  14   4   5    1.49    0.47
   4 -14   5    1.42    0.52
   3 -14  -5   -0.43    0.51
  14   3  -5    0.84    0.38
 -14  -3  -5    0.41    0.43
 -14  -3  -5   -0.18    0.43
   3 -14  -5    0.38    0.46
   3 -14   5    0.27    0.46
  14   3   5   -0.37    0.34
  14   3   5    0.28    0.38
  14   3   5    0.39    0.42
   2 -14  -5    1.79    0.52
  14   2  -5    1.49    0.43
   2 -14  -5    1.89    0.53
   2 -14  -5    0.79    0.54
 -14  -2  -5    1.23    0.49
  14   2   5    1.16    0.49
  14   2   5    1.01    0.40
   2 -14   5    0.87    0.48
  14   2   5    0.67    0.40
 -14  -1  -5    0.16    0.42
   1 -14  -5    0.79    0.49
   1 -14  -5    0.58    0.43
  14   1  -5    0.69    0.40
   1 -14   5    0.60    0.48
  14   1   5    1.00    0.45
  14   1   5    0.46    0.35
  14   1   5    0.13    0.36
 -14   0  -5    0.82    0.47
   0 -14  -5    1.04    0.51
  14   0  -5    0.85    0.42
   0 -14  -5    1.26    0.46
  14   0   5    0.18    0.39
  14   0   5    1.22    0.47
   0 -14   5    0.92    0.49
  14   0   5    0.99    0.37
  -1 -14  -5    4.11    0.67
 -14   1  -5    3.23    0.59
  -1 -14  -5    4.76    0.59
  14  -1  -5    3.75    0.57
  14  -1   5    3.68    0.49
  14  -1   5    5.11    0.57
  -1 -14   5    4.33    0.64
  14  -1   5    3.82    0.61
  -2 -14  -5    3.84    0.66
 -14   2  -5    5.89    0.74
  -2 -14  -5    4.38    0.60
  14  -2  -5    4.38    0.62
  14  -2   5    4.02    0.51
  -2 -14   5    3.35    0.61
  14  -2   5    5.25    0.68
  14  -2   5    3.75    0.52
  -3 -14  -5    5.23    0.73
  14  -3  -5    5.94    0.68
  -3 -14  -5    5.75    0.67
 -14   3  -5    7.25    0.77
  14  -3   5    6.53    0.64
  14  -3   5    5.87    0.73
  14  -3   5    6.05    0.62
  -3 -14   5    6.77    0.73
  14  -4  -5    1.00    0.49
  -4 -14  -5    0.18    0.45
  -4 -14  -5    0.14    0.48
 -14   4  -5    0.37    0.43
  14  -4   5    0.13    0.46
  14  -4   5   -0.07    0.35
  14  -4   5    0.55    0.38
  -4 -14   5    0.35    0.46
 -14   5  -5   38.07    1.77
  -5 -14  -5   42.22    1.74
  -5 -14  -5   38.31    1.79
  14  -5  -5   39.01    1.78
  14  -5   5   36.53    1.76
  14  -5   5   40.18    1.65
  -5 -14   5   40.96    1.73
  -6 -14  -5    1.86    0.55
 -14   6  -5    1.01    0.49
  14  -6  -5    1.89    0.58
  -6 -14  -5    1.80    0.59
  14  -6   5    1.72    0.45
  14  -6   5    1.53    0.53
  -6 -14   5    1.66    0.56
 -14   7  -5   13.34    1.09
  -7 -14  -5   15.05    1.05
  -7 -14  -5   12.68    1.06
  14  -7  -5   14.55    1.17
  14  -7   5   14.74    1.09
  -7 -14   5   13.76    1.04
  -8 -14  -5    1.66    0.58
  14  -8  -5    0.19    0.55
 -14   8  -5    1.07    0.51
  -8 -14  -5    1.52    0.60
  -8 -14   5    1.70    0.58
  14  -8   5    1.10    0.55
  -9 -14  -5    6.60    0.88
  14  -9  -5    8.19    0.95
  -9 -14  -5    9.24    0.92
 -14   9  -5    8.44    0.90
  -9 -14   5    8.62    1.29
  14  -9   5    8.26    0.91
  14 -10  -5    0.05    0.60
 -10 -14  -5    0.74    0.58
 -10 -14  -5   -0.01    0.58
 -14  10  -5    0.30    0.48
  14 -10   5   -0.10    0.55
 -11 -14  -5   10.58    1.02
  14 -11  -5   10.12    1.06
 -11 -14  -5    9.82    1.02
 -14  11  -5   10.50    1.01
  14 -11   5    8.47    0.96
 -12 -14  -5    0.02    0.65
 -14  12  -5    0.84    0.51
  14 -12  -5    1.16    0.72
 -12 -14  -5    0.15    0.63
  14 -12   5    0.32    0.63
  12  14   5    0.98    0.61
 -14  13  -5    1.66    0.61
  14 -13  -5    1.34    0.77
 -13 -14  -5   -0.23    0.68
 -13 -14  -5    1.40    0.72
  14 -13   5    0.92    0.68
  13  14   5    1.03    0.63
 -14 -14  -5   -0.25    0.70
  14 -14  -5   -0.81    0.76
 -14 -14  -5   -0.18    0.66
 -14  14  -5    0.10    0.49
  14  14   5    0.21    0.61
  14 -14   5    0.82    0.70
 -15 -14  -5   -0.50    0.69
 -14  15  -5    0.72    0.52
 -15 -14  -5   -0.38    0.71
  14 -15  -5   -0.33    0.77
  14 -15   5    0.62    0.72
  15  14   5    0.38    0.66
 -15 -13  -5   12.43    1.23
 -13  15  -5   12.48    1.09
 -15 -13  -5   11.76    1.18
  13 -15  -5   10.65    1.27
  15  13   5   13.74    1.20
  13 -15   5    9.78    1.11
 -12  15  -5   -0.02    0.77
 -15 -12  -5   -0.06    0.65
 -15 -12  -5    1.17    0.74
  12 -15  -5    0.59    0.80
  15  12   5    0.53    0.59
  12 -15   5    1.20    0.72
  11 -15  -5    7.49    1.04
 -15 -11  -5    5.99    0.92
 -15 -11  -5    4.91    0.92
  15  11   5    4.95    0.80
  11 -15   5    4.19    0.83
 -15 -10  -5    0.42    0.64
 -15 -10  -5    1.04    0.67
  10 -15  -5    1.54    0.75
  10 -15   5    0.55    0.62
  15  10   5   -0.09    0.54
   9 -15  -5    0.28    0.64
 -15  -9  -5    0.45    0.64
  15   9  -5    0.75    0.68
   9 -15  -5    0.69    0.55
 -15  -9  -5   -0.22    0.59
   9 -15   5    1.16    0.65
  15   9   5    0.34    0.50
  15   9   5   -0.21    0.52
  15   9   5    0.67    0.56
 -15  -8  -5    1.66    0.63
   8 -15  -5    0.86    0.68
   8 -15  -5    0.85    0.54
 -15  -8  -5    0.74    0.61
  15   8  -5    0.93    0.41
  15   8   5    0.54    0.49
   8 -15   5    1.65    0.66
  15   8   5    1.53    0.56
  15   8   5    0.90    0.60
 -15  -7  -5    2.43    0.66
 -15  -7  -5    3.32    0.75
   7 -15  -5    2.16    0.71
   7 -15  -5    2.83    0.64
  15   7  -5    2.49    0.49
  15   7   5    1.83    0.57
   7 -15   5    1.98    0.64
  15   7   5    2.16    0.58
  15   7   5    1.92    0.61
 -15  -6  -5    0.70    0.58
   6 -15  -5    0.37    0.60
   6 -15  -5    0.27    0.50
  15   6  -5    0.35    0.39
 -15  -6  -5    0.73    0.55
  15   6   5    0.55    0.49
  15   6   5    0.59    0.50
   6 -15   5    0.63    0.57
  15   6   5    0.48    0.46
 -15  -5  -5    3.77    0.69
  15   5  -5    3.28    0.54
 -15  -5  -5    3.93    0.72
   5 -15  -5    1.84    0.70
   5 -15  -5    3.31    0.63
  15   5   5    3.76    0.62
  15   5   5    3.64    0.61
  15   5   5    3.81    0.65
   5 -15   5    2.97    0.65
  15   4  -5    0.11    0.39
 -15  -4  -5    1.04    0.57
 -15  -4  -5    1.04    0.53
   4 -15  -5    0.41    0.47
   4 -15  -5    0.20    0.59
  15   4   5    0.52    0.44
  15   4   5   -0.01    0.42
  15   4   5    0.36    0.46
   4 -15   5    0.27    0.51
   3 -15  -5   30.94    1.57
  15   3  -5   33.06    1.51
 -15  -3  -5   33.10    1.58
 -15  -3  -5   34.51    1.69
   3 -15  -5   33.11    1.71
  15   3   5   32.18    1.51
  15   3   5   34.90    1.55
  15   3   5   31.54    1.55
   3 -15   5   30.28    1.58
   2 -15  -5    2.33    0.61
   2 -15  -5    1.59    0.62
  15   2  -5    1.73    0.47
 -15  -2  -5    1.82    0.58
   2 -15  -5    3.10    0.76
   2 -15   5    2.06    0.58
  15   2   5    2.17    0.49
  15   2   5    1.33    0.44
  15   2   5    0.96    0.49
   1 -15  -5   23.88    1.21
  15   1  -5   22.06    1.24
 -15  -1  -5   21.75    1.32
   1 -15  -5   23.15    1.27
   1 -15   5   25.08    1.30
  15   1   5   21.78    1.20
  15   1   5   21.46    1.15
  15   1   5   21.68    1.28
   0 -15  -5    2.00    0.57
   0 -15  -5    1.78    0.54
  15   0  -5    1.57    0.49
 -15   0  -5    2.71    0.62
  15   0   5    2.67    0.47
  15   0   5    1.25    0.51
  15   0   5    2.15    0.48
   0 -15   5    1.69    0.58
 -15   1  -5   40.93    1.84
  -1 -15  -5   38.87    1.67
  -1 -15  -5   37.40    1.76
  15  -1  -5   37.96    1.72
  15  -1   5   38.50    1.59
  15  -1   5   39.27    1.64
  -1 -15   5   38.97    1.73
  15  -1   5   35.69    1.72
  15  -2  -5    0.17    0.44
 -15   2  -5    0.19    0.42
  -2 -15  -5    0.72    0.54
  -2 -15  -5    0.29    0.48
  -2 -15   5    0.83    0.53
  15  -2   5    0.41    0.36
  15  -2   5    0.88    0.41
  15  -2   5    0.19    0.46
 -15   3  -5    6.12    0.75
  15  -3  -5    8.13    0.85
  -3 -15  -5    8.91    0.82
  -3 -15  -5    6.43    0.80
  15  -3   5    8.78    0.74
  15  -3   5    8.91    0.87
  -3 -15   5    9.92    0.87
  -4 -15  -5    0.07    0.47
 -15   4  -5    0.31    0.45
  15  -4  -5    0.12    0.48
  -4 -15  -5    0.12    0.50
  15  -4   5   -0.32    0.37
  15  -4   5    0.03    0.48
  -4 -15   5    0.20    0.50
  -5 -15  -5   -0.07    0.52
  15  -5  -5    0.09    0.47
  -5 -15  -5   -0.61    0.46
 -15   5  -5    0.77    0.48
  15  -5   5   -0.34    0.46
  -5 -15   5    0.05    0.48
 -15   6  -5    5.48    0.76
  -6 -15  -5    5.75    0.77
  -6 -15  -5    3.80    0.69
  15  -6  -5    5.66    0.82
  -6 -15   5    5.99    0.77
  15  -6   5    6.33    0.82
 -15   7  -5    0.63    0.50
  -7 -15  -5    0.32    0.58
  15  -7  -5   -0.68    0.55
  -7 -15  -5    0.42    0.55
  15  -7   5    0.68    0.52
  -7 -15   5    0.17    0.53
  -8 -15  -5    0.09    0.57
  -8 -15  -5    1.22    0.61
 -15   8  -5    0.19    0.51
  15  -8  -5   -0.06    0.53
  -8 -15   5    0.37    0.56
  15  -8   5    0.05    0.55
  -9 -15  -5    6.09    0.86
 -15   9  -5    7.13    0.84
  15  -9  -5    7.91    0.97
  -9 -15  -5    6.08    0.82
  15  -9   5    5.39    0.81
  -9 -15   5    6.30    1.05
 -15  10  -5    1.16    0.57
 -10 -15  -5    0.87    0.63
 -10 -15  -5    1.24    0.67
  15 -10  -5    1.58    0.71
  15 -10   5    0.78    0.65
 -11 -15  -5   14.98    1.19
  15 -11  -5   13.98    1.28
 -11 -15  -5    9.21    1.06
 -15  11  -5   12.50    1.14
  15 -11   5   11.17    1.13
 -12 -15  -5    1.43    0.70
  15 -12  -5    0.62    0.75
 -15  12  -5    1.90    0.62
 -12 -15  -5    2.57    0.77
  15 -12   5    1.05    0.68
  12  15   5    1.28    0.64
 -13 -15  -5   10.18    1.13
  15 -13  -5   14.16    1.33
 -15  13  -5   12.44    1.14
 -13 -15  -5   10.41    1.10
  15 -13   5   12.55    1.20
  13  15   5   11.04    1.09
 -14 -15  -5    3.54    0.86
 -15  14  -5    1.81    0.65
  15 -14  -5    3.02    0.89
 -14 -15  -5    1.59    0.78
  14  15   5    1.83    0.74
  15 -14   5    2.67    0.80
 -16 -13  -5    0.40    0.81
  13 -16  -5    0.85    0.84
 -16 -13  -5    0.73    0.76
  16  13   5    0.15    0.68
  13 -16   5    0.32    0.75
  12 -16  -5    1.65    0.83
 -16 -12  -5    1.35    0.74
 -16 -12  -5    1.90    0.83
  12 -16   5    0.90    0.74
  16  12   5    1.15    0.67
  11 -16  -5    5.07    0.97
 -16 -11  -5    7.31    1.00
 -16 -11  -5    6.70    1.03
  16  11   5    5.57    0.86
  11 -16   5    6.55    1.00
  10 -16  -5    5.33    0.94
 -16 -10  -5    1.95    0.77
 -16 -10  -5    4.06    0.83
  16  10   5    4.57    0.80
  10 -16   5    3.62    0.85
   9 -16  -5   11.00    1.14
 -16  -9  -5   14.15    1.21
 -16  -9  -5   13.09    1.22
   9 -16  -5   11.30    1.02
  16   9  -5   13.02    1.33
   9 -16   5   10.46    1.10
  16   9   5   10.49    1.02
  16   9   5   13.62    1.11
  16   8  -5    1.73    0.49
   8 -16  -5    1.94    0.63
   8 -16  -5    1.39    0.76
 -16  -8  -5    1.83    0.71
 -16  -8  -5    2.29    0.71
   8 -16   5    1.10    0.67
  16   8   5    1.90    0.62
  16   8   5    1.62    0.65
  16   8   5    2.03    0.62
   7 -16  -5    6.42    0.81
 -16  -7  -5    8.25    0.93
 -16  -7  -5    5.80    0.88
  16   7  -5    6.08    0.70
   7 -16  -5    7.85    0.99
  16   7   5    7.28    0.85
   7 -16   5    6.09    0.85
  16   7   5    8.51    0.92
  16   7   5    5.88    0.77
 -16  -6  -5    0.03    0.57
   6 -16  -5   -0.13    0.64
 -16  -6  -5    1.27    0.68
  16   6  -5    0.32    0.42
   6 -16  -5    1.04    0.57
  16   6   5   -0.12    0.50
  16   6   5    0.77    0.51
   6 -16   5    1.09    0.63
  16   6   5    0.01    0.48
   5 -16  -5    3.29    0.69
 -16  -5  -5    3.94    0.74
  16   5  -5    3.50    0.58
 -16  -5  -5    3.44    0.76
   5 -16  -5    3.47    0.78
  16   5   5    2.85    0.61
  16   5   5    3.07    0.66
  16   5   5    3.80    0.66
   5 -16   5    3.29    0.72
  16   4  -5    1.23    0.48
   4 -16  -5   -0.09    0.52
 -16  -4  -5    0.23    0.57
   4 -16  -5    1.00    0.68
 -16  -4  -5    1.93    0.61
   4 -16   5    0.69    0.57
  16   4   5    1.73    0.55
  16   4   5    1.79    0.53
  16   4   5    0.54    0.50
   3 -16  -5    0.77    0.67
  16   3  -5    1.13    0.46
 -16  -3  -5    1.08    0.60
 -16  -3  -5    0.92    0.56
   3 -16  -5    0.95    0.54
  16   3   5    1.12    0.48
  16   3   5    0.98    0.47
   3 -16   5    0.92    0.57
  16   3   5    1.13    0.54
   2 -16  -5   -0.10    0.50
  16   2  -5    0.58    0.45
 -16  -2  -5   -0.34    0.48
  16   2   5    0.55    0.46
  16   2   5    0.68    0.42
   2 -16   5    1.56    0.59
  16   2   5    0.02    0.47
   1 -16  -5    1.78    0.58
   1 -16  -5    3.70    0.62
  16   1  -5    3.93    0.62
 -16  -1  -5    3.26    0.69
  16   1   5    2.92    0.59
   1 -16   5    3.86    0.70
  16   1   5    3.33    0.66
   0 -16  -5    0.12    0.51
 -16   0  -5    0.48    0.47
  16   0  -5    0.20    0.46
   0 -16  -5   -0.41    0.46
  16   0   5   -0.58    0.38
   0 -16   5    0.17    0.52
  16   0   5    0.17    0.46
  -1 -16  -5    1.43    0.52
  -1 -16  -5    0.71    0.54
  16  -1  -5    1.93    0.53
 -16   1  -5    0.83    0.52
  16  -1   5    2.09    0.58
  16  -1   5    1.91    0.50
  -1 -16   5    1.57    0.61
  -2 -16  -5   -0.13    0.50
  16  -2  -5    0.24    0.51
 -16   2  -5    1.03    0.52
  -2 -16  -5   -0.35    0.48
  -2 -16   5    0.03    0.54
  16  -2   5    0.33    0.49
  16  -2   5   -0.11    0.40
 -16   3  -5    0.59    0.48
  -3 -16  -5    0.31    0.51
  -3 -16  -5    0.05    0.52
  16  -3  -5    0.22    0.49
  -3 -16   5   -0.42    0.52
  16  -3   5    0.66    0.52
  16  -3   5    0.46    0.41
  -4 -16  -5    0.80    0.58
  16  -4  -5    0.59    0.54
 -16   4  -5    1.04    0.54
  -4 -16  -5    1.57    0.58
  16  -4   5    0.93    0.54
  16  -4   5    0.98    0.47
  -4 -16   5    0.92    0.58
 -16   5  -5    3.34    0.64
  16  -5  -5    4.95    0.78
  -5 -16  -5    4.75    0.77
  -5 -16  -5    4.44    0.70
  -5 -16   5    5.06    0.75
  16  -5   5    3.07    0.68
 -16   6  -5    0.01    0.49
  -6 -16  -5    1.40    0.61
  16  -6  -5    0.37    0.54
  -6 -16  -5    1.07    0.61
  -6 -16   5    0.89    0.59
  16  -6   5    0.39    0.56
 -16   7  -5    9.37    0.97
  -7 -16  -5    9.51    1.00
  -7 -16  -5    9.75    0.97
  16  -7  -5    9.07    1.02
  16  -7   5    9.66    1.00
  -7 -16   5    8.18    0.91
 -16   8  -5    1.00    0.60
  -8 -16  -5    0.65    0.63
  -8 -16  -5    1.55    0.66
  16  -8  -5    1.49    0.73
  16  -8   5    1.62    0.63
  -8 -16   5    1.11    0.64
  -9 -16  -5    7.76    0.94
 -16   9  -5    5.41    0.84
  -9 -16  -5    4.75    0.81
  16  -9  -5    6.42    0.96
  -9 -16   5    5.99    1.01
  16  -9   5    4.55    0.79
 -10 -16  -5    0.69    0.67
  16 -10  -5    0.02    0.70
 -16  10  -5    0.12    0.53
 -10 -16  -5   -0.47    0.63
  16 -10   5   -0.61    0.56
 -16  11  -5    2.03    0.68
 -11 -16  -5    2.91    0.77
 -11 -16  -5    2.55    0.76
  16 -11  -5    3.55    0.87
  16 -11   5    3.27    0.79
 -12 -16  -5   -0.49    0.72
 -12 -16  -5    0.68    0.70
 -16  12  -5   -1.08    0.48
  16 -12  -5    1.31    0.81
  16 -12   5    0.68    0.68
  12  16   5   -0.16    0.59
  16 -13  -5    0.88    0.83
 -16  13  -5   -0.22    0.58
 -13 -16  -5    0.21    0.76
 -13 -16  -5    0.19    0.70
  16 -13   5    0.22    0.71
  13  16   5   -0.03    0.63
 -17 -12  -5    2.47    0.87
 -17 -11  -5    2.16    0.80
  11 -17  -5    2.10    0.86
 -17 -11  -5    3.75    0.89
  17  11   5    2.08    0.75
  11 -17   5    1.14    0.78
 -17 -10  -5    1.77    0.80
  10 -17  -5    3.82    0.95
 -17 -10  -5    1.94    0.83
  10 -17   5    1.77    0.78
  17  10   5    2.54    0.73
   9 -17  -5   -0.69    0.69
  17   9  -5    0.07    0.54
 -17  -9  -5    0.45    0.68
 -17  -9  -5    0.66    0.72
   9 -17   5   -0.51    0.65
  17   9   5    0.52    0.56
  17   9   5    0.40    0.52
 -17  -8  -5   -0.66    0.63
   8 -17  -5   -0.14    0.69
   8 -17  -5   -0.10    0.57
 -17  -8  -5    0.84    0.68
  17   8  -5   -0.09    0.42
  17   8   5    0.12    0.55
   8 -17   5    0.82    0.67
  17   8   5   -0.52    0.47
  17   7  -5    3.35    0.59
   7 -17  -5    3.73    0.88
   7 -17  -5    4.11    0.75
 -17  -7  -5    3.37    0.79
 -17  -7  -5    2.44    0.79
   7 -17   5    2.10    0.73
  17   7   5    2.67    0.65
  17   7   5    1.56    0.58
  17   7   5    2.70    0.70
  17   6  -5    3.05    0.59
   6 -17  -5    3.63    0.87
 -17  -6  -5    2.69    0.76
 -17  -6  -5    2.37    0.73
   6 -17  -5    1.73    0.62
  17   6   5    2.36    0.66
  17   6   5    2.84    0.65
   6 -17   5    2.44    0.72
  17   6   5    3.05    0.69
 -17  -5  -5    6.90    0.90
   5 -17  -5    5.34    0.80
 -17  -5  -5    5.32    0.89
   5 -17  -5    7.53    1.00
  17   5  -5    6.40    0.75
   5 -17   5    5.99    0.88
  17   5   5    6.98    0.86
  17   5   5    6.90    0.83
   4 -17  -5    3.51    0.84
  17   4  -5    1.74    0.57
   4 -17  -5    2.46    0.66
 -17  -4  -5    1.14    0.68
 -17  -4  -5    2.89    0.70
   4 -17   5    3.07    0.72
  17   4   5    2.38    0.61
  17   4   5    3.09    0.62
  17   3  -5   20.38    1.24
 -17  -3  -5   20.82    1.36
   3 -17  -5   19.93    1.45
 -17  -3  -5   16.97    1.35
   3 -17  -5   19.83    1.27
  17   3   5   20.53    1.22
   3 -17   5   19.96    1.34
  17   3   5   19.54    1.26
 -17  -2  -5    3.48    0.77
   2 -17  -5    4.62    0.77
  17   2  -5    4.61    0.71
  17   2   5    6.19    0.77
   2 -17   5    5.59    0.82
  17   2   5    7.03    0.86
   1 -17  -5   25.86    1.65
  17   1  -5   24.75    1.38
 -17  -1  -5   25.15    1.50
   1 -17  -5   23.71    1.41
   1 -17   5   25.03    1.49
  17   1   5   25.00    1.41
  17   1   5   25.95    1.39
   0 -17  -5    0.75    0.61
 -17   0  -5    1.19    0.59
   0 -17  -5    0.73    0.57
  17   0  -5    0.91    0.54
  17   0   5    0.97    0.50
  17   0   5   -0.10    0.52
   0 -17   5    1.06    0.64
  -1 -17  -5   23.83    1.32
  -1 -17  -5   23.66    1.42
 -17   1  -5   22.85    1.42
  17  -1  -5   23.54    1.39
  17  -1   5   22.56    1.28
  -1 -17   5   22.97    1.44
  17  -1   5   21.10    1.36
  17  -2  -5    0.83    0.55
 -17   2  -5    1.09    0.57
  -2 -17  -5    1.61    0.60
  -2 -17  -5    1.17    0.57
  17  -2   5    0.17    0.51
  -2 -17   5    0.40    0.64
  17  -2   5    0.58    0.47
  -3 -17  -5   12.72    1.02
  -3 -17  -5   13.42    1.09
  17  -3  -5   12.99    1.14
 -17   3  -5    8.57    0.98
  17  -3   5   12.19    0.96
  -3 -17   5   14.72    1.17
  17  -3   5   11.87    1.07
 -17   4  -5   15.29    1.29
  -4 -17  -5   11.91    1.07
  17  -4  -5   17.17    1.26
  -4 -17  -5   12.67    1.06
  -4 -17   5   13.07    1.10
  17  -4   5   12.82    1.12
  17  -4   5   13.72    1.22
  -5 -17  -5    0.18    0.60
 -17   5  -5   -0.09    0.51
  -5 -17  -5    0.01    0.60
  17  -5  -5    0.20    0.59
  -5 -17   5    0.31    0.59
  17  -5   5    0.26    0.55
 -17   6  -5    0.34    0.53
  -6 -17  -5    0.13    0.57
  17  -6  -5   -0.28    0.58
  -6 -17  -5   -0.89    0.55
  -6 -17   5   -0.01    0.59
  17  -6   5    0.68    0.58
  -7 -17  -5   -0.20    0.60
  17  -7  -5   -0.64    0.62
  -7 -17  -5   -0.89    0.61
 -17   7  -5   -0.11    0.54
  -7 -17   5   -0.47    0.60
  17  -7   5    0.17    0.56
  -8 -17  -5    0.22    0.64
  17  -8  -5    0.19    0.67
 -17   8  -5    0.48    0.55
  -8 -17  -5    0.41    0.67
  -8 -17   5    1.88    0.70
  17  -8   5    0.92    0.65
  -9 -17  -5    1.74    0.73
 -17   9  -5    1.69    0.68
  -9 -17  -5    3.11    0.79
  17  -9  -5    0.35    0.70
  17  -9   5    1.14    0.67
  -9 -17   5    1.57    0.84
  17 -10  -5    1.24    0.76
 -10 -17  -5    0.20    0.71
 -10 -17  -5    0.30    0.66
 -17  10  -5   -0.08    0.58
  17 -10   5    0.92    0.64
 -17  11  -5    9.25    1.07
  17 -11  -5    6.52    0.99
 -11 -17  -5    9.14    1.06
 -11 -17  -5    9.63    1.08
  17 -11   5    7.50    1.00
 -12 -17  -5    0.67    0.75
 -18 -10  -5    2.10    0.81
  10 -18  -5    0.62    0.85
 -18 -10  -5    2.06    0.86
  18  10   5    2.44    0.76
  10 -18   5    2.53    0.86
  18   9  -5    4.90    0.89
 -18  -9  -5    4.37    0.90
 -18  -9  -5    4.96    0.96
   9 -18  -5    3.72    0.91
  18   9   5    4.58    0.83
   9 -18   5    3.54    0.89
  18   9   5    3.26    0.70
   8 -18  -5    3.31    0.74
  18   8  -5    1.14    0.54
 -18  -8  -5    2.66    0.84
 -18  -8  -5    4.29    0.90
   8 -18  -5    1.73    0.84
  18   8   5    1.72    0.63
  18   8   5    1.33    0.65
   8 -18   5    1.69    0.77
  18   7  -5    1.00    0.51
   7 -18  -5    0.93    0.77
 -18  -7  -5   -0.02    0.67
 -18  -7  -5    0.92    0.71
   7 -18  -5    1.08    0.66
   7 -18   5    0.33    0.69
  18   7   5    0.46    0.54
  18   7   5    0.37    0.54
  18   6  -5    3.01    0.61
   6 -18  -5    3.94    0.96
 -18  -6  -5    3.04    0.81
 -18  -6  -5    2.93    0.82
   6 -18  -5    3.03    0.71
  18   6   5    2.87    0.70
  18   6   5    3.51    0.72
   6 -18   5    2.62    0.77
   5 -18  -5    2.44    0.69
  18   5  -5    3.40    0.66
   5 -18  -5    3.19    0.85
 -18  -5  -5    2.29    0.76
 -18  -5  -5    2.23    0.77
   5 -18   5    3.84    0.80
  18   5   5    3.40    0.68
  18   5   5    3.52    0.69
   4 -18  -5    3.89    0.89
 -18  -4  -5    3.98    0.81
   4 -18  -5    2.34    0.68
 -18  -4  -5    1.43    0.68
  18   4  -5    2.37    0.61
   4 -18   5    3.10    0.77
  18   4   5    1.51    0.61
  18   4   5    3.02    0.66
   3 -18  -5    0.23    0.55
 -18  -3  -5    0.00    0.62
  18   3  -5   -0.42    0.41
 -18  -3  -5   -0.05    0.61
  18   3   5   -0.16    0.51
  18   3   5   -0.57    0.48
   3 -18   5    0.54    0.67
   2 -18  -5    0.48    0.57
 -18  -2  -5    1.08    0.63
  18   2  -5    1.85    0.56
  18   2   5    0.68    0.53
  18   2   5   -0.29    0.49
   2 -18   5    1.61    0.69
  18   1  -5    0.17    0.46
 -18  -1  -5   -0.32    0.55
   1 -18  -5   -0.37    0.52
  18   1   5   -0.66    0.51
  18   1   5    0.37    0.51
   1 -18   5    0.58    0.65
   0 -18  -5    1.84    0.63
   0 -18  -5    0.66    0.57
  18   0  -5    1.09    0.56
 -18   0  -5    1.15    0.63
   0 -18   5    0.59    0.65
  18   0   5    0.05    0.56
  18   0   5    1.25    0.54
  -1 -18  -5   -0.52    0.51
 -18   1  -5    0.21    0.55
  18  -1  -5    0.64    0.55
  -1 -18  -5   -0.40    0.52
  18  -1   5   -0.23    0.48
  -1 -18   5   -0.09    0.62
  18  -1   5    0.52    0.59
 -18   2  -5    3.99    0.73
  -2 -18  -5    3.63    0.75
  -2 -18  -5    4.85    0.78
  18  -2  -5    5.36    0.83
  18  -2   5    4.22    0.69
  18  -2   5    3.08    0.71
  -2 -18   5    3.84    0.77
  -3 -18  -5    7.02    0.89
 -18   3  -5    6.95    0.92
  -3 -18  -5    5.79    0.82
  18  -3  -5    6.91    0.88
  18  -3   5    6.41    0.87
  18  -3   5    5.56    0.74
  -3 -18   5    6.46    0.92
  18  -4  -5    5.96    0.84
  -4 -18  -5    7.76    0.89
 -18   4  -5    4.91    0.81
  -4 -18  -5    5.29    0.83
  -4 -18   5    4.85    0.84
  18  -4   5    4.61    0.78
  18  -5  -5    3.35    0.82
 -18   5  -5    4.38    0.77
  -5 -18  -5    3.05    0.77
  -5 -18  -5    3.15    0.75
  -5 -18   5    3.41    0.79
  18  -5   5    2.23    0.69
  18  -6  -5    1.61    0.71
  -6 -18  -5    1.16    0.67
 -18   6  -5    0.72    0.62
  -6 -18  -5    0.33    0.64
  -6 -18   5   -0.15    0.66
  18  -6   5    1.81    0.65
 -18   7  -5    7.15    0.94
  -7 -18  -5    7.10    0.94
  -7 -18  -5    5.27    0.86
  18  -7  -5    4.83    0.92
  18  -7   5    5.26    0.85
  -7 -18   5    5.71    0.90
  -8 -18  -5    1.34    0.72
 -18   8  -5    3.17    0.76
  -8 -18  -5    2.19    0.78
  18  -8  -5    2.83    0.87
  18  -8   5    1.39    0.70
  -8 -18   5    1.83    0.77
  -9 -18  -5    3.51    0.86
  18  -9  -5    2.66    0.84
  -9 -18  -5    1.89    0.76
 -18   9  -5    2.89    0.78
  18  -9   5    1.40    0.69
  -9 -18   5    2.33    0.81
 -10 -18  -5    2.46    0.83
  18 -10  -5    1.37    0.82
 -10 -18  -5    1.54    0.76
 -18  10  -5    0.80    0.68
  18 -10   5    1.64    0.70
   8 -19  -5    1.91    0.91
 -19  -8  -5    3.01    0.88
  19   8  -5    2.11    0.60
 -19  -8  -5    1.89    0.84
  19   8   5    2.90    0.78
   8 -19   5    3.00    0.87
  19   8   5    2.46    0.68
 -19  -7  -5   -0.74    0.66
   7 -19  -5    0.32    0.64
  19   7  -5    0.31    0.51
   7 -19  -5   -0.68    0.77
 -19  -7  -5    0.30    0.74
   7 -19   5    0.30    0.72
  19   7   5   -0.23    0.60
  19   7   5    0.07    0.53
 -19  -6  -5    1.75    0.78
   6 -19  -5    1.56    0.69
   6 -19  -5    1.20    0.86
 -19  -6  -5    1.31    0.75
  19   6  -5    1.65    0.58
   6 -19   5    1.69    0.75
  19   6   5    1.53    0.64
  19   6   5    1.37    0.63
 -19  -5  -5    1.17    0.77
 -19  -5  -5    0.66    0.72
   5 -19  -5    1.22    0.65
   5 -19  -5    0.33    0.82
  19   5  -5    1.36    0.59
  19   5   5    0.27    0.58
  19   5   5    1.21    0.64
   5 -19   5    0.67    0.71
   4 -19  -5    7.80    0.93
  19   4  -5    8.33    0.94
   4 -19  -5    6.92    1.05
 -19  -4  -5    9.58    1.08
 -19  -4  -5   10.94    1.19
   4 -19   5    7.72    1.00
  19   4   5    8.06    0.95
  19   4   5    7.82    0.94
   3 -19  -5    4.97    0.81
 -19  -3  -5    5.40    0.94
 -19  -3  -5    7.14    0.99
  19   3  -5    5.03    0.79
  19   3   5    5.52    0.82
  19   3   5    5.03    0.82
   3 -19   5    5.09    0.93
  19   2  -5    3.91    0.76
   2 -19  -5    6.09    0.86
 -19  -2  -5    5.89    0.92
  19   2   5    4.45    0.78
  19   2   5    5.46    0.81
   2 -19   5    5.56    0.90
  19   1  -5    3.38    0.74
 -19  -1  -5    4.87    0.87
   1 -19  -5    4.49    0.82
  19   1   5    3.61    0.73
   1 -19   5    4.32    0.86
  19   1   5    4.01    0.75
 -19   0  -5    1.68    0.68
   0 -19  -5    1.26    0.64
  19   0  -5    0.17    0.59
  19   0   5    1.65    0.64
  19   0   5    1.37    0.60
   0 -19   5    0.97    0.73
 -19   1  -5    2.87    0.75
  19  -1  -5    3.26    0.75
  -1 -19  -5    3.44    0.74
  -1 -19  -5    5.58    0.85
  19  -1   5    2.62    0.68
  19  -1   5    4.11    0.79
  -1 -19   5    2.71    0.82
  -2 -19  -5    3.07    0.74
  -2 -19  -5    2.46    0.72
  19  -2  -5    3.52    0.80
 -19   2  -5    4.02    0.83
  -2 -19   5    3.39    0.85
  19  -2   5    2.68    0.70
  19  -2   5    3.19    0.69
 -19   3  -5    2.07    0.68
  -3 -19  -5    3.25    0.76
  19  -3  -5    2.77    0.77
  -3 -19  -5    3.29    0.77
  19  -3   5    2.63    0.71
  -3 -19   5    2.24    0.81
  19  -3   5    2.73    0.66
  19  -4  -5    1.34    0.67
  -4 -19  -5    1.61    0.69
  -4 -19  -5    1.73    0.70
 -19   4  -5    0.85    0.62
  -4 -19   5    0.85    0.76
  19  -4   5    0.57    0.59
  19  -5  -5   -0.67    0.63
  -5 -19  -5    1.24    0.67
 -19   5  -5   -0.14    0.58
  -5 -19  -5    0.29    0.68
  19  -5   5    0.09    0.60
  -5 -19   5    0.29    0.70
  -6 -19  -5   -0.06    0.64
  -6 -19  -5   -0.54    0.69
  19  -6  -5   -0.41    0.62
 -19   6  -5    0.57    0.60
  19  -6   5   -0.54    0.54
  -6 -19   5   -0.36    0.67
  19  -7  -5    0.10    0.73
  -7 -19  -5   -0.21    0.67
  -7 -19  -5   -0.64    0.66
 -19   7  -5   -0.79    0.55
  -7 -19   5   -0.16    0.72
  19  -7   5    0.09    0.63
  -8 -19  -5    0.07    0.73
  19  -8  -5    1.83    0.81
  -8 -19  -5    0.39    0.65
 -19   8  -5   -0.50    0.59
  19  -8   5    0.14    0.65
  -8 -19   5    1.26    0.77
   6 -20  -5    5.08    0.85
  20   5  -5    1.74    0.66
   5 -20  -5    0.20    0.84
 -20  -5  -5    2.11    0.85
 -20  -5  -5    1.79    0.80
   5 -20  -5    2.27    0.76
  20   5   5    2.26    0.70
   5 -20   5    1.94    0.85
  20   5   5    1.68    0.69
   4 -20  -5    2.24    0.74
 -20  -4  -5    3.73    0.89
  20   4  -5    3.93    0.75
 -20  -4  -5    2.99    0.89
  20   4   5    2.96    0.71
  20   4   5    2.78    0.73
   4 -20   5    3.53    0.88
   3 -20  -5    0.79    0.67
  20   3  -5    0.87    0.59
 -20  -3  -5    0.59    0.74
 -20  -3  -5    1.29    0.78
   3 -20   5    1.74    0.82
  20   3   5    0.98    0.58
  20   3   5    0.68    0.61
   2 -20  -5    1.53    0.68
  20   2  -5    1.17    0.59
 -20  -2  -5    1.12    0.74
   2 -20   5    1.24    0.79
  20   2   5    1.41    0.61
  20   2   5    0.92    0.64
  20   1  -5   -0.23    0.54
 -20  -1  -5   -0.25    0.63
   1 -20  -5    0.20    0.62
  20   1   5   -0.05    0.59
  20   1   5   -0.12    0.54
   1 -20   5   -0.11    0.69
   0 -20  -5    0.99    0.68
  20   0  -5    1.35    0.66
 -20   0  -5    0.91    0.68
   0 -20   5    0.99    0.76
  20   0   5    1.00    0.65
  20   0   5    0.90    0.61
 -20   1  -5    1.65    0.75
  20  -1  -5    1.69    0.71
  -1 -20  -5    1.37    0.67
  -1 -20  -5    3.55    1.14
  -1 -20   5    0.99    0.77
  20  -1   5    1.16    0.61
  20  -1   5    0.74    0.61
  -2 -20  -5    6.42    0.89
 -20   2  -5    6.57    1.00
  -2 -20  -5    4.73    0.83
  20  -2  -5    6.24    0.98
  -2 -20   5    5.14    0.95
  20  -2   5    4.65    0.80
  20  -2   5    4.75    0.82
  20  -3  -5   -0.08    0.66
  -3 -20  -5   -0.54    0.65
 -20   3  -5    0.33    0.63
  -3 -20  -5    0.72    0.64
  -3 -20   5    0.40    0.76
  20  -3   5    0.37    0.67
  20  -3   5   -0.09    0.57
  -4 -20  -5    4.10    0.83
 -20   4  -5    5.24    0.94
  20  -4  -5    5.46    0.94
  -4 -20  -5    4.12    0.86
  20  -4   5    5.71    0.90
  -4 -20   5    4.84    0.95
  20  -5  -5    3.61    0.92
 -20   5  -5    2.51    0.76
  -5 -20  -5    4.62    0.88
  -5 -20  -5    2.67    0.79
  20  -5   5    3.27    0.79
  -5 -20   5    4.43    0.93
  -6 -20  -5    5.85    0.91
   0   0  -6   30.15    1.22
   0   0   6   30.13    1.28
   0   1  -6    3.59    0.39
   1   0  -6    3.14    0.39
   1   0  -6    4.05    0.36
   0  -1  -6    4.01    0.45
   0  -1  -6    3.54    0.35
  -1   0  -6    3.56    0.42
   0   1   6    4.09    0.44
  -1   0   6    3.12    0.42
   0   1   6    3.72    0.29
   1   0   6    3.90    0.30
   1   0   6    2.83    0.40
   0  -1   6    3.88    0.46
   1   1  -6   -0.15    0.17
  -1   1  -6   -0.09    0.22
  -1  -1  -6    0.30    0.27
   1  -1  -6    0.05    0.19
   1  -1  -6    0.10    0.22
   1   1  -6    0.46    0.24
   1   1   6    0.16    0.26
  -1   1   6    0.80    0.28
  -1  -1   6    0.23    0.26
   1   1   6    0.25    0.17
   1  -1   6    0.40    0.26
   1  -1   6    0.55    0.17
  -1   2  -6   36.57    1.45
   2   1  -6   39.26    1.43
  -2  -1  -6   37.19    1.52
   1  -2  -6   37.41    1.43
   2   1  -6   37.96    1.37
   1  -2  -6   39.38    1.50
   2   1   6   38.49    1.53
   1  -2   6   37.03    1.31
  -2  -1   6   38.53    1.53
   2   1   6   39.55    1.35
  -1   2   6   39.03    1.51
   0   2  -6    1.05    0.27
  -2   0  -6    1.00    0.31
   2   0  -6    1.02    0.24
   2   0  -6    1.34    0.27
   0  -2  -6    0.80    0.29
   0  -2  -6    0.76    0.25
   2   0   6    0.71    0.30
   0   2   6    1.29    0.19
   0   2   6    1.66    0.34
   2   0   6    1.31    0.23
  -2   0   6    0.64    0.29
   2  -1  -6   20.89    0.90
   1   2  -6   20.63    0.91
   1   2  -6   22.06    0.82
  -2   1  -6   21.25    0.97
  -1  -2  -6   19.86    0.98
   2  -1  -6   19.19    0.93
   2  -1   6   20.98    0.82
   1   2   6   18.61    0.98
  -2   1   6   21.96    0.99
   1   2   6   21.89    0.81
   2  -1   6   21.92    1.03
  -2  -2  -6    5.17    0.51
   2  -2  -6    5.54    0.47
  -2   2  -6    6.47    0.54
   2   2  -6    5.77    0.45
   2   2  -6    5.87    0.39
   2  -2  -6    6.02    0.52
   2   2   6    5.77    0.54
  -2   2   6    5.77    0.52
   2  -2   6    5.94    0.57
   2   2   6    5.19    0.38
   2  -2   6    6.00    0.39
   3   2  -6    7.69    0.49
   2  -3  -6    8.35    0.57
  -3  -2  -6    8.40    0.63
  -2   3  -6    7.52    0.55
   2  -3  -6    6.99    0.59
   3   2  -6    7.19    0.46
   3   2   6    8.02    0.63
   3   2   6    7.54    0.47
   2  -3   6    8.21    0.47
  -2   3   6    9.00    0.60
   1  -3  -6    2.68    0.40
   3   1  -6    3.65    0.35
  -1   3  -6    3.84    0.41
   3   1  -6    3.60    0.37
   1  -3  -6    2.15    0.35
  -3  -1  -6    4.75    0.51
  -1   3   6    2.88    0.40
   3   1   6    3.71    0.46
   3   1   6    4.20    0.36
   1  -3   6    4.24    0.33
  -1   3   6    3.50    0.39
  -3  -1   6    3.48    0.43
   3   0  -6    0.15    0.22
   0   3  -6   -0.20    0.19
  -3   0  -6   -0.18    0.24
   3   0  -6   -0.02    0.20
   0  -3  -6    0.13    0.23
   0  -3  -6    0.14    0.27
   3   0   6    0.17    0.19
   0   3   6    0.09    0.24
  -3   0   6    0.06    0.23
   0   3   6   -0.18    0.15
   3   0   6    0.12    0.26
   1   3  -6    1.55    0.28
  -3   1  -6    1.22    0.32
  -1  -3  -6    1.66    0.36
   3  -1  -6    0.96    0.27
   3  -1  -6    1.79    0.30
   1   3   6    1.85    0.25
   1   3   6    1.69    0.34
   3  -1   6    1.45    0.33
   3  -1   6    2.58    0.30
  -3   1   6    1.79    0.32
  -2  -3  -6    7.68    0.62
   3  -2  -6    6.95    0.53
   3  -2  -6    8.21    0.57
   2   3  -6    7.11    0.46
   2   3  -6    7.37    0.48
  -3   2  -6    7.53    0.57
   2   3   6    7.50    0.58
   2   3   6    7.45    0.46
  -3   2   6    6.96    0.55
   3  -2   6    7.62    0.47
   3  -2   6    9.07    0.68
  -3  -3  -6    8.82    0.68
   3  -3  -6    7.74    0.60
   3  -3  -6    7.97    0.61
   3   3  -6    8.65    0.51
  -3   3  -6    8.93    0.60
   3   3  -6    9.49    0.48
   3  -3   6    9.72    0.53
  -3   3   6    8.83    0.60
   3   3   6    9.21    0.53
   3   3   6   10.46    0.67
  -4  -3  -6   47.22    1.89
   4   3  -6   47.89    1.67
  -3   4  -6   47.48    1.77
   3  -4  -6   48.18    1.82
   4   3  -6   47.02    1.66
   3  -4  -6   49.70    1.82
   4   3   6   51.04    1.74
  -3   4   6   48.78    1.79
   4   3   6   49.25    1.85
   3  -4   6   46.33    1.70
   2  -4  -6    6.37    0.54
  -4  -2  -6    6.01    0.58
  -2   4  -6    6.07    0.49
   4   2  -6    7.13    0.44
   2  -4  -6    4.87    0.52
   4   2  -6    6.92    0.44
  -2   4   6    6.21    0.52
   4   2   6    6.48    0.47
   4   2   6    6.17    0.56
   2  -4   6    5.74    0.43
   4   1  -6   46.16    1.62
  -4  -1  -6   45.74    1.78
   1  -4  -6   43.98    1.74
   1  -4  -6   44.11    1.71
  -1   4  -6   44.30    1.65
   4   1  -6   46.84    1.63
   1  -4   6   43.56    1.56
  -1   4   6   45.97    1.72
  -4  -1   6   46.16    1.74
  -1   4   6   44.66    1.54
   4   1   6   46.98    1.63
   4   1   6   48.10    1.78
   0  -4  -6    0.94    0.33
  -4   0  -6    2.23    0.39
   0  -4  -6    1.04    0.31
   4   0  -6    2.15    0.31
   4   0  -6    2.29    0.31
   0   4  -6    1.33    0.27
   4   0   6    1.93    0.31
   4   0   6    2.46    0.40
  -4   0   6    2.03    0.36
   0   4   6    1.32    0.23
   0   4   6    1.19    0.30
   4  -1  -6  106.18    3.48
   1   4  -6  106.47    3.43
  -4   1  -6  102.38    3.55
   4  -1  -6  104.56    3.48
  -1  -4  -6  105.89    3.60
   4  -1   6  104.94    3.44
   1   4   6  105.80    3.55
  -4   1   6  105.11    3.52
   1   4   6  109.46    3.40
   4  -1   6  100.03    3.57
  -4   2  -6    0.81    0.30
   4  -2  -6    0.69    0.28
  -2  -4  -6    0.41    0.29
   4  -2  -6    1.03    0.29
   2   4  -6    0.42    0.20
   4  -2   6    0.73    0.19
   2   4   6    0.91    0.25
   4  -2   6    0.51    0.30
  -4   2   6    0.68    0.27
   4  -2   6    0.59    0.25
   2   4   6    0.50    0.27
   4  -3  -6   29.88    1.21
   3   4  -6   28.84    1.08
  -4   3  -6   28.91    1.23
  -3  -4  -6   30.68    1.32
   4  -3  -6   27.33    1.21
   3   4   6   30.95    1.27
  -4   3   6   27.13    1.19
   4  -3   6   27.77    1.14
   3   4   6   31.13    1.14
   4  -3   6   27.49    1.28
  -4  -4  -6   15.47    0.89
   4  -4  -6   13.48    0.78
   4   4  -6   13.52    0.66
   4  -4  -6   12.83    0.79
  -4   4  -6   13.82    0.76
   4   4   6   14.60    0.82
   4  -4   6   13.16    0.70
  -4   4   6   12.72    0.73
   4   4   6   14.96    0.72
   4  -5  -6    7.67    0.62
  -4   5  -6    7.61    0.56
   4  -5  -6    6.85    0.61
  -5  -4  -6    8.67    0.76
   5   4  -6    9.31    0.74
  -5  -4  -6    7.44    0.56
  -4   5   6    7.79    0.57
   5   4   6    8.67    0.57
   5   4   6    8.09    0.65
   4  -5   6    7.91    0.56
   5   3  -6    5.46    0.43
   3  -5  -6    5.73    0.54
   5   3  -6    5.14    0.39
   3  -5  -6    6.54    0.59
  -5  -3  -6    6.86    0.66
  -3   5  -6    6.08    0.50
   3  -5   6    6.50    0.50
   5   3   6    6.40    0.52
   5   3   6    5.43    0.54
  -3   5   6    4.62    0.47
   2  -5  -6    1.24    0.36
   5   2  -6    1.27    0.26
  -2   5  -6    1.18    0.29
  -5  -2  -6    1.06    0.36
   2  -5  -6    1.44    0.35
   5   2  -6    1.38    0.25
   5   2   6    1.17    0.32
   2  -5   6    1.64    0.28
  -2   5   6    1.53    0.32
   5   2   6    1.48    0.30
  -5  -1  -6    2.85    0.45
   5   1  -6    4.00    0.37
  -1   5  -6    3.63    0.38
   1  -5  -6    3.94    0.49
   1  -5  -6    4.00    0.45
   5   1  -6    4.76    0.42
  -1   5   6    3.62    0.43
  -5  -1   6    2.84    0.41
   5   1   6    3.94    0.41
   1  -5   6    5.38    0.40
   5   1   6    3.42    0.45
   5   0  -6    3.65    0.38
  -5   0  -6    4.43    0.51
   0  -5  -6    2.92    0.42
   0   5  -6    4.02    0.39
   0  -5  -6    3.23    0.46
   5   0  -6    3.93    0.41
   0   5   6    4.22    0.37
   5   0   6    5.05    0.44
  -5   0   6    4.46    0.46
   0   5   6    4.08    0.46
   0  -5   6    4.85    0.48
   5   0   6    3.65    0.45
  -1  -5  -6    3.79    0.51
   5  -1  -6    3.03    0.39
  -5   1  -6    3.00    0.44
   1   5  -6    3.66    0.35
   5  -1  -6    2.26    0.34
   1   5   6    4.24    0.46
   1   5   6    4.48    0.37
   5  -1   6    2.77    0.36
   5  -1   6    2.58    0.30
   5  -1   6    2.38    0.40
  -5   1   6    2.72    0.39
   2   5  -6    0.15    0.18
  -2  -5  -6   -0.01    0.32
  -5   2  -6    0.34    0.30
   5  -2  -6    0.43    0.25
   5  -2  -6    0.18    0.25
   2   5   6    0.43    0.22
  -5   2   6    0.56    0.26
   2   5   6    0.04    0.26
   5  -2   6    0.21    0.18
   5  -2   6    0.23    0.25
   5  -2   6    0.06    0.28
  -3  -5  -6    1.99    0.41
   5  -3  -6    2.93    0.41
   5  -3  -6    2.06    0.35
  -5   3  -6    2.49    0.40
   5  -3   6    2.93    0.37
   5  -3   6    2.30    0.41
  -5   3   6    2.34    0.34
   3   5   6    0.94    0.33
   3   5   6    2.00    0.32
  -4  -5  -6   21.03    1.12
   5  -4  -6   20.77    1.04
   5  -4  -6   21.08    0.99
  -5   4  -6   23.16    1.04
   5  -4   6   21.39    0.96
  -5   4   6   21.57    0.97
   4   5   6   23.17    1.07
   4   5   6   21.43    0.94
   5  -5  -6    5.52    0.53
   5  -5  -6    6.69    0.60
  -5  -5  -6    6.21    0.66
  -5   5  -6    5.71    0.54
  -5  -5  -6    5.88    0.47
   5  -5   6    6.78    0.55
  -5   5   6    6.34    0.51
   5   5   6    4.95    0.53
   5   5   6    6.33    0.54
   5  -6  -6   15.02    0.86
  -5   6  -6   15.56    0.83
  -6  -5  -6   14.99    0.74
   5  -6  -6   15.46    0.92
  -6  -5  -6   15.23    0.97
   5  -6   6   15.50    0.82
   6   5   6   15.82    0.90
   6   5   6   15.53    0.81
  -5   6   6   15.43    0.82
   6   4  -6   11.23    0.63
   4  -6  -6   11.10    0.76
  -4   6  -6   11.54    0.68
  -6  -4  -6   11.93    0.62
  -6  -4  -6   12.83    0.86
   4  -6  -6   12.00    0.82
   6   4   6   11.59    0.70
  -4   6   6   13.65    0.75
   4  -6   6   11.81    0.71
   6   4   6   11.30    0.77
   3  -6  -6   93.10    3.27
   6   3  -6   95.78    3.13
   3  -6  -6   98.33    3.29
  -6  -3  -6   97.98    3.36
  -3   6  -6   92.34    3.18
   6   3  -6   91.70    3.12
  -6  -3  -6   93.88    3.08
   6   3   6   96.06    3.27
   6   3   6   96.15    3.20
   3  -6   6   93.65    3.15
  -3   6   6   94.95    3.22
   2  -6  -6   -0.02    0.32
   2  -6  -6    0.34    0.33
   6   2  -6    1.00    0.24
  -6  -2  -6    0.67    0.35
   6   2  -6    0.92    0.27
  -2   6  -6    0.78    0.25
  -6  -2  -6    0.89    0.24
   2  -6   6    1.07    0.27
  -2   6   6    0.58    0.29
   6   2   6    0.60    0.31
   6   2   6    0.69    0.30
  -6  -1  -6   83.97    2.71
   1  -6  -6   82.53    2.93
   6   1  -6   83.63    2.81
  -6  -1  -6   83.06    2.96
  -1   6  -6   79.50    2.77
   6   1  -6   87.44    2.77
   1  -6  -6   79.86    2.90
   6   1   6   85.59    2.94
  -1   6   6   80.91    2.88
   6   1   6   82.59    2.83
   1  -6   6   81.68    2.76
  -6  -1   6   87.29    2.88
   0   6  -6    4.58    0.40
   6   0  -6    3.47    0.41
   6   0  -6    3.74    0.39
  -6   0  -6    4.33    0.53
   0  -6  -6    3.99    0.53
   0  -6  -6    3.29    0.46
  -6   0  -6    4.59    0.37
   6   0   6    3.72    0.48
   6   0   6    4.02    0.45
   0  -6   6    5.27    0.44
   6   0   6    4.04    0.37
  -6   0   6    3.77    0.45
   0   6   6    3.97    0.46
  -6   1  -6   59.82    2.02
   6  -1  -6   57.40    2.09
  -6   1  -6   57.70    2.18
   6  -1  -6   57.73    2.05
  -1  -6  -6   58.89    2.21
   6  -1   6   57.41    1.98
   6  -1   6   58.96    2.18
   1   6   6   59.28    2.16
  -6   1   6   59.16    2.10
   6  -1   6   56.99    2.07
   6  -2  -6    0.67    0.28
  -2  -6  -6    1.22    0.38
  -6   2  -6   -0.04    0.32
  -6   2  -6    0.83    0.32
   6  -2  -6    0.46    0.28
   2   6   6    1.11    0.33
   6  -2   6    0.52    0.20
   6  -2   6    0.17    0.28
   6  -2   6    0.41    0.31
   2   6   6    1.43    0.29
  -6   2   6    0.60    0.28
   6  -3  -6   72.97    2.59
  -3  -6  -6   73.11    2.69
   6  -3  -6   77.25    2.56
  -6   3  -6   71.43    2.61
   3   6   6   74.03    2.51
   6  -3   6   69.93    2.53
  -6   3   6   72.81    2.52
   6  -3   6   72.70    2.65
   3   6   6   75.64    2.64
   6  -4  -6    1.86    0.39
   6  -4  -6    1.95    0.38
  -6   4  -6    1.99    0.39
  -4  -6  -6    1.70    0.42
  -6   4   6    1.51    0.31
   6  -4   6    1.28    0.38
   4   6   6    1.99    0.40
   4   6   6    2.08    0.35
   6  -4   6    1.85    0.36
   6  -5  -6   15.60    0.93
  -6   5  -6   16.63    0.89
  -5  -6  -6   17.08    1.02
   6  -5  -6   17.87    0.89
  -5  -6  -6   19.09    0.81
  -6   5   6   16.14    0.83
   5   6   6   17.16    0.96
   6  -5   6   15.79    0.86
   5   6   6   17.16    0.86
  -6   6  -6    0.27    0.28
   6  -6  -6    0.46    0.34
  -6  -6  -6    0.40    0.26
   6  -6  -6    0.16    0.36
  -6  -6  -6   -0.34    0.33
   6   6   6    0.77    0.33
   6   6   6    0.36    0.34
  -6   6   6    0.02    0.26
   6  -6   6    0.38    0.31
   6  -7  -6    0.74    0.39
  -6   7  -6    0.56    0.30
   6  -7  -6    0.03    0.34
  -7  -6  -6    0.54    0.40
  -7  -6  -6    0.65    0.31
   7   6   6    0.29    0.32
   7   6   6    0.25    0.36
  -6   7   6    0.71    0.32
   6  -7   6    1.02    0.37
  -5   7  -6    5.80    0.55
  -7  -5  -6    6.44    0.71
   5  -7  -6    5.70    0.63
   5  -7  -6    5.96    0.61
  -7  -5  -6    7.48    0.55
  -5   7   6    5.93    0.55
   5  -7   6    6.36    0.59
   7   5   6    4.72    0.55
   7   5   6    7.31    0.61
   4  -7  -6    0.84    0.37
  -4   7  -6    0.77    0.28
  -7  -4  -6    0.52    0.40
   4  -7  -6    0.73    0.37
   7   4  -6    0.81    0.26
  -7  -4  -6    0.85    0.28
  -4   7   6    0.73    0.31
   7   4   6    0.85    0.35
   7   4   6    0.58    0.30
   4  -7   6    0.91    0.32
   3  -7  -6    3.54    0.51
   7   3  -6    4.43    0.41
  -3   7  -6    4.30    0.42
   3  -7  -6    3.38    0.50
  -7  -3  -6    3.47    0.54
  -7  -3  -6    4.98    0.44
   7   3   6    3.59    0.47
  -3   7   6    3.26    0.47
   3  -7   6    3.54    0.43
   7   3   6    3.92    0.47
  -7  -2  -6   -0.22    0.31
   2  -7  -6   -0.16    0.28
   7   2  -6    0.48    0.22
  -2   7  -6    0.00    0.22
   7   2  -6    0.17    0.25
  -7  -2  -6    0.18    0.23
   2  -7  -6    0.15    0.33
   7   2   6   -0.13    0.23
   2  -7   6   -0.06    0.25
   7   2   6   -0.30    0.26
  -2   7   6    0.07    0.28
   7   2   6   -0.25    0.26
   7   1  -6    0.21    0.22
  -7  -1  -6    0.03    0.21
  -7  -1  -6    0.12    0.34
   7   1  -6    0.12    0.25
   1  -7  -6    0.45    0.32
  -1   7  -6    0.14    0.30
   1  -7  -6    0.21    0.32
   7   1   6    0.22    0.30
   7   1   6   -0.02    0.26
  -1   7   6    0.17    0.31
   1  -7   6    0.10    0.25
  -7  -1   6   -0.19    0.25
   7   1   6    0.02    0.23
  -7   0  -6    0.03    0.21
   0  -7  -6    0.12    0.31
   0  -7  -6    0.17    0.34
  -7   0  -6    0.15    0.33
   7   0  -6    0.07    0.23
   7   0  -6    0.41    0.27
   7   0   6    0.12    0.22
  -7   0   6    0.19    0.25
   7   0   6   -0.04    0.26
   0   7   6    0.06    0.29
   7   0   6    0.29    0.30
   0  -7   6   -0.15    0.24
  -7   1  -6    6.09    0.64
   7  -1  -6    5.29    0.51
   7  -1  -6    6.34    0.49
  -1  -7  -6    4.74    0.59
  -7   1  -6    5.17    0.42
   7  -1   6    6.08    0.54
   7  -1   6    5.69    0.57
   7  -1   6    5.62    0.44
  -7   1   6    4.45    0.46
   1   7   6    4.79    0.55
   7  -2  -6    5.70    0.55
  -7   2  -6    7.49    0.67
   7  -2  -6    6.97    0.52
  -7   2  -6    5.50    0.44
  -2  -7  -6    7.60    0.72
   7  -2   6    6.89    0.46
   2   7   6    6.50    0.62
   7  -2   6    7.38    0.65
   7  -2   6    7.39    0.59
  -7   2   6    6.11    0.52
   7  -3  -6    3.12    0.44
   7  -3  -6    2.37    0.38
  -3  -7  -6    2.58    0.53
  -7   3  -6    2.97    0.47
   7  -3   6    2.28    0.43
   3   7   6    3.37    0.49
   3   7   6    4.01    0.43
   7  -3   6    2.46    0.40
  -7   3   6    2.11    0.35
   7  -4  -6    0.07    0.28
   7  -4  -6    0.15    0.29
  -4  -7  -6    0.32    0.36
  -7   4  -6    0.15    0.30
   4   7   6    0.04    0.26
   4   7   6   -0.03    0.31
   7  -4   6    0.26    0.30
  -7   4   6    0.08    0.24
   7  -4   6   -0.32    0.30
  -5  -7  -6    3.36    0.55
  -7   5  -6    3.29    0.48
  -5  -7  -6    4.81    0.45
   7  -5  -6    4.19    0.54
   7  -5  -6    4.03    0.49
  -7   5   6    3.77    0.42
   7  -5   6    4.09    0.50
   5   7   6    3.40    0.51
   5   7   6    3.70    0.45
  -6  -7  -6    9.02    0.83
  -7   6  -6    9.35    0.67
   7  -6  -6    8.82    0.77
   7  -6  -6    8.70    0.68
  -6  -7  -6    8.57    0.61
   6   7   6    7.35    0.71
  -7   6   6    8.38    0.64
   7  -6   6    8.59    0.70
   6   7   6    9.48    0.66
   7  -7  -6   21.32    1.14
  -7   7  -6   21.81    1.05
  -7  -7  -6   20.19    0.98
   7  -7  -6   20.31    1.05
  -7  -7  -6   19.23    1.16
   7   7   6   22.03    1.05
   7  -7   6   20.94    1.06
   7   7   6   20.27    1.12
  -7   7   6   18.68    0.99
   7  -8  -6   18.80    1.06
  -8  -7  -6   20.03    0.97
   7  -8  -6   19.68    1.17
  -7   8  -6   20.28    1.02
  -8  -7  -6   19.74    1.18
   8   7   6   18.71    1.13
   8   7   6   20.03    1.03
  -7   8   6   18.75    1.01
   7  -8   6   19.19    1.05
  -8  -6  -6    0.30    0.32
   6  -8  -6    0.11    0.37
   6  -8  -6    0.48    0.42
  -6   8  -6    0.33    0.29
  -8  -6  -6    0.16    0.39
   8   6   6   -0.04    0.35
   8   6   6    0.09    0.33
  -6   8   6    0.56    0.33
   6  -8   6    0.76    0.37
  -8  -5  -6    7.31    0.58
  -5   8  -6    5.77    0.54
   5  -8  -6    5.43    0.64
  -8  -5  -6    5.40    0.64
   5  -8  -6    4.08    0.54
   8   5   6    6.62    0.61
   5  -8   6    5.04    0.57
   8   5   6    6.11    0.62
  -5   8   6    4.17    0.53
   4  -8  -6   -0.12    0.35
   4  -8  -6    0.27    0.38
   8   4  -6    0.17    0.25
  -4   8  -6    0.33    0.26
  -8  -4  -6    0.34    0.40
  -8  -4  -6    0.36    0.28
   8   4   6    0.32    0.32
   4  -8   6    0.92    0.34
  -4   8   6    0.42    0.33
   8   4   6    0.05    0.31
  -8  -3  -6   92.07    3.08
  -8  -3  -6   91.15    3.31
   8   3  -6   93.22    3.11
   3  -8  -6   91.11    3.24
   3  -8  -6   89.83    3.26
  -3   8  -6   88.28    3.08
   8   3   6   95.52    3.22
   8   3   6   96.24    3.15
  -3   8   6   89.97    3.22
   3  -8   6   92.34    3.14
   8   3   6   94.48    3.18
  -8  -2  -6    0.51    0.27
   8   2  -6    0.41    0.23
   2  -8  -6    0.63    0.39
  -8  -2  -6    1.03    0.42
   2  -8  -6    0.26    0.36
   8   2  -6    0.32    0.26
   8   2   6   -0.13    0.31
  -2   8   6    0.40    0.32
   8   2   6    0.23    0.27
   8   2   6    0.35    0.32
   2  -8   6    0.36    0.30
  -8  -1  -6  116.28    3.80
   1  -8  -6  116.01    3.98
  -8  -1  -6  119.50    4.04
   8   1  -6  115.18    3.77
   1  -8  -6  112.59    3.98
   8   1  -6  115.95    3.86
   8   1   6  118.50    3.90
   1  -8   6  118.28    3.83
   8   1   6  115.62    3.82
  -1   8   6  113.72    3.97
  -8  -1   6  117.28    3.87
   8   1   6  116.61    3.95
  -8   0  -6    0.54    0.35
  -8   0  -6    1.20    0.30
   8   0  -6    0.76    0.31
   8   0  -6    1.21    0.28
   0  -8  -6    0.76    0.39
   0  -8   6    0.99    0.33
   8   0   6    0.87    0.35
   8   0   6    0.24    0.32
   0   8   6    1.42    0.38
  -8   0   6    0.78    0.30
   8   0   6    0.97    0.27
  -1  -8  -6   96.61    3.36
  -8   1  -6   92.19    3.34
  -8   1  -6   93.28    3.14
   8  -1  -6   95.88    3.17
   8  -1  -6   94.90    3.25
   8  -1   6   93.92    3.13
   8  -1   6   98.53    3.32
   1   8   6   96.47    3.35
   8  -1   6   94.76    3.25
  -8   1   6   94.29    3.19
   8  -2  -6    1.57    0.37
   8  -2  -6    1.13    0.31
  -8   2  -6    1.23    0.39
  -2  -8  -6    1.28    0.42
  -8   2   6    1.51    0.32
   8  -2   6    1.45    0.29
   8  -2   6    0.60    0.35
   8  -2   6    1.54    0.41
   2   8   6    1.58    0.42
   8  -3  -6    8.03    0.66
  -8   3  -6    7.58    0.69
  -3  -8  -6    6.39    0.65
   8  -3  -6    6.98    0.57
  -8   3   6    6.50    0.51
   3   8   6    6.23    0.65
   8  -3   6    5.83    0.60
   8  -3   6    7.68    0.65
   8  -4  -6    2.21    0.44
   8  -4  -6    2.79    0.42
  -8   4  -6    3.47    0.50
  -4  -8  -6    3.24    0.56
   8  -4   6    2.48    0.46
  -8   4   6    2.33    0.34
   4   8   6    2.84    0.49
   8  -4   6    2.21    0.42
  -5  -8  -6    5.65    0.49
   8  -5  -6    4.52    0.51
  -8   5  -6    5.87    0.62
   8  -5  -6    5.19    0.60
  -5  -8  -6    4.30    0.61
   8  -5   6    4.52    0.54
   8  -5   6    3.55    0.54
  -8   5   6    4.61    0.45
   5   8   6    3.54    0.55
   8  -6  -6    5.98    0.66
  -8   6  -6    6.49    0.64
  -6  -8  -6    5.49    0.69
   8  -6  -6    5.94    0.58
  -6  -8  -6    5.23    0.52
  -8   6   6    6.42    0.54
   8  -6   6    7.34    0.68
   6   8   6    6.30    0.69
   6   8   6    6.02    0.60
  -7  -8  -6    1.33    0.51
   8  -7  -6    1.05    0.40
  -7  -8  -6    1.62    0.39
  -8   7  -6    0.94    0.38
   8  -7  -6    1.03    0.43
   7   8   6    1.38    0.39
   8  -7   6    1.26    0.43
   7   8   6    1.78    0.48
  -8  -8  -6    1.38    0.40
   8  -8  -6    0.34    0.43
  -8  -8  -6    1.15    0.52
  -8   8  -6    1.74    0.41
   8  -8  -6    1.28    0.44
   8  -8   6    0.95    0.41
   8   8   6    1.39    0.40
   8   8   6    0.78    0.47
  -8   9  -6    0.38    0.35
  -9  -8  -6    0.76    0.38
   8  -9  -6    0.23    0.45
   8  -9  -6    0.71    0.42
  -9  -8  -6    0.44    0.49
   9   8   6    0.33    0.43
   8  -9   6    0.29    0.41
   9   8   6    0.39    0.38
  -9  -7  -6    4.03    0.51
   7  -9  -6    3.61    0.60
  -9  -7  -6    2.12    0.54
   7  -9  -6    2.54    0.52
  -7   9  -6    3.75    0.50
   9   7   6    3.35    0.52
   9   7   6    2.75    0.54
  -7   9   6    2.04    0.46
   7  -9   6    2.69    0.51
   6  -9  -6    1.26    0.47
  -9  -6  -6    1.35    0.41
  -9  -6  -6    1.02    0.46
  -6   9  -6    1.88    0.39
   6  -9  -6    0.93    0.40
   9   6   6    1.88    0.47
   9   6   6    1.38    0.41
  -6   9   6    1.09    0.39
   6  -9   6    1.76    0.46
  -9  -5  -6   12.06    0.76
   9   5  -6   11.74    0.79
   5  -9  -6   11.78    0.90
  -5   9  -6   11.68    0.72
   5  -9  -6   10.80    0.82
  -9  -5  -6   11.48    0.97
   5  -9   6   11.60    0.80
   9   5   6   11.72    0.79
   9   5   6   11.84    0.87
   9   5   6   11.40    0.79
  -5   9   6   11.69    0.84
   4  -9  -6    0.41    0.41
   4  -9  -6    0.68    0.41
   9   4  -6    0.78    0.30
  -9  -4  -6    0.66    0.32
  -9  -4  -6    0.71    0.45
   9   4   6    0.74    0.35
   9   4   6    0.40    0.31
   9   4   6    0.15    0.34
  -4   9   6    0.34    0.35
   4  -9   6    0.90    0.36
  -9  -3  -6    0.53    0.41
  -9  -3  -6    0.79    0.32
   3  -9  -6   -0.25    0.36
   9   3  -6    0.14    0.26
   3  -9  -6    0.28    0.36
  -3   9   6    0.60    0.37
   9   3   6    0.20    0.33
   3  -9   6    0.61    0.32
   9   3   6    0.30    0.31
   9   3   6    0.51    0.35
   2  -9  -6   -0.07    0.36
  -9  -2  -6   -0.54    0.25
  -9  -2  -6    0.09    0.39
   9   2  -6   -0.39    0.26
   2  -9  -6   -0.07    0.37
   9   2   6    0.28    0.27
  -2   9   6    0.17    0.33
   2  -9   6    0.16    0.32
   9   2   6   -0.12    0.30
   9   2   6   -0.17    0.29
   9   1  -6    0.18    0.29
  -9  -1  -6    0.49    0.28
   1  -9  -6    0.61    0.39
   1  -9  -6    0.38    0.40
  -9  -1  -6    0.57    0.39
   9   1   6    0.63    0.33
  -1   9   6    0.22    0.36
   9   1   6    0.45    0.27
   1  -9   6    0.66    0.34
  -9  -1   6    0.50    0.29
   9   1   6   -0.18    0.29
  -9   0  -6    0.39    0.37
   9   0  -6   -0.34    0.22
   0  -9  -6    0.11    0.38
   9   0  -6   -0.40    0.27
  -9   0  -6    0.06    0.25
   9   0   6    0.20    0.32
   0   9   6    0.03    0.35
   9   0   6    0.28    0.26
   0  -9   6   -0.07    0.31
   9   0   6    0.55    0.34
  -9   0   6   -0.14    0.25
  -9   1  -6   -0.01    0.23
  -1  -9  -6    0.30    0.39
   9  -1  -6   -0.52    0.29
  -9   1  -6    0.14    0.34
   9  -1  -6   -0.06    0.24
  -9   1   6    0.45    0.27
   1   9   6    0.09    0.35
  -1  -9   6   -0.28    0.39
   9  -1   6    0.27    0.32
   9  -1   6    0.38    0.33
   9  -1   6    0.37    0.25
  -2  -9  -6    3.39    0.53
   9  -2  -6    6.01    0.60
   9  -2  -6    5.06    0.49
  -9   2  -6    6.58    0.70
   9  -2   6    5.96    0.60
   9  -2   6    5.47    0.59
  -9   2   6    5.17    0.47
   9  -2   6    5.10    0.46
   2   9   6    2.73    0.53
  -9   3  -6    2.27    0.44
   9  -3  -6    2.21    0.38
  -3  -9  -6    3.17    0.57
   9  -3  -6    2.31    0.43
   9  -3   6    1.14    0.40
   9  -3   6    1.99    0.42
   3   9   6    1.78    0.49
  -4  -9  -6    0.08    0.41
  -4  -9  -6    0.46    0.51
  -9   4  -6    0.74    0.36
   9  -4  -6    0.65    0.33
   9  -4  -6    0.62    0.37
   9  -4   6    0.00    0.34
   4   9   6    0.51    0.40
   9  -4   6    0.43    0.36
  -5  -9  -6    7.81    0.63
  -9   5  -6   10.09    0.81
   9  -5  -6    8.92    0.69
   9  -5  -6    8.15    0.77
  -5  -9  -6    8.89    0.86
   9  -5   6    7.90    0.72
   9  -5   6    7.10    0.70
   5   9   6    8.57    0.81
   9  -6  -6    1.16    0.45
  -6  -9  -6    0.24    0.34
  -6  -9  -6    0.24    0.46
  -9   6  -6    0.57    0.37
   9  -6  -6    0.52    0.35
   9  -6   6    0.23    0.36
   6   9   6    0.29    0.40
  -7  -9  -6    0.21    0.35
   9  -7  -6    0.12    0.36
  -9   7  -6    0.49    0.35
   9  -7  -6    0.07    0.40
  -7  -9  -6    0.13    0.44
   9  -7   6    0.85    0.42
   7   9   6    0.14    0.43
  -8  -9  -6    0.10    0.34
  -8  -9  -6   -0.19    0.46
   9  -8  -6   -0.18    0.36
  -9   8  -6   -0.24    0.31
   9  -8  -6    0.63    0.46
   9  -8   6   -0.45    0.38
   8   9   6    0.22    0.44
   9  -9  -6    3.23    0.65
  -9  -9  -6    1.84    0.60
   9  -9  -6    2.24    0.48
  -9   9  -6    2.90    0.51
  -9  -9  -6    2.05    0.48
   9   9   6    2.29    0.50
   9  -9   6    1.81    0.51
   9   9   6    2.22    0.57
   9 -10  -6    0.29    0.52
   9 -10  -6    0.33    0.44
 -10  -9  -6    1.00    0.45
  -9  10  -6    0.38    0.37
 -10  -9  -6    0.55    0.54
  10   9   6    0.13    0.47
   9 -10   6    0.40    0.45
  10   9   6   -0.69    0.36
   8 -10  -6    1.99    0.58
  -8  10  -6    1.25    0.40
 -10  -8  -6    2.01    0.49
 -10  -8  -6    1.37    0.57
   8 -10  -6    1.11    0.44
  10   8   6    1.98    0.49
  10   8   6    1.71    0.52
  10   8   6    1.16    0.43
   8 -10   6    1.76    0.49
   7 -10  -6    5.10    0.66
   7 -10  -6    3.65    0.63
  -7  10  -6    5.11    0.57
 -10  -7  -6    4.15    0.70
 -10  -7  -6    5.79    0.63
  10   7   6    4.79    0.60
  10   7   6    4.25    0.64
  10   7   6    4.74    0.62
  -7  10   6    3.31    0.55
   7 -10   6    4.04    0.61
 -10  -6  -6    0.59    0.38
 -10  -6  -6    0.32    0.48
   6 -10  -6    0.64    0.43
   6 -10  -6    1.20    0.49
  -6  10  -6    0.56    0.34
  10   6   6   -0.02    0.41
   6 -10   6    0.68    0.43
  10   6   6    1.11    0.42
  -6  10   6   -0.03    0.38
  10   6   6    1.30    0.41
 -10  -5  -6    0.35    0.44
  10   5  -6    0.12    0.28
 -10  -5  -6    0.03    0.33
   5 -10  -6   -0.68    0.42
   5 -10  -6    0.44    0.41
  10   5   6   -0.30    0.32
  10   5   6    0.04    0.37
  -5  10   6    0.37    0.37
   5 -10   6    0.00    0.36
  10   5   6    0.20    0.32
  10   4  -6    2.35    0.39
 -10  -4  -6    1.30    0.49
   4 -10  -6    2.20    0.54
   4 -10  -6    1.40    0.47
 -10  -4  -6    1.54    0.40
  10   4   6    2.14    0.45
  10   4   6    1.33    0.41
   4 -10   6    1.71    0.44
  10   4   6    2.22    0.44
  -4  10   6    1.58    0.45
   3 -10  -6   24.22    1.25
 -10  -3  -6   20.96    1.21
   3 -10  -6   21.46    1.15
 -10  -3  -6   21.69    1.02
  10   3  -6   19.23    1.01
  10   3   6   21.15    1.09
  10   3   6   22.10    1.05
  10   3   6   20.50    1.09
   3 -10   6   19.13    1.04
  -3  10   6   19.63    1.16
   2 -10  -6    6.61    0.72
  10   2  -6    7.65    0.63
   2 -10  -6    7.54    0.75
 -10  -2  -6    7.32    0.79
 -10  -2  -6    6.67    0.60
  10   2   6    8.34    0.65
  -2  10   6    7.38    0.75
  10   2   6    6.77    0.65
   2 -10   6    8.11    0.68
  10   2   6    7.96    0.70
 -10  -1  -6   12.77    0.75
 -10  -1  -6   13.08    0.94
   1 -10  -6   13.90    0.92
  10   1  -6   11.42    0.79
   1 -10  -6   13.83    0.95
   1 -10   6   11.68    0.78
  10   1   6   13.06    0.85
  10   1   6   12.63    0.77
  -1  10   6   12.83    0.93
  10   1   6   12.20    0.82
   0 -10  -6    5.16    0.61
  10   0  -6    3.89    0.50
 -10   0  -6    3.73    0.46
 -10   0  -6    3.67    0.57
   0 -10   6    4.79    0.53
  10   0   6    4.27    0.46
  10   0   6    3.87    0.52
   0  10   6    4.38    0.61
  10   0   6    4.25    0.53
  10  -1  -6    3.44    0.50
  -1 -10  -6    3.88    0.60
 -10   1  -6    3.34    0.57
  -1 -10   6    5.26    0.63
  10  -1   6    3.24    0.50
   1  10   6    5.00    0.64
  10  -1   6    4.69    0.57
  10  -1   6    4.18    0.45
  10  -2  -6    0.79    0.37
  -2 -10  -6    0.41    0.40
 -10   2  -6    0.86    0.42
  10  -2   6    0.29    0.35
   2  10   6    0.39    0.40
  10  -2   6    0.90    0.31
  10  -2   6    0.29    0.34
 -10   3  -6   15.55    1.00
  -3 -10  -6   14.03    1.00
  10  -3  -6   15.17    0.82
  10  -3  -6   15.24    0.95
  10  -3   6   15.13    0.94
  10  -3   6   15.90    0.94
   3  10   6   12.53    1.01
  -4 -10  -6   11.88    0.95
  10  -4  -6    8.97    0.66
 -10   4  -6    9.24    0.80
  -4 -10  -6    7.39    0.76
  10  -4  -6    7.74    0.73
  10  -4   6    9.70    0.75
  10  -4   6    9.64    0.78
   4  10   6    8.01    0.82
  10  -5  -6    0.68    0.36
  10  -5  -6    0.78    0.43
  -5 -10  -6    1.13    0.52
 -10   5  -6    0.34    0.36
  -5 -10  -6    1.28    0.39
  10  -5   6    1.04    0.41
  10  -5   6    0.72    0.39
   5  10   6    0.35    0.43
 -10   6  -6    0.24    0.36
  10  -6  -6    0.30    0.34
  10  -6  -6    0.17    0.43
  -6 -10  -6   -0.01    0.36
  -6 -10  -6    0.15    0.46
  10  -6   6    0.68    0.40
   6  10   6   -0.76    0.38
  10  -6   6    0.05    0.38
  -7 -10  -6    0.46    0.40
  -7 -10  -6    0.04    0.47
  10  -7  -6    0.30    0.37
 -10   7  -6    0.27    0.36
  10  -7  -6    0.26    0.43
   7  10   6    0.22    0.43
  10  -7   6    0.12    0.40
  10  -8  -6    2.76    0.52
  -8 -10  -6    2.96    0.64
  -8 -10  -6    2.97    0.53
 -10   8  -6    3.40    0.56
  10  -8  -6    3.25    0.62
  10  -8   6    2.66    0.56
   8  10   6    2.75    0.62
  -9 -10  -6   -0.09    0.50
  10  -9  -6    0.46    0.41
  10  -9  -6    0.67    0.50
  -9 -10  -6    0.05    0.42
 -10   9  -6    0.21    0.39
   9  10   6    0.21    0.49
  10  -9   6    0.86    0.49
 -10 -10  -6    0.05    0.53
  10 -10  -6    0.58    0.43
  10 -10  -6   -0.16    0.51
 -10 -10  -6    0.79    0.47
 -10  10  -6    0.91    0.44
  10 -10   6    0.35    0.48
  10  10   6    1.19    0.55
 -11 -10  -6   24.39    1.48
 -11 -10  -6   26.26    1.34
  10 -11  -6   27.38    1.58
 -10  11  -6   23.73    1.29
  10 -11  -6   23.01    1.30
  11  10   6   26.47    1.39
  11  10   6   27.79    1.59
  10 -11   6   23.27    1.38
   9 -11  -6    0.38    0.47
   9 -11  -6    0.10    0.56
 -11  -9  -6   -0.29    0.51
  -9  11  -6    0.71    0.38
 -11  -9  -6    0.31    0.45
  11   9   6   -0.09    0.41
   9 -11   6    0.54    0.50
  11   9   6    0.58    0.45
  11   9   6    0.88    0.55
   8 -11  -6   15.30    1.16
  -8  11  -6   13.79    0.91
   8 -11  -6   14.47    1.01
 -11  -8  -6   12.85    1.11
 -11  -8  -6   17.71    1.03
  11   8   6   15.93    1.05
   8 -11   6   15.54    1.06
  11   8   6   15.62    1.01
  11   8   6   15.78    1.16
   7 -11  -6    1.81    0.52
 -11  -7  -6    2.67    0.52
 -11  -7  -6    1.42    0.57
   7 -11  -6    2.16    0.61
  11   7   6    2.06    0.54
   7 -11   6    2.26    0.54
  11   7   6    1.92    0.49
  11   7   6    1.44    0.48
 -11  -6  -6   46.52    1.91
   6 -11  -6   50.42    2.03
 -11  -6  -6   47.39    2.10
   6 -11  -6   51.29    2.11
  11   6   6   47.12    2.03
  11   6   6   47.04    1.95
   6 -11   6   49.43    2.00
  11   6   6   51.50    2.00
 -11  -5  -6    2.28    0.60
   5 -11  -6    1.49    0.50
 -11  -5  -6    2.65    0.50
  11   5  -6    2.42    0.43
   5 -11  -6    2.20    0.59
  11   5   6    2.50    0.53
  -5  11   6    2.02    0.51
   5 -11   6    3.10    0.54
  11   5   6    2.57    0.51
  11   5   6    2.61    0.48
   4 -11  -6   12.34    0.98
  11   4  -6   10.33    0.74
 -11  -4  -6   13.16    1.06
 -11  -4  -6   11.22    0.79
   4 -11  -6   11.88    0.89
   4 -11   6    9.88    0.84
  11   4   6   11.47    0.84
  11   4   6   11.03    0.87
  -4  11   6   12.35    1.00
  11   4   6   10.47    0.81
  11   3  -6    0.27    0.30
   3 -11  -6    0.41    0.46
 -11  -3  -6    0.55    0.34
   3 -11  -6    0.14    0.41
 -11  -3  -6    0.11    0.46
  -3  11   6   -0.05    0.40
  11   3   6    0.15    0.36
  11   3   6    0.85    0.37
   3 -11   6   -0.05    0.36
  11   3   6    0.23    0.32
   2 -11  -6    2.43    0.55
 -11  -2  -6    2.29    0.44
   2 -11  -6    2.98    0.56
 -11  -2  -6    2.99    0.59
  11   2  -6    2.22    0.44
   2 -11   6    3.81    0.55
  -2  11   6    3.20    0.57
  11   2   6    2.62    0.43
  11   2   6    1.79    0.46
  11   2   6    2.78    0.46
 -11  -1  -6    0.46    0.43
 -11  -1  -6    0.51    0.33
  11   1  -6    0.68    0.35
   1 -11  -6    0.31    0.40
   1 -11  -6    0.37    0.45
  -1  11   6    1.06    0.45
  11   1   6    0.69    0.39
  11   1   6    0.74    0.34
   1 -11   6    0.38    0.38
  11   1   6    0.41    0.34
  11   0  -6    2.52    0.48
 -11   0  -6    3.67    0.61
 -11   0  -6    3.34    0.47
   0 -11  -6    3.01    0.58
   0 -11   6    2.82    0.50
  11   0   6    3.06    0.51
  11   0   6    2.68    0.47
   0  11   6    2.96    0.58
  11   0   6    3.64    0.46
  -1 -11  -6    3.50    0.60
  11  -1  -6    2.68    0.47
 -11   1  -6    1.78    0.50
   1  11   6    2.88    0.59
  -1 -11   6    3.22    0.50
  11  -1   6    2.76    0.42
  11  -1   6    3.22    0.52
  11  -1   6    2.64    0.49
 -11   2  -6    2.67    0.55
  -2 -11  -6    3.25    0.59
  11  -2  -6    4.12    0.55
   2  11   6    3.17    0.57
  11  -2   6    3.61    0.55
  11  -2   6    3.50    0.54
  11  -2   6    2.79    0.46
  -3 -11  -6    0.83    0.47
 -11   3  -6    0.37    0.38
  11  -3  -6    0.54    0.39
  11  -3   6    0.10    0.37
   3  11   6    0.04    0.44
  11  -3   6    0.55    0.38
  -4 -11  -6    9.75    0.93
 -11   4  -6   12.13    0.91
  -4 -11  -6   13.79    1.27
  11  -4  -6   13.83    0.96
   4  11   6   10.05    0.97
  11  -4   6   12.61    0.88
  11  -4   6   13.03    0.89
 -11   5  -6    3.41    0.55
  -5 -11  -6    2.02    0.57
  -5 -11  -6    4.11    0.54
  11  -5  -6    3.84    0.60
   5  11   6    3.18    0.63
  11  -5   6    3.35    0.55
  11  -5   6    3.90    0.57
  11  -6  -6   16.46    1.16
 -11   6  -6   18.41    1.14
  -6 -11  -6   19.13    1.26
  -6 -11  -6   20.42    1.04
   6  11   6   18.61    1.26
  11  -6   6   18.56    1.10
  11  -6   6   20.13    1.13
  11  -7  -6    1.04    0.53
  -7 -11  -6    1.12    0.57
 -11   7  -6    1.46    0.46
  -7 -11  -6    1.51    0.48
  11  -7   6    1.45    0.50
  11  -7   6    1.53    0.47
   7  11   6    1.35    0.51
  -8 -11  -6    5.16    0.64
  -8 -11  -6    4.07    0.70
  11  -8  -6    4.07    0.67
 -11   8  -6    6.33    0.76
   8  11   6    5.63    0.81
  11  -8   6    6.39    0.74
  -9 -11  -6    0.12    0.42
 -11   9  -6    0.10    0.37
  -9 -11  -6   -0.08    0.53
  11  -9  -6    0.20    0.54
   9  11   6    0.79    0.54
  11  -9   6    0.34    0.49
 -10 -11  -6   11.21    0.92
 -10 -11  -6    7.97    0.91
  11 -10  -6   12.47    1.10
 -11  10  -6   10.03    0.89
  10  11   6    9.90    1.08
  11 -10   6   10.51    0.98
 -11 -11  -6    0.59    0.62
 -11 -11  -6   -0.23    0.50
 -11  11  -6    0.08    0.38
  11 -11  -6    0.64    0.63
  11  11   6    0.51    0.49
  11 -11   6    0.04    0.51
  11  11   6    0.75    0.62
  11 -12  -6   -0.15    0.65
 -11  12  -6    1.03    0.49
 -12 -11  -6    0.22    0.56
 -12 -11  -6    0.42    0.64
  11 -12   6    0.85    0.62
  12  11   6    1.33    0.66
  12  11   6    0.86    0.58
  10 -12  -6    0.92    0.65
  10 -12  -6    1.23    0.55
 -12 -10  -6    0.36    0.52
 -10  12  -6    1.16    0.47
 -12 -10  -6    0.22    0.60
  12  10   6    0.98    0.52
  10 -12   6    0.96    0.56
  12  10   6    1.27    0.62
 -12  -9  -6   -0.09    0.56
   9 -12  -6    0.55    0.62
   9 -12  -6    0.61    0.51
 -12  -9  -6    0.10    0.48
  12   9   6   -0.16    0.52
  12   9   6    0.45    0.46
   9 -12   6   -0.03    0.51
  12   9   6    0.34    0.48
   8 -12  -6    0.80    0.56
   8 -12  -6    1.10    0.54
 -12  -8  -6    2.12    0.57
 -12  -8  -6    1.61    0.58
  12   8   6    0.95    0.48
  12   8   6    0.92    0.50
   8 -12   6    1.12    0.54
  12   8   6    1.51    0.57
 -12  -7  -6    2.43    0.54
   7 -12  -6    1.95    0.55
   7 -12  -6    3.93    0.71
 -12  -7  -6    1.66    0.60
  12   7   6    2.38    0.54
   7 -12   6    2.35    0.58
  12   7   6    2.17    0.58
  12   7   6    2.08    0.54
 -12  -6  -6    0.14    0.50
   6 -12  -6   -0.30    0.50
 -12  -6  -6    0.42    0.43
   6 -12  -6    0.30    0.44
  12   6   6    0.22    0.41
   6 -12   6    0.57    0.47
  12   6   6   -0.01    0.44
  12   6   6   -0.02    0.39
  12   5  -6   -0.28    0.30
   5 -12  -6   -0.70    0.49
   5 -12  -6    0.09    0.46
 -12  -5  -6    0.01    0.41
 -12  -5  -6   -0.81    0.43
  12   5   6    0.36    0.38
   5 -12   6   -0.32    0.41
  12   5   6    0.16    0.40
  12   5   6   -0.33    0.39
   4 -12  -6    1.19    0.55
 -12  -4  -6    2.17    0.50
   4 -12  -6    2.34    0.55
 -12  -4  -6    1.63    0.56
  12   4  -6    2.79    0.46
   4 -12   6    1.04    0.46
  12   4   6    2.15    0.52
  12   4   6    2.53    0.52
  12   4   6    2.42    0.48
 -12  -3  -6    8.92    0.86
   3 -12  -6    8.86    0.90
 -12  -3  -6    9.68    0.77
   3 -12  -6    9.63    0.82
  12   3  -6    9.01    0.73
  12   3   6    8.78    0.73
   3 -12   6    8.74    0.79
  12   3   6    9.46    0.83
  12   3   6    8.26    0.75
  -3  12   6    9.92    0.95
   2 -12  -6    4.82    0.67
 -12  -2  -6    3.88    0.54
 -12  -2  -6    2.70    0.59
   2 -12  -6    3.51    0.66
  12   2  -6    4.00    0.54
  12   2   6    3.01    0.50
   2 -12   6    5.09    0.63
  12   2   6    3.71    0.51
  -2  12   6    2.69    0.61
  12   2   6    2.83    0.55
   1 -12  -6   19.70    1.20
   1 -12  -6   18.00    1.13
 -12  -1  -6   19.03    1.19
  12   1  -6   19.76    1.06
 -12  -1  -6   18.79    1.03
  12   1   6   16.74    1.06
  12   1   6   19.34    1.06
  12   1   6   19.24    1.03
  -1  12   6   17.45    1.22
   1 -12   6   22.42    1.11
  12   0  -6    0.46    0.37
   0 -12  -6    0.37    0.47
 -12   0  -6    0.25    0.43
  12   0   6    0.27    0.39
   0  12   6   -0.12    0.45
  12   0   6    0.58    0.34
   0 -12   6   -0.09    0.40
  12   0   6    0.98    0.39
  -1 -12  -6    9.82    0.88
  12  -1  -6    9.19    0.78
 -12   1  -6   11.07    0.96
  12  -1   6    9.19    0.69
  12  -1   6    9.07    0.81
  12  -1   6    9.05    0.75
  -1 -12   6    9.99    0.79
   1  12   6    8.66    0.91
  12  -2  -6    4.56    0.61
  -2 -12  -6    4.64    0.68
 -12   2  -6    4.55    0.68
  12  -2   6    4.23    0.57
  12  -2   6    3.99    0.60
   2  12   6    3.84    0.68
  12  -2   6    3.20    0.69
 -12   3  -6    5.92    0.72
  -3 -12  -6    6.75    0.80
  12  -3  -6    7.09    0.74
  12  -3   6    4.67    0.60
   3  12   6    6.53    0.81
  12  -3   6    3.37    0.60
 -12   4  -6   -0.16    0.40
  12  -4  -6    0.30    0.43
  -4 -12  -6    0.31    0.48
  12  -4   6    0.54    0.40
  12  -4   6   -0.26    0.39
   4  12   6    0.10    0.48
 -12   5  -6    0.62    0.45
  -5 -12  -6    0.22    0.42
  12  -5  -6   -0.47    0.42
  -5 -12  -6    0.51    0.49
  12  -5   6    0.55    0.40
  12  -5   6   -0.07    0.41
   5  12   6   -0.29    0.46
  -6 -12  -6    2.06    0.58
  12  -6  -6    2.51    0.59
 -12   6  -6    2.20    0.52
  -6 -12  -6    3.13    0.55
   6  12   6    2.31    0.64
  12  -6   6    2.38    0.50
  12  -6   6    2.66    0.58
  -7 -12  -6   -0.18    0.45
 -12   7  -6    0.42    0.43
  12  -7  -6    0.63    0.53
  -7 -12  -6    0.16    0.54
  12  -7   6    0.41    0.49
  12  -7   6    0.44    0.45
   7  12   6   -0.10    0.54
  -8 -12  -6    0.49    0.47
  -8 -12  -6    0.31    0.53
  12  -8  -6    0.46    0.53
 -12   8  -6    0.29    0.44
   8  12   6    0.11    0.54
  12  -8   6    0.78    0.46
  12  -8   6   -0.50    0.47
 -12   9  -6    1.35    0.48
  -9 -12  -6    1.63    0.62
  12  -9  -6    1.20    0.60
  -9 -12  -6    1.71    0.57
   9  12   6    1.28    0.64
  12  -9   6    0.62    0.53
  12 -10  -6    0.81    0.61
 -10 -12  -6    1.18    0.57
 -12  10  -6    1.19    0.52
 -10 -12  -6    1.84    0.67
  10  12   6    1.50    0.64
  12 -10   6    1.62    0.60
 -11 -12  -6   12.78    1.06
 -12  11  -6   11.01    0.98
 -11 -12  -6   12.43    1.16
  12 -11  -6   13.45    1.18
  12 -11   6   11.39    1.09
  11  12   6   14.44    1.33
  11  12   6   14.43    1.11
 -12 -12  -6    3.77    0.82
  12 -12  -6    2.28    0.81
 -12  12  -6    3.59    0.65
 -12 -12  -6    4.19    0.73
  12 -12   6    2.63    0.73
  12  12   6    3.31    0.68
 -13 -12  -6    7.63    0.99
 -12  13  -6    8.38    0.91
 -13 -12  -6    8.71    0.97
  12 -13  -6    9.22    1.11
  13  12   6    7.28    0.91
  12 -13   6    7.92    1.00
  11 -13  -6    0.18    0.67
 -13 -11  -6    0.84    0.62
 -13 -11  -6    0.98    0.70
  13  11   6    1.53    0.70
  11 -13   6    0.01    0.58
  13  11   6   -0.17    0.54
 -13 -10  -6   27.59    1.50
 -13 -10  -6   28.98    1.69
  10 -13  -6   27.77    1.72
  10 -13  -6   28.55    1.51
  13  10   6   31.68    1.77
  10 -13   6   28.38    1.60
  13  10   6   27.26    1.53
 -13  -9  -6    2.13    0.62
   9 -13  -6    1.12    0.57
 -13  -9  -6    1.40    0.68
   9 -13  -6    1.28    0.67
  13   9   6    1.05    0.54
  13   9   6    1.70    0.62
  13   9   6    1.51    0.54
   9 -13   6    1.92    0.64
 -13  -8  -6   33.41    1.79
 -13  -8  -6   37.36    1.68
   8 -13  -6   35.33    1.84
   8 -13  -6   34.47    1.65
   8 -13   6   35.53    1.72
  13   8   6   31.85    1.77
  13   8   6   35.81    1.67
  13   8   6   32.55    1.63
   7 -13  -6    1.74    0.56
   7 -13  -6    1.64    0.66
 -13  -7  -6    1.86    0.55
 -13  -7  -6    1.93    0.65
   7 -13   6    1.67    0.59
  13   7   6    0.99    0.48
  13   7   6    2.05    0.54
  13   7   6    2.35    0.61
 -13  -6  -6   17.32    1.24
   6 -13  -6   21.05    1.32
 -13  -6  -6   15.68    1.09
   6 -13  -6   18.42    1.14
   6 -13   6   17.10    1.16
  13   6   6   17.03    1.06
  13   6   6   16.61    1.17
  13   6   6   17.49    1.12
  13   5  -6    0.71    0.37
 -13  -5  -6    0.54    0.56
   5 -13  -6    0.53    0.49
 -13  -5  -6    1.15    0.46
   5 -13  -6    0.70    0.56
   5 -13   6    0.26    0.44
  13   5   6    0.39    0.44
  13   5   6   -0.02    0.38
  13   5   6    0.07    0.42
   4 -13  -6   13.03    1.08
 -13  -4  -6   12.50    0.92
 -13  -4  -6   13.97    1.17
  13   4  -6   11.52    0.85
   4 -13  -6   12.48    0.98
   4 -13   6   13.78    0.99
  13   4   6   11.44    0.91
  13   4   6   12.03    0.96
  13   4   6   12.87    0.96
 -13  -3  -6    0.26    0.50
   3 -13  -6   -0.06    0.45
   3 -13  -6   -0.40    0.52
  13   3  -6    0.24    0.36
 -13  -3  -6    0.14    0.40
  13   3   6    0.01    0.38
  13   3   6    0.22    0.38
   3 -13   6   -0.19    0.41
  13   3   6   -0.12    0.40
 -13  -2  -6    6.72    0.69
   2 -13  -6    5.12    0.72
 -13  -2  -6    4.23    0.66
   2 -13  -6    4.84    0.76
  13   2  -6    7.09    0.68
   2 -13   6    6.66    0.72
  13   2   6    4.47    0.60
  13   2   6    5.13    0.68
  13   2   6    5.09    0.61
 -13  -1  -6    0.45    0.48
 -13  -1  -6    0.20    0.37
   1 -13  -6    0.38    0.50
  13   1  -6    1.00    0.42
  13   1   6    0.45    0.38
  13   1   6    0.77    0.45
   1 -13   6    0.27    0.42
  13   1   6    0.61    0.39
 -13   0  -6    7.24    0.81
   0 -13  -6    6.92    0.80
  13   0  -6    9.35    0.78
  13   0   6    8.64    0.74
   0 -13   6    7.84    0.77
  13   0   6    6.41    0.74
  13   0   6    8.63    0.70
  -1 -13  -6    0.05    0.46
 -13   1  -6    0.69    0.49
  13  -1  -6    1.17    0.47
  13  -1   6    1.00    0.44
  13  -1   6    0.96    0.42
  13  -1   6    0.80    0.38
  -1 -13   6    0.56    0.46
  13  -2  -6    3.05    0.54
 -13   2  -6    3.22    0.65
  -2 -13  -6    3.47    0.67
  13  -2   6    4.99    0.62
  -2 -13   6    3.10    0.80
  13  -2   6    5.18    0.66
   2  13   6    2.84    0.66
  13  -3  -6    0.32    0.45
  -3 -13  -6    0.11    0.48
 -13   3  -6    0.50    0.46
  13  -3   6    0.29    0.39
  13  -3   6    0.17    0.44
   3  13   6    0.12    0.48
  -4 -13  -6   15.88    1.16
 -13   4  -6   16.52    1.14
  13  -4  -6   18.67    1.19
   4  13   6   18.26    1.30
  13  -4   6   17.30    1.12
  13  -4   6   18.44    1.09
  13  -5  -6    1.49    0.54
  -5 -13  -6    0.86    0.55
 -13   5  -6    1.35    0.53
  -5 -13  -6    1.94    0.58
  13  -5   6    1.00    0.44
   5  13   6    1.22    0.59
  13  -5   6    1.58    0.54
  13  -6  -6   43.00    1.95
  -6 -13  -6   40.90    1.96
  -6 -13  -6   42.43    1.81
 -13   6  -6   46.39    1.98
  13  -6   6   43.43    1.92
   6  13   6   41.55    2.11
  13  -6   6   45.92    1.87
  -7 -13  -6    2.00    0.55
  -7 -13  -6    2.20    0.66
 -13   7  -6    1.87    0.54
  13  -7  -6    1.39    0.58
  13  -7   6    2.24    0.59
  13  -7   6    1.69    0.50
   7  13   6    2.92    0.71
  13  -8  -6   34.03    1.78
 -13   8  -6   37.34    1.76
  -8 -13  -6   34.46    1.81
  -8 -13  -6   35.58    1.66
  13  -8   6   37.38    1.67
  13  -8   6   37.34    1.80
  13  -9  -6    0.28    0.61
  -9 -13  -6    1.21    0.55
  -9 -13  -6    0.56    0.58
 -13   9  -6    0.59    0.51
  13  -9   6   -0.14    0.45
  13  -9   6    0.44    0.57
  13 -10  -6   20.29    1.40
 -13  10  -6   19.66    1.25
 -10 -13  -6   18.63    1.26
 -10 -13  -6   18.46    1.40
  13 -10   6   19.41    1.35
 -13  11  -6    0.76    0.51
 -11 -13  -6    0.28    0.62
 -11 -13  -6    0.80    0.61
  13 -11  -6    0.63    0.70
  13 -11   6    0.51    0.62
 -12 -13  -6    2.85    0.73
 -13  12  -6    3.46    0.67
 -12 -13  -6    3.26    0.80
  13 -12  -6    2.94    0.86
  13 -12   6    2.35    0.73
  12  13   6    3.25    0.72
 -13  13  -6    0.72    0.55
 -13 -13  -6   -0.62    0.59
  13 -13  -6    1.15    0.82
 -13 -13  -6    0.86    0.72
  13  13   6    0.79    0.66
  13 -13   6    0.75    0.68
 -14 -13  -6   -0.46    0.67
  13 -14  -6    0.65    0.83
 -14 -13  -6    0.52    0.69
  13 -14   6    0.57    0.70
  14  13   6    0.61    0.65
 -14 -12  -6    0.22    0.70
  12 -14  -6    2.32    0.85
 -14 -12  -6    2.16    0.73
  14  12   6    1.65    0.70
  12 -14   6    1.30    0.71
 -14 -11  -6    0.39    0.63
 -14 -11  -6   -0.22    0.66
  11 -14  -6    0.73    0.73
  11 -14   6    0.96    0.66
  14  11   6    0.31    0.55
  14  11   6    0.96    0.70
  10 -14  -6    2.32    0.75
 -14 -10  -6    1.92    0.68
  10 -14  -6    1.13    0.64
 -14 -10  -6    1.25    0.71
  14  10   6   -0.63    0.58
  14  10   6    2.16    0.63
  10 -14   6    1.02    0.66
 -14  -9  -6    0.36    0.60
   9 -14  -6    0.10    0.56
 -14  -9  -6    0.31    0.64
   9 -14  -6    0.44    0.68
  14   9   6    0.13    0.56
  14   9   6    0.56    0.54
  14   9   6    0.40    0.50
   9 -14   6    0.17    0.60
   8 -14  -6    1.59    0.57
   8 -14  -6    1.31    0.65
 -14  -8  -6    2.41    0.65
 -14  -8  -6    2.13    0.68
  14   8   6    2.63    0.60
  14   8   6    1.51    0.60
   8 -14   6    1.89    0.66
  14   8   6    2.71    0.61
 -14  -7  -6   -0.03    0.51
 -14  -7  -6    0.37    0.61
   7 -14  -6   -0.13    0.62
   7 -14  -6    0.49    0.53
  14   7   6    0.36    0.50
  14   7   6    0.09    0.49
   7 -14   6    0.63    0.57
  14   7   6   -0.37    0.46
   6 -14  -6    0.86    0.62
   6 -14  -6    1.41    0.56
  14   6  -6    0.57    0.59
 -14  -6  -6    0.96    0.53
 -14  -6  -6    0.31    0.60
  14   6   6    1.02    0.52
  14   6   6    0.68    0.53
   6 -14   6    1.34    0.57
  14   6   6    0.44    0.45
 -14  -5  -6    1.03    0.62
 -14  -5  -6    0.63    0.52
   5 -14  -6    1.12    0.63
  14   5  -6    0.83    0.41
   5 -14  -6    0.67    0.51
   5 -14   6    0.98    0.55
  14   5   6    1.21    0.48
  14   5   6    1.30    0.52
  14   5   6    1.75    0.54
 -14  -4  -6    1.63    0.52
  14   4  -6    1.20    0.45
   4 -14  -6   -0.10    0.58
 -14  -4  -6    1.15    0.59
   4 -14  -6    0.79    0.54
  14   4   6    0.57    0.46
   4 -14   6    0.63    0.51
  14   4   6    1.26    0.50
  14   4   6    1.38    0.48
   3 -14  -6    0.65    0.54
  14   3  -6    0.62    0.41
 -14  -3  -6    0.79    0.55
   3 -14  -6    0.02    0.57
 -14  -3  -6    0.64    0.47
   3 -14   6    1.10    0.53
  14   3   6    1.47    0.50
  14   3   6   -0.17    0.40
  14   3   6    0.31    0.43
   2 -14  -6    1.41    0.56
  14   2  -6    0.74    0.42
   2 -14  -6    0.91    0.61
 -14  -2  -6    0.29    0.50
 -14  -2  -6    0.93    0.47
  14   2   6    0.38    0.39
  14   2   6    0.68    0.48
   2 -14   6    0.67    0.50
  14   2   6    1.47    0.46
 -14  -1  -6    0.23    0.43
   1 -14  -6    0.13    0.49
 -14  -1  -6    0.68    0.51
  14   1  -6    0.20    0.42
  14   1   6   -0.41    0.42
   1 -14   6    0.12    0.47
  14   1   6    0.45    0.40
  14   1   6    0.63    0.40
  14   0  -6    1.06    0.44
 -14   0  -6    1.66    0.58
   0 -14  -6    0.23    0.51
  14   0   6    0.80    0.49
  14   0   6    1.12    0.42
   0 -14   6    0.95    0.51
  14   0   6    0.83    0.41
  -1 -14  -6   20.48    1.29
  14  -1  -6   22.29    1.26
 -14   1  -6   20.46    1.30
  -1 -14   6   24.60    1.26
  14  -1   6   22.60    1.26
  14  -1   6   20.13    1.13
  14  -1   6   20.95    1.14
 -14   2  -6   -0.14    0.44
  -2 -14  -6    0.40    0.55
  14  -2  -6    0.17    0.43
  14  -2   6    0.51    0.41
  14  -2   6    0.19    0.45
  -2 -14   6    0.41    0.56
  -3 -14  -6    0.60    0.51
  14  -3  -6    0.08    0.48
 -14   3  -6    1.48    0.56
  14  -3   6    0.55    0.50
  14  -3   6    0.42    0.42
  -4 -14  -6    0.99    0.56
 -14   4  -6    1.14    0.50
  14  -4  -6    1.41    0.55
  14  -4   6    1.74    0.57
  14  -4   6    1.26    0.45
  -5 -14  -6    2.55    0.66
  -5 -14  -6    5.11    0.90
 -14   5  -6    4.64    0.74
  14  -5  -6    4.59    0.71
  14  -5   6    3.18    0.63
  14  -5   6    4.93    0.63
 -14   6  -6    0.85    0.50
  -6 -14  -6   -0.23    0.55
  -6 -14  -6    1.22    0.54
  14  -6  -6    0.16    0.58
  14  -6   6    0.68    0.43
  14  -6   6    1.11    0.56
  -7 -14  -6    2.57    0.64
  14  -7  -6    3.08    0.71
 -14   7  -6    2.48    0.64
  -7 -14  -6    2.18    0.66
  14  -7   6    2.22    0.65
  14  -7   6    3.29    0.60
 -14   8  -6    1.09    0.54
  14  -8  -6    0.58    0.59
  -8 -14  -6    1.14    0.59
  -8 -14  -6    1.20    0.62
  14  -8   6    0.58    0.57
  14  -8   6    0.60    0.48
  -9 -14  -6    0.37    0.57
  -9 -14  -6   -0.40    0.57
  14  -9  -6   -0.12    0.65
 -14   9  -6    1.19    0.56
  14  -9   6   -0.34    0.57
 -10 -14  -6    1.67    0.64
 -14  10  -6    1.31    0.57
  14 -10  -6    1.88    0.74
 -10 -14  -6    1.11    0.69
  14 -10   6    0.10    0.58
 -11 -14  -6    1.31    0.72
  14 -11  -6    1.66    0.77
 -14  11  -6    0.83    0.55
 -11 -14  -6    1.43    0.66
  14 -11   6    0.61    0.67
 -12 -14  -6    5.43    0.89
 -14  12  -6    3.90    0.74
  14 -12  -6    4.46    0.93
 -12 -14  -6    4.06    0.80
  12  14   6    3.64    0.77
  14 -12   6    5.04    0.88
  14 -13  -6    2.59    0.87
 -13 -14  -6    2.66    0.77
 -13 -14  -6    1.04    0.75
 -14  13  -6    0.72    0.60
  14 -13   6    1.29    0.71
  13  14   6    2.35    0.73
  12 -15  -6   11.40    1.24
 -15 -12  -6   11.85    1.21
 -15 -12  -6   13.77    1.24
  15  12   6   12.40    1.13
  12 -15   6   10.21    1.13
  11 -15  -6    1.27    0.83
 -15 -11  -6   -0.30    0.72
 -15 -11  -6   -0.11    0.67
  15  11   6    1.00    0.64
  11 -15   6    0.38    0.65
  10 -15  -6   17.72    1.26
 -15 -10  -6   19.05    1.48
  10 -15  -6   17.57    1.47
 -15 -10  -6   20.34    1.40
  15  10   6   18.73    1.56
  15  10   6   19.79    1.38
  10 -15   6   20.45    1.45
   9 -15  -6    0.37    0.55
 -15  -9  -6    1.11    0.69
 -15  -9  -6    1.81    0.69
   9 -15  -6    2.01    0.75
  15   9   6    1.16    0.60
   9 -15   6    0.72    0.66
  15   9   6    0.82    0.54
  15   9   6    2.02    0.72
   8 -15  -6   21.32    1.33
 -15  -8  -6   24.46    1.44
   8 -15  -6   18.77    1.49
 -15  -8  -6   20.37    1.47
  15   8   6   22.44    1.34
   8 -15   6   20.65    1.44
  15   8   6   20.54    1.46
  15   8   6   22.58    1.35
   7 -15  -6    1.33    0.72
 -15  -7  -6    1.01    0.68
   7 -15  -6    0.33    0.57
 -15  -7  -6    2.00    0.65
   7 -15   6    0.69    0.61
  15   7   6    1.52    0.57
  15   7   6    1.63    0.59
  15   7   6    0.77    0.56
 -15  -6  -6   21.21    1.48
   6 -15  -6   23.47    1.39
   6 -15  -6   24.21    1.54
 -15  -6  -6   24.31    1.39
  15   6  -6   24.43    1.59
  15   6   6   24.42    1.42
   6 -15   6   24.18    1.43
  15   6   6   22.13    1.35
  15   6   6   24.16    1.38
   5 -15  -6    1.04    0.59
   5 -15  -6    2.83    0.75
 -15  -5  -6    0.26    0.62
  15   5  -6    1.40    0.46
 -15  -5  -6    2.44    0.62
  15   5   6    0.86    0.54
   5 -15   6    1.22    0.59
  15   5   6    1.09    0.54
  15   5   6    1.44    0.53
  15   4  -6   14.71    1.00
   4 -15  -6   12.16    1.16
 -15  -4  -6   14.18    1.21
 -15  -4  -6   13.74    1.08
   4 -15  -6   13.66    1.09
  15   4   6   13.20    1.04
  15   4   6   13.59    1.07
   4 -15   6   14.04    1.09
  15   4   6   12.50    1.02
   3 -15  -6    0.37    0.54
 -15  -3  -6   -0.03    0.48
   3 -15  -6    0.32    0.65
  15   3  -6    0.68    0.44
 -15  -3  -6    0.12    0.54
  15   3   6    0.49    0.46
  15   3   6    0.88    0.46
  15   3   6    0.34    0.49
   3 -15   6    0.52    0.55
   2 -15  -6    6.17    0.81
 -15  -2  -6    5.88    0.74
  15   2  -6    5.49    0.69
 -15  -2  -6    5.04    0.80
  15   2   6    7.18    0.75
   2 -15   6    5.67    0.77
  15   2   6    7.13    0.81
  15   2   6    6.59    0.73
 -15  -1  -6    2.32    0.68
   1 -15  -6    1.77    0.61
  15   1  -6    2.18    0.56
 -15  -1  -6    2.26    0.57
  15   1   6    2.20    0.60
  15   1   6    2.11    0.49
  15   1   6    2.50    0.52
   1 -15   6    2.97    0.65
  15   0  -6    0.32    0.46
 -15   0  -6    0.03    0.52
   0 -15  -6   -0.25    0.54
   0 -15   6    0.49    0.53
  15   0   6    0.06    0.47
  15   0   6    0.96    0.43
  15   0   6   -0.40    0.40
 -15   1  -6   -0.05    0.49
  -1 -15  -6    0.84    0.58
  15  -1  -6    0.91    0.47
  15  -1   6    0.35    0.42
  15  -1   6    0.25    0.40
  15  -1   6    0.61    0.51
  -1 -15   6    0.64    0.54
  15  -2  -6   55.43    2.29
  -2 -15  -6   52.47    2.34
 -15   2  -6   57.42    2.38
  -2 -15   6   55.37    2.33
  15  -2   6   55.56    2.18
  15  -2   6   55.33    2.29
  -3 -15  -6    0.14    0.58
 -15   3  -6    0.61    0.50
  15  -3  -6    1.55    0.57
  15  -3   6    1.17    0.55
  15  -3   6    0.91    0.45
  15  -4  -6   34.01    1.70
  -4 -15  -6   32.57    1.73
 -15   4  -6   34.09    1.72
  15  -4   6   34.24    1.70
  15  -4   6   33.64    1.58
  -5 -15  -6    2.84    0.70
  15  -5  -6    2.54    0.65
 -15   5  -6    2.12    0.61
  15  -5   6    2.53    0.67
  -6 -15  -6   27.63    1.63
  15  -6  -6   28.08    1.63
  -6 -15  -6   28.18    1.68
 -15   6  -6   28.17    1.60
  15  -6   6   28.43    1.56
  -7 -15  -6    1.81    0.62
  15  -7  -6    1.15    0.64
  -7 -15  -6    1.44    0.66
 -15   7  -6    1.45    0.60
  15  -7   6    1.15    0.60
  -8 -15  -6   36.54    1.71
 -15   8  -6   35.05    1.80
  -8 -15  -6   34.94    1.82
  15  -8  -6   32.02    1.80
  15  -8   6   34.23    1.79
  15  -9  -6    2.03    0.76
  -9 -15  -6    3.47    0.74
  -9 -15  -6    2.03    0.69
 -15   9  -6    2.30    0.67
  15  -9   6    1.45    0.64
 -10 -15  -6    7.94    0.93
  15 -10  -6    8.03    1.01
 -10 -15  -6    6.64    0.96
 -15  10  -6    7.73    0.93
  15 -10   6    5.45    0.89
 -15  11  -6    0.76    0.58
  15 -11  -6    1.97    0.78
 -11 -15  -6    0.66    0.68
 -11 -15  -6    1.24    0.75
  15 -11   6    1.38    0.71
 -12 -15  -6    3.19    0.85
 -12 -15  -6    2.90    0.80
  15 -12  -6    3.51    0.92
 -15  12  -6    2.87    0.74
  15 -12   6    2.12    0.78
  12  15   6    2.96    0.77
 -16 -11  -6    0.78    0.79
 -16 -11  -6    0.37    0.74
  11 -16  -6    0.72    0.83
  11 -16   6    0.74    0.73
  16  11   6    1.97    0.73
  10 -16  -6    1.19    0.77
 -16 -10  -6    0.19    0.71
 -16 -10  -6    0.70    0.71
  16  10   6    0.22    0.58
  10 -16   6   -0.01    0.64
 -16  -9  -6    0.72    0.75
 -16  -9  -6   -0.05    0.66
   9 -16  -6   -0.02    0.61
   9 -16  -6    0.00    0.75
  16   9   6    0.72    0.73
  16   9   6    0.11    0.50
   9 -16   6   -0.07    0.66
  16   9   6   -0.33    0.56
 -16  -8  -6   -0.29    0.64
   8 -16  -6    0.94    0.63
   8 -16  -6    0.05    0.73
 -16  -8  -6    0.52    0.63
   8 -16   6    0.13    0.66
  16   8   6   -0.05    0.54
  16   8   6    0.77    0.67
  16   8   6    0.15    0.52
   7 -16  -6    0.70    0.62
   7 -16  -6    0.52    0.75
 -16  -7  -6   -0.07    0.61
 -16  -7  -6    0.20    0.66
   7 -16   6   -0.72    0.57
  16   7   6    0.13    0.54
  16   7   6    1.08    0.60
  16   7   6   -0.03    0.54
 -16  -6  -6   -0.76    0.56
 -16  -6  -6   -0.18    0.62
   6 -16  -6    0.44    0.57
   6 -16  -6   -0.61    0.66
  16   6  -6    0.23    0.48
   6 -16   6   -0.69    0.56
  16   6   6    1.19    0.59
  16   6   6   -0.14    0.47
  16   6   6   -0.72    0.47
   5 -16  -6    1.89    0.77
   5 -16  -6    1.68    0.65
 -16  -5  -6    2.19    0.69
 -16  -5  -6    2.58    0.73
  16   5  -6    2.11    0.54
   5 -16   6    2.06    0.69
  16   5   6    2.13    0.61
  16   5   6    2.21    0.57
  16   5   6    1.95    0.62
 -16  -4  -6   -0.44    0.59
   4 -16  -6   -0.11    0.71
   4 -16  -6    0.25    0.59
  16   4  -6    0.36    0.46
 -16  -4  -6    0.20    0.56
   4 -16   6    0.96    0.61
  16   4   6    0.17    0.52
  16   4   6    1.49    0.54
  16   4   6    0.11    0.46
  16   3  -6    2.01    0.55
   3 -16  -6    1.46    0.60
   3 -16  -6    0.96    0.73
 -16  -3  -6    1.47    0.63
 -16  -3  -6    1.15    0.65
  16   3   6    2.06    0.55
  16   3   6    1.73    0.54
   3 -16   6    1.56    0.64
  16   3   6    2.13    0.61
   2 -16  -6    2.59    0.68
 -16  -2  -6    4.14    0.70
 -16  -2  -6    3.43    0.76
  16   2  -6    2.73    0.58
  16   2   6    2.79    0.66
   2 -16   6    3.06    0.70
  16   2   6    3.76    0.61
  16   2   6    4.00    0.62
 -16  -1  -6    0.44    0.59
   1 -16  -6    0.14    0.55
  16   1  -6   -0.34    0.46
  16   1   6   -0.09    0.50
   1 -16   6    1.10    0.60
  16   1   6    0.00    0.42
  16   1   6    0.08    0.46
  16   0  -6    8.19    0.89
   0 -16  -6    8.58    0.97
 -16   0  -6    7.74    0.98
   0 -16   6    8.82    0.92
  16   0   6    9.34    0.84
  16   0   6   10.31    0.99
  16   0   6    8.37    0.79
  16  -1  -6    1.56    0.56
  -1 -16  -6    0.85    0.62
 -16   1  -6    1.00    0.62
  -1 -16   6    0.92    0.61
  16  -1   6    1.46    0.59
  16  -1   6    1.24    0.51
 -16   2  -6    4.64    0.76
  -2 -16  -6    4.05    0.79
  16  -2  -6    7.78    0.87
  16  -2   6    7.25    0.87
  -2 -16   6    5.99    0.81
  16  -3  -6    0.06    0.53
  -3 -16  -6   -0.04    0.60
 -16   3  -6   -0.06    0.51
  16  -3   6   -0.60    0.49
  -4 -16  -6   -0.72    0.57
  16  -4  -6    0.22    0.53
 -16   4  -6    0.51    0.55
  16  -4   6    0.58    0.55
 -16   5  -6    1.89    0.61
  -5 -16  -6    1.27    0.67
  16  -5  -6    1.80    0.68
  16  -5   6    1.96    0.65
  -6 -16  -6    0.28    0.63
 -16   6  -6    0.36    0.53
  16  -6  -6    1.10    0.67
  16  -6   6    0.80    0.60
  16  -7  -6    1.13    0.66
  -7 -16  -6    1.98    0.75
 -16   7  -6    1.15    0.63
  -7 -16  -6    1.13    0.68
  16  -7   6    1.12    0.64
  -8 -16  -6    0.55    0.63
  16  -8  -6    0.75    0.68
  -8 -16  -6    1.25    0.69
 -16   8  -6    1.13    0.64
  16  -8   6    0.88    0.66
  16  -9  -6    3.80    0.87
  -9 -16  -6    4.11    0.79
  -9 -16  -6    3.60    0.81
 -16   9  -6    3.51    0.77
  16  -9   6    3.56    0.78
  16 -10  -6   -0.62    0.67
 -10 -16  -6   -0.41    0.67
 -16  10  -6    1.23    0.66
 -10 -16  -6   -0.09    0.67
  16 -10   6   -0.17    0.60
 -11 -16  -6   -0.28    0.65
 -11 -16  -6    0.24    0.75
 -16  11  -6   -0.22    0.61
  16 -11  -6   -1.02    0.66
  16 -11   6    0.58    0.66
 -17 -10  -6    3.51    0.91
   9 -17  -6   -0.11    0.63
 -17  -9  -6   -0.09    0.70
 -17  -9  -6    1.82    0.77
   9 -17  -6    2.08    0.84
  17   9   6    0.94    0.70
  17   9   6    0.46    0.60
   9 -17   6    0.55    0.72
  17   9   6    0.54    0.58
   8 -17  -6   11.75    1.28
 -17  -8  -6   11.53    1.22
 -17  -8  -6   12.67    1.18
   8 -17  -6   14.22    1.20
   8 -17   6   11.77    1.20
  17   8   6   11.51    1.09
  17   8   6   12.39    1.24
  17   8   6   11.36    1.09
 -17  -7  -6    0.74    0.67
   7 -17  -6    0.96    0.67
 -17  -7  -6    0.34    0.70
   7 -17  -6    1.79    0.81
  17   7   6    0.94    0.65
  17   7   6    1.41    0.62
   7 -17   6    0.94    0.71
  17   7   6    1.20    0.59
   6 -17  -6   21.21    1.58
   6 -17  -6   22.14    1.44
 -17  -6  -6   19.97    1.52
 -17  -6  -6   21.70    1.46
  17   6  -6   22.38    1.40
  17   6   6   17.14    1.32
   6 -17   6   20.43    1.50
  17   6   6   19.71    1.33
  17   6   6   23.50    1.52
 -17  -5  -6    1.51    0.72
 -17  -5  -6    2.36    0.72
   5 -17  -6    2.65    0.86
   5 -17  -6    1.45    0.62
  17   5  -6    2.26    0.59
  17   5   6    1.85    0.61
  17   5   6    1.64    0.64
  17   5   6    1.54    0.57
   5 -17   6    2.94    0.76
   4 -17  -6    3.14    0.70
 -17  -4  -6    2.74    0.80
  17   4  -6    3.23    0.63
 -17  -4  -6    4.24    0.80
   4 -17  -6    3.33    0.89
  17   4   6    2.20    0.60
   4 -17   6    4.09    0.78
  17   4   6    3.04    0.67
  17   4   6    2.31    0.63
  17   3  -6    0.57    0.50
 -17  -3  -6    0.51    0.67
   3 -17  -6    0.74    0.59
 -17  -3  -6    1.73    0.67
  17   3   6    0.33    0.49
  17   3   6    0.73    0.56
   3 -17   6    0.98    0.66
   2 -17  -6    2.95    0.70
  17   2  -6    2.63    0.61
 -17  -2  -6    3.75    0.76
 -17  -2  -6    1.52    0.67
  17   2   6    2.81    0.66
  17   2   6    4.36    0.68
   2 -17   6    4.16    0.80
  17   1  -6   -0.59    0.46
   1 -17  -6   -0.08    0.59
 -17  -1  -6   -0.22    0.54
  17   1   6   -0.77    0.45
   1 -17   6   -0.13    0.58
  17   1   6    0.22    0.54
  17   0  -6    0.71    0.57
 -17   0  -6    0.82    0.60
   0 -17  -6    0.91    0.63
  17   0   6    1.86    0.64
   0 -17   6    1.53    0.66
  17   0   6    2.10    0.55
  17  -1  -6    0.22    0.53
 -17   1  -6    0.58    0.60
  -1 -17  -6   -0.18    0.58
  17  -1   6   -0.25    0.51
  -1 -17   6   -0.08    0.62
  17  -1   6   -0.26    0.57
 -17   2  -6   11.71    1.17
  17  -2  -6   11.84    1.10
  -2 -17  -6   10.12    1.03
  17  -2   6   10.43    1.03
  -2 -17   6   10.56    1.04
 -17   3  -6    1.22    0.64
  -3 -17  -6    1.20    0.66
  17  -3  -6    0.85    0.58
  -3 -17   6    1.22    0.97
  17  -3   6    0.91    0.57
  -4 -17  -6   11.77    1.12
  17  -4  -6   15.40    1.26
 -17   4  -6   16.60    1.28
  17  -4   6   15.96    1.24
  -5 -17  -6    1.53    0.69
  17  -5  -6    1.74    0.71
 -17   5  -6    1.88    0.64
  17  -5   6    2.33    0.67
 -17   6  -6   22.72    1.53
  -6 -17  -6   21.69    1.49
  17  -6  -6   20.90    1.48
  17  -6   6   20.91    1.44
 -17   7  -6    0.85    0.63
  -7 -17  -6    1.15    0.74
  17  -7  -6    0.98    0.67
  17  -7   6    1.00    0.67
  -8 -17  -6    7.52    1.00
  17  -8  -6    6.47    0.97
  -8 -17  -6    6.99    1.03
 -17   8  -6    5.12    0.86
  17  -8   6    6.89    0.94
  -9 -17  -6    0.49    0.72
  -9 -17  -6    0.28    0.65
 -17   9  -6    0.57    0.64
  17  -9  -6    0.24    0.73
  17  -9   6   -0.26    0.61
 -10 -17  -6    5.29    0.94
   8 -18  -6    0.48    0.68
 -18  -8  -6   -0.71    0.72
   7 -18  -6    0.49    0.68
 -18  -7  -6   -0.04    0.72
   7 -18  -6    0.20    0.80
 -18  -7  -6   -0.14    0.67
  18   7   6    0.14    0.55
  18   7   6    0.34    0.57
   7 -18   6   -0.93    0.65
  18   6  -6   -0.48    0.48
   6 -18  -6   -0.56    0.80
   6 -18  -6    0.54    0.64
 -18  -6  -6   -0.74    0.65
 -18  -6  -6    0.26    0.70
  18   6   6   -0.55    0.51
  18   6   6   -0.63    0.54
   6 -18   6   -0.25    0.66
   5 -18  -6    5.16    0.86
   5 -18  -6    5.16    1.02
 -18  -5  -6    4.41    0.92
  18   5  -6    6.17    0.79
 -18  -5  -6    4.76    0.89
  18   5   6    6.55    0.84
   5 -18   6    5.60    0.94
  18   5   6    5.36    0.82
  18   4  -6   -0.08    0.52
 -18  -4  -6    0.63    0.69
   4 -18  -6    0.14    0.79
 -18  -4  -6   -0.38    0.65
   4 -18  -6    0.81    0.63
   4 -18   6    0.62    0.68
  18   4   6    0.19    0.51
  18   4   6    0.56    0.54
   3 -18  -6    1.83    0.71
 -18  -3  -6    3.12    0.84
 -18  -3  -6    3.77    0.83
  18   3  -6    4.57    0.75
  18   3   6    3.63    0.74
  18   3   6    3.60    0.70
   3 -18   6    3.25    0.80
   2 -18  -6    0.84    0.63
  18   2  -6    0.94    0.58
 -18  -2  -6    1.54    0.72
 -18  -2  -6    1.19    0.72
   2 -18   6    1.25    0.72
  18   2   6    1.87    0.63
  18   2   6    1.50    0.62
  18   1  -6    8.39    0.96
 -18  -1  -6    9.09    1.12
   1 -18  -6    7.05    0.91
  18   1   6    8.83    0.91
  18   1   6    9.11    1.01
   1 -18   6    7.00    0.95
 -18   0  -6    3.44    0.79
   0 -18  -6    2.45    0.76
  18   0  -6    1.83    0.65
  18   0   6    1.54    0.63
  18   0   6    1.72    0.60
   0 -18   6    1.94    0.72
  18  -1  -6    5.65    0.82
  -1 -18  -6    6.93    0.94
 -18   1  -6    7.11    0.94
  -1 -18   6    6.59    0.92
  18  -1   6    6.35    0.90
  -2 -18  -6    1.23    0.67
  18  -2  -6    1.32    0.63
 -18   2  -6    1.91    0.69
  18  -2   6    0.59    0.59
  -2 -18   6    0.97    0.72
  18  -3  -6    0.76    0.64
  -3 -18  -6    1.85    0.73
 -18   3  -6    1.59    0.70
  18  -3   6    1.17    0.63
  -3 -18   6    1.29    0.97
  18  -4  -6    0.11    0.61
 -18   4  -6    0.43    0.64
  -4 -18  -6   -0.91    0.62
  18  -4   6   -0.44    0.53
 -18   5  -6    0.94    0.67
  18  -5  -6    0.75    0.69
  -5 -18  -6    0.54    0.64
  18  -5   6    0.61    0.61
 -18   6  -6    0.66    0.65
  -6 -18  -6    0.26    0.68
  18  -6  -6    0.46    0.71
  18  -6   6    1.11    0.66
  18  -7  -6    1.02    0.73
 -18   7  -6    0.47    0.62
  -7 -18  -6    0.16    0.69
  18  -7   6    1.80    0.73
 -18   8  -6    1.01    0.70
  -8 -18  -6    0.89    0.78
 -19  -5  -6    0.20    0.74
   5 -19  -6    0.68    0.68
  19   5   6    0.21    0.60
  19   4  -6    0.54    0.56
 -19  -4  -6    0.67    0.77
   4 -19  -6    0.20    0.65
 -19  -4  -6   -0.34    0.70
  19   4   6   -0.57    0.55
  19   4   6    0.67    0.61
   4 -19   6    0.27    0.72
 -19  -3  -6    0.14    0.70
   3 -19  -6    0.36    0.66
  19   3  -6    0.72    0.57
 -19  -3  -6   -0.95    0.66
   3 -19   6   -0.41    0.66
  19   3   6   -0.35    0.54
  19   3   6   -0.38    0.54
 -19  -2  -6    0.94    0.77
  19   2  -6    1.07    0.59
 -19  -2  -6   -0.75    0.64
   2 -19  -6    0.25    0.62
   2 -19   6    0.87    0.73
  19   2   6    0.76    0.60
  19   2   6    0.51    0.60
 -19  -1  -6    1.36    0.72
   1 -19  -6    0.17    0.65
  19   1  -6    0.85    0.62
  19   1   6    1.34    0.62
  19   1   6    0.45    0.59
   1 -19   6   -0.26    0.68
  19   0  -6    0.57    0.63
 -19   0  -6    1.48    0.75
   0 -19  -6    0.42    0.65
  19   0   6    0.76    0.58
   0 -19   6    0.58    0.72
  19   0   6    0.04    0.59
 -19   1  -6    0.42    0.65
  19  -1  -6    1.50    0.64
  -1 -19  -6    1.19    0.73
  -1 -19   6   -0.49    0.70
  19  -1   6    0.18    0.63
  -2 -19  -6    3.05    0.75
 -19   2  -6    3.73    0.86
  19  -2  -6    3.78    0.81
  19  -2   6    4.49    0.84
  -2 -19   6    2.34    0.83
  19  -3  -6    0.34    0.68
  -3 -19  -6    1.15    0.72
 -19   3  -6    0.97    0.69
  19  -3   6    1.14    0.68
  -3 -19   6    0.24    0.79
  -4 -19  -6    2.85    0.79
 -19   4  -6    3.19    0.83
  19  -4  -6    3.13    0.78
  19  -4   6    2.57    0.76
  -5 -19  -6    1.08    0.75
 -19   5  -6    1.73    0.74
  19  -5   6    0.78    0.65
   0   0  -7   -0.23    0.26
   0   0   7    0.16    0.30
   0  -1  -7   13.35    0.78
   0   1  -7   11.83    0.73
   1   0  -7   12.67    0.66
  -1   0  -7   12.08    0.76
   1   0  -7   12.71    0.74
   0  -1   7   10.64    0.79
   0   1   7   13.14    0.82
  -1   0   7   12.59    0.81
   1   0   7   11.57    0.81
   1  -1  -7   34.83    1.44
   1  -1  -7   35.92    1.36
  -1  -1  -7   35.41    1.46
   1   1  -7   37.62    1.42
  -1   1  -7   35.06    1.44
   1  -1   7   35.00    1.52
  -1   1   7   35.25    1.49
  -1  -1   7   35.39    1.51
   1   1   7   31.72    1.47
  -2  -1  -7    4.84    0.55
   2   1  -7    4.66    0.47
   1  -2  -7    4.42    0.45
   1  -2  -7    4.84    0.53
  -1   2  -7    5.36    0.52
  -1   2   7    5.30    0.55
  -2  -1   7    3.96    0.51
   2   1   7    3.53    0.49
   1  -2   7    4.76    0.57
   2   0  -7    0.70    0.25
   0   2  -7    0.79    0.29
   2   0  -7    0.70    0.30
  -2   0  -7    0.16    0.30
   0  -2  -7    0.30    0.31
   0  -2   7    0.02    0.30
   2   0   7    0.47    0.31
  -2   0   7    0.34    0.32
   0   2   7    0.85    0.33
   2  -1  -7    4.38    0.43
  -2   1  -7    3.83    0.49
  -1  -2  -7    4.81    0.55
   1   2  -7    4.22    0.44
   2  -1  -7    4.03    0.47
  -2   1   7    3.83    0.49
   1   2   7    4.58    0.55
  -1  -2   7    4.53    0.55
   2  -1   7    3.52    0.50
  -2   2  -7    0.29    0.28
   2  -2  -7    0.43    0.27
  -2  -2  -7    0.38    0.33
   2   2  -7    0.72    0.27
   2  -2  -7    0.54    0.30
  -2   2   7    0.23    0.29
  -2  -2   7    0.55    0.33
   2  -2   7    0.23    0.32
   2   2   7    0.57    0.34
  -2   3  -7   27.99    1.22
  -3  -2  -7   28.55    1.32
   2  -3  -7   28.15    1.22
   2  -3  -7   28.27    1.27
   3   2  -7   27.52    1.15
  -2   3   7   28.48    1.27
   3   2   7   29.89    1.32
   2  -3   7   29.93    1.36
  -3  -2   7   27.60    1.29
  -1   3  -7   10.52    0.66
   1  -3  -7   11.25    0.74
   1  -3  -7   10.15    0.69
   3   1  -7   10.24    0.92
   3   1  -7   10.64    0.64
  -3  -1  -7    9.22    0.72
  -1   3   7    9.53    0.72
  -3  -1   7    8.52    0.72
   3   1   7    9.43    0.74
  -3   0  -7   34.17    1.45
   0   3  -7   33.58    1.33
   3   0  -7   35.29    1.36
   0  -3  -7   31.42    1.41
   3   0  -7   34.45    1.31
   0   3   7   33.00    1.43
   3   0   7   31.86    1.45
  -3   0   7   32.47    1.42
  -1  -3  -7   12.00    0.83
   3  -1  -7   12.64    0.73
  -3   1  -7   14.06    0.83
   1   3  -7   13.20    0.71
   3  -1  -7   13.35    0.76
   3  -1   7   13.96    0.87
  -3   1   7   12.72    0.80
   1   3   7   12.42    0.82
  -3   2  -7   27.36    1.23
   3  -2  -7   27.23    1.18
   2   3  -7   28.06    1.12
  -2  -3  -7   25.73    1.26
   3  -2  -7   29.22    1.21
   2   3   7   26.79    1.26
   3  -2   7   26.10    1.28
  -3   2   7   27.34    1.24
   3  -3  -7    3.56    0.49
  -3   3  -7    3.95    0.49
  -3  -3  -7    2.75    0.49
   3  -3  -7    3.08    0.43
   3   3  -7    3.42    0.38
   3  -3   7    1.83    0.43
  -3   3   7    2.76    0.42
   3   3   7    2.51    0.44
   3  -4  -7    4.58    0.54
  -3   4  -7    5.57    0.55
  -4  -3  -7    4.26    0.57
   3  -4  -7    3.70    0.48
   4   3   7    4.70    0.53
  -3   4   7    5.20    0.52
   4   3   7    6.42    0.52
   2  -4  -7    3.91    0.51
   4   2  -7    3.87    0.41
   2  -4  -7    4.34    0.49
  -2   4  -7    4.48    0.48
  -4  -2  -7    3.08    0.50
   4   2   7    2.51    0.47
  -4  -2   7    3.77    0.49
   4   2   7    4.12    0.43
  -2   4   7    4.19    0.50
   4   1  -7    2.74    0.37
   1  -4  -7    2.66    0.41
  -1   4  -7    2.16    0.37
   4   1  -7    2.98    0.41
   1  -4  -7    2.90    0.47
  -4  -1  -7    2.67    0.48
   4   1   7    3.12    0.39
  -1   4   7    1.73    0.38
  -4  -1   7    2.46    0.43
   4   1   7    2.21    0.43
  -4   0  -7    0.16    0.32
   4   0  -7    0.29    0.26
   0  -4  -7    0.12    0.31
   4   0  -7    0.32    0.27
   0   4  -7    0.23    0.25
   4   0   7    0.39    0.31
   0   4   7   -0.46    0.27
   4   0   7    0.13    0.31
  -4   0   7    0.09    0.28
   4  -1  -7    9.93    0.67
   1   4  -7   10.12    0.63
  -4   1  -7   11.06    0.77
   4  -1  -7   10.63    0.67
  -1  -4  -7   11.06    0.81
   4  -1   7   10.43    0.77
   4  -1   7   10.12    0.74
   1   4   7   10.42    0.76
  -4   1   7   10.81    0.72
   4  -2  -7    1.41    0.35
  -4   2  -7    1.86    0.39
   4  -2  -7    1.31    0.34
  -2  -4  -7    1.02    0.40
   4  -2   7    1.51    0.40
   2   4   7    0.76    0.34
  -4   2   7    1.79    0.39
   4  -3  -7    2.68    0.42
   4  -3  -7    2.24    0.40
  -3  -4  -7    3.26    0.52
  -4   3  -7    3.14    0.45
   3   4   7    3.25    0.47
  -4   3   7    1.94    0.37
   3   4   7    3.87    0.52
   4  -3   7    1.52    0.41
   4  -4  -7   10.91    0.76
  -4   4  -7    9.99    0.71
   4  -4  -7   11.00    0.73
  -4  -4  -7   11.06    0.85
   4   4   7    9.41    0.74
   4  -4   7   11.56    0.85
   4   4   7   11.02    0.67
  -4   4   7   10.72    0.73
  -5  -4  -7   11.32    0.93
   4  -5  -7   11.94    0.83
  -4   5  -7   13.12    0.77
   4  -5  -7   11.87    0.79
   5   4   7   12.30    0.72
  -4   5   7   11.63    0.77
   5   4   7   10.98    0.81
  -5  -3  -7    1.64    0.44
  -3   5  -7    2.62    0.42
   3  -5  -7    2.46    0.45
   3  -5  -7    2.21    0.45
  -3   5   7    2.88    0.42
   5   3   7    3.07    0.43
   5   3   7    2.58    0.45
   5   2  -7   44.77    1.66
  -5  -2  -7   41.16    1.84
  -2   5  -7   45.80    1.73
   2  -5  -7   46.76    1.83
   2  -5  -7   47.42    1.81
  -2   5   7   49.47    1.81
   5   2   7   44.33    1.69
   5   2   7   44.35    1.83
   1  -5  -7    0.32    0.32
  -1   5  -7    0.84    0.29
   1  -5  -7    0.41    0.34
   5   1  -7    0.63    0.28
  -5  -1  -7    0.75    0.38
   5   1  -7    1.04    0.28
  -1   5   7    0.99    0.33
   5   1   7    0.83    0.30
  -5  -1   7    0.38    0.32
   5   1   7    1.02    0.37
  -5   0  -7   61.83    2.31
   5   0  -7   62.91    2.16
   5   0  -7   59.20    2.16
   0  -5  -7   60.22    2.31
  -5   0   7   63.40    2.26
   5   0   7   61.25    2.30
   0   5   7   56.56    2.23
   5   0   7   60.06    2.15
   5  -1  -7    3.60    0.44
  -1  -5  -7    4.65    0.58
   5  -1  -7    3.74    0.45
  -5   1  -7    4.63    0.57
   5  -1   7    3.75    0.53
  -5   1   7    4.07    0.49
   1   5   7    4.43    0.52
   5  -1   7    3.82    0.44
  -5   2  -7    9.14    0.74
   5  -2  -7    9.62    0.71
  -2  -5  -7   11.67    0.84
   5  -2  -7    9.49    0.67
   5  -2   7   10.54    0.82
   5  -2   7   10.04    0.65
  -5   2   7    9.63    0.69
   2   5   7   10.91    0.77
   5  -3  -7    6.17    0.57
  -5   3  -7    4.62    0.55
   5  -3  -7    6.49    0.61
  -3  -5  -7    5.45    0.63
   5  -3   7    7.67    0.71
   3   5   7    6.93    0.63
   5  -3   7    7.57    0.58
  -5   3   7    6.13    0.57
   3   5   7    7.59    0.57
   5  -4  -7    0.77    0.36
   5  -4  -7    0.16    0.30
  -5   4  -7    0.64    0.33
  -4  -5  -7    0.82    0.44
   4   5   7    0.13    0.34
   4   5   7    0.31    0.28
  -5   4   7    0.59    0.30
   5  -4   7    0.36    0.37
   5  -4   7    0.44    0.30
  -5   5  -7    0.01    0.30
   5  -5  -7    0.30    0.32
   5  -5  -7    0.29    0.35
  -5  -5  -7    0.13    0.41
   5  -5   7    0.07    0.30
   5   5   7   -0.02    0.30
  -5   5   7   -0.22    0.27
   5   5   7    0.16    0.33
  -6  -5  -7    8.26    0.84
  -5   6  -7    8.58    0.67
   5  -6  -7    6.27    0.67
   5  -6  -7    8.06    0.71
   5  -6   7    8.97    0.66
  -5   6   7    8.61    0.68
   6   5   7    8.77    0.70
   6   5   7    7.27    0.70
   4  -6  -7    4.99    0.58
  -4   6  -7    4.80    0.54
   4  -6  -7    4.48    0.58
  -6  -4  -7    4.34    0.61
  -4   6   7    4.01    0.50
   6   4   7    5.59    0.59
   6   4   7    7.80    0.62
  -3   6  -7   -0.01    0.27
   3  -6  -7   -0.15    0.34
   3  -6  -7    0.64    0.38
  -6  -3  -7    0.09    0.38
   6   3   7    0.70    0.36
  -3   6   7    0.36    0.31
   6   3   7    0.19    0.32
   2  -6  -7    0.52    0.37
  -6  -2  -7    0.35    0.37
   2  -6  -7    0.25    0.36
  -2   6  -7    0.93    0.33
   6   2   7    0.67    0.35
  -2   6   7    0.72    0.35
   6   2   7    1.08    0.34
   6   1  -7    0.21    0.27
  -6  -1  -7   -0.08    0.34
   6   1  -7    0.30    0.26
   1  -6  -7    0.13    0.33
   1  -6  -7   -0.01    0.35
  -6  -1   7    0.09    0.29
   6   1   7    0.32    0.29
  -1   6   7   -0.07    0.31
   6   1   7    0.21    0.34
   6   0  -7   -0.07    0.27
  -6   0  -7    0.16    0.35
   0  -6  -7    0.10    0.36
   6   0  -7    0.23    0.25
   6   0   7    0.15    0.28
   0   6   7   -0.06    0.31
  -6   0   7    0.29    0.30
   6   0   7    0.47    0.35
   6  -1  -7    0.44    0.31
  -1  -6  -7    0.90    0.43
   6  -1  -7    0.52    0.29
  -6   1  -7    0.47    0.36
   1   6   7    0.92    0.36
  -6   1   7    0.36    0.31
   6  -1   7    0.54    0.36
   6  -1   7    0.87    0.33
   6  -2  -7   13.17    0.83
   6  -2  -7   13.17    0.76
  -2  -6  -7   10.70    0.87
  -6   2  -7   14.15    0.87
   6  -2   7   13.49    0.90
  -6   2   7   13.20    0.81
   6  -2   7   14.08    0.75
   2   6   7   10.74    0.83
  -6   3  -7    4.16    0.55
  -3  -6  -7    3.87    0.59
   6  -3  -7    3.22    0.47
   6  -3  -7    4.43    0.51
   6  -3   7    3.98    0.47
   3   6   7    4.30    0.53
   6  -3   7    4.26    0.56
  -6   3   7    3.27    0.45
   3   6   7    4.96    0.49
   6  -4  -7    7.77    0.69
  -6   4  -7    8.41    0.74
   6  -4  -7    7.32    0.65
  -4  -6  -7    8.66    0.80
   6  -4   7    8.53    0.66
   4   6   7    8.44    0.62
   4   6   7    7.30    0.68
   6  -4   7    7.22    0.72
  -6   4   7    7.58    0.62
  -5  -6  -7    1.27    0.47
  -6   5  -7    2.10    0.41
   6  -5  -7    1.35    0.42
   6  -5  -7    1.61    0.41
   5   6   7    1.90    0.40
   5   6   7    1.71    0.43
  -6   5   7    1.24    0.35
   6  -5   7    1.41    0.39
   6  -5   7    0.70    0.41
  -6  -6  -7   51.42    2.15
  -6   6  -7   51.46    2.00
   6  -6  -7   51.83    2.07
   6  -6  -7   53.06    2.01
   6   6   7   48.39    1.94
   6   6   7   49.41    2.05
   6  -6   7   53.02    1.97
  -6   6   7   53.15    1.97
   6  -7  -7    0.57    0.41
  -7  -6  -7    0.56    0.45
  -6   7  -7    0.64    0.33
   6  -7  -7    0.57    0.38
   7   6   7    0.30    0.41
   6  -7   7    0.50    0.38
  -6   7   7    0.22    0.35
   7   6   7    0.58    0.37
   5  -7  -7   -0.03    0.37
  -5   7  -7    0.55    0.31
  -7  -5  -7    0.29    0.45
   5  -7  -7    0.33    0.39
  -5   7   7    0.82    0.37
   7   5   7    0.47    0.40
   7   5   7    0.10    0.33
   5  -7   7    0.23    0.35
  -7  -4  -7   44.63    2.00
  -4   7  -7   48.66    1.84
   4  -7  -7   49.23    1.95
   4  -7  -7   48.26    1.96
  -4   7   7   49.11    1.92
   7   4   7   50.26    1.96
   7   4   7   45.95    1.84
   4  -7   7   49.74    2.09
   3  -7  -7   -0.04    0.38
  -7  -3  -7    0.55    0.43
   3  -7  -7   -0.48    0.35
  -3   7   7    0.14    0.33
   7   3   7   -0.04    0.33
   7   3   7    0.24    0.34
   2  -7  -7   45.93    1.91
  -7  -2  -7   49.09    2.00
   2  -7  -7   45.39    1.92
   7   2   7   49.86    1.84
   7   2   7   50.76    1.80
   7   2   7   48.82    1.93
  -2   7   7   43.65    1.88
   1  -7  -7    5.09    0.61
   1  -7  -7    5.77    0.65
   7   1  -7    6.00    0.50
   7   1  -7    6.39    0.55
  -7  -1  -7    5.45    0.67
   7   1   7    5.66    0.50
   7   1   7    5.04    0.61
  -1   7   7    5.44    0.61
   7   1   7    5.68    0.57
  -7  -1   7    4.76    0.54
   7   0  -7   59.88    2.11
  -7   0  -7   58.53    2.26
   0  -7  -7   57.01    2.24
   7   0  -7   56.32    2.03
   7   0   7   58.91    2.24
   0   7   7   53.96    2.19
  -7   0   7   54.43    2.11
   7   0   7   57.59    2.11
  -7   1  -7    0.38    0.37
   7  -1  -7   -0.18    0.27
   7  -1  -7    0.30    0.30
  -1  -7  -7    0.23    0.40
  -7   1   7    0.29    0.30
   1   7   7   -0.04    0.34
   7  -1   7    0.37    0.38
   7  -1   7   -0.23    0.30
   7  -2  -7   41.81    1.70
  -2  -7  -7   40.21    1.81
  -7   2  -7   42.25    1.78
   7  -2  -7   45.24    1.66
   2   7   7   43.62    1.80
  -7   2   7   41.21    1.66
   7  -2   7   39.56    1.77
   7  -2   7   44.59    1.68
   7  -3  -7    2.09    0.43
  -3  -7  -7    1.19    0.44
   7  -3  -7    2.21    0.43
  -7   3  -7    1.77    0.46
   7  -3   7    1.98    0.42
   3   7   7    1.64    0.35
   3   7   7    1.10    0.42
  -7   3   7    2.25    0.39
   7  -3   7    2.16    0.46
  -4  -7  -7   30.80    1.49
  -7   4  -7   26.30    1.35
   7  -4  -7   29.43    1.38
   7  -4  -7   29.24    1.31
   4   7   7   31.50    1.27
   7  -4   7   28.87    1.30
   7  -4   7   28.29    1.40
   4   7   7   31.44    1.45
  -7   4   7   30.02    1.27
   7  -5  -7    1.27    0.42
   7  -5  -7    0.40    0.39
  -7   5  -7    0.99    0.38
  -5  -7  -7    0.59    0.47
  -7   5   7    0.86    0.33
   7  -5   7    0.69    0.40
   7  -5   7    0.75    0.36
   5   7   7    1.02    0.37
   5   7   7    0.24    0.40
   7  -6  -7    0.30    0.38
   7  -6  -7    1.67    0.49
  -6  -7  -7    0.93    0.50
  -7   6  -7    0.76    0.36
   6   7   7    0.77    0.37
   7  -6   7    1.64    0.41
   6   7   7    0.38    0.42
  -7   6   7    1.60    0.40
  -7  -7  -7    0.46    0.48
   7  -7  -7    0.62    0.42
  -7   7  -7    0.60    0.37
   7  -7  -7    0.92    0.47
  -7   7   7    0.01    0.34
   7  -7   7    0.83    0.41
   7   7   7    0.46    0.36
   7   7   7    0.41    0.42
   7  -8  -7    0.42    0.44
  -7   8  -7    0.36    0.34
  -8  -7  -7    0.48    0.51
   7  -8  -7    1.25    0.49
   8   7   7    0.16    0.42
  -7   8   7   -0.25    0.33
   7  -8   7    0.14    0.39
   8   7   7   -0.05    0.36
   6  -8  -7   37.25    1.62
  -6   8  -7   34.73    1.53
  -8  -6  -7   36.70    1.74
   6  -8  -7   37.20    1.68
  -6   8   7   34.96    1.57
   6  -8   7   36.53    1.56
   8   6   7   36.68    1.68
   8   6   7   38.07    1.58
   5  -8  -7    0.82    0.45
  -8  -5  -7    0.31    0.42
   5  -8  -7    0.20    0.36
   8   5   7    0.01    0.34
  -5   8   7    0.41    0.36
   8   5   7    0.44    0.39
   5  -8   7    0.64    0.39
   4  -8  -7    3.31    0.54
   4  -8  -7    2.16    0.52
  -8  -4  -7    2.61    0.60
  -4   8   7    3.51    0.53
   8   4   7    2.36    0.48
   4  -8   7    2.78    0.61
   8   4   7    3.17    0.49
   3  -8  -7    0.03    0.41
  -8  -3  -7   -0.25    0.39
   3  -8  -7    0.10    0.39
   8   3   7   -0.23    0.33
  -3   8   7    0.25    0.35
   8   3   7   -0.21    0.33
   8   3   7   -0.36    0.26
  -8  -2  -7   14.87    1.00
   2  -8  -7   13.35    0.94
   2  -8  -7   13.16    0.97
   8   2  -7   14.75    1.02
  -2   8   7   14.83    0.95
   8   2   7   12.68    0.90
   8   2   7   13.83    0.85
   8   2   7   13.30    0.80
   1  -8  -7    0.83    0.42
   8   1  -7    1.49    0.37
  -8  -1  -7    1.48    0.45
   1  -8  -7    0.97    0.47
   8   1   7    1.02    0.40
   8   1   7    1.09    0.33
   8   1   7    1.40    0.39
  -8  -1   7    1.20    0.36
  -1   8   7    1.06    0.41
   8   0  -7    7.97    0.58
  -8   0  -7    9.71    0.85
   8   0  -7    7.34    0.63
   0  -8  -7    4.30    0.61
  -8   0   7    7.35    0.63
   8   0   7    7.75    0.67
   0   8   7    4.78    0.62
   8   0   7    6.85    0.69
  -8   1  -7    3.84    0.60
   8  -1  -7    2.81    0.41
  -1  -8  -7    3.48    0.61
   8  -1  -7    3.97    0.53
   1   8   7    4.57    0.61
  -8   1   7    2.39    0.41
   8  -1   7    2.74    0.50
   8  -1   7    2.75    0.47
  -8   2  -7    0.59    0.40
   8  -2  -7    1.20    0.38
   8  -2  -7    0.50    0.33
  -2  -8  -7    0.30    0.42
   2   8   7    0.67    0.42
   8  -2   7    0.64    0.38
   8  -2   7    1.02    0.39
  -8   2   7    0.45    0.31
   8  -3  -7    4.09    0.53
   8  -3  -7    4.07    0.51
  -8   3  -7    3.17    0.53
  -3  -8  -7    2.86    0.55
   3   8   7    2.70    0.54
   8  -3   7    2.69    0.53
  -8   3   7    3.60    0.45
   8  -3   7    3.43    0.49
   8  -4  -7    3.49    0.54
  -8   4  -7    5.13    0.61
  -4  -8  -7    4.00    0.66
   8  -4  -7    4.55    0.54
   4   8   7    3.47    0.60
   8  -4   7    3.74    0.58
  -8   4   7    4.12    0.47
   8  -4   7    5.25    0.59
  -8   5  -7    5.30    0.64
  -5  -8  -7    3.74    0.64
   8  -5  -7    4.39    0.61
   8  -5  -7    4.78    0.58
   8  -5   7    5.12    0.64
   8  -5   7    6.54    0.65
   5   8   7    5.50    0.69
   5   8   7    5.37    0.59
   8  -6  -7    9.39    0.85
  -6  -8  -7   12.58    1.00
   8  -6  -7   10.91    0.84
  -8   6  -7   11.97    0.85
   8  -6   7   10.45    0.82
   6   8   7   11.61    0.94
   8  -6   7   12.22    0.95
   6   8   7   10.91    0.79
  -8   7  -7    4.58    0.61
  -7  -8  -7    4.94    0.71
   8  -7  -7    5.64    0.71
   8  -7  -7    4.38    0.60
   8  -7   7    5.52    0.65
   7   8   7    5.22    0.60
   7   8   7    5.05    0.68
   8  -8  -7   10.30    0.87
  -8  -8  -7    9.45    0.95
   8  -8  -7    8.95    0.87
  -8   8  -7    8.77    0.80
   8   8   7    8.51    0.87
   8  -8   7   10.28    0.85
   8   8   7    9.60    0.82
   8  -9  -7    0.97    0.47
  -9  -8  -7    0.44    0.54
   8  -9  -7   -0.29    0.50
  -8   9  -7    1.11    0.43
   9   8   7    0.88    0.50
   8  -9   7    0.79    0.46
   9   8   7    1.47    0.47
  -9  -7  -7    1.93    0.58
   7  -9  -7    4.38    0.63
  -7   9  -7    4.79    0.77
   7  -9  -7    3.99    0.66
   9   7   7    3.68    0.57
   9   7   7    2.73    0.59
   7  -9   7    3.28    0.58
   6  -9  -7    3.16    0.58
   6  -9  -7    4.49    0.68
  -9  -6  -7    2.59    0.63
   9   6   7    3.38    0.56
   9   6   7    3.10    0.58
  -6   9   7    2.79    0.52
   6  -9   7    3.38    0.55
   5  -9  -7    0.07    0.43
   5  -9  -7    0.74    0.48
  -9  -5  -7   -0.14    0.43
   9   5   7    0.19    0.38
   5  -9   7   -0.50    0.37
  -5   9   7    0.32    0.38
   9   5   7    0.42    0.40
   9   5   7    0.41    0.36
   4  -9  -7    9.55    0.84
   4  -9  -7   11.60    0.95
  -9  -4  -7   11.40    1.02
   4  -9   7   11.57    0.90
   9   4   7    9.62    0.78
   9   4   7   10.22    0.83
   9   4   7   12.19    0.79
  -4   9   7   11.40    0.90
   3  -9  -7    0.04    0.38
   3  -9  -7    0.37    0.45
  -9  -3  -7   -0.14    0.39
   9   3   7    0.54    0.38
   9   3   7   -0.13    0.35
   9   3   7    0.41    0.34
  -3   9   7    0.19    0.39
   9   2  -7   16.38    0.93
   2  -9  -7   15.45    1.02
   2  -9  -7   16.43    1.08
  -9  -2  -7   16.61    1.09
   9   2   7   15.86    0.93
  -2   9   7   17.17    1.05
   9   2   7   13.41    0.94
   9   2   7   15.26    0.88
  -9  -2   7   15.84    0.93
  -9  -1  -7    0.76    0.44
   1  -9  -7    0.71    0.46
   9   1  -7    0.56    0.34
   1  -9  -7    0.02    0.42
   9   1   7    0.62    0.29
  -9  -1   7    0.66    0.35
   9   1   7    0.81    0.38
   9   1   7    0.56    0.38
  -1   9   7    0.23    0.41
  -9   0  -7    2.45    0.55
   9   0  -7    1.87    0.42
   0  -9  -7    1.55    0.50
   9   0  -7    2.12    0.41
   9   0   7    2.41    0.50
   9   0   7    2.19    0.45
   0   9   7    2.20    0.52
  -9   0   7    1.64    0.39
  -1  -9  -7    8.06    0.81
   9  -1  -7   11.49    0.82
  -9   1  -7   10.59    0.92
   9  -1  -7    9.88    0.67
   1   9   7    9.12    0.85
   9  -1   7   10.76    0.87
   9  -1   7   11.37    0.78
  -9   2  -7   20.21    1.19
   9  -2  -7   21.69    1.04
   9  -2  -7   23.37    1.16
  -2  -9  -7   23.01    1.26
   9  -2   7   23.42    1.21
   2   9   7   21.67    1.26
   9  -2   7   21.68    1.12
  -3  -9  -7    0.61    0.45
  -9   3  -7    0.10    0.38
   9  -3  -7    0.61    0.39
   9  -3  -7    0.60    0.35
   9  -3   7    0.30    0.36
   3   9   7   -0.02    0.41
   9  -3   7    0.96    0.41
  -4  -9  -7    0.73    0.49
   9  -4  -7    0.25    0.39
  -9   4  -7    0.87    0.42
   9  -4  -7    0.49    0.36
   4   9   7    0.34    0.43
   9  -4   7    1.21    0.44
   9  -4   7    0.52    0.40
   9  -5  -7    0.07    0.41
   9  -5  -7    0.11    0.38
  -9   5  -7   -0.03    0.35
  -5  -9  -7   -0.47    0.46
   9  -5   7   -0.01    0.38
   5   9   7   -0.23    0.39
   9  -5   7    0.24    0.40
   9  -6  -7    1.08    0.48
  -6  -9  -7    0.95    0.52
   9  -6  -7    0.62    0.39
  -9   6  -7    1.29    0.45
   9  -6   7    0.85    0.45
   6   9   7    0.44    0.48
   9  -6   7    0.63    0.41
   9  -7  -7    2.94    0.53
  -9   7  -7    4.45    0.61
  -7  -9  -7    3.07    0.68
   9  -7  -7    2.95    0.62
   9  -7   7    3.91    0.59
   7   9   7    3.67    0.66
  -8  -9  -7    0.58    0.55
  -9   8  -7    0.32    0.38
   9  -8  -7    0.42    0.51
   9  -8  -7   -0.15    0.41
   9  -8   7    0.20    0.45
   8   9   7   -0.26    0.46
   8   9   7    0.17    0.41
  -9   9  -7    2.66    0.55
   9  -9  -7    2.24    0.55
  -9  -9  -7    4.06    0.76
   9  -9  -7    2.10    0.64
   9   9   7    2.43    0.63
   9   9   7    2.03    0.52
   9  -9   7    3.25    0.63
   9 -10  -7   12.25    0.99
 -10  -9  -7    7.98    0.96
   9 -10  -7   10.13    1.02
  -9  10  -7   13.48    1.12
   9 -10   7   11.32    0.96
  10   9   7   11.45    0.96
  10   9   7    8.46    0.99
   8 -10  -7    7.54    0.89
 -10  -8  -7    7.41    0.92
   8 -10  -7    6.45    0.72
  10   8   7    8.24    0.91
  10   8   7    8.32    0.82
  10   8   7    6.57    0.74
   8 -10   7    8.17    0.83
   7 -10  -7    6.34    0.74
 -10  -7  -7    4.33    0.78
   7 -10  -7    5.48    0.77
  10   7   7    4.03    0.61
  10   7   7    4.39    0.68
   7 -10   7    4.76    0.66
  10   7   7    5.96    0.71
   6 -10  -7    1.96    0.60
   6 -10  -7    2.25    0.53
 -10  -6  -7    1.78    0.57
  -6  10   7    1.63    0.51
   6 -10   7    2.02    0.52
  10   6   7    0.84    0.41
  10   6   7    1.08    0.45
  10   6   7    2.38    0.54
   5 -10  -7    1.34    0.52
   5 -10  -7    0.89    0.54
 -10  -5  -7    0.59    0.54
  10   5   7    0.75    0.43
  10   5   7    1.53    0.44
   5 -10   7    1.04    0.47
  -5  10   7    0.69    0.44
  10   5   7    0.20    0.43
 -10  -4  -7    0.52    0.47
   4 -10  -7   -0.32    0.46
   4 -10  -7   -0.14    0.40
  10   4   7    0.30    0.38
  10   4   7    0.20    0.38
   4 -10   7    0.05    0.41
  10   4   7   -0.38    0.34
  -4  10   7   -0.14    0.39
 -10  -3  -7   18.12    1.19
   3 -10  -7   16.86    1.12
   3 -10  -7   16.45    1.09
  10   3   7   17.53    1.02
  10   3   7   17.33    0.96
  10   3   7   17.50    1.06
  -3  10   7   17.28    1.13
 -10  -2  -7    0.67    0.46
   2 -10  -7    0.39    0.44
   2 -10  -7   -0.02    0.42
  10   2  -7    0.04    0.34
  10   2   7    0.65    0.40
  10   2   7    0.25    0.37
  -2  10   7    0.28    0.41
  10   2   7    0.45    0.33
   1 -10  -7   -0.50    0.42
  10   1  -7   -0.49    0.31
   1 -10  -7   -0.32    0.40
 -10  -1  -7    0.77    0.49
  10   1   7   -0.05    0.29
  10   1   7    0.14    0.36
  -1  10   7    0.31    0.41
  10   1   7    0.43    0.38
   0 -10  -7    1.66    0.54
  10   0  -7    0.58    0.37
 -10   0  -7    0.59    0.45
  10   0   7    0.45    0.37
  10   0   7    0.99    0.40
   0  10   7    0.81    0.45
  10  -1  -7   -0.12    0.28
 -10   1  -7   -0.20    0.41
  10  -1  -7    0.46    0.37
  -1 -10  -7    0.23    0.48
  10  -1   7    0.13    0.38
  10  -1   7    0.08    0.36
   1  10   7    0.19    0.41
  -2 -10  -7    0.49    0.48
 -10   2  -7    0.92    0.47
  10  -2  -7    1.07    0.36
  10  -2  -7    1.25    0.42
  10  -2   7    0.63    0.42
  10  -2   7    0.83    0.42
   2  10   7    0.67    0.45
  10  -3  -7    4.27    0.58
  10  -3  -7    4.28    0.53
  -3 -10  -7    2.82    0.60
 -10   3  -7    5.50    0.71
   3  10   7    2.86    0.61
  10  -3   7    4.62    0.62
  10  -3   7    4.90    0.63
 -10   4  -7    3.29    0.62
  10  -4  -7    2.96    0.48
  10  -4  -7    4.76    0.64
  -4 -10  -7    4.65    0.71
   4  10   7    2.84    0.61
  10  -4   7    3.86    0.61
  10  -4   7    4.17    0.59
 -10   5  -7    8.44    0.82
  10  -5  -7    7.99    0.81
  10  -5  -7    8.27    0.70
  -5 -10  -7    8.13    0.91
  10  -5   7    8.36    0.81
   5  10   7    8.53    0.88
  10  -5   7    7.50    0.76
  -6 -10  -7   13.78    1.16
 -10   6  -7   12.74    0.96
  10  -6  -7   13.89    1.06
  10  -6  -7   11.97    0.89
  10  -6   7   11.47    0.91
  10  -6   7   13.24    1.01
   6  10   7   13.46    1.11
  -7 -10  -7    4.87    0.73
  10  -7  -7    5.22    0.73
 -10   7  -7    6.65    0.75
  10  -7  -7    4.95    0.62
  10  -7   7    5.74    0.70
   7  10   7    4.13    0.74
  10  -7   7    4.12    0.64
 -10   8  -7   10.54    0.92
  10  -8  -7    9.28    0.93
  10  -8  -7    7.42    0.76
  -8 -10  -7    9.94    0.98
  10  -8   7   10.20    0.90
   8  10   7    9.48    0.98
  -9 -10  -7    0.80    0.58
 -10   9  -7    1.00    0.47
  10  -9  -7    0.97    0.50
  10  -9  -7    1.18    0.60
   9  10   7    0.53    0.55
  10  -9   7    0.96    0.52
 -10  10  -7    0.85    0.49
 -10 -10  -7    0.71    0.65
  10 -10  -7    1.19    0.54
  10 -10  -7    0.92    0.64
  10  10   7    2.43    0.69
  10 -10   7    1.11    0.56
 -11 -10  -7    0.10    0.63
  10 -11  -7    0.94    0.67
  10 -11  -7    0.80    0.56
  11  10   7    1.03    0.64
  10 -11   7   -0.07    0.54
  11  10   7    0.80    0.55
   9 -11  -7   -0.23    0.48
   9 -11  -7    0.52    0.61
 -11  -9  -7   -0.16    0.57
  11   9   7    0.68    0.55
  11   9   7    0.07    0.45
   9 -11   7   -0.80    0.48
  11   9   7    0.04    0.49
   8 -11  -7    0.59    0.58
   8 -11  -7    0.47    0.48
 -11  -8  -7   -0.13    0.52
  11   8   7    0.06    0.42
  11   8   7    0.02    0.50
   8 -11   7    0.52    0.50
  11   8   7   -0.12    0.43
 -11  -7  -7    5.24    0.83
   7 -11  -7    5.65    0.82
   7 -11  -7    4.67    0.69
  11   7   7    5.37    0.68
  11   7   7    7.42    0.80
   7 -11   7    6.21    0.73
  11   7   7    5.11    0.76
 -11  -6  -7    1.56    0.59
   6 -11  -7    1.14    0.62
   6 -11  -7    1.04    0.53
  11   6   7    0.58    0.49
  11   6   7    1.22    0.47
  -6  11   7    1.47    0.51
   6 -11   7    0.64    0.48
  11   6   7    1.48    0.49
   5 -11  -7    4.57    0.68
 -11  -5  -7    2.30    0.66
   5 -11  -7    3.49    0.70
   5 -11   7    4.14    0.62
  11   5   7    2.93    0.59
  11   5   7    3.22    0.54
  11   5   7    3.21    0.58
  -5  11   7    4.28    0.67
 -11  -4  -7    5.28    0.78
   4 -11  -7    3.60    0.64
   4 -11  -7    4.20    0.72
   4 -11   7    4.46    0.62
  11   4   7    4.95    0.66
  -4  11   7    3.81    0.65
  11   4   7    4.69    0.64
  11   4   7    6.54    0.65
 -11  -3  -7    9.29    0.94
   3 -11  -7   10.51    0.98
   3 -11  -7    6.64    0.75
  11   3   7    8.35    0.83
  11   3   7   10.52    0.83
  -3  11   7    7.72    0.84
  11   3   7    9.37    0.73
 -11  -2  -7    5.81    0.75
  11   2  -7    6.50    0.63
   2 -11  -7    5.28    0.71
   2 -11  -7    4.84    0.71
  11   2   7    5.47    0.58
  -2  11   7    4.78    0.74
  11   2   7    6.33    0.73
  11   2   7    6.61    0.71
  11   1  -7    3.48    0.54
   1 -11  -7    5.61    0.74
 -11  -1  -7    3.64    0.67
  11   1   7    5.15    0.64
  11   1   7    4.57    0.55
  11   1   7    3.33    0.56
  -1  11   7    5.34    0.73
 -11   0  -7   25.35    1.40
  11   0  -7   25.32    1.25
   0 -11  -7   24.04    1.35
   0  11   7   23.48    1.40
  11   0   7   23.66    1.26
  11   0   7   25.06    1.29
  11  -1  -7    0.70    0.41
  -1 -11  -7    1.03    0.51
 -11   1  -7    0.74    0.47
   1  11   7    0.38    0.48
  11  -1   7    0.27    0.41
  11  -1   7    0.97    0.44
  -2 -11  -7   17.70    1.17
 -11   2  -7   19.13    1.17
  11  -2  -7   15.35    1.03
  11  -2   7   16.07    1.08
   2  11   7   20.10    1.28
  11  -2   7   18.37    1.09
 -11   3  -7    8.63    0.89
  11  -3  -7   10.20    0.84
  -3 -11  -7    6.41    0.80
   3  11   7    6.18    0.82
  11  -3   7    8.05    0.77
  11  -3   7    7.04    0.75
  11  -4  -7    0.32    0.45
  -4 -11  -7    0.19    0.52
 -11   4  -7    0.36    0.46
  11  -4   7    0.33    0.43
   4  11   7    0.33    0.51
  11  -4   7    0.40    0.43
  11  -5  -7    1.53    0.45
  -5 -11  -7    1.63    0.62
 -11   5  -7    0.99    0.49
  11  -5  -7    1.89    0.55
  11  -5   7    0.18    0.44
  11  -5   7    1.70    0.49
   5  11   7    1.27    0.58
  -6 -11  -7    0.37    0.52
 -11   6  -7    0.49    0.45
  11  -6  -7   -0.14    0.46
  11  -6  -7    0.76    0.42
   6  11   7    0.28    0.53
  11  -6   7    0.66    0.47
  11  -6   7    0.31    0.44
  -7 -11  -7    0.79    0.61
  11  -7  -7    0.03    0.40
  11  -7  -7    0.59    0.54
 -11   7  -7    0.78    0.49
  11  -7   7    0.20    0.46
   7  11   7   -0.44    0.49
  11  -7   7    0.03    0.45
  11  -8  -7    0.41    0.45
  -8 -11  -7    0.27    0.61
 -11   8  -7    0.44    0.46
  11  -8  -7    0.41    0.55
  11  -8   7    0.27    0.48
   8  11   7   -0.25    0.52
  11  -8   7   -0.02    0.47
  -9 -11  -7    1.68    0.68
  11  -9  -7    2.07    0.68
 -11   9  -7    1.73    0.54
  11  -9  -7    1.42    0.53
   9  11   7    1.08    0.62
  11  -9   7    1.04    0.56
 -11  10  -7    3.77    0.66
 -10 -11  -7    2.91    0.75
  11 -10  -7    3.57    0.65
  11 -10  -7    4.37    0.82
  10  11   7    2.83    0.75
  11 -10   7    3.42    0.69
 -11  11  -7    0.51    0.56
  11 -11  -7    0.92    0.54
 -11 -11  -7    0.41    0.62
  11 -11  -7    0.95    0.69
  11  11   7    0.71    0.62
  11  11   7    0.86    0.55
  11 -11   7    0.25    0.58
 -12 -11  -7    8.84    1.03
  11 -12  -7    7.77    1.04
  11 -12  -7   10.31    0.97
  12  11   7    8.85    1.10
  12  11   7    8.94    0.96
  11 -12   7   10.32    1.04
 -12 -10  -7    0.93    0.68
  10 -12  -7    0.43    0.69
  10 -12  -7    1.00    0.56
  10 -12   7    1.48    0.62
  12  10   7    0.27    0.62
  12  10   7    1.50    0.59
   9 -12  -7   18.76    1.45
   9 -12  -7   19.97    1.28
 -12  -9  -7   17.59    1.40
  12   9   7   15.68    1.16
   9 -12   7   18.26    1.26
  12   9   7   21.24    1.45
  12   9   7   22.06    1.33
   8 -12  -7    0.99    0.55
   8 -12  -7    0.73    0.64
 -12  -8  -7   -0.03    0.56
  12   8   7   -0.52    0.45
   8 -12   7    0.98    0.55
  12   8   7   -0.15    0.50
  12   8   7    0.89    0.51
 -12  -7  -7   23.02    1.50
   7 -12  -7   25.33    1.38
   7 -12  -7   23.47    1.49
   7 -12   7   25.15    1.39
  12   7   7   24.25    1.46
  12   7   7   24.89    1.36
  12   7   7   22.35    1.33
 -12  -6  -7    3.92    0.74
   6 -12  -7    4.55    0.83
   6 -12  -7    3.98    0.70
  12   6   7    4.56    0.63
  12   6   7    5.21    0.72
  12   6   7    5.07    0.71
   6 -12   7    4.01    0.67
   5 -12  -7    9.82    0.93
   5 -12  -7    8.15    0.94
 -12  -5  -7    9.47    1.02
  12   5   7    8.77    0.86
  12   5   7    7.14    0.74
   5 -12   7    8.84    0.85
  12   5   7    8.28    0.86
  -5  12   7    8.65    0.92
 -12  -4  -7    4.32    0.72
   4 -12  -7    5.20    0.75
   4 -12  -7    4.74    0.78
  12   4   7    6.58    0.68
  12   4   7    5.33    0.70
  -4  12   7    3.13    0.65
   4 -12   7    4.73    0.66
  12   4   7    5.50    0.69
 -12  -3  -7    0.90    0.57
   3 -12  -7    0.75    0.57
   3 -12  -7    0.89    0.53
  12   3   7    0.94    0.44
  12   3   7    0.31    0.37
  12   3   7    1.45    0.50
  -3  12   7    0.24    0.50
   2 -12  -7   -0.47    0.48
 -12  -2  -7    0.60    0.53
  12   2  -7    0.15    0.39
   2 -12  -7    0.13    0.50
  12   2   7    0.53    0.38
  12   2   7   -0.05    0.42
  -2  12   7    0.22    0.45
  12   2   7    0.03    0.39
   1 -12  -7    2.87    0.65
 -12  -1  -7    3.09    0.64
  12   1  -7    2.64    0.50
  12   1   7    2.54    0.55
  -1  12   7    2.17    0.60
  12   1   7    2.48    0.53
  12   1   7    2.57    0.52
  12   0  -7   -0.18    0.39
 -12   0  -7    0.31    0.49
   0 -12  -7    0.28    0.50
  12   0   7   -0.23    0.39
   0  12   7    0.55    0.51
  12   0   7    0.73    0.41
  12  -1  -7    3.82    0.60
 -12   1  -7    2.63    0.62
  -1 -12  -7    2.77    0.67
  12  -1   7    3.06    0.55
  12  -1   7    3.94    0.61
   1  12   7    1.84    0.58
 -12   2  -7    3.17    0.67
  12  -2  -7    3.71    0.61
  -2 -12  -7    2.71    0.61
  12  -2   7    2.72    0.56
   2  12   7    2.33    0.62
  12  -2   7    3.84    0.62
 -12   3  -7   12.80    1.09
  -3 -12  -7    8.60    0.95
  12  -3  -7    8.38    0.84
  12  -3   7    9.28    0.87
  12  -3   7   11.90    0.93
   3  12   7    9.77    0.99
  -4 -12  -7    1.91    0.62
 -12   4  -7    1.43    0.55
  12  -4  -7    1.15    0.52
   4  12   7    2.17    0.64
  12  -4   7    1.23    0.47
  12  -4   7    1.66    0.53
  -5 -12  -7   18.38    1.29
 -12   5  -7   18.45    1.22
  12  -5  -7   20.10    1.28
  12  -5   7   19.26    1.21
   5  12   7   18.16    1.33
  12  -5   7   19.50    1.18
  12  -6  -7    4.30    0.70
 -12   6  -7    3.60    0.66
  -6 -12  -7    3.82    0.77
   6  12   7    4.99    0.81
  12  -6   7    4.13    0.65
  12  -6   7    4.10    0.66
  -7 -12  -7   10.27    1.04
 -12   7  -7   14.76    1.08
  12  -7  -7   14.28    1.15
  12  -7   7   13.80    1.06
   7  12   7   10.91    1.13
  12  -7   7   13.48    1.08
 -12   8  -7    5.36    0.76
  12  -8  -7    5.45    0.82
  -8 -12  -7    5.50    0.84
  12  -8   7    4.10    0.71
   8  12   7    5.82    0.90
  12  -8   7    4.41    0.68
  -9 -12  -7   16.11    1.33
  12  -9  -7   17.42    1.32
 -12   9  -7   14.51    1.15
  12  -9   7   14.81    1.17
  12  -9   7   15.83    1.20
   9  12   7   15.08    1.38
 -12  10  -7    0.55    0.51
  12 -10  -7    0.84    0.65
 -10 -12  -7    0.64    0.66
  10  12   7    1.17    0.69
  12 -10   7    0.34    0.57
 -11 -12  -7    2.45    0.78
  12 -11  -7    2.64    0.78
 -12  11  -7    3.03    0.64
  11  12   7    3.01    0.84
  12 -11   7    3.80    0.76
  12 -12  -7    0.33    0.72
 -12 -12  -7    0.62    0.69
  12  12   7   -0.51    0.53
  12  12   7   -0.30    0.70
  12 -12   7    0.85    0.65
 -13 -12  -7    1.39    0.79
  12 -13  -7    0.30    0.79
  13  12   7    0.21    0.72
  12 -13   7    0.74    0.70
  13  12   7    1.21    0.66
 -13 -11  -7    0.65    0.72
  11 -13  -7    0.43    0.60
  11 -13  -7    1.50    0.81
  13  11   7    0.67    0.61
  13  11   7    1.38    0.74
  11 -13   7    0.40    0.67
  10 -13  -7   -0.12    0.64
 -13 -10  -7    0.47    0.69
  10 -13  -7    0.02    0.54
  13  10   7    0.08    0.66
  10 -13   7    0.95    0.62
  13  10   7   -0.43    0.54
   9 -13  -7    0.82    0.59
 -13  -9  -7    0.35    0.66
   9 -13  -7    0.23    0.66
  13   9   7    0.38    0.51
  13   9   7    0.12    0.52
  13   9   7   -0.16    0.57
   9 -13   7   -0.29    0.55
   8 -13  -7    0.40    0.56
   8 -13  -7   -1.35    0.58
 -13  -8  -7   -0.47    0.63
  13   8   7    0.27    0.56
  13   8   7   -0.62    0.45
  13   8   7   -0.44    0.48
   8 -13   7   -0.04    0.55
 -13  -7  -7    2.08    0.71
   7 -13  -7    1.92    0.73
   7 -13  -7    1.63    0.58
  13   7   7    1.90    0.62
  13   7   7    2.88    0.70
  13   7   7    1.86    0.58
   7 -13   7    2.82    0.66
   6 -13  -7    2.64    0.76
   6 -13  -7    2.18    0.64
 -13  -6  -7    2.25    0.73
  13   6   7    3.12    0.63
   6 -13   7    1.67    0.61
  13   6   7    1.89    0.53
  13   6   7    1.40    0.58
   5 -13  -7   10.28    0.99
 -13  -5  -7   11.05    1.07
   5 -13  -7    8.76    1.03
   5 -13   7   10.24    0.93
  13   5   7   10.07    0.95
  13   5   7    7.89    0.82
  13   5   7   12.80    1.03
   4 -13  -7    0.72    0.56
 -13  -4  -7    1.14    0.60
   4 -13  -7    0.97    0.64
  13   4   7    0.96    0.45
  13   4   7    0.94    0.52
   4 -13   7    0.96    0.53
  13   4   7    0.83    0.50
   3 -13  -7   16.34    1.25
 -13  -3  -7   14.97    1.20
   3 -13  -7   14.34    1.12
  -3  13   7   16.09    1.25
  13   3   7   15.39    1.11
  13   3   7   15.17    0.99
  13   3   7   15.78    1.08
  13   2  -7    7.25    0.74
   2 -13  -7    5.37    0.82
   2 -13  -7    5.20    0.78
 -13  -2  -7    5.17    0.80
  13   2   7    7.88    0.85
  -2  13   7    5.21    0.80
  13   2   7    7.35    0.75
  13   2   7    5.47    0.65
   1 -13  -7    1.97    0.61
 -13  -1  -7    1.97    0.62
  13   1  -7    2.39    0.52
  13   1   7    1.88    0.55
  13   1   7    1.59    0.48
  -1  13   7    1.24    0.60
  13   1   7    3.03    0.87
   0 -13  -7    2.55    0.65
  13   0  -7    1.54    0.50
 -13   0  -7    1.68    0.57
  13   0   7    2.40    0.58
   0  13   7    2.30    0.67
  13   0   7    1.87    0.51
 -13   1  -7    3.31    0.69
  -1 -13  -7    3.32    0.67
  13  -1  -7    4.64    0.67
  13  -1   7    3.78    0.59
   1  13   7    2.78    0.71
  13  -1   7    2.95    0.59
 -13   2  -7    1.75    0.61
  13  -2  -7    2.11    0.57
  -2 -13  -7    0.89    0.61
  13  -2   7    1.43    0.53
  13  -2   7    1.85    0.50
   2  13   7    1.33    0.62
  -3 -13  -7    8.78    0.97
 -13   3  -7   10.82    1.01
  13  -3  -7    9.85    0.90
  13  -3   7    8.56    0.85
  13  -3   7    9.95    0.93
   3  13   7    9.11    1.04
  -4 -13  -7    0.37    0.57
 -13   4  -7    0.12    0.48
  13  -4  -7    0.68    0.51
   4  13   7    0.44    0.60
  13  -4   7    0.27    0.49
  13  -4   7    0.01    0.44
  -5 -13  -7    2.93    0.70
 -13   5  -7    4.40    0.73
  13  -5  -7    3.51    0.68
  13  -5   7    4.53    0.65
   5  13   7    3.79    0.78
  13  -5   7    3.11    0.64
  -6 -13  -7    1.13    0.67
 -13   6  -7    1.04    0.57
  13  -6  -7    0.10    0.53
  13  -6   7    0.82    0.54
  13  -6   7    0.41    0.46
   6  13   7    0.80    0.63
  -7 -13  -7    4.58    0.82
  13  -7  -7    3.97    0.76
 -13   7  -7    4.40    0.76
   7  13   7    3.77    0.84
  13  -7   7    4.24    0.73
  13  -7   7    3.78    0.66
 -13   8  -7   -0.11    0.50
  13  -8  -7   -0.11    0.58
  -8 -13  -7    0.02    0.63
   8  13   7   -1.01    0.54
  13  -8   7   -0.38    0.47
  13  -8   7    0.02    0.54
  -9 -13  -7    1.46    0.69
 -13   9  -7    1.59    0.59
  13  -9  -7    1.81    0.73
   9  13   7    2.00    0.75
  13  -9   7    1.45    0.56
  13  -9   7    1.76    0.66
  13 -10  -7    1.02    0.71
 -10 -13  -7    1.65    0.74
 -13  10  -7    1.11    0.56
  13 -10   7    0.84    0.64
  13 -10   7    1.40    0.57
  10  13   7    1.39    0.76
 -13  11  -7    0.99    0.58
  13 -11  -7    0.58    0.72
 -11 -13  -7    0.91    0.74
  13 -11   7    2.11    0.71
  11  13   7    1.99    0.80
 -13  12  -7    6.35    1.36
 -12 -13  -7    5.97    0.96
  13 -12  -7    5.58    1.00
  12  13   7    6.52    0.96
  13 -12   7    4.60    0.88
  11 -14  -7    7.49    1.05
 -14 -11  -7    9.05    1.10
  14  11   7    7.77    1.16
  14  11   7   11.06    1.12
  11 -14   7    7.37    1.00
  10 -14  -7    0.06    0.56
  10 -14  -7    0.74    0.76
 -14 -10  -7    1.21    0.75
  14  10   7    1.11    0.71
  10 -14   7    0.52    0.67
  14  10   7    1.41    0.61
   9 -14  -7   13.53    1.14
   9 -14  -7   10.13    1.13
 -14  -9  -7   11.71    1.24
   9 -14   7   11.53    1.13
  14   9   7   14.36    1.20
  14   9   7   12.59    1.24
  14   9   7   15.48    1.18
   8 -14  -7    0.80    0.61
 -14  -8  -7   -0.40    0.65
   8 -14  -7    0.38    0.68
  14   8   7    1.35    0.60
  14   8   7    1.09    0.65
  14   8   7    1.20    0.55
   8 -14   7    0.82    0.61
   7 -14  -7   23.55    1.62
 -14  -7  -7   22.78    1.54
   7 -14  -7   20.68    1.36
   7 -14   7   19.47    1.40
  14   7   7   20.54    1.33
  14   7   7   21.72    1.35
  14   7   7   22.69    1.50
 -14  -6  -7    1.42    0.71
   6 -14  -7    2.36    0.76
   6 -14  -7    1.56    0.64
 -14  -6  -7    1.53    0.92
  14   6   7    1.43    0.53
   6 -14   7    1.17    0.58
  14   6   7    1.18    0.54
  14   6   7    2.37    0.65
   5 -14  -7   21.39    1.41
 -14  -5  -7   24.29    1.57
   5 -14  -7   26.90    1.62
 -14  -5  -7   28.25    1.81
  14   5   7   23.32    1.36
  14   5   7   25.33    1.46
   5 -14   7   26.97    1.47
  14   5   7   27.14    1.45
 -14  -4  -7    0.27    0.69
 -14  -4  -7    1.57    0.67
   4 -14  -7    0.52    0.66
   4 -14  -7    0.34    0.54
  14   4   7    0.53    0.46
  14   4   7    0.11    0.46
  14   4   7    0.59    0.52
   4 -14   7    0.52    0.54
  14   3  -7    2.79    0.87
 -14  -3  -7    3.59    0.74
   3 -14  -7    1.97    0.65
   3 -14  -7    2.88    0.76
 -14  -3  -7    1.59    0.85
  14   3   7    2.74    0.54
  14   3   7    2.44    0.62
  14   3   7    2.24    0.58
 -14  -2  -7    2.99    0.73
  14   2  -7    2.91    0.57
   2 -14  -7    2.23    0.66
 -14  -2  -7    2.01    0.87
  14   2   7    3.34    0.65
  14   2   7    2.30    0.55
  14   2   7    3.12    0.57
   1 -14  -7   -0.33    0.52
 -14  -1  -7    0.05    0.54
  14   1  -7    0.24    0.44
  14   1   7   -1.47    0.40
  14   1   7    0.53    0.45
 -14   0  -7    0.19    0.54
   0 -14  -7   -0.22    0.57
  14   0  -7    0.19    0.43
  14   0   7   -0.21    0.40
  14   0   7    0.31    0.49
  -1 -14  -7    1.61    0.64
 -14   1  -7    2.19    0.67
  14  -1  -7    2.16    0.57
  14  -1   7    2.34    0.56
  14  -1   7    2.99    0.63
  -2 -14  -7    0.79    0.60
  14  -2  -7    0.03    0.48
 -14   2  -7   -0.05    0.50
  14  -2   7    0.07    0.46
  14  -2   7   -0.18    0.40
   2  14   7    0.48    0.58
 -14   3  -7   14.53    1.16
  14  -3  -7   14.85    1.12
  -3 -14  -7   12.12    1.13
  14  -3   7   11.52    1.01
  14  -3   7   12.00    0.97
   3  14   7    9.56    1.10
  -4 -14  -7    2.66    0.72
  14  -4  -7    3.45    0.69
 -14   4  -7    2.48    0.67
  14  -4   7    2.00    0.55
  14  -4   7    2.85    0.65
   4  14   7    1.79    0.69
  14  -5  -7   25.61    1.53
 -14   5  -7   26.40    1.56
  -5 -14  -7   26.85    1.55
  14  -5   7   25.11    1.40
  14  -5   7   24.52    1.46
   5  14   7   24.41    1.68
  -6 -14  -7    2.02    0.67
 -14   6  -7    3.00    0.68
  14  -6  -7    2.78    0.70
  14  -6   7    1.92    0.66
  14  -6   7    2.60    0.58
   6  14   7    2.46    0.76
  -7 -14  -7    6.64    0.93
 -14   7  -7   10.49    1.06
  14  -7  -7    8.51    0.96
  14  -7   7    7.79    0.86
  14  -7   7    8.46    0.96
 -14   8  -7    0.22    0.52
  -8 -14  -7    0.61    0.67
  14  -8  -7    0.17    0.60
  14  -8   7    0.60    0.59
  14  -8   7    0.14    0.50
  14  -9  -7   11.35    1.16
  -9 -14  -7   11.61    1.22
 -14   9  -7   15.81    1.30
  14  -9   7   11.51    1.13
  14  -9   7    8.55    0.90
 -14  10  -7    0.35    0.57
  14 -10  -7    0.75    0.74
 -10 -14  -7    0.34    0.71
  14 -10   7    1.03    0.66
  14 -10   7    0.28    0.64
 -11 -14  -7    5.76    0.96
  14 -11  -7    6.22    1.02
 -14  11  -7    7.09    0.95
  14 -11   7    6.74    0.96
 -15 -10  -7    0.45    0.78
  10 -15  -7    1.23    0.69
  10 -15  -7    1.97    0.85
  15  10   7    1.04    0.63
  15  10   7   -0.07    0.68
  10 -15   7    1.23    0.73
   9 -15  -7   -0.39    0.76
   9 -15  -7    0.11    0.58
 -15  -9  -7   -0.51    0.68
  15   9   7    0.37    0.67
  15   9   7   -0.13    0.52
  15   9   7    1.43    0.65
   9 -15   7    0.43    0.66
   8 -15  -7    0.52    0.63
   8 -15  -7   -0.24    0.75
 -15  -8  -7   -0.75    0.95
 -15  -8  -7    0.90    0.74
   8 -15   7    1.14    0.67
  15   8   7    0.40    0.58
  15   8   7    1.51    0.62
  15   8   7    0.88    0.67
   7 -15  -7    1.85    0.85
   7 -15  -7    1.54    0.65
 -15  -7  -7    1.70    0.93
 -15  -7  -7    1.95    0.79
  15   7   7    1.91    0.71
  15   7   7    1.73    0.65
  15   7   7    2.09    0.59
   7 -15   7    1.99    0.72
 -15  -6  -7    1.52    0.72
 -15  -6  -7    2.59    0.86
   6 -15  -7    0.99    0.63
   6 -15  -7    0.90    0.75
  15   6   7    1.82    0.60
  15   6   7    1.26    0.61
   6 -15   7    1.74    0.66
  15   6   7    1.62    0.67
 -15  -5  -7    3.68    0.82
   5 -15  -7    2.61    0.70
 -15  -5  -7    3.55    0.76
   5 -15  -7    3.37    0.88
  15   5   7    3.38    0.73
  15   5   7    3.34    0.70
  15   5   7    4.81    0.70
   5 -15   7    2.66    0.69
   4 -15  -7    5.87    0.96
 -15  -4  -7    5.75    0.92
 -15  -4  -7    6.86    0.95
   4 -15  -7    6.07    0.89
   4 -15   7    5.71    0.82
  15   4   7    7.03    0.80
  15   4   7    6.52    0.81
  15   4   7    6.99    0.88
 -15  -3  -7    7.79    0.95
 -15  -3  -7    5.89    0.94
  15   3  -7    7.14    0.94
   3 -15  -7    6.48    0.96
   3 -15  -7    7.86    0.94
  15   3   7    6.93    0.87
   3 -15   7    8.11    1.16
  15   3   7    6.44    0.76
  15   3   7    5.61    0.77
   2 -15  -7    0.23    0.60
  15   2  -7    0.99    0.49
 -15  -2  -7    0.19    0.62
 -15  -2  -7    0.88    0.63
  15   2   7   -0.34    0.44
  15   2   7    0.43    0.55
  15   2   7    0.06    0.47
 -15  -1  -7   16.53    1.41
   1 -15  -7   15.57    1.24
 -15  -1  -7   17.53    1.33
  15   1  -7   19.39    1.23
  15   1   7   17.59    1.24
  15   1   7   19.36    1.16
  15   0  -7    1.17    0.52
 -15   0  -7    0.15    0.80
 -15   0  -7   -0.07    0.53
   0 -15  -7    0.62    0.60
  15   0   7    0.94    0.55
  15   0   7    0.03    0.44
  15  -1  -7    7.30    0.83
  -1 -15  -7    4.82    0.79
 -15   1  -7    8.04    0.99
  15  -1   7    5.04    0.76
  15  -1   7    6.45    0.73
  -2 -15  -7    0.53    0.60
 -15   2  -7    0.63    0.61
  15  -2  -7    0.64    0.56
  15  -2   7    0.69    0.46
  15  -2   7    0.14    0.52
 -15   3  -7    5.57    0.85
  -3 -15  -7    6.23    0.90
  15  -3  -7    7.93    0.91
  15  -3   7    6.81    0.86
  15  -3   7    6.26    0.73
  15  -4  -7   -0.75    0.53
 -15   4  -7   -0.11    0.56
  -4 -15  -7   -0.10    0.60
  15  -4   7    0.62    0.56
  15  -4   7    0.84    0.51
 -15   5  -7    0.18    0.57
  -5 -15  -7   -0.07    0.62
  15  -5  -7    0.73    0.60
  15  -5   7    0.62    0.56
  15  -5   7    0.47    0.48
  -6 -15  -7    0.32    0.67
 -15   6  -7    0.97    0.60
  15  -6  -7    1.47    0.65
  15  -6   7    0.22    0.48
  15  -6   7    0.24    0.57
  -7 -15  -7   -0.26    0.63
  15  -7  -7   -0.89    0.56
 -15   7  -7   -0.25    0.53
  15  -7   7   -0.02    0.59
 -15   8  -7    0.79    0.63
  15  -8  -7    0.22    0.69
  -8 -15  -7    0.33    0.70
  15  -8   7    0.09    0.60
  -9 -15  -7    1.40    0.72
  15  -9  -7    0.86    0.74
 -15   9  -7    0.78    0.61
  15  -9   7    0.52    0.63
 -10 -15  -7   -0.47    0.66
  15 -10  -7    0.01    0.68
 -15  10  -7    0.12    0.56
  15 -10   7   -0.15    0.63
   9 -16  -7    6.93    0.94
 -16  -8  -7    1.97    1.01
   8 -16  -7   -0.42    0.78
 -16  -8  -7    0.96    0.80
   8 -16  -7    0.65    0.65
  16   8   7    0.92    0.60
  16   8   7    1.46    0.72
   8 -16   7    0.21    0.69
  16   8   7    0.62    0.58
 -16  -7  -7   13.90    1.40
   7 -16  -7   10.19    1.21
   7 -16  -7   10.53    1.11
 -16  -7  -7    9.76    1.14
   7 -16   7    8.90    1.06
  16   7   7   11.80    1.07
  16   7   7    9.26    1.10
  16   7   7   11.32    1.12
   6 -16  -7    1.38    0.81
 -16  -6  -7    0.11    0.69
 -16  -6  -7    1.27    0.78
   6 -16  -7    0.42    0.65
  16   6   7    1.32    0.64
  16   6   7    0.06    0.56
  16   6   7    0.59    0.56
   6 -16   7    0.03    0.60
   5 -16  -7   10.54    1.17
 -16  -5  -7    9.96    1.10
 -16  -5  -7    8.40    1.08
   5 -16  -7    6.86    0.95
  16   5   7    8.52    0.97
   5 -16   7    6.89    0.92
  16   5   7    8.16    0.97
  16   5   7    9.13    0.93
 -16  -4  -7    1.88    0.69
   4 -16  -7    2.92    0.84
   4 -16  -7    1.49    0.68
 -16  -4  -7    1.64    0.76
  16   4   7    1.18    0.56
  16   4   7    2.20    0.65
   4 -16   7    2.52    0.71
  16   4   7    0.89    0.59
 -16  -3  -7    9.62    1.00
   3 -16  -7    6.85    0.88
 -16  -3  -7    6.22    0.94
  16   3  -7    5.67    0.86
  16   3   7    6.49    0.80
  16   3   7    8.85    0.97
  16   3   7    7.64    0.86
   3 -16   7    6.62    1.01
 -16  -2  -7    0.87    0.66
   2 -16  -7    0.31    0.58
  16   2  -7    0.24    0.48
 -16  -2  -7   -0.26    0.53
  16   2   7    0.46    0.52
  16   2   7   -0.67    0.47
  16   2   7   -0.05    0.48
 -16  -1  -7   -0.18    0.60
  16   1  -7   -0.22    0.47
   1 -16  -7    0.41    0.59
 -16  -1  -7   -0.49    0.58
  16   1   7    0.41    0.46
  16   1   7    0.43    0.56
 -16   0  -7    0.68    0.63
   0 -16  -7    1.14    0.66
 -16   0  -7   -0.35    0.61
  16   0  -7    0.48    0.57
  16   0   7    1.61    0.51
  16   0   7    0.48    0.55
  16  -1  -7    6.66    0.84
 -16   1  -7    4.75    0.91
  -1 -16  -7    4.25    0.82
  16  -1   7    6.67    0.74
  16  -1   7    7.25    0.91
  -2 -16  -7    0.95    0.68
  16  -2  -7    0.84    0.58
 -16   2  -7    0.46    0.60
  16  -2   7    1.04    0.60
  16  -2   7    1.14    0.50
  -3 -16  -7   11.10    1.11
  16  -3  -7   11.06    1.11
 -16   3  -7   13.66    1.28
  16  -3   7   10.02    1.05
 -16   4  -7    0.67    0.63
  16  -4  -7    0.32    0.61
  -4 -16  -7    1.61    0.72
  16  -4   7    0.97    0.60
  16  -5  -7   22.82    1.55
 -16   5  -7   21.63    1.51
  -5 -16  -7   23.99    1.53
  16  -5   7   24.25    1.50
  16  -6  -7    2.20    0.70
  -6 -16  -7    1.29    0.73
 -16   6  -7    1.41    0.65
  16  -6   7    1.41    0.65
  16  -7  -7   12.74    1.23
  -7 -16  -7   13.75    1.29
 -16   7  -7   13.82    1.31
  16  -7   7   11.64    1.16
  16  -8  -7    0.49    0.72
  -8 -16  -7    0.19    0.69
 -16   8  -7    0.77    0.62
  16  -8   7    1.28    0.69
 -17  -6  -7    1.40    0.77
   6 -17  -7    1.47    0.87
 -17  -6  -7    1.74    0.78
   6 -17  -7    1.28    0.72
  17   6   7    1.18    0.63
  17   6   7    1.79    0.69
  17   6   7    0.65    0.66
   6 -17   7    1.50    0.73
 -17  -5  -7    3.51    0.80
   5 -17  -7    2.00    0.76
 -17  -5  -7    1.90    0.79
   5 -17  -7    0.75    0.81
  17   5   7    2.33    0.71
   5 -17   7    1.92    0.76
  17   5   7    2.77    0.70
  17   5   7    2.29    0.66
   4 -17  -7    0.91    0.82
   4 -17  -7    1.96    0.74
 -17  -4  -7    3.67    0.79
 -17  -4  -7    0.99    0.77
  17   4   7    2.52    0.69
  17   4   7    3.01    0.66
   4 -17   7    1.16    0.72
  17   4   7    2.37    0.67
  17   3  -7    3.81    0.77
   3 -17  -7    2.12    0.72
 -17  -3  -7    2.27    0.80
 -17  -3  -7    4.69    0.81
  17   3   7    2.93    0.66
  17   3   7    2.52    0.68
   3 -17   7    3.58    0.87
  17   3   7    3.07    0.66
 -17  -2  -7    1.25    0.68
  17   2  -7    1.83    0.60
   2 -17  -7    2.02    0.69
 -17  -2  -7    1.98    0.73
  17   2   7    1.74    0.65
  17   2   7    1.25    0.94
  17   2   7    1.30    0.63
   1 -17  -7    0.86    0.70
 -17  -1  -7    0.59    0.67
  17   1  -7    1.44    0.59
 -17  -1  -7    1.21    0.71
  17   1   7    0.15    0.59
 -17   0  -7    0.11    0.65
   0 -17  -7    0.33    0.64
 -17   0  -7    0.57    0.64
  17   0  -7   -0.45    0.55
  17   0   7   -0.25    0.59
 -17   1  -7    5.71    0.95
  17  -1  -7    6.21    0.85
  -1 -17  -7    5.35    0.86
  17  -1   7    5.65    0.88
 -17   2  -7    0.90    0.67
  -2 -17  -7    0.55    0.69
  17  -2  -7    1.20    0.65
  17  -2   7    1.04    0.63
 -17   3  -7   -0.14    0.62
  17  -3  -7    0.72    0.66
  -3 -17  -7    0.25    0.64
  17  -3   7    0.48    0.59
  -4 -17  -7    1.61    0.72
 -17   4  -7    2.99    0.77
  17  -4  -7    2.61    0.74
  17  -4   7    2.22    0.69
 -17   5  -7    0.14    0.62
  -5 -17  -7   -0.59    0.65
  17  -5  -7   -0.67    0.64
  17  -5   7    0.55    0.62
  17  -6  -7   -0.44    0.64
  -6 -17  -7    0.01    0.67
 -17   6  -7    0.69    0.65
  17  -6   7    1.02    0.66
   3 -18  -7    0.06    0.67
 -18  -3  -7    1.01    0.74
   2 -18  -7   -0.17    0.61
  18   2  -7    0.38    0.57
 -18  -2  -7    0.12    0.65
 -18  -2  -7    0.64    0.73
  18   2   7    0.01    0.55
  18   1  -7    2.26    0.67
   1 -18  -7    2.28    0.78
 -18  -1  -7    0.92    0.71
 -18  -1  -7    1.30    0.76
  18   1   7    2.19    0.71
  18   0  -7   -0.61    0.59
 -18   0  -7   -0.04    0.69
 -18   0  -7   -0.07    0.71
   0 -18  -7    0.21    0.64
  18   0   7    0.38    0.61
  18  -1  -7    0.87    0.60
  -1 -18  -7   -0.05    0.67
 -18   1  -7   -0.26    0.66
  18  -1   7    0.55    0.64
  -2 -18  -7    3.31    0.84
  18  -2  -7    4.33    0.84
 -18   2  -7    3.66    0.84
  18  -2   7    3.55    0.76
  -3 -18  -7    7.04    0.97
 -18   3  -7    6.18    0.99
   0   0  -8   70.13    2.59
   0   0   8   72.73    2.68
   0  -1  -8    0.42    0.34
   0   1  -8    0.40    0.32
   1   0  -8    0.44    0.34
  -1   0  -8    0.41    0.34
   0  -1   8    0.39    0.38
   1   0   8   -0.17    0.36
  -1   0   8    0.77    0.38
   0   1   8    0.66    0.38
   1   1  -8   -0.13    0.30
  -1  -1  -8   -0.01    0.33
   1  -1  -8   -0.18    0.30
  -1   1  -8    0.09    0.32
  -1  -1   8    0.12    0.36
  -1   1   8    0.40    0.35
   1  -1   8   -0.17    0.34
   1   1   8   -0.35    0.32
   2   1  -8    4.39    0.50
   1  -2  -8    3.14    0.51
  -1   2  -8    3.96    0.51
  -2  -1  -8    4.22    0.54
   2   1   8    3.44    0.55
  -1   2   8    3.04    0.51
   1  -2   8    2.56    0.49
  -2  -1   8    2.99    0.52
  -2   0  -8   66.68    2.52
   0  -2  -8   71.33    2.56
   2   0  -8   65.77    2.46
   0   2  -8   68.63    2.48
   0  -2   8   68.14    2.60
   0   2   8   70.36    2.59
  -2   0   8   68.07    2.57
   2   0   8   68.27    2.59
  -1  -2  -8    2.09    0.47
   1   2  -8    1.70    0.39
   2  -1  -8    2.40    0.43
  -2   1  -8    2.20    0.44
   1   2   8    2.00    0.46
  -1  -2   8    1.31    0.44
  -2   1   8    1.83    0.44
   2  -1   8    1.51    0.45
   2  -2  -8   28.93    1.31
   2  -2  -8   27.13    1.30
  -2   2  -8   28.26    1.29
  -2  -2  -8   30.12    1.39
   2   2  -8   27.62    1.22
   2  -2   8   27.86    1.38
  -2   2   8   26.62    1.33
  -2  -2   8   28.91    1.38
   2   2   8   29.27    1.39
   2  -3  -8    0.00    0.31
  -3  -2  -8    0.51    0.39
   2  -3  -8   -0.04    0.35
  -2   3  -8    0.60    0.33
   2  -3   8    0.07    0.36
  -3  -2   8    0.65    0.38
   3   2   8   -0.30    0.34
  -2   3   8    0.38    0.34
   1  -3  -8    5.46    0.64
  -3  -1  -8    4.52    0.58
   3   1  -8    5.85    0.56
  -1   3  -8    6.06    0.58
   1  -3   8    5.81    0.68
   3   1   8    4.55    0.61
  -3  -1   8    5.77    0.65
  -1   3   8    4.07    0.56
  -3   0  -8    0.65    0.39
   0   3  -8    0.54    0.32
   3   0  -8    0.56    0.33
   0  -3  -8    0.55    0.39
   0  -3   8    0.54    0.40
   3   0   8    0.31    0.37
  -3   0   8    0.64    0.37
   0   3   8    0.33    0.36
  -1  -3  -8    8.38    0.79
   3  -1  -8    7.89    0.68
  -3   1  -8    9.85    0.79
   3  -1   8    8.51    0.77
  -1  -3   8    8.90    0.81
  -3   1   8    8.56    0.74
   1   3   8    9.41    0.78
  -3   2  -8   -0.17    0.32
  -2  -3  -8    0.69    0.41
   3  -2  -8    0.52    0.33
   3  -2  -8    0.24    0.34
  -2  -3   8    0.19    0.36
   3  -2   8    0.15    0.35
   2   3   8    0.65    0.40
  -3   2   8    0.02    0.32
   3  -3  -8   14.84    0.90
  -3   3  -8   17.16    0.95
  -3  -3  -8   15.92    1.02
   3  -3  -8   17.10    0.95
   3  -3   8   18.09    1.07
   3   3   8   15.72    1.00
  -3  -3   8   14.88    1.01
  -3   3   8   17.29    0.99
   3  -4  -8    0.72    0.41
  -4  -3  -8    0.88    0.43
   3  -4  -8    0.80    0.37
  -3   4  -8    0.52    0.34
   3  -4   8    0.32    0.40
  -4  -3   8    0.65    0.40
   4   3   8    0.60    0.38
  -3   4   8    0.93    0.37
  -4  -2  -8    7.31    0.76
  -2   4  -8    7.88    0.68
   2  -4  -8    8.57    0.70
   2  -4  -8    8.24    0.75
  -2   4   8    8.44    0.72
   2  -4   8    6.58    0.73
   4   2   8    7.27    0.73
  -4  -2   8    8.34    0.76
  -4  -1  -8    2.31    0.51
   1  -4  -8    1.51    0.45
  -1   4  -8    2.05    0.65
   4   1  -8    2.44    0.41
  -4  -1   8    1.58    0.44
  -1   4   8    2.32    0.47
   1  -4   8    2.47    0.53
   4   1   8    2.62    0.51
   4   0  -8    7.93    0.63
   0  -4  -8    7.43    0.73
  -4   0  -8    6.74    0.69
   4   0   8    6.88    0.71
  -4   0   8    6.15    0.64
   0   4   8    7.43    0.69
  -1  -4  -8    0.57    0.41
  -4   1  -8    0.96    0.40
   4  -1  -8    0.35    0.34
   1   4   8    0.74    0.38
  -4   1   8    1.21    0.39
   4  -1   8    0.56    0.38
  -2  -4  -8   10.99    0.91
  -4   2  -8   10.60    0.82
   4  -2  -8   11.02    0.76
   4  -2  -8   10.61    0.77
   2   4   8   11.33    0.86
   4  -2   8   10.79    0.85
  -4   2   8    9.73    0.80
  -3  -4  -8    1.90    0.51
   4  -3  -8    0.62    0.36
  -4   3  -8    0.86    0.38
   4  -3  -8    0.95    0.40
  -4   3   8    1.00    0.37
   3   4   8    0.69    0.39
   4  -3   8    0.75    0.41
   4  -4  -8    1.22    0.41
  -4   4  -8    2.20    0.46
   4  -4  -8    2.03    0.47
  -4  -4  -8    2.37    0.53
   4   4   8    1.30    0.43
   4  -4   8    2.69    0.56
  -4   4   8    2.29    0.43
   4  -5  -8    0.26    0.39
   4  -5  -8    0.80    0.40
  -4   5  -8    0.78    0.36
  -5  -4  -8    0.78    0.46
   4  -5   8    0.05    0.39
  -4   5   8    0.13    0.34
   5   4   8    0.33    0.37
   3  -5  -8   18.11    1.03
  -3   5  -8   17.95    1.09
   3  -5  -8   17.14    1.05
  -5  -3  -8   17.00    1.13
  -3   5   8   17.50    1.01
   5   3   8   16.09    1.02
  -5  -3   8   17.80    1.05
   2  -5  -8    0.13    0.38
   2  -5  -8   -0.08    0.34
  -5  -2  -8    0.34    0.41
  -5  -2   8    0.30    0.36
   5   2   8    0.04    0.35
  -2   5   8    0.33    0.35
   1  -5  -8    1.42    0.47
  -5  -1  -8    0.48    0.43
   5   1   8    0.39    0.39
  -5  -1   8    1.80    0.43
  -1   5   8    1.59    0.43
   5   0  -8    1.38    0.36
  -5   0  -8    1.17    0.45
   0  -5  -8    0.91    0.44
   5   0   8    0.96    0.42
   0   5   8    1.46    0.42
  -5   0   8    1.62    0.40
  -5   1  -8    9.92    0.85
   5  -1  -8    9.10    0.71
  -1  -5  -8   10.14    0.88
   5  -1   8    8.93    0.82
  -5   1   8    8.19    0.72
   1   5   8    8.07    0.74
  -2  -5  -8    2.11    0.49
   5  -2  -8    2.40    0.45
   5  -2  -8    2.46    0.44
  -5   2  -8    1.77    0.46
  -5   2   8    2.70    0.48
   2   5   8    1.10    0.43
   5  -2   8    2.41    0.51
   5  -3  -8    6.53    0.64
  -5   3  -8    8.12    0.75
  -3  -5  -8    6.02    0.73
   5  -3  -8    7.07    0.66
   3   5   8    6.85    0.70
  -5   3   8    5.97    0.61
   5  -3   8    5.62    0.69
   5  -4  -8    9.71    0.79
   5  -4  -8    8.93    0.76
  -4  -5  -8    8.59    0.83
  -5   4  -8   10.77    0.85
  -5   4   8    7.14    0.67
   4   5   8    9.90    0.84
   5  -4   8   10.41    0.89
   5  -5  -8   23.98    1.25
  -5  -5  -8   20.98    1.30
   5  -5  -8   24.77    1.23
  -5   5  -8   24.05    1.20
  -5   5   8   26.15    1.20
   5   5   8   23.18    1.26
   5  -5   8   22.08    1.28
  -6  -5  -8    1.45    0.54
   5  -6  -8    1.30    0.49
  -5   6  -8    1.19    0.40
   5  -6  -8    1.22    0.43
   6   5   8    0.59    0.41
  -5   6   8    1.25    0.40
   4  -6  -8    0.14    0.42
   4  -6  -8    0.63    0.43
  -6  -4  -8    0.38    0.46
   6   4   8    0.07    0.39
  -4   6   8    0.63    0.37
   3  -6  -8    1.13    0.43
  -6  -3  -8    0.64    0.44
   3  -6  -8    0.53    0.41
  -3   6   8    0.85    0.39
   6   3   8    1.04    0.42
  -6  -3   8    1.32    0.42
  -6  -2  -8    2.49    0.55
   2  -6  -8    3.06    0.52
   2  -6  -8    2.33    0.52
  -2   6   8    3.30    0.51
  -6  -2   8    2.43    0.48
   6   2   8    2.18    0.48
   1  -6  -8   -0.54    0.36
  -6  -1  -8    0.08    0.39
   6   1   8   -0.30    0.36
  -6  -1   8   -0.33    0.31
  -1   6   8   -0.16    0.33
  -6   0  -8    0.26    0.40
   6   0  -8    0.44    0.38
   0  -6  -8    0.06    0.38
  -6   0   8   -0.02    0.33
   6   0   8    0.40    0.40
   0   6   8    0.26    0.36
  -6   1  -8    2.69    0.53
  -1  -6  -8    2.65    0.57
   6  -1  -8    3.45    0.48
   6  -1   8    2.89    0.53
  -6   1   8    3.49    0.50
   1   6   8    2.68    0.50
  -6   2  -8    4.05    0.60
   6  -2  -8    3.13    0.50
   6  -2  -8    2.23    0.44
  -2  -6  -8    2.55    0.58
   2   6   8    2.73    0.50
  -6   2   8    2.30    0.46
   6  -2   8    3.22    0.56
   6  -3  -8    1.88    0.43
  -3  -6  -8    2.64    0.60
   6  -3  -8    2.15    0.46
  -6   3  -8    3.08    0.53
   6  -3   8    2.80    0.55
  -6   3   8    2.58    0.47
   3   6   8    2.79    0.53
  -4  -6  -8    0.40    0.46
   6  -4  -8    0.33    0.38
   6  -4  -8    0.58    0.41
  -6   4  -8    0.68    0.42
  -6   4   8    0.34    0.34
   4   6   8   -0.27    0.36
   6  -4   8    0.08    0.42
   6  -5  -8    0.36    0.40
  -5  -6  -8    1.19    0.51
   6  -5  -8    0.65    0.43
  -6   5  -8    0.82    0.39
   5   6   8   -0.20    0.36
  -6   5   8    0.22    0.35
   6  -5   8    0.04    0.42
   6  -6  -8   -0.08    0.45
  -6  -6  -8    0.28    0.49
  -6   6  -8   -0.04    0.34
   6  -6  -8    0.23    0.39
   6   6   8    0.55    0.43
  -6   6   8    0.38    0.36
   6  -6   8   -0.20    0.45
  -7  -6  -8    0.77    0.54
   6  -7  -8    1.76    0.51
   6  -7  -8    2.19    0.52
   7   6   8    1.28    0.47
   7   6   8    1.17    0.50
  -6   7   8    2.09    0.48
   5  -7  -8   16.27    1.08
   5  -7  -8   18.31    1.14
  -7  -5  -8   20.24    1.30
  -5   7   8   19.20    1.11
   7   5   8   17.89    1.15
   7   5   8   22.65    1.13
   4  -7  -8    1.14    0.47
   4  -7  -8    1.56    0.51
  -7  -4  -8    1.71    0.56
  -4   7   8    0.82    0.42
   7   4   8    2.78    0.67
   7   4   8    2.60    0.53
   3  -7  -8   27.32    1.41
  -7  -3  -8   24.33    1.42
   3  -7  -8   30.15    1.41
  -3   7   8   32.50    1.43
  -7  -3   8   25.51    1.32
   7   3   8   26.69    1.36
  -7  -2  -8    1.52    0.51
   2  -7  -8    1.71    0.47
   2  -7  -8    1.49    0.49
  -7  -2   8    1.70    0.44
   7   2   8    1.94    0.47
  -2   7   8    0.75    0.41
  -7  -1  -8   -0.12    0.40
   1  -7  -8   -0.06    0.43
  -1   7   8    0.40    0.39
   7   1   8    0.15    0.38
  -7  -1   8   -0.18    0.32
   0  -7  -8    1.01    0.46
  -7   0  -8    1.42    0.49
   7   0   8    0.92    0.45
  -7   0   8    0.63    0.36
   0   7   8    1.67    0.48
  -7   1  -8    4.08    0.64
   7  -1  -8    2.91    0.57
   7  -1  -8    3.96    0.50
  -1  -7  -8    4.17    0.65
  -7   1   8    3.54    0.52
   7  -1   8    3.74    0.61
   1   7   8    2.94    0.56
   7  -2  -8    0.50    0.38
   7  -2  -8    0.17    0.34
  -7   2  -8    0.31    0.41
  -2  -7  -8    0.55    0.48
   7  -2   8    0.08    0.41
   2   7   8   -0.10    0.38
  -7   2   8    0.19    0.36
  -3  -7  -8   22.37    1.33
  -7   3  -8   26.75    1.32
   7  -3  -8   25.18    1.25
   7  -3  -8   23.99    1.17
   3   7   8   22.25    1.30
   7  -3   8   27.11    1.38
  -7   3   8   21.99    1.15
   7  -4  -8    6.43    0.68
  -4  -7  -8    8.64    0.90
  -7   4  -8    7.43    0.76
   7  -4  -8    5.50    0.63
  -7   4   8    4.92    0.57
   7  -4   8    5.43    0.71
   4   7   8    6.20    0.74
  -7   5  -8   68.25    2.63
   7  -5  -8   68.61    2.64
   7  -5  -8   71.36    2.58
  -5  -7  -8   71.40    2.77
   5   7   8   68.91    2.71
   7  -5   8   69.13    2.71
  -7   5   8   67.77    2.52
  -6  -7  -8    0.52    0.53
   7  -6  -8    1.15    0.47
   7  -6  -8    0.47    0.44
  -7   6  -8    0.51    0.42
   6   7   8    0.72    0.47
   7  -6   8    0.51    0.47
  -7   6   8    0.05    0.37
   7  -7  -8   62.46    2.41
  -7   7  -8   56.80    2.28
   7  -7  -8   57.08    2.29
  -7  -7  -8   56.19    2.46
   7   7   8   56.37    2.40
   7   7   8   59.93    2.24
   7  -8  -8   -0.10    0.46
  -8  -7  -8    0.68    0.54
   7  -8  -8    0.73    0.51
   8   7   8    0.88    0.46
   8   7   8   -0.23    0.46
  -8  -6  -8   -0.53    0.47
   6  -8  -8    0.15    0.50
   6  -8  -8    0.39    0.44
   8   6   8   -0.08    0.43
   8   6   8   -0.49    0.39
  -6   8   8    0.29    0.40
   5  -8  -8    0.02    0.45
   5  -8  -8    0.03    0.47
  -8  -5  -8    0.45    0.49
   8   5   8   -0.17    0.41
  -5   8   8    0.29    0.41
   8   5   8   -0.12    0.38
  -8  -4  -8    1.27    0.54
   4  -8  -8    3.96    0.64
   4  -8  -8    2.86    0.62
   8   4   8    3.51    0.61
   8   4   8    3.44    0.50
   8   4   8    3.11    0.55
  -4   8   8    3.71    0.61
   3  -8  -8   -0.13    0.43
   3  -8  -8   -0.27    0.40
  -8  -3  -8    0.49    0.45
   8   3   8    0.01    0.36
  -8  -3   8   -0.21    0.35
  -3   8   8   -0.47    0.35
   8   3   8   -0.16    0.38
  -8  -2  -8    0.49    0.48
   2  -8  -8    0.83    0.49
   2  -8  -8   -0.23    0.44
  -8  -2   8    0.75    0.39
  -2   8   8    0.25    0.40
   8   2   8    0.98    0.42
   8   2   8    0.28    0.42
   1  -8  -8    7.11    0.77
  -8  -1  -8    8.92    0.91
  -1   8   8    6.88    0.78
  -8  -1   8    8.52    0.74
   8   1   8   10.24    0.82
   8   1   8    7.66    0.79
  -8   0  -8   15.12    1.07
   0  -8  -8   13.46    1.04
   8   0   8   15.69    1.13
   0   8   8   15.15    1.06
   8   0   8   15.72    1.08
  -8   0   8   17.01    0.97
   8  -1  -8   10.78    0.84
   8  -1  -8   10.98    1.00
  -8   1  -8   11.71    0.97
  -1  -8  -8    9.93    0.92
   8  -1   8    8.93    0.85
   1   8   8    9.15    0.87
   8  -1   8   12.32    1.05
  -8   1   8    8.45    0.74
  -8   2  -8    9.28    0.88
  -2  -8  -8    8.20    0.84
   8  -2  -8    9.59    0.72
   8  -2  -8    9.30    0.80
   2   8   8    9.51    0.89
  -8   2   8    9.83    0.77
   8  -2   8    9.16    0.86
  -8   3  -8    1.72    0.50
   8  -3  -8    2.13    0.45
  -3  -8  -8    0.88    0.55
   8  -3  -8    1.75    0.48
   8  -3   8    1.41    0.50
   3   8   8    0.90    0.47
  -8   4  -8    1.40    0.50
   8  -4  -8    1.44    0.50
  -4  -8  -8    0.75    0.54
   8  -4  -8    1.24    0.43
   4   8   8    1.62    0.52
   8  -4   8    1.02    0.48
   8  -5  -8    2.37    0.51
  -5  -8  -8    2.15    0.63
   8  -5  -8    1.84    0.52
  -8   5  -8    1.19    0.48
   8  -5   8    1.91    0.54
   5   8   8    1.71    0.55
  -8   6  -8    0.74    0.45
   8  -6  -8    0.87    0.47
  -6  -8  -8    0.07    0.54
   8  -6  -8   -0.05    0.48
   8  -6   8    0.32    0.47
   6   8   8    0.45    0.44
   6   8   8    0.75    0.50
  -7  -8  -8    1.11    0.59
   8  -7  -8    1.46    0.55
  -8   7  -8    1.28    0.45
   8  -7  -8    0.98    0.49
   8  -7   8    0.65    0.47
   7   8   8    0.11    0.51
   7   8   8    1.62    0.47
   8  -8  -8    0.58    0.52
  -8  -8  -8    0.42    0.56
   8  -8  -8    0.88    0.50
   8   8   8    0.19    0.51
   8   8   8    0.02    0.42
   8  -9  -8    1.56    0.61
   8  -9  -8    1.52    0.56
  -9  -8  -8    1.98    0.69
   9   8   8    0.80    0.55
   9   8   8    1.84    0.52
   7  -9  -8   25.59    1.46
   7  -9  -8   24.37    1.36
  -9  -7  -8   24.32    1.51
   9   7   8   26.08    1.47
   9   7   8   23.88    1.29
   6  -9  -8    1.68    0.59
  -9  -6  -8    1.35    0.62
   6  -9  -8    1.25    0.55
   9   6   8    0.58    0.50
   9   6   8    0.55    0.46
  -6   9   8    0.26    0.45
   5  -9  -8   22.24    1.27
   5  -9  -8   24.45    1.39
  -9  -5  -8   17.96    1.37
   9   5   8   21.69    1.29
   9   5   8   21.85    1.18
  -5   9   8   22.24    1.28
   9   5   8   22.43    1.21
   4  -9  -8    0.13    0.48
   4  -9  -8    0.74    0.50
  -9  -4  -8    0.98    0.55
  -4   9   8    0.58    0.43
   9   4   8    0.89    0.39
   9   4   8    0.76    0.45
   9   4   8    1.48    0.48
   3  -9  -8    0.02    0.48
   3  -9  -8   -0.28    0.47
  -9  -3  -8    0.49    0.51
   9   3   8    0.20    0.42
  -3   9   8    0.24    0.42
   9   3   8   -0.06    0.39
  -9  -3   8    0.31    0.39
  -9  -2  -8    2.33    0.64
   2  -9  -8    0.42    0.50
   2  -9  -8    1.51    0.52
  -9  -2   8    2.18    0.47
   9   2   8    2.47    0.52
  -2   9   8    1.71    0.50
   9   2   8    1.42    0.49
  -9  -1  -8    1.95    0.57
   1  -9  -8    1.26    0.53
  -1   9   8    0.81    0.47
   9   1   8    1.36    0.47
   9   1   8    0.80    0.44
  -9   0  -8    2.12    0.59
   0  -9  -8    1.71    0.57
   9   0   8    2.02    0.47
   9   0   8    1.80    0.51
   0   9   8    2.32    0.55
  -9   1  -8    1.75    0.51
  -1  -9  -8    1.58    0.55
   9  -1  -8    1.85    0.46
   1   9   8    1.93    0.52
   9  -1   8    2.42    0.50
   9  -1   8    1.33    0.50
  -2  -9  -8    0.65    0.53
  -9   2  -8    0.80    0.48
   9  -2  -8    1.00    0.39
   9  -2  -8    0.85    0.44
   9  -2   8    0.70    0.45
   2   9   8    0.74    0.48
   9  -2   8    1.15    0.45
  -3  -9  -8    2.79    0.63
   9  -3  -8    4.38    0.55
  -9   3  -8    2.50    0.58
   9  -3  -8    3.92    0.60
   3   9   8    3.15    0.64
   9  -3   8    4.27    0.60
   9  -3   8    3.31    0.61
   9  -4  -8    2.10    0.53
  -4  -9  -8    1.52    0.57
  -9   4  -8    2.35    0.56
   9  -4  -8    2.61    0.51
   9  -4   8    2.30    0.57
   9  -4   8    3.33    0.55
   4   9   8    1.84    0.56
   9  -5  -8   27.58    1.44
  -9   5  -8   24.98    1.40
   9  -5  -8   26.55    1.29
  -5  -9  -8   29.04    1.55
   9  -5   8   26.44    1.33
   5   9   8   25.49    1.49
   9  -5   8   23.85    1.39
   9  -6  -8    0.96    0.46
   9  -6  -8    0.35    0.51
  -9   6  -8    1.16    0.49
  -6  -9  -8   -0.36    0.54
   9  -6   8    0.23    0.45
   9  -6   8    0.39    0.44
   6   9   8   -0.45    0.46
  -7  -9  -8   33.57    1.77
  -9   7  -8   31.00    1.56
   9  -7  -8   34.38    1.54
   9  -7  -8   32.76    1.67
   7   9   8   27.36    1.66
   9  -7   8   31.00    1.52
   9  -7   8   32.31    1.64
  -9   8  -8    1.01    0.47
  -8  -9  -8    1.60    0.65
   9  -8  -8    0.57    0.47
   9  -8  -8    1.34    0.60
   9  -8   8    0.18    0.51
   8   9   8    0.95    0.56
   8   9   8    0.37    0.44
   9  -8   8    1.15    0.51
   9  -9  -8   10.41    1.06
   9  -9  -8   10.92    0.98
  -9  -9  -8   13.06    1.23
   9   9   8   12.19    0.97
   9   9   8   11.19    1.12
   9  -9   8   10.99    0.98
 -10  -9  -8    0.42    0.65
   9 -10  -8    0.36    0.61
   9 -10  -8    0.55    0.56
   9 -10   8   -0.35    0.52
  10   9   8    0.11    0.48
  10   9   8    0.11    0.54
   8 -10  -8    0.34    0.59
   8 -10  -8    0.32    0.53
 -10  -8  -8   -0.39    0.56
  10   8   8   -0.22    0.44
  10   8   8    0.32    0.47
  10   8   8   -0.16    0.52
 -10  -7  -8    0.51    0.59
   7 -10  -8    2.28    0.66
   7 -10  -8    0.60    0.52
  10   7   8   -0.06    0.52
  10   7   8    0.53    0.48
  10   7   8    0.77    0.47
   6 -10  -8    0.41    0.58
   6 -10  -8    0.66    0.51
 -10  -6  -8    1.13    0.61
  -6  10   8    0.86    0.56
  10   6   8    1.33    0.55
  10   6   8    1.08    0.45
  10   6   8    0.66    0.48
 -10  -5  -8    0.33    0.55
   5 -10  -8    0.77    0.53
   5 -10  -8    1.11    0.56
  10   5   8    1.00    0.49
  10   5   8    1.18    0.45
  10   5   8    0.32    0.47
  -5  10   8    0.25    0.46
   4 -10  -8    8.33    0.90
 -10  -4  -8    8.02    0.98
   4 -10  -8    7.72    0.86
  -4  10   8    8.54    0.87
  10   4   8    7.05    0.70
  10   4   8    6.65    0.76
  10   4   8    7.34    0.80
   3 -10  -8    4.36    0.72
   3 -10  -8    4.03    0.70
 -10  -3  -8    4.77    0.80
  10   3   8    4.96    0.69
  10   3   8    5.37    0.69
  -3  10   8    4.20    0.68
   2 -10  -8    0.93    0.56
 -10  -2  -8    1.13    0.56
   2 -10  -8    0.76    0.55
  -2  10   8    0.94    0.51
  10   2   8    1.14    0.49
  10   2   8    1.39    0.51
   1 -10  -8    7.03    0.85
 -10  -1  -8    6.81    0.82
  -1  10   8    5.38    0.75
  10   1   8    5.85    0.72
  10   1   8    6.42    0.72
 -10   0  -8    3.16    0.67
   0 -10  -8    2.70    0.65
  10   0   8    2.47    0.56
   0  10   8    2.88    0.63
  10   0   8    3.20    0.58
  10  -1  -8    1.92    0.47
 -10   1  -8    2.00    0.58
  -1 -10  -8    2.05    0.59
  10  -1   8    1.69    0.50
   1  10   8    1.43    0.53
  10  -1   8    2.34    0.55
  -2 -10  -8    6.26    0.82
 -10   2  -8    5.22    0.75
  10  -2  -8    5.18    0.65
  10  -2   8    5.95    0.70
   2  10   8    4.42    0.72
  10  -2   8    7.19    0.78
  -3 -10  -8    0.63    0.60
  10  -3  -8    1.53    0.44
  10  -3  -8    1.38    0.50
 -10   3  -8    1.52    0.55
  10  -3   8    1.67    0.50
   3  10   8    1.25    0.55
  10  -3   8    0.82    0.48
  -4 -10  -8    3.42    0.75
 -10   4  -8    3.54    0.66
  10  -4  -8    3.46    0.55
  10  -4  -8    3.66    0.64
  10  -4   8    4.07    0.63
  10  -4   8    3.84    0.64
   4  10   8    5.23    0.80
  10  -5  -8    2.15    0.52
 -10   5  -8    2.96    0.61
  10  -5  -8    1.98    0.60
  -5 -10  -8    1.36    0.61
   5  10   8    2.03    0.63
  10  -5   8    2.19    0.53
  10  -5   8    2.53    0.59
 -10   6  -8    3.21    0.64
  -6 -10  -8    2.54    0.70
  10  -6  -8    2.68    0.55
  10  -6  -8    1.87    0.60
  10  -6   8    1.88    0.58
   6  10   8    1.18    0.60
  10  -6   8    2.21    0.57
  10  -7  -8    1.17    0.51
  -7 -10  -8    2.41    0.71
 -10   7  -8    1.84    0.56
  10  -7  -8    2.01    0.62
  10  -7   8    1.90    0.56
   7  10   8    1.54    0.63
  10  -7   8    1.69    0.57
  10  -8  -8    2.80    0.59
  -8 -10  -8    0.77    0.65
  10  -8  -8    3.21    0.70
 -10   8  -8    2.35    0.58
  10  -8   8    2.66    0.64
  10  -8   8    2.65    0.62
   8  10   8    1.75    0.68
  -9 -10  -8   -0.97    0.57
  10  -9  -8   -0.21    0.47
  10  -9  -8   -0.37    0.59
  10  -9   8   -0.10    0.48
  10  -9   8   -0.18    0.49
   9  10   8    0.16    0.54
  10 -10  -8    2.68    0.65
  10 -10  -8    2.73    0.77
 -10 -10  -8    2.10    0.76
  10 -10   8    2.50    0.66
  10  10   8    2.28    0.75
  10 -11  -8    2.30    0.74
  10 -11  -8    2.43    0.64
 -11 -10  -8    1.71    0.76
  11  10   8    0.64    0.56
  11  10   8    3.16    0.79
  10 -11   8    2.38    0.70
 -11  -9  -8    1.10    0.69
   9 -11  -8    1.76    0.70
   9 -11  -8    1.16    0.60
   9 -11   8    1.56    0.63
  11   9   8    2.11    0.63
  11   9   8    0.80    0.55
  11   9   8    1.37    0.66
   8 -11  -8    0.33    0.56
 -11  -8  -8    0.72    0.65
   8 -11  -8    0.94    0.66
  11   8   8    0.03    0.56
  11   8   8    0.73    0.52
  11   8   8    0.11    0.48
   7 -11  -8   18.85    1.41
 -11  -7  -8   16.19    1.34
   7 -11  -8   17.02    1.24
  11   7   8   18.23    1.17
  11   7   8   16.47    1.14
  11   7   8   14.57    1.22
   6 -11  -8    4.34    0.73
   6 -11  -8    5.49    0.83
 -11  -6  -8    2.99    0.74
  11   6   8    3.19    0.63
  11   6   8    3.38    0.67
  11   6   8    3.78    0.72
 -11  -5  -8    2.75    0.74
   5 -11  -8    1.61    0.66
   5 -11  -8    3.28    0.68
  11   5   8    3.09    0.58
  -5  11   8    2.21    0.63
  11   5   8    1.94    0.58
  11   5   8    2.85    0.60
   4 -11  -8    4.52    0.74
   4 -11  -8    3.43    0.72
 -11  -4  -8    3.49    0.80
  11   4   8    3.96    0.64
  -4  11   8    2.23    0.61
  11   4   8    3.84    0.59
  11   4   8    3.23    0.61
 -11  -3  -8    0.49    0.59
   3 -11  -8    0.46    0.54
   3 -11  -8    0.30    0.56
  -3  11   8    0.96    0.54
  11   3   8    1.16    0.49
  11   3   8    0.40    0.46
   2 -11  -8   -0.33    0.47
 -11  -2  -8    0.13    0.53
   2 -11  -8   -0.70    0.47
  11   2   8   -0.10    0.41
  11   2   8   -0.02    0.44
  -2  11   8   -0.34    0.46
   1 -11  -8    0.05    0.54
 -11  -1  -8    0.46    0.48
  -1  11   8   -0.08    0.48
  11   1   8    0.13    0.42
  11   1   8   -0.61    0.39
   0 -11  -8    0.50    0.57
 -11   0  -8    0.37    0.51
  11   0   8    0.45    0.45
  11   0   8    0.84    0.47
   0  11   8    0.50    0.51
 -11   1  -8    0.78    0.56
  11  -1  -8    0.02    0.44
  -1 -11  -8    0.90    0.58
  11  -1   8    1.05    0.48
   1  11   8    1.21    0.56
  11  -1   8    1.50    0.51
  11  -2  -8    1.10    0.50
  -2 -11  -8    0.43    0.52
 -11   2  -8   -0.07    0.48
   2  11   8    0.69    0.54
  11  -2   8    0.60    0.50
  11  -2   8    0.66    0.47
  -3 -11  -8    1.59    0.60
 -11   3  -8    2.23    0.59
  11  -3  -8    2.88    0.50
  11  -3  -8    2.80    0.57
  11  -3   8    2.96    0.59
  11  -3   8    3.17    0.62
   3  11   8    2.50    0.65
  -4 -11  -8    2.87    0.68
  11  -4  -8    1.66    0.47
 -11   4  -8    1.79    0.58
  11  -4  -8    1.63    0.57
   4  11   8    1.14    0.59
  11  -4   8    1.58    0.52
  11  -4   8    1.58    0.52
  11  -5  -8   19.58    1.10
 -11   5  -8   16.73    1.21
  -5 -11  -8   16.76    1.30
  11  -5  -8   21.10    1.31
   5  11   8   17.69    1.36
  11  -5   8   18.49    1.23
  11  -5   8   16.94    1.15
  11  -6  -8    0.59    0.44
  11  -6  -8    0.14    0.54
  -6 -11  -8    0.43    0.62
 -11   6  -8    0.81    0.50
   6  11   8    0.03    0.54
  11  -6   8   -0.22    0.45
  11  -6   8    0.40    0.52
  11  -7  -8   10.53    1.01
  11  -7  -8   10.34    0.89
  -7 -11  -8   12.12    1.18
 -11   7  -8    8.68    0.94
   7  11   8    9.97    1.10
  11  -7   8    8.78    0.92
  11  -7   8    9.48    0.94
 -11   8  -8    0.32    0.49
  11  -8  -8   -0.32    0.45
  11  -8  -8    0.21    0.61
  -8 -11  -8    0.53    0.67
  11  -8   8    0.49    0.53
   8  11   8   -0.39    0.54
  11  -8   8   -0.25    0.50
  -9 -11  -8    5.63    0.91
  11  -9  -8    6.65    0.94
  11  -9  -8    5.93    0.74
 -11   9  -8    6.99    0.84
  11  -9   8    6.60    0.84
   9  11   8    6.29    0.97
  11  -9   8    7.41    0.87
  11 -10  -8    0.94    0.58
 -10 -11  -8    1.58    0.76
  11 -10  -8    0.56    0.68
  11 -10   8   -0.34    0.55
  10  11   8    0.53    0.70
  11 -10   8   -0.43    0.47
  11 -11  -8    0.47    0.58
 -11 -11  -8    1.18    0.73
  11 -11  -8    1.01    0.72
  11  11   8    0.61    0.60
  11 -11   8    1.14    0.65
  11  11   8    0.91    0.73
  11 -12  -8   -0.59    0.58
  11 -12  -8    0.81    0.76
 -12 -11  -8   -0.67    0.66
  11 -12   8   -0.01    0.64
  12  11   8   -0.24    0.54
  12  11   8   -0.68    0.61
  10 -12  -8    2.12    0.66
  10 -12  -8    0.98    0.74
 -12 -10  -8    0.88    0.73
  12  10   8    0.29    0.69
  12  10   8    0.55    0.57
  10 -12   8    0.78    0.66
   9 -12  -8    0.12    0.70
 -12  -9  -8    0.32    0.72
   9 -12  -8    0.63    0.60
  12   9   8    0.56    0.54
   9 -12   8    0.58    0.58
  12   9   8   -0.80    0.46
  12   9   8    0.40    0.64
   8 -12  -8   -0.69    0.62
   8 -12  -8    0.59    0.60
 -12  -8  -8    0.82    0.66
  12   8   8    0.39    0.53
  12   8   8   -0.44    0.58
  12   8   8    0.34    0.54
   7 -12  -8   -0.15    0.62
   7 -12  -8   -0.04    0.55
 -12  -7  -8    0.12    0.62
  12   7   8    0.42    0.53
  12   7   8    0.54    0.57
  12   7   8   -0.03    0.50
   6 -12  -8    9.53    1.06
 -12  -6  -8    9.54    1.08
   6 -12  -8    7.76    0.89
  12   6   8   10.11    0.89
  12   6   8    9.87    1.01
  12   6   8   10.62    1.00
 -12  -5  -8    1.42    0.65
   5 -12  -8   -0.07    0.60
   5 -12  -8    0.59    0.57
  12   5   8    0.59    0.46
  12   5   8   -0.01    0.50
  -5  12   8    0.80    0.56
  12   5   8    0.61    0.50
   4 -12  -8   17.75    1.34
   4 -12  -8   17.79    1.25
 -12  -4  -8   18.18    1.37
  12   4   8   17.70    1.17
  -4  12   8   18.20    1.30
  12   4   8   17.44    1.23
  12   4   8   21.69    1.38
 -12  -3  -8    1.08    0.60
   3 -12  -8    0.60    0.53
   3 -12  -8    1.02    0.62
  12   3   8    0.64    0.49
  12   3   8    1.25    0.53
  -3  12   8   -0.16    0.50
   2 -12  -8   18.78    1.28
 -12  -2  -8   18.90    1.38
  12   2   8   17.96    1.20
  -2  12   8   18.93    1.34
  12   2   8   16.96    1.19
   1 -12  -8    2.59    0.65
 -12  -1  -8    3.29    0.70
  12   1   8    4.48    0.68
  12   1   8    3.36    0.62
  -1  12   8    2.68    0.68
   0 -12  -8    6.36    0.87
 -12   0  -8    9.52    1.03
   0  12   8    8.63    0.98
  12   0   8   10.21    0.93
  12   0   8    8.67    0.86
  12  -1  -8    1.45    0.51
 -12   1  -8   -0.13    0.53
  -1 -12  -8    0.51    0.58
  12  -1   8    0.51    0.47
  12  -1   8    0.28    0.47
   1  12   8    0.36    0.57
  -2 -12  -8   14.50    1.17
 -12   2  -8   10.98    1.08
  12  -2  -8   13.20    1.03
   2  12   8   12.57    1.18
  12  -2   8   14.28    1.08
  12  -2   8   13.12    1.05
  12  -3  -8    1.42    0.55
  -3 -12  -8    0.82    0.61
 -12   3  -8    1.55    0.60
   3  12   8    0.81    0.61
  12  -3   8    1.25    0.54
  12  -3   8    1.38    0.55
 -12   4  -8    9.97    1.02
  -4 -12  -8    7.41    0.92
  12  -4  -8   12.06    1.04
  12  -4   8   10.44    0.97
   4  12   8    7.75    1.00
  12  -4   8   11.88    1.02
  12  -5  -8    0.26    0.54
  -5 -12  -8    0.74    0.64
 -12   5  -8    0.66    0.54
   5  12   8    0.50    0.61
  12  -5   8    1.20    0.54
  12  -5   8    1.28    0.55
  12  -6  -8    1.66    0.63
  -6 -12  -8    1.61    0.71
 -12   6  -8    1.48    0.59
  12  -6   8    1.45    0.57
  12  -6   8    1.51    0.56
   6  12   8    0.49    0.64
  12  -7  -8   -0.07    0.59
  -7 -12  -8   -0.13    0.62
 -12   7  -8   -0.11    0.48
  12  -7   8    0.35    0.52
   7  12   8    0.40    0.65
  12  -7   8    0.30    0.53
  12  -8  -8   -0.16    0.60
 -12   8  -8    1.07    0.59
  -8 -12  -8    0.79    0.69
   8  12   8    0.73    0.68
  12  -8   8    0.16    0.52
  12  -8   8   -0.07    0.54
 -12   9  -8    0.62    0.56
  12  -9  -8    1.09    0.69
  -9 -12  -8    0.56    0.68
  12  -9   8   -0.18    0.51
  12  -9   8    0.51    0.61
   9  12   8    1.85    0.72
 -10 -12  -8    2.75    0.81
  12 -10  -8    2.96    0.82
  12 -10   8    3.45    0.79
  10  12   8    3.61    0.83
  12 -10   8    2.74    0.67
 -11 -12  -8    0.62    0.73
  12 -11  -8    0.19    0.73
  12 -11   8   -0.10    0.60
  11  12   8    1.53    0.74
  12 -11   8    0.42    0.58
  11  12   8   -0.23    0.54
  10 -13  -8    2.78    0.83
  10 -13  -8    1.65    0.69
 -13 -10  -8    2.11    0.80
  10 -13   8    1.45    0.72
  13  10   8    1.99    0.69
 -13  -9  -8    0.35    0.72
   9 -13  -8    0.87    0.75
   9 -13  -8    0.27    0.63
  13   9   8    0.18    0.54
  13   9   8    0.52    0.65
  13   9   8   -0.59    0.50
   9 -13   8    0.21    0.60
   8 -13  -8    1.37    0.80
   8 -13  -8    2.78    0.72
 -13  -8  -8    4.57    0.95
   8 -13   8    1.07    1.10
  13   8   8    3.12    0.69
  13   8   8    1.94    0.71
  13   8   8    2.47    0.67
   7 -13  -8    3.64    0.75
 -13  -7  -8    4.65    0.92
   7 -13  -8    4.22    0.89
  13   7   8    4.12    0.72
  13   7   8    3.59    0.73
  13   7   8    4.25    0.82
 -13  -6  -8    0.14    0.65
   6 -13  -8    0.05    0.69
   6 -13  -8   -0.38    0.56
  13   6   8    0.21    0.57
  13   6   8   -0.01    0.47
  13   6   8    0.40    0.53
   5 -13  -8    0.81    0.64
   5 -13  -8    0.47    0.66
 -13  -5  -8    0.22    0.67
  13   5   8    0.62    0.55
  13   5   8    0.83    0.57
  13   5   8    0.87    0.52
  -5  13   8    0.06    0.54
   4 -13  -8    1.35    0.69
   4 -13  -8    1.36    0.62
 -13  -4  -8    1.65    0.68
  13   4   8    1.71    0.60
  13   4   8    1.36    0.56
  -4  13   8    0.83    0.63
 -13  -3  -8    0.25    0.63
   3 -13  -8    0.09    0.56
   3 -13  -8    0.11    0.60
  -3  13   8   -0.83    0.50
  13   3   8    0.37    0.48
  13   3   8    1.10    0.53
   2 -13  -8    1.54    0.66
 -13  -2  -8    1.40    0.64
  13   2   8    1.70    0.58
  -2  13   8    1.15    0.64
  13   2   8    1.66    0.54
 -13  -1  -8    0.07    0.58
   1 -13  -8   -0.05    0.54
  13   1   8    0.13    0.50
  13   1   8    0.50    0.49
  -1  13   8   -0.53    0.52
   0 -13  -8    0.08    0.58
 -13   0  -8   -0.13    0.54
  13   0   8   -0.23    0.45
   0  13   8    0.05    0.56
  13   0   8   -0.18    0.46
  -1 -13  -8    0.66    0.61
 -13   1  -8    1.37    0.64
  13  -1  -8    1.23    0.53
  13  -1   8    1.65    0.56
  13  -1   8    0.79    0.50
   1  13   8   -0.30    0.52
 -13   2  -8    1.49    0.61
  -2 -13  -8    1.20    0.65
  13  -2  -8    0.86    0.54
  13  -2   8    1.72    0.57
   2  13   8    1.38    0.66
  13  -2   8    0.97    0.51
  13  -3  -8    0.45    0.52
 -13   3  -8    0.28    0.55
  -3 -13  -8    0.77    0.65
  13  -3   8    0.31    0.50
   3  13   8    0.43    0.61
  13  -3   8    1.64    0.58
  13  -4  -8    1.57    0.62
 -13   4  -8    1.41    0.63
  -4 -13  -8    1.76    0.71
   4  13   8    1.27    0.65
  13  -4   8    1.50    0.55
  13  -4   8    1.30    0.59
 -13   5  -8    2.28    0.70
  -5 -13  -8    1.99    0.73
  13  -5  -8    1.48    0.63
   5  13   8    2.38    0.75
  13  -5   8    2.01    0.58
  13  -5   8    2.59    0.66
  -6 -13  -8    2.12    0.73
  13  -6  -8    3.14    0.72
 -13   6  -8    3.08    0.71
  13  -6   8    2.86    0.70
   6  13   8    2.21    0.76
  13  -6   8    2.55    0.63
  13  -7  -8    5.68    0.90
 -13   7  -8    5.49    0.85
  -7 -13  -8    4.76    0.89
  13  -7   8    4.96    0.79
  13  -7   8    3.21    0.68
   7  13   8    5.98    1.00
  -8 -13  -8    0.87    0.74
 -13   8  -8    0.36    0.56
  13  -8  -8    1.38    0.71
   8  13   8   -0.12    0.64
  13  -8   8    1.19    0.62
  13  -8   8    1.46    0.60
  13  -9  -8    1.49    0.77
 -13   9  -8    2.13    0.66
  -9 -13  -8    2.70    0.82
  13  -9   8    1.78    0.71
  13  -9   8    2.23    0.65
   9  13   8    2.61    0.83
 -13  10  -8    0.14    0.55
  13 -10  -8    0.91    0.74
 -10 -13  -8    0.22    0.71
  13 -10   8    1.01    0.66
 -14  -8  -8   -0.31    0.67
   8 -14  -8   -0.28    0.75
   8 -14  -8   -0.52    0.61
  14   8   8   -0.57    0.54
  14   8   8   -0.19    0.52
  14   8   8   -1.05    0.57
   8 -14   8    0.14    0.84
 -14  -7  -8   -0.74    0.69
   7 -14  -8   -0.46    0.70
   7 -14  -8    0.25    0.60
  14   7   8   -0.19    0.62
  14   7   8   -0.16    0.54
  14   7   8    0.30    0.55
   6 -14  -8   11.58    1.21
 -14  -6  -8   10.30    1.20
   6 -14  -8   11.66    1.13
  14   6   8   11.44    1.13
  14   6   8   12.67    1.15
  14   6   8   13.22    1.06
   5 -14  -8    1.05    0.66
   5 -14  -8    1.22    0.76
 -14  -5  -8    1.22    0.74
  14   5   8    1.38    0.64
  14   5   8    1.53    0.56
  14   5   8    1.61    0.63
   4 -14  -8   23.71    1.55
 -14  -4  -8   24.92    1.62
   4 -14  -8   26.98    1.73
  14   4   8   26.89    1.55
  14   4   8   26.41    1.53
 -14  -3  -8    1.77    0.73
   3 -14  -8    0.64    0.60
  14   3   8    1.21    0.57
  14   3   8    1.33    0.59
 -14  -2  -8   19.66    1.44
   2 -14  -8   19.03    1.34
  14   2   8   17.59    1.25
  14   2   8   20.60    1.30
  -2  14   8   17.79    1.50
 -14  -1  -8    0.55    0.65
   1 -14  -8    0.62    0.62
  14   1   8    0.89    0.58
  -1  14   8   -0.55    0.56
  14   1   8    0.40    0.52
 -14   0  -8   18.86    1.41
   0 -14  -8   18.05    1.34
  14   0   8   19.53    1.23
   0  14   8   17.58    1.48
  14   0   8   18.06    1.27
  14  -1  -8    0.73    0.55
 -14   1  -8    0.42    0.62
  -1 -14  -8    1.39    0.65
  14  -1   8    1.33    0.58
   1  14   8    0.07    0.63
  14  -1   8    0.61    0.48
 -14   2  -8   17.28    1.38
  14  -2  -8   15.47    1.20
  -2 -14  -8   16.13    1.30
  14  -2   8   16.60    1.18
  14  -2   8   15.86    1.19
   2  14   8   12.09    1.27
  -3 -14  -8   -0.20    0.63
  14  -3  -8    0.58    0.56
 -14   3  -8    0.85    0.61
  14  -3   8    0.32    0.51
  14  -3   8    1.04    0.59
   3  14   8    0.93    0.68
  14  -4  -8    8.27    0.97
  -4 -14  -8    5.93    0.92
 -14   4  -8    6.79    0.90
  14  -4   8    6.91    0.87
   4  14   8    6.19    1.02
  14  -4   8    5.39    0.77
  14  -5  -8    0.58    0.60
  -5 -14  -8    0.06    0.65
 -14   5  -8   -0.32    0.58
   5  14   8   -0.41    0.67
  14  -5   8   -0.81    0.52
  14  -5   8   -0.40    0.47
  -6 -14  -8    0.52    0.69
 -14   6  -8    0.41    0.56
  14  -6  -8    0.79    0.63
  14  -6   8    0.15    0.59
   6  14   8    0.05    0.69
  14  -6   8    0.34    0.51
  -7 -14  -8    0.94    0.70
 -14   7  -8    0.83    0.63
  14  -7  -8    0.64    0.67
   7  14   8    1.53    0.80
  14  -7   8    0.83    0.53
  14  -7   8    2.00    0.69
  -8 -14  -8    1.23    0.75
  14  -8  -8    1.70    0.73
 -14   8  -8    0.93    0.63
   8  14   8    1.29    0.80
  14  -8   8    2.87    0.74
  14  -8   8    1.09    0.60
   7 -15  -8    1.82    0.71
 -15  -6  -8    1.71    0.79
   6 -15  -8   -0.59    0.60
   6 -15  -8   -0.05    0.75
  15   6   8    1.31    0.69
  15   6   8    0.78    0.59
  15   6   8    1.42    0.58
   5 -15  -8    0.01    0.71
   5 -15  -8   -0.65    0.60
 -15  -5  -8   -0.11    0.66
  15   5   8    0.47    0.59
  15   5   8    0.49    0.58
  15   5   8    0.14    0.53
   4 -15  -8    0.94    0.67
   4 -15  -8   -0.30    0.69
 -15  -4  -8    0.15    0.67
  15   4   8   -0.26    0.53
  15   4   8   -0.22    0.52
   3 -15  -8   -0.89    0.58
 -15  -3  -8    0.81    0.66
  15   3   8   -0.57    0.51
  15   3   8   -0.49    0.54
   2 -15  -8    1.89    0.72
 -15  -2  -8    1.35    0.70
  15   2   8    1.07    0.62
  15   2   8    1.94    0.59
   1 -15  -8    0.15    0.64
 -15  -1  -8    0.46    0.65
  15   1   8    0.50    0.49
  15   1   8    0.26    0.59
 -15   0  -8    0.48    0.61
   0 -15  -8   -0.10    0.62
  15   0  -8   -0.55    0.75
  15   0   8    0.08    0.55
  15   0   8   -0.34    0.47
  15  -1  -8    0.20    0.55
 -15   1  -8    0.43    0.59
  -1 -15  -8    0.09    0.63
  15  -1   8    0.49    0.56
  15  -1   8   -0.13    0.47
  15  -2  -8    1.07    0.60
 -15   2  -8    0.87    0.65
  -2 -15  -8    0.64    0.66
  15  -2   8    1.36    0.61
  15  -2   8    0.51    0.49
 -15   3  -8    1.25    0.68
  -3 -15  -8    0.82    0.69
  15  -3  -8    1.29    0.64
  15  -3   8    0.22    0.57
  15  -3   8    1.03    0.54
 -15   4  -8    0.01    0.61
  -4 -15  -8    0.89    0.67
  15  -4  -8    1.38    0.66
  15  -4   8    0.73    0.60
  15  -4   8    1.33    0.58
 -15   5  -8   -1.04    0.52
  -5 -15  -8    0.64    0.65
  15  -5  -8   -0.05    0.63
  15  -5   8    0.06    0.51
  15  -5   8   -0.20    0.58
  -6 -15  -8    0.26    0.70
  15  -6  -8    0.88    0.69
 -15   6  -8    0.68    0.67
  15  -6   8    0.08    0.63
  15  -6   8    0.62    0.53
  -7 -15  -8    0.58    0.74
   4 -16  -8    7.33    0.97
 -16  -4  -8   10.03    1.15
 -16  -3  -8    0.93    0.69
   3 -16  -8    0.62    0.71
  16   3   8   -0.17    0.54
  16   3   8    0.16    0.60
   2 -16  -8   21.00    1.49
 -16  -2  -8   23.29    1.62
  16   2   8   20.16    1.38
  16   2   8   22.37    1.44
   1 -16  -8    2.67    0.78
 -16  -1  -8    1.00    0.72
  16   1   8    1.98    0.60
  16   1   8    1.05    0.63
 -16   0  -8   10.74    1.19
  16   0  -8   15.70    1.63
  16   0   8   11.96    1.17
  16   0   8   13.84    1.09
  -1 -16  -8    1.91    0.75
 -16   1  -8    1.08    0.71
  16  -1  -8    0.83    0.61
  16  -1   8    0.54    0.60
  16  -1   8    1.00    0.56
  16  -2  -8   15.12    1.24
  -2 -16  -8   14.18    1.29
 -16   2  -8   16.65    1.46
  16  -2   8   15.70    1.31
  16  -2   8   14.89    1.18
  16  -3  -8    1.55    0.68
  -3 -16  -8    1.09    0.69
 -16   3  -8    1.33    0.71
  16  -3   8    0.65    0.63
  16  -3   8    0.95    0.54
  -4 -16  -8    2.33    0.81
 -16   4  -8    1.12    0.70
   0   0  -9   -0.13    0.34
   0   0   9    0.02    0.39
   1   0  -9    7.18    0.70
   0  -1  -9    7.63    0.75
  -1   0  -9    8.41    0.77
   0   1  -9    6.61    0.67
  -1   0   9    8.86    0.81
   0  -1   9    6.64    0.78
   1   0   9    8.47    0.81
   0   1   9    8.38    0.84
  -1  -1  -9   35.15    1.62
  -1   1  -9   38.49    1.62
   1  -1  -9   35.21    1.59
   1   1  -9   37.03    1.58
   1   1   9   35.46    1.69
   1  -1   9   37.38    1.71
  -1   1   9   36.89    1.68
  -1  -1   9   34.78    1.68
  -2  -1  -9    1.43    0.47
   1  -2  -9    1.19    0.45
  -1   2  -9    1.12    0.42
   1  -2   9    0.70    0.42
  -2  -1   9    1.55    0.49
  -1   2   9    0.85    0.46
   2   1   9    0.83    0.45
  -2   0  -9   -0.09    0.37
   0  -2  -9   -0.03    0.37
   2   0  -9   -0.50    0.31
   0  -2   9   -0.29    0.39
   0   2   9   -0.44    0.38
   2   0   9   -0.28    0.39
  -2   0   9    0.17    0.38
  -2   1  -9    1.66    0.45
  -1  -2  -9    1.22    0.45
   2  -1  -9    1.79    0.45
   2  -1   9    2.11    0.52
  -2   1   9    0.98    0.44
  -1  -2   9    2.18    0.54
   1   2   9    0.99    0.45
  -2  -2  -9    0.81    0.46
   2  -2  -9    0.08    0.36
  -2   2  -9    0.58    0.40
  -2  -2   9    0.77    0.44
   2   2   9    0.32    0.41
   2  -2   9    0.15    0.43
  -2   2   9    0.29    0.41
  -3  -2  -9    0.52    0.44
   2  -3  -9    0.29    0.41
   2  -3   9    0.16    0.43
  -3  -2   9    0.12    0.41
   3   2   9    0.75    0.44
  -2   3   9    0.55    0.40
   1  -3  -9   14.93    0.99
  -3  -1  -9   13.88    1.00
  -1   3   9   14.00    0.99
  -3  -1   9   14.15    1.01
   3   1   9   12.00    1.01
   1  -3   9   13.83    1.05
   3   0  -9    6.87    0.79
  -3   0  -9    6.31    0.72
   0  -3  -9    8.30    0.80
   0  -3   9    6.42    0.76
  -3   0   9    8.61    0.78
   0   3   9    6.47    0.72
   3   0   9    7.45    0.81
   3  -1  -9   14.53    0.90
  -1  -3  -9   13.69    1.01
  -3   1  -9   13.84    0.93
  -3   1   9   14.24    0.99
   3  -1   9   12.65    0.98
  -1  -3   9   14.37    1.04
   1   3   9   12.07    0.96
  -2  -3  -9    1.25    0.49
   3  -2  -9    1.02    0.42
  -3   2  -9    1.33    0.43
   3  -2   9    0.46    0.44
  -2  -3   9    2.25    0.53
   2   3   9    1.34    0.47
  -3   2   9    1.01    0.44
  -3   3  -9   11.25    0.89
  -3  -3  -9   12.09    0.99
   3  -3  -9   12.09    0.90
   3   3   9   13.81    1.00
  -3  -3   9   12.49    0.97
   3  -3   9   14.09    1.08
  -3   3   9   11.84    0.90
   3  -4  -9    1.05    0.47
  -4  -3  -9   -0.21    0.44
   4   3   9    0.16    0.40
   3  -4   9    0.09    0.44
  -4  -3   9   -0.05    0.41
  -3   4   9    0.17    0.38
   2  -4  -9    0.09    0.42
  -4  -2  -9    0.50    0.46
   2  -4   9   -0.21    0.42
   4   2   9    0.25    0.43
  -2   4   9    0.04    0.36
  -4  -2   9   -0.25    0.38
  -4  -1  -9    2.30    0.55
   1  -4  -9    2.70    0.54
  -4  -1   9    2.76    0.54
  -1   4   9    2.36    0.51
   4   1   9    2.15    0.54
   1  -4   9    1.27    0.51
   0  -4  -9    1.82    0.54
  -4   0  -9    1.02    0.47
   4   0   9    0.91    0.49
   0  -4   9    1.60    0.51
  -4   0   9    1.23    0.43
   0   4   9    1.62    0.49
   4  -1  -9    0.71    0.39
  -4   1  -9    0.82    0.44
  -1  -4  -9    0.57    0.44
  -4   1   9    0.81    0.42
   1   4   9    0.10    0.39
   4  -1   9    0.57    0.44
  -1  -4   9    0.68    0.44
  -2  -4  -9   -0.25    0.40
  -4   2  -9   -0.35    0.33
   4  -2  -9    0.35    0.36
  -2  -4   9   -0.01    0.41
   2   4   9    0.32    0.41
   4  -2   9    0.17    0.41
  -4   2   9   -0.09    0.38
   4  -3  -9    0.36    0.38
  -3  -4  -9   -0.07    0.43
  -4   3  -9    0.38    0.41
   3   4   9    0.08    0.40
  -3  -4   9    0.15    0.42
   4  -3   9    0.91    0.49
  -4   3   9    1.00    0.43
   4  -4  -9   20.45    1.13
  -4  -4  -9   18.52    1.23
   4  -4   9   19.56    1.25
  -4   4   9   21.59    1.16
  -4  -4   9   18.98    1.20
   4   4   9   17.24    1.16
  -5  -4  -9    4.82    0.76
   4  -5  -9    3.92    0.61
   4  -5  -9    4.26    0.63
   5   4   9    5.37    0.70
  -5  -4   9    4.71    0.67
  -4   5   9    4.13    0.60
   4  -5   9    4.40    0.69
   3  -5  -9    0.24    0.41
  -5  -3  -9    0.22    0.47
   3  -5  -9    0.23    0.41
  -5  -3   9    0.02    0.40
   3  -5   9    0.58    0.47
  -3   5   9    0.32    0.40
   5   3   9    0.34    0.44
   2  -5  -9    7.56    0.77
  -5  -2  -9    6.82    0.79
  -2   5   9    8.87    0.79
  -5  -2   9    8.72    0.84
   5   2   9    8.93    0.84
   2  -5   9    8.22    0.86
   1  -5  -9   10.82    0.96
  -5  -1  -9   12.10    0.98
  -5  -1   9   11.61    0.93
   5   1   9   12.93    1.02
  -1   5   9   12.72    0.94
   1  -5   9   11.39    0.99
   0  -5  -9    1.01    0.48
  -5   0  -9    0.48    0.43
   0   5   9    0.29    0.40
  -5   0   9    0.45    0.38
   5   0   9    0.70    0.47
   0  -5   9    0.79    0.47
   5  -1  -9   16.38    1.41
  -5   1  -9   13.82    1.00
  -1  -5  -9   14.23    1.04
  -5   1   9   13.88    0.97
   1   5   9   14.09    0.99
   5  -1   9   12.95    1.04
   5  -2  -9    5.96    0.63
  -2  -5  -9    6.19    0.78
  -5   2  -9    6.28    0.74
   5  -2   9    5.14    0.72
  -5   2   9    6.08    0.68
   2   5   9    4.92    0.68
  -5   3  -9    0.79    0.45
   5  -3  -9    0.63    0.41
  -3  -5  -9    0.57    0.46
   5  -3   9    0.23    0.45
  -5   3   9    0.53    0.39
   3   5   9    0.09    0.42
  -5   4  -9    1.93    0.50
   5  -4  -9    1.33    0.46
  -4  -5  -9    2.07    0.61
   5  -4   9    2.19    0.55
  -5   4   9    1.67    0.45
   4   5   9    2.09    0.54
   5  -5  -9   -0.03    0.41
   5  -5  -9    0.14    0.41
  -5  -5  -9   -0.10    0.49
   5  -5   9    0.74    0.50
   5   5   9    0.12    0.44
  -5   5   9    0.04    0.37
   5  -6  -9   -0.17    0.46
   5  -6  -9    0.22    0.45
  -6  -5  -9    0.26    0.47
  -5   6   9    0.22    0.40
   5  -6   9    0.70    0.50
   6   5   9    0.31    0.46
   4  -6  -9    5.86    0.74
   4  -6  -9    7.65    0.80
  -6  -4  -9    6.12    0.83
  -6  -4   9    4.87    0.69
   6   4   9    5.68    0.72
  -4   6   9    6.43    0.72
   4  -6   9    5.75    0.76
   3  -6  -9    0.21    0.44
   3  -6  -9    0.17    0.45
  -6  -3  -9    0.57    0.51
  -6  -3   9   -0.29    0.36
   3  -6   9   -0.56    0.43
  -3   6   9    0.20    0.39
   6   3   9   -0.04    0.41
  -6  -2  -9    5.24    0.72
   2  -6  -9    6.38    0.74
  -6  -2   9    6.20    0.71
  -2   6   9    6.12    0.69
   6   2   9    5.91    0.72
   1  -6  -9    1.32    0.52
  -6  -1  -9    1.51    0.56
  -6  -1   9    1.52    0.46
   6   1   9    1.37    0.49
  -1   6   9    0.67    0.43
   0  -6  -9    0.43    0.49
  -6   0  -9   -0.20    0.41
  -6   0   9    0.04    0.39
   6   0   9    0.76    0.47
   0   6   9    0.55    0.42
  -1  -6  -9    1.98    0.60
  -6   1  -9    1.50    0.52
   6  -1   9    1.38    0.52
  -6   1   9    1.09    0.46
   1   6   9    2.10    0.52
  -6   2  -9    3.79    0.65
   6  -2  -9    3.55    0.55
  -2  -6  -9    3.93    0.70
   6  -2   9    4.24    0.66
  -6   2   9    3.36    0.56
   2   6   9    2.99    0.57
  -6   3  -9    1.11    0.49
   6  -3  -9    0.21    0.38
  -3  -6  -9    1.26    0.52
   6  -3   9    0.66    0.49
   3   6   9    1.02    0.48
  -6   3   9    0.57    0.40
   6  -4  -9   17.30    1.66
   6  -4  -9   11.07    0.88
  -4  -6  -9    8.25    0.92
  -6   4  -9   12.43    1.00
  -6   4   9   11.89    0.90
   6  -4   9   11.27    1.03
   4   6   9   11.76    0.99
   6  -5  -9    4.33    0.65
   6  -5  -9    3.92    0.62
  -5  -6  -9    3.75    0.69
  -6   5  -9    4.12    1.01
   5   6   9    2.94    0.63
   6  -5   9    3.77    0.71
  -6   5   9    3.18    0.56
   6  -6  -9   24.22    1.30
  -6  -6  -9   25.57    1.48
   6  -6  -9   22.81    1.35
   6  -6   9   22.99    1.42
   6   6   9   22.28    1.37
  -6   6   9   23.24    1.24
   6  -7  -9    3.79    0.67
  -7  -6  -9    4.71    0.79
   6  -7  -9    3.56    0.64
  -6   7   9    2.80    0.57
   7   6   9    4.24    0.72
   6  -7   9    3.88    0.70
  -7  -5  -9    3.72    0.75
   5  -7  -9    3.86    0.67
   5  -7  -9    3.15    0.64
  -5   7   9    3.20    0.60
   7   5   9    2.76    0.60
   5  -7   9    2.10    0.61
   4  -7  -9   10.98    0.97
   4  -7  -9   12.59    1.01
  -7  -4  -9   11.74    1.11
  -4   7   9    9.20    0.88
  -7  -4   9    9.96    0.90
   7   4   9    9.46    0.93
  -7  -3  -9    0.38    0.50
   3  -7  -9   -0.42    0.47
   3  -7  -9    0.54    0.51
  -3   7   9    0.27    0.43
  -7  -3   9    0.12    0.43
   7   3   9   -0.05    0.41
   2  -7  -9   10.50    0.94
  -7  -2  -9   14.39    1.17
  -7  -2   9   11.22    0.92
   7   2   9   10.80    0.97
  -2   7   9   10.64    0.93
  -7  -1  -9    0.92    0.55
   1  -7  -9    0.92    0.51
  -7  -1   9    0.88    0.44
  -1   7   9    1.08    0.49
   7   1   9    0.95    0.48
   0  -7  -9   13.69    1.06
  -7   0  -9   12.73    1.08
   0   7   9   12.99    1.05
  -7   0   9   13.37    0.97
   7   0   9   13.74    1.10
  -1  -7  -9    0.75    0.49
  -7   1  -9    0.99    0.49
   1   7   9    1.19    0.49
   7  -1   9    0.88    0.51
  -7   1   9    0.10    0.39
  -7   2  -9   17.13    1.18
  -2  -7  -9   20.60    1.27
  -7   2   9   18.34    1.10
   2   7   9   18.07    1.21
   7  -2   9   19.12    1.24
   7  -3  -9    1.50    0.47
  -3  -7  -9    1.03    0.57
  -7   3  -9    1.45    0.53
   3   7   9    0.77    0.51
  -7   3   9    1.11    0.44
   7  -3   9    1.29    0.53
   7  -4  -9    3.70    0.61
   7  -4  -9    3.87    0.82
  -4  -7  -9    2.44    0.66
  -7   4  -9    2.34    0.56
  -7   4   9    2.81    0.66
   4   7   9    2.60    0.63
   7  -4   9    3.44    0.67
   7  -5  -9    1.44    0.52
  -5  -7  -9    1.17    0.61
  -7   5  -9    0.97    0.50
   7  -5  -9    0.95    0.52
   7  -5   9    0.38    0.50
   5   7   9    0.21    0.51
  -6  -7  -9    3.78    0.74
   7  -6  -9    3.53    0.61
   7  -6  -9    3.92    0.70
   6   7   9    2.74    0.65
   7  -6   9    4.26    0.73
  -7  -7  -9    0.31    0.57
   7  -7  -9   -0.20    0.50
   7  -7  -9    0.06    0.51
   7   7   9    1.38    0.57
   7  -7   9   -0.24    0.48
   7  -8  -9    2.31    0.66
  -8  -7  -9    2.07    0.70
   7  -8  -9    1.22    0.60
   8   7   9    1.52    0.62
   7  -8   9    1.34    0.60
   6  -8  -9   20.97    1.38
  -8  -6  -9   19.92    1.41
   6  -8  -9   21.81    1.29
   8   6   9   21.70    1.39
   5  -8  -9    0.44    0.52
  -8  -5  -9    0.44    0.59
   5  -8  -9    0.90    0.56
   8   5   9    0.12    0.48
  -5   8   9   -0.10    0.44
   4  -8  -9    9.27    0.94
   4  -8  -9   12.24    1.05
  -8  -4  -9   11.14    1.09
  -4   8   9    9.41    0.89
   8   4   9   10.61    0.97
  -8  -4   9   10.27    0.90
   3  -8  -9   -0.54    0.48
  -8  -3  -9    0.19    0.54
   3  -8  -9   -0.50    0.46
   8   3   9    0.36    0.46
  -8  -3   9   -0.39    0.38
  -3   8   9   -0.28    0.44
   2  -8  -9    0.45    0.51
  -8  -2  -9   -0.37    0.47
  -2   8   9   -0.66    0.40
   8   2   9    0.33    0.46
  -8  -2   9    0.61    0.43
   1  -8  -9    0.98    0.54
  -8  -1  -9    0.97    0.54
  -8  -1   9    1.37    0.47
  -1   8   9    1.16    0.49
   8   1   9    1.69    0.54
  -8   0  -9    0.71    0.53
   0  -8  -9    0.76    0.55
  -8   0   9    1.94    0.59
   0   8   9    0.94    0.49
   8   0   9    0.67    0.50
  -8   1  -9    0.18    0.50
  -1  -8  -9    0.25    0.51
   1   8   9    0.49    0.51
   8  -1   9    0.50    0.48
  -8   2  -9    9.03    0.95
  -2  -8  -9   10.78    1.05
   2   8   9    9.95    0.98
   8  -2   9    8.88    0.93
  -8   3  -9   -0.53    0.42
   8  -3  -9   -0.03    0.40
  -3  -8  -9   -0.72    0.50
   8  -3   9    0.49    0.48
   3   8   9   -0.14    0.48
  -4  -8  -9   25.42    1.51
   8  -4  -9   25.75    1.52
  -8   4  -9   26.13    1.41
   8  -4  -9   24.57    1.28
   4   8   9   23.89    1.44
   8  -4   9   24.03    1.43
  -5  -8  -9    1.84    0.65
  -8   5  -9    1.88    0.56
   8  -5  -9    2.11    0.54
   8  -5  -9    1.14    0.54
   5   8   9    2.27    0.63
   8  -5   9    1.96    0.64
   8  -6  -9   14.40    1.11
  -8   6  -9   14.78    1.45
   8  -6  -9   13.59    1.00
  -6  -8  -9   13.39    1.25
   6   8   9   12.61    1.15
   8  -6   9   14.72    1.18
  -7  -8  -9    6.67    0.96
   8  -7  -9    6.78    0.85
   8  -7  -9    6.15    0.77
   8  -7   9    5.74    0.81
   7   8   9    6.33    0.88
   8  -8  -9   16.49    1.15
  -8  -8  -9   17.10    1.35
   8  -8  -9   18.28    1.34
   8  -8   9   12.65    1.19
   8   8   9   16.68    1.32
   8  -9  -9    0.72    0.66
  -9  -8  -9    0.50    0.64
   8  -9  -9    1.77    0.61
   8  -9   9    0.37    0.56
   9   8   9    0.74    0.59
  -9  -7  -9    0.45    0.65
   7  -9  -9    0.31    0.62
   7  -9  -9   -0.35    0.55
   9   7   9    0.91    0.59
  -9  -6  -9    0.35    0.64
   6  -9  -9    1.14    0.59
   6  -9  -9    0.20    0.60
   9   6   9    0.25    0.54
   5  -9  -9   -0.10    0.52
  -9  -5  -9    0.93    0.62
   5  -9  -9    0.39    0.58
  -5   9   9    0.11    0.48
   9   5   9    0.08    0.49
   4  -9  -9    1.78    0.61
  -9  -4  -9    2.48    0.71
   4  -9  -9    1.52    0.63
  -4   9   9    2.04    0.59
   9   4   9    2.50    0.60
   3  -9  -9    0.07    0.54
  -9  -3  -9    1.14    0.62
   3  -9  -9    0.05    0.52
   9   3   9   -0.07    0.45
  -3   9   9   -0.22    0.46
  -9  -2  -9    0.97    0.57
   2  -9  -9    0.59    0.55
   9   2   9    0.55    0.49
  -2   9   9    0.36    0.48
  -9  -1  -9    0.42    0.58
   1  -9  -9    1.07    0.59
   9   1   9    0.47    0.49
  -1   9   9    0.53    0.49
   0  -9  -9   -0.05    0.48
  -9   0  -9    0.17    0.50
   9   0   9    0.19    0.46
   0   9   9   -0.26    0.45
  -9   1  -9    0.94    0.53
  -1  -9  -9    1.60    0.62
   9  -1   9    1.57    0.59
   1   9   9    1.32    0.58
  -2  -9  -9    3.77    0.75
  -9   2  -9    2.62    0.65
   2   9   9    2.12    0.61
   9  -2   9    3.09    0.64
  -9   3  -9    1.31    0.57
  -3  -9  -9    1.13    0.61
   3   9   9    1.22    0.58
   9  -3   9    0.87    0.52
  -4  -9  -9    1.57    0.66
  -9   4  -9    0.99    0.51
   9  -4  -9    1.14    0.47
   9  -4  -9    1.18    0.56
   9  -4   9    1.15    0.54
   4   9   9    1.23    0.59
   9  -5  -9   -0.66    0.41
   9  -5  -9   -0.41    0.49
  -5  -9  -9    0.67    0.63
  -9   5  -9    0.56    0.49
   9  -5   9   -0.50    0.47
   5   9   9   -0.16    0.52
   9  -6  -9   -0.17    0.46
  -9   6  -9    0.00    0.42
   9  -6  -9    0.21    0.54
  -6  -9  -9   -0.36    0.56
   9  -6   9   -0.12    0.50
   6   9   9   -0.02    0.54
   9  -7  -9    0.22    0.54
  -7  -9  -9   -0.65    0.56
   9  -7  -9    0.56    0.53
   7   9   9   -0.25    0.54
   9  -7   9   -0.15    0.52
   9  -8  -9    1.18    0.56
   9  -8  -9    1.66    0.66
  -8  -9  -9    1.38    0.71
   9  -8   9    0.87    0.59
   8   9   9    1.79    0.66
   9  -9  -9   -0.72    0.52
   9  -9  -9   -0.06    0.61
  -9  -9  -9   -0.27    0.64
   9   9   9   -0.72    0.56
   9  -9   9    0.51    0.58
 -10  -9  -9    0.73    0.72
   9 -10  -9    0.08    0.59
   9 -10  -9    0.24    0.66
  10   9   9   -0.05    0.63
  10   9   9    0.12    0.54
   9 -10   9   -0.42    0.53
  10   9   9    0.10    0.63
 -10  -8  -9    3.26    0.84
   8 -10  -9    4.90    0.80
   8 -10  -9    3.72    0.82
  10   8   9    4.27    0.80
  10   8   9    4.00    0.70
 -10  -7  -9   -0.10    0.60
   7 -10  -9    0.57    0.58
   7 -10  -9    0.24    0.64
  10   7   9    0.27    0.50
  10   7   9   -0.13    0.57
 -10  -6  -9    4.66    0.89
   6 -10  -9    4.65    0.84
   6 -10  -9    5.72    0.83
  10   6   9    5.74    0.84
   5 -10  -9    1.01    0.59
 -10  -5  -9    1.25    0.67
   5 -10  -9    1.17    0.67
  10   5   9    0.39    0.54
  -5  10   9    1.16    0.58
   4 -10  -9    1.61    0.65
 -10  -4  -9    1.99    0.72
   4 -10  -9    1.46    0.58
  -4  10   9    2.39    0.64
  10   4   9    1.85    0.59
   3 -10  -9   -0.25    0.55
   3 -10  -9    1.02    0.60
 -10  -3  -9    0.16    0.58
  10   3   9    0.28    0.50
  -3  10   9   -0.75    0.46
   2 -10  -9    1.80    0.64
 -10  -2  -9    2.18    0.69
  -2  10   9    1.57    0.63
  10   2   9    1.95    0.59
   1 -10  -9   -0.13    0.53
 -10  -1  -9    0.62    0.55
  10   1   9   -0.10    0.48
  -1  10   9   -0.02    0.50
 -10   0  -9    0.30    0.56
   0 -10  -9    0.09    0.56
  10   0   9    0.55    0.48
   0  10   9    0.18    0.51
  -1 -10  -9   -0.22    0.55
 -10   1  -9   -0.26    0.51
  10  -1   9   -0.10    0.49
   1  10   9   -0.58    0.48
  -2 -10  -9    1.48    0.66
 -10   2  -9    2.21    0.65
   2  10   9    1.70    0.63
  10  -2   9    1.80    0.59
  -3 -10  -9    0.66    0.63
 -10   3  -9    0.79    0.57
   3  10   9    0.62    0.58
  10  -3   9    1.17    0.54
  -4 -10  -9    3.60    0.73
 -10   4  -9    6.45    0.84
  10  -4  -9    4.79    0.86
  10  -4  -9    5.62    0.78
   4  10   9    3.97    0.79
  10  -4   9    4.16    0.72
  10  -5  -9    1.04    0.59
 -10   5  -9    1.16    0.58
  -5 -10  -9    1.70    0.72
  10  -5  -9    1.28    0.49
   5  10   9    0.74    0.62
  10  -5   9    1.44    0.58
  10  -6  -9   10.40    0.92
  -6 -10  -9   11.13    1.16
 -10   6  -9   12.33    1.12
  10  -6  -9   10.24    1.00
   6  10   9    9.39    1.09
  10  -6   9    9.59    1.01
  -7 -10  -9    0.44    0.67
  10  -7  -9    1.46    0.57
 -10   7  -9    1.02    0.93
  10  -7  -9    0.96    0.61
  10  -7   9    1.21    0.60
   7  10   9   -0.31    0.60
  10  -8  -9   12.74    1.06
  -8 -10  -9   13.29    1.28
  10  -8  -9   15.16    1.25
  10  -8   9   14.50    1.21
   8  10   9   12.92    1.28
  10  -9  -9    0.80    0.67
  -9 -10  -9    1.92    0.75
  10  -9  -9    1.51    0.61
   9  10   9    1.91    0.70
  10  -9   9    1.28    0.64
  10 -10  -9    2.45    0.66
 -10 -10  -9    1.20    0.76
   9 -11  -9    4.57    0.80
 -11  -9  -9    4.68    0.93
 -11  -8  -9    0.97    0.71
   8 -11  -9    1.13    0.66
   8 -11  -9    0.45    0.75
  11   8   9    1.66    0.69
  11   8   9    0.52    0.57
  11   8   9    0.24    0.52
 -11  -7  -9    1.08    0.73
   7 -11  -9    1.46    0.72
   7 -11  -9    1.00    0.64
  11   7   9    0.73    0.58
  11   7   9    1.17    0.66
  11   7   9    0.37    0.67
   6 -11  -9   -0.10    0.57
 -11  -6  -9    0.31    0.68
   6 -11  -9   -0.13    0.65
  11   6   9    0.25    0.56
  11   6   9   -0.57    0.54
   5 -11  -9    5.61    0.91
 -11  -5  -9    6.48    0.97
   5 -11  -9    4.80    0.80
  11   5   9    4.76    0.79
  -5  11   9    4.67    0.87
  11   5   9    6.74    1.30
 -11  -4  -9    3.57    0.81
   4 -11  -9    3.89    0.81
   4 -11  -9    3.84    0.73
  -4  11   9    3.22    0.73
  11   4   9    2.52    0.66
   3 -11  -9    8.35    0.96
 -11  -3  -9   10.56    1.16
   3 -11  -9    8.34    0.98
  -3  11   9    6.95    0.90
  11   3   9    7.10    0.87
 -11  -2  -9    1.71    0.72
   2 -11  -9    1.82    0.64
  -2  11   9    1.59    0.62
  11   2   9    0.85    0.53
 -11  -1  -9   11.55    1.15
   1 -11  -9   12.93    1.16
  -1  11   9   10.76    1.08
  11   1   9   11.29    1.01
   0 -11  -9   -0.44    0.56
 -11   0  -9    0.06    0.58
  11   0   9   -0.10    0.47
   0  11   9    0.22    0.54
 -11   1  -9    4.06    0.78
  -1 -11  -9    6.17    0.89
   1  11   9    3.34    0.74
  11  -1   9    4.68    0.74
  -2 -11  -9    0.42    0.62
 -11   2  -9    0.91    0.58
  11  -2   9   -0.04    0.50
   2  11   9    0.22    0.59
  -3 -11  -9    2.44    0.71
 -11   3  -9    2.98    0.70
   3  11   9    2.87    0.74
  11  -3   9    2.28    0.63
  11  -4  -9    1.19    0.59
  -4 -11  -9    0.43    0.64
 -11   4  -9    1.06    0.59
   4  11   9    0.89    0.64
  11  -4   9    1.20    0.59
  11  -5  -9    1.75    0.65
 -11   5  -9    1.15    0.60
  -5 -11  -9    1.00    0.68
  11  -5  -9    1.13    0.50
   5  11   9    1.67    0.69
  11  -5   9    0.64    0.55
  11  -6  -9   -0.11    0.46
  11  -6  -9   -0.11    0.57
 -11   6  -9   -0.14    0.52
  -6 -11  -9   -0.74    0.56
   6  11   9    0.32    0.62
  11  -6   9   -0.29    0.52
  11  -7  -9    0.26    0.58
  11  -7  -9    0.10    0.51
 -11   7  -9   -0.37    0.49
  -7 -11  -9    0.41    0.71
   7  11   9    0.59    0.64
  11  -7   9   -0.49    0.52
  11  -8  -9    0.32    0.56
  11  -8  -9    0.18    0.62
  -8 -11  -9    0.97    0.73
   8  11   9    1.18    0.70
  11  -8   9   -0.17    0.55
  11  -9  -9    2.17    0.66
  -9 -11  -9    1.61    0.84
 -12  -7  -9    2.48    0.82
   7 -12  -9    1.37    0.81
   7 -12  -9    0.76    0.66
  12   7   9    1.88    0.67
  12   7   9    1.04    0.66
 -12  -6  -9    1.41    0.77
   6 -12  -9    4.24    0.81
   6 -12  -9    4.68    0.90
  12   6   9    1.91    0.67
  12   6   9    2.10    0.67
 -12  -5  -9    3.61    0.85
   5 -12  -9    4.99    0.84
   5 -12  -9    3.94    0.89
  12   5   9    4.67    0.79
  12   5   9    3.22    0.73
   4 -12  -9    0.31    0.68
 -12  -4  -9   -0.32    0.64
   4 -12  -9    0.26    0.57
  -4  12   9   -0.07    0.57
  12   4   9    0.73    0.56
  12   4   9   -0.12    0.52
 -12  -3  -9    0.20    0.60
   3 -12  -9    0.20    0.61
  12   3   9    0.44    0.52
  12   3   9    0.17    0.51
  -3  12   9   -0.66    0.54
 -12  -2  -9   -0.33    0.61
   2 -12  -9   -0.15    0.57
  12   2   9   -0.02    0.52
  12   2   9   -0.67    0.45
  -2  12   9   -0.18    0.61
   1 -12  -9    0.68    0.63
 -12  -1  -9    1.00    0.67
  12   1   9    0.85    0.67
  12   1   9    0.39    0.52
  -1  12   9   -0.26    0.57
   0 -12  -9   -0.19    0.61
 -12   0  -9    0.37    0.60
  12   0   9   -0.30    0.84
  12   0   9    0.22    0.50
   0  12   9   -0.50    0.59
  -1 -12  -9    0.00    0.61
 -12   1  -9    0.15    0.56
   1  12   9   -0.03    0.56
  12  -1   9    1.13    0.57
 -12   2  -9    1.18    0.62
  -2 -12  -9   -0.18    0.61
   2  12   9    0.87    0.64
  12  -2   9   -0.32    0.50
 -12   3  -9    0.33    0.59
  -3 -12  -9    1.28    0.69
   3  12   9    0.78    0.66
  12  -3   9    0.61    0.57
 -12   4  -9    1.73    0.68
  12  -4  -9    0.85    0.63
  -4 -12  -9    2.41    0.77
  12  -4   9    1.72    0.61
   4  12   9    1.44    0.72
  12  -5  -9    3.73    0.77
 -12   5  -9    3.91    0.79
  -5 -12  -9    3.68    0.83
   5  12   9    1.51    0.73
  12  -5   9    2.77    0.66
  -6 -12  -9    4.33    0.90
 -12   6  -9    4.02    0.78
  12  -6  -9    4.62    0.83
  12  -6   9    4.14    0.74
   6  12   9    4.73    0.91
 -12   7  -9    4.90    0.80
  -7 -12  -9    2.95    0.82
  12  -7  -9    5.56    0.91
  12  -7  -9    3.81    0.66
   7  12   9    4.51    0.93
  12  -7   9    4.28    0.79
   5 -13  -9    3.22    0.79
   5 -13  -9    3.17    0.88
 -13  -5  -9    4.32    0.95
  13   5   9    3.60    0.76
  13   5   9    2.94    0.72
   4 -13  -9    0.70    0.74
 -13  -4  -9   -0.13    0.66
   4 -13  -9   -0.55    0.57
  -4  13   9   -0.73    0.59
  13   4   9   -0.45    0.52
  13   4   9    0.28    0.59
 -13  -3  -9   18.21    1.47
   3 -13  -9   15.97    1.31
  13   3   9   16.03    1.27
  13   3   9   17.06    1.23
  -3  13   9   17.33    1.46
   2 -13  -9    1.04    0.67
 -13  -2  -9    1.11    0.71
  13   2   9    0.55    0.56
  13   2   9    1.05    0.58
  -2  13   9   -0.26    0.56
   1 -13  -9   12.14    1.14
 -13  -1  -9   13.54    1.24
  -1  13   9    9.50    1.15
  13   1   9   13.58    1.14
  13   1   9   13.62    1.13
   0 -13  -9    0.37    0.62
 -13   0  -9    0.81    0.64
  13   0   9    0.48    0.54
   0  13   9    0.17    0.63
  13   0   9    0.42    0.55
 -13   1  -9   16.99    1.36
  -1 -13  -9   15.85    1.35
   1  13   9   14.26    1.35
  13  -1   9   16.57    1.22
  13  -1   9   15.03    1.17
  -2 -13  -9    1.95    0.74
 -13   2  -9    1.22    0.67
   2  13   9    1.66    0.74
  13  -2   9    1.85    0.60
  13  -2   9    0.96    0.60
  -3 -13  -9    8.73    1.08
 -13   3  -9    8.14    1.01
  13  -3   9    6.45    0.87
  13  -3   9    6.06    0.83
   3  13   9    5.61    0.97
  -4 -13  -9    0.26    0.67
  13  -4  -9    0.40    0.62
 -13   4  -9    1.04    0.66
   4  13   9   -0.21    0.64
  13  -4   9    1.30    0.64
  13  -4   9    0.98    0.60
  -5 -13  -9    1.76    0.77
  13  -5  -9    1.52    0.72
 -13   5  -9    3.08    0.78
  13  -5   9    2.55    0.73
   5  13   9    2.39    0.81
  13  -5   9    2.20    0.66
 -14  -2  -9   -0.30    0.66
   2 -14  -9    0.11    0.65
 -14  -1  -9   -0.25    0.62
   1 -14  -9   -0.18    0.63
  14   1   9   -0.05    0.57
  14   1   9   -0.29    0.51
 -14   0  -9    0.48    0.63
   0 -14  -9   -0.20    0.61
  14   0   9    0.92    0.56
   0  14   9   -1.23    0.62
  14   0   9    0.36    0.59
 -14   1  -9    1.07    0.70
  -1 -14  -9    0.03    0.67
  14  -1   9    0.95    0.62
  14  -1   9    0.99    0.57
  -2 -14  -9    0.21    0.65
 -14   2  -9    0.02    0.64
   0   0 -10    1.20    0.73
   0   0  10    0.91    0.51
   0  -1 -10    0.28    0.44
  -1   0 -10    0.42    0.42
   0   1  10    0.08    0.43
   0  -1  10    0.09    0.44
   1   0  10    0.58    0.49
  -1   0  10    1.56    0.53
   1  -1 -10    9.39    0.84
  -1  -1 -10    7.62    0.83
   1   1  10    7.60    0.88
   1  -1  10    7.74    0.84
  -1  -1  10    9.03    0.89
  -1   1  10    7.91    0.86
   1  -2 -10    0.25    0.42
  -2  -1 -10    0.52    0.49
   1  -2  10    0.57    0.48
   2   1  10    0.35    0.48
  -2  -1  10    1.08    0.51
  -1   2  10   -0.06    0.43
  -2   0 -10   12.57    1.00
   0  -2 -10   13.54    1.04
  -2   0  10   14.07    1.11
   2   0  10   12.42    1.09
   0  -2  10   12.64    1.10
   0   2  10   13.30    1.05
  -2   1 -10   -0.33    0.61
  -1  -2 -10    0.40    0.49
  -2   1  10   -0.45    0.41
   2  -1  10   -0.24    0.43
  -1  -2  10   -0.10    0.45
   1   2  10   -0.30    0.40
   2  -2 -10    0.36    0.43
  -2  -2 -10    1.25    0.53
  -2  -2  10   -0.17    0.44
   2  -2  10   -0.21    0.44
   2   2  10   -0.42    0.41
  -2   2  10    0.11    0.41
   2  -3 -10    2.08    0.56
  -3  -2 -10    2.61    0.63
  -3  -2  10    3.06    0.63
   3   2  10    2.23    0.58
  -2   3  10    1.73    0.52
   2  -3  10    2.46    0.64
  -3  -1 -10   -0.23    0.47
   1  -3 -10   -0.62    0.41
   3   1  10   -0.29    0.45
  -3  -1  10   -0.08    0.42
   1  -3  10   -0.36    0.45
  -1   3  10    0.41    0.44
   0  -3 -10   -0.56    0.38
  -3   0 -10   -0.69    0.42
   3   0  10    0.00    0.49
   0   3  10    1.07    0.51
   0  -3  10    0.40    0.50
  -3   0  10    0.27    0.43
  -1  -3 -10   -0.04    0.44
  -3   1 -10    0.24    0.42
  -1  -3  10   -0.12    0.45
   1   3  10    0.26    0.44
   3  -1  10    0.60    0.50
  -3   1  10   -0.11    0.42
  -2  -3 -10    7.22    0.84
   3  -2 -10    5.23    0.69
  -2  -3  10    6.84    0.84
   2   3  10    6.45    0.76
   3  -2  10    6.49    0.82
  -3   2  10    5.49    0.74
  -3  -3 -10    0.31    0.50
   3  -3 -10   -0.05    0.43
  -3  -3  10    0.19    0.45
   3  -3  10   -0.38    0.46
  -3   3  10   -0.33    0.40
   3   3  10    0.57    0.47
  -4  -3 -10    5.11    0.77
   3  -4 -10    5.20    0.70
   3  -4  10    4.05    0.74
   4   3  10    4.50    0.71
  -3   4  10    5.55    0.72
  -4  -3  10    5.49    0.76
   2  -4 -10    0.62    0.49
  -4  -2 -10   -0.12    0.51
  -4  -2  10    0.61    0.48
   4   2  10    0.27    0.46
   2  -4  10    0.48    0.51
  -2   4  10    0.36    0.45
  -4  -1 -10   12.65    1.05
   1  -4 -10    8.77    0.87
  -1   4  10    8.82    0.89
  -4  -1  10   10.17    0.93
   4   1  10    8.88    0.95
   1  -4  10    8.92    0.95
  -4   0 -10    4.05    0.65
   0  -4 -10    4.65    0.69
   4   0  10    3.91    0.71
  -4   0  10    4.23    0.67
   0  -4  10    3.38    0.66
   0   4  10    4.68    0.71
  -1  -4 -10   11.15    0.99
  -4   1 -10    9.45    0.89
   4  -1  10   11.75    1.05
   1   4  10    8.96    0.87
  -4   1  10   10.58    0.95
  -1  -4  10    9.11    0.93
  -2  -4 -10    0.90    0.56
  -4   2 -10    2.18    0.61
  -2  -4  10    1.59    0.56
  -4   2  10    1.82    0.50
   2   4  10    1.65    0.54
   4  -2  10    1.61    0.56
  -3  -4 -10    3.91    0.70
   4  -3 -10    3.17    0.59
   3   4  10    2.65    0.61
   4  -3  10    2.80    0.66
  -4   3  10    5.08    0.68
  -3  -4  10    3.19    0.64
   4  -4 -10    1.16    0.50
  -4  -4 -10    0.91    0.58
   4  -4  10    0.78    0.54
  -4   4  10    0.82    0.46
   4   4  10    0.78    0.49
  -4  -4  10    0.98    0.49
  -5  -4 -10    4.24    0.77
   4  -5 -10    4.44    0.69
  -5  -4  10    3.35    0.62
   4  -5  10    3.70    0.73
  -4   5  10    2.83    0.59
   5   4  10    3.34    0.67
   3  -5 -10    0.44    0.50
  -5  -3 -10    1.13    0.56
  -5  -3  10    0.53    0.47
   3  -5  10    0.09    0.49
  -3   5  10   -0.05    0.43
   5   3  10    0.40    0.48
  -5  -2 -10    0.07    0.51
   2  -5 -10    0.77    0.51
   5   2  10    0.87    0.50
   2  -5  10   -0.05    0.48
  -2   5  10    0.14    0.42
  -5  -2  10    0.47    0.47
   1  -5 -10    0.89    0.51
  -5  -1 -10   -0.28    0.45
   1  -5  10    0.22    0.48
   5   1  10    0.52    0.51
  -5  -1  10    0.32    0.43
  -1   5  10    0.59    0.44
   0  -5 -10   -0.06    0.47
  -5   0 -10   -0.31    0.45
  -5   0  10    0.07    0.44
   0   5  10    0.24    0.44
   5   0  10    0.18    0.49
   0  -5  10   -0.07    0.48
  -1  -5 -10    0.99    0.55
  -5   1 -10    0.70    0.49
  -1  -5  10    0.35    0.49
   5  -1  10    0.44    0.50
   1   5  10    0.52    0.49
  -5   1  10    0.38    0.46
  -5   2 -10    1.53    0.55
  -2  -5 -10    1.05    0.59
   5  -2  10    1.10    0.55
  -5   2  10    1.66    0.51
   2   5  10    0.72    0.48
  -2  -5  10    0.52    0.49
  -3  -5 -10    3.15    0.72
   5  -3 -10    2.33    0.68
  -3  -5  10    2.22    0.59
  -5   3  10    1.80    0.52
   3   5  10    2.09    0.58
   5  -3  10    2.89    0.66
  -4  -5 -10    3.85    0.78
   5  -4 -10    3.46    0.59
  -4  -5  10    3.71    0.65
  -5   4  10    3.51    0.61
   5  -4  10    4.18    0.75
   4   5  10    3.04    0.63
   5  -5 -10    0.30    0.48
  -5  -5 -10    0.17    0.59
   5  -5  10    0.52    0.53
  -5  -5  10    0.84    0.49
  -5   5  10    0.03    0.44
   5   5  10    0.47    0.50
   5  -6 -10    4.79    0.73
  -6  -5 -10    4.63    0.86
  -5   6  10    3.42    0.62
   6   5  10    3.73    0.69
   5  -6  10    3.21    0.73
  -6  -5  10    3.24    0.66
  -6  -4 -10    0.73    0.60
   4  -6 -10    1.23    0.58
  -4   6  10    1.01    0.50
   4  -6  10    1.00    0.59
   6   4  10    0.07    0.50
  -6  -4  10    0.29    0.46
  -6  -3 -10   17.40    1.30
   3  -6 -10   16.32    1.15
  -3   6  10   17.08    1.18
   3  -6  10   18.08    1.30
  -6  -3  10   14.18    1.14
   6   3  10   14.92    1.19
  -6  -2 -10    1.82    0.63
   2  -6 -10    1.08    0.56
  -6  -2  10    1.20    0.52
  -2   6  10    1.61    0.52
   6   2  10    0.59    0.51
   2  -6  10    0.50    0.55
  -6  -1 -10   25.67    1.50
   1  -6 -10   26.07    1.47
   6   1  10   27.52    1.51
  -1   6  10   23.87    1.41
  -6  -1  10   27.61    1.45
   1  -6  10   25.71    1.53
   0  -6 -10    0.85    0.52
  -6   0 -10    0.93    0.54
   0  -6  10    1.57    0.57
  -6   0  10    1.10    0.51
   0   6  10   -0.12    0.42
   6   0  10    1.16    0.57
  -6   1 -10   23.54    1.42
  -1  -6 -10   22.50    1.44
  -6   1  10   23.69    1.35
   1   6  10   22.84    1.38
  -1  -6  10   21.67    1.42
   6  -1  10   25.09    1.44
  -6   2 -10    0.54    0.49
  -2  -6 -10    0.53    0.56
   2   6  10    0.60    0.51
   6  -2  10    0.26    0.50
  -6   2  10    0.25    0.43
  -2  -6  10   -0.04    0.47
  -6   3 -10   15.92    1.26
  -3  -6 -10   12.53    1.13
   3   6  10   15.65    1.18
   6  -3  10   15.65    1.18
  -6   3  10   13.58    1.03
  -3  -6  10   14.86    1.18
   6  -4 -10    0.09    0.41
  -4  -6 -10    0.17    0.58
  -4  -6  10    0.36    0.49
  -6   4  10   -0.15    0.41
   4   6  10    0.61    0.53
   6  -4  10   -0.58    0.48
  -5  -6 -10    3.83    0.79
   6  -5 -10    4.40    0.70
   5   6  10    3.48    0.69
   6  -5  10    2.85    0.70
  -6   5  10    3.46    0.69
  -6  -6 -10    0.77    0.66
   6  -6 -10    0.69    0.53
   6   6  10    0.57    0.55
   6  -6  10    0.84    0.57
  -7  -6 -10   -0.28    0.60
   6  -7 -10    0.42    0.54
   7   6  10   -0.59    0.53
   6  -7  10    0.50    0.58
  -7  -5 -10    1.21    0.65
   5  -7 -10    1.56    0.60
   5  -7  10    1.47    0.64
  -7  -5  10    0.38    0.49
   7   5  10    0.15    0.52
  -5   7  10    0.73    0.54
  -7  -4 -10    0.74    0.62
   4  -7 -10    0.00    0.53
  -7  -4  10    0.06    0.44
   4  -7  10    0.69    0.57
  -4   7  10   -0.29    0.47
   7   4  10    0.62    0.54
   3  -7 -10    1.63    0.61
  -7  -3 -10    1.59    0.65
   3  -7  10    2.24    0.65
  -7  -3  10    1.68    0.54
  -3   7  10    0.73    0.53
   7   3  10    1.23    0.54
   2  -7 -10    0.49    0.54
  -7  -2 -10    0.51    0.58
  -7  -2  10    0.02    0.46
  -2   7  10   -0.29    0.48
   7   2  10    0.62    0.54
   2  -7  10    0.17    0.53
  -7  -1 -10    0.47    0.56
   1  -7 -10   -0.20    0.51
   7   1  10   -0.90    0.44
   1  -7  10   -0.10    0.51
  -7  -1  10    0.01    0.45
  -1   7  10   -0.11    0.49
  -7   0 -10   -0.46    0.50
   0  -7 -10    0.13    0.55
   7   0  10   -0.64    0.46
  -7   0  10   -0.98    0.41
   0   7  10    0.04    0.49
  -7   1 -10    0.37    0.54
  -1  -7 -10   -0.57    0.49
  -7   1  10    0.15    0.48
   7  -1  10    0.91    0.55
   1   7  10   -0.37    0.47
  -2  -7 -10    0.11    0.58
  -7   2 -10    0.06    0.51
   7  -2  10    0.41    0.52
   2   7  10    0.05    0.49
  -7   3 -10    0.30    0.51
  -3  -7 -10    0.95    0.60
   3   7  10    0.18    0.53
   7  -3  10    0.55    0.54
  -4  -7 -10   -0.39    0.54
   7  -4  10   -0.29    0.49
   4   7  10    0.18    0.54
  -5  -7 -10    1.07    0.65
   7  -5 -10    1.11    0.56
   7  -5  10    0.57    0.58
   5   7  10    1.13    0.62
  -6  -7 -10    1.49    0.70
   7  -6 -10   -0.40    0.51
   6   7  10   -0.39    0.53
   7  -6  10    1.04    0.60
   7  -7 -10    0.45    0.59
  -7  -7 -10    0.53    0.67
   7  -7  10    1.23    0.61
   7   7  10    1.33    0.63
   7  -8 -10    2.07    0.67
   7  -8 -10    3.14    0.76
  -8  -7 -10    2.00    0.75
   7  -8  10    2.47    0.72
   8   7  10    2.11    0.69
  -8  -6 -10    0.59    0.66
   6  -8 -10    0.10    0.59
   6  -8 -10    0.89    0.59
   8   6  10   -0.57    0.53
   6  -8  10    0.14    0.56
  -8  -6  10    0.95    0.52
   5  -8 -10    8.32    0.92
   5  -8 -10    7.47    0.93
  -8  -5 -10   10.67    1.13
  -8  -5  10    8.07    0.87
   8   5  10    8.16    0.95
  -5   8  10    9.96    0.97
   5  -8  10    7.24    0.95
   4  -8 -10    2.34    0.64
  -8  -4 -10    3.44    0.78
   4  -8 -10    3.53    0.76
   8   4  10    2.87    0.68
   4  -8  10    2.00    0.66
  -4   8  10    1.75    0.61
  -8  -4  10    2.11    0.59
   3  -8 -10   20.58    1.41
  -8  -3 -10   19.79    1.50
  -3   8  10   21.20    1.40
   3  -8  10   19.66    1.41
   8   3  10   18.75    1.35
  -8  -3  10   23.58    1.62
  -8  -2 -10    1.72    0.69
   2  -8 -10    2.56    0.69
  -2   8  10    1.70    0.60
   8   2  10    1.79    0.60
  -8  -1 -10   25.02    1.58
   1  -8 -10   25.35    1.51
   8   1  10   24.95    1.49
  -1   8  10   24.92    1.53
   0  -8 -10    0.30    0.57
  -8   0 -10    1.03    0.60
   0   8  10   -0.17    0.51
   8   0  10    0.14    0.50
  -1  -8 -10   17.57    1.33
  -8   1 -10   16.31    1.24
   1   8  10   14.88    1.23
   8  -1  10   13.93    1.19
  -8   2 -10    1.02    0.60
  -2  -8 -10    0.39    0.63
   8  -2  10    1.08    0.60
   2   8  10    1.13    0.60
  -3  -8 -10    8.96    1.03
  -8   3 -10    8.03    0.94
   8  -3  10    9.97    1.00
   3   8  10    8.11    0.97
  -4  -8 -10    1.39    0.66
  -8   4 -10    2.42    0.76
   8  -4  10    1.59    0.61
   4   8  10    1.45    0.63
  -5  -8 -10    3.95    0.83
   8  -5 -10    3.10    0.63
   8  -5  10    2.78    0.70
   5   8  10    2.59    0.70
  -6  -8 -10    0.54    0.66
   8  -6 -10    0.74    0.54
   8  -6  10   -0.07    0.56
   6   8  10   -0.33    0.56
  -7  -8 -10    0.61    0.69
   8  -7 -10    0.67    0.56
   8  -7  10    0.30    0.59
   7   8  10   -0.47    0.55
   6  -9 -10    0.56    0.65
   6  -9 -10    0.45    0.58
  -9  -6 -10    0.88    0.71
   6  -9  10    0.40    0.62
   9   6  10    0.17    0.60
   5  -9 -10   -0.50    0.57
   5  -9 -10   -1.24    0.53
  -9  -5 -10   -0.29    0.61
   5  -9  10   -0.11    0.56
   9   5  10   -0.40    0.51
   4  -9 -10    2.08    0.68
   4  -9 -10    1.41    0.65
  -9  -4 -10    2.10    0.74
  -4   9  10    1.99    0.64
   9   4  10    2.21    0.64
   3  -9 -10    1.03    0.61
  -9  -3 -10    0.24    0.62
   9   3  10   -0.30    0.50
  -3   9  10    0.04    0.53
  -9  -2 -10    0.74    0.65
   2  -9 -10    0.65    0.62
   9   2  10    0.28    0.53
  -2   9  10    0.70    0.58
   1  -9 -10   -0.21    0.58
  -9  -1 -10   -0.59    0.53
  -1   9  10    0.70    0.58
   9   1  10    0.23    0.50
  -9   0 -10   -0.03    0.55
   0  -9 -10    0.38    0.59
   0   9  10   -0.35    0.50
   9   0  10    0.34    0.51
  -1  -9 -10    1.99    0.66
  -9   1 -10    1.00    0.63
   1   9  10    1.18    0.63
   9  -1  10    1.22    0.59
  -2  -9 -10   -0.18    0.56
  -9   2 -10    0.83    0.62
   2   9  10   -0.72    0.52
   9  -2  10   -0.02    0.54
  -3  -9 -10    1.46    0.69
  -9   3 -10    1.35    0.62
   9  -3  10    1.64    0.65
   3   9  10    0.87    0.63
  -9   4 -10    0.74    0.56
  -4  -9 -10    0.91    0.62
   4   9  10    0.75    0.60
   9  -4  10    0.09    0.53
  -5  -9 -10    0.32    0.68
   9  -5  10    1.94    0.65
   5   9  10    1.22    0.66
  -6  -9 -10    1.05    0.72
   9  -6 -10    1.67    0.61
   9  -6  10    1.17    0.63
   6   9  10    1.34    0.67
   4 -10 -10    0.93    0.66
 -10  -4 -10    2.08    0.77
   4 -10 -10    0.87    0.67
  10   4  10    0.82    0.58
  -4  10  10    0.63    0.63
   3 -10 -10    2.33    0.70
 -10  -3 -10    4.10    0.89
  -3  10  10    3.31    0.78
  10   3  10    3.49    0.71
   2 -10 -10    0.41    0.63
 -10  -2 -10   -0.32    0.62
  -2  10  10   -0.31    0.58
  10   2  10    0.14    0.53
 -10  -1 -10    7.02    0.99
   1 -10 -10    6.49    0.93
  10   1  10    5.26    0.81
  -1  10  10    5.36    0.88
 -10   0 -10    1.03    0.66
   0 -10 -10    2.12    0.72
  10   0  10    1.02    0.59
   0  10  10    1.15    0.64
 -10   1 -10   12.72    1.21
  -1 -10 -10   13.52    1.23
  10  -1  10   11.86    1.12
   1  10  10    9.87    1.10
  -2 -10 -10    0.53    0.64
 -10   2 -10   -0.08    0.60
  10  -2  10    0.29    0.59
   2  10  10   -0.39    0.58
  -3 -10 -10    3.26    0.81
 -10   3 -10    1.87    0.68
   3  10  10    2.70    0.76
  10  -3  10    2.08    0.67
 -10   4 -10    0.32    0.58
  -4 -10 -10    0.36    0.62
   4  10  10   -0.59    0.58
  10  -4  10    0.11    0.56
 -11  -1 -10   -0.14    0.63
   1 -11 -10   -0.01    0.63
   0 -11 -10    0.21    0.63
 -11   0 -10   -0.28    0.58
  -1 -11 -10   -0.10    0.64
 -11   1 -10   -0.07    0.58
   0   0  11   -0.87    0.45
   0  -1  11    1.88    0.62
   1   0  11    0.65    0.55
   0   1  11    1.43    0.57
  -1   0  11    1.33    0.58
  -1  -1  11    1.37    0.58
   1   1  11    0.37    0.53
   1  -1  11   -0.49    0.49
  -1   1  11    0.16    0.50
  -2  -1 -11    2.18    0.83
  -1   2  11    0.80    0.50
   1  -2  11    0.97    0.57
   2   1  11    1.09    0.58
  -2  -1  11    1.44    0.58
   0  -2  11    0.98    0.57
  -2   0  11    1.19    0.60
   0   2  11    1.52    0.57
   2   0  11    1.22    0.59
  -1  -2 -11    0.50    0.54
   2  -1  11    0.64    0.56
   1   2  11    0.46    0.50
  -2   1  11    1.10    0.54
  -1  -2  11    0.38    0.51
  -2  -2 -11    2.21    0.66
   2   2  11    3.34    0.72
   2  -2  11    2.39    0.66
  -2   2  11    2.80    0.64
  -2  -2  11    1.41    0.57
  -3  -2 -11    7.98    0.94
   3   2  11    7.46    0.92
  -3  -2  11    7.29    0.90
  -2   3  11    6.40    0.83
   2  -3  11    8.35    0.99
   1  -3 -11    3.63    0.67
  -3  -1 -11    3.53    0.72
  -3  -1  11    3.18    0.68
  -1   3  11    5.15    0.77
   3   1  11    2.81    0.67
   1  -3  11    3.29    0.71
   0  -3 -11    0.88    0.53
   3   0  11    0.48    0.57
   0  -3  11    0.25    0.52
  -3   0  11    1.54    0.59
   0   3  11    0.25    0.48
  -1  -3 -11    3.42    0.70
  -1  -3  11    4.10    0.78
   1   3  11    2.81    0.66
   3  -1  11    2.85    0.74
  -3   1  11    3.25    0.67
  -2  -3 -11    3.78    0.74
   2   3  11    2.44    0.63
   3  -2  11    2.27    0.68
  -2  -3  11    2.62    0.67
  -3   2  11    2.49    0.61
  -3  -3 -11    0.17    0.55
   3  -3  11    0.50    0.56
  -3   3  11   -0.16    0.46
  -3  -3  11    0.25    0.52
   3   3  11   -0.04    0.52
  -4  -3 -11   -0.07    0.57
   3  -4 -11   -0.08    0.51
   4   3  11   -0.76    0.49
  -3   4  11   -0.18    0.47
   3  -4  11   -0.31    0.53
  -4  -3  11    0.09    0.49
   2  -4 -11    1.52    0.59
  -4  -2 -11    0.54    0.58
  -4  -2  11    0.68    0.54
   4   2  11    0.35    0.54
  -2   4  11    0.66    0.52
   2  -4  11    0.51    0.59
   1  -4 -11   -0.04    0.55
  -4  -1 -11   -0.25    0.51
  -1   4  11   -0.67    0.45
   1  -4  11   -0.38    0.55
  -4  -1  11    1.02    0.55
   4   1  11    0.87    0.57
  -4   0 -11    0.15    0.64
   0  -4 -11    0.80    0.55
   0   4  11    0.42    0.51
   0  -4  11   -0.29    0.54
  -4   0  11    0.04    0.49
   4   0  11    0.46    0.57
  -1  -4 -11   -0.42    0.49
  -4   1  11   -0.63    0.44
  -1  -4  11   -0.13    0.49
   4  -1  11    0.23    0.56
   1   4  11    0.21    0.49
  -2  -4 -11    1.51    0.64
   4  -2  11    0.99    0.61
   2   4  11    0.92    0.56
  -4   2  11    1.58    0.55
  -2  -4  11    0.55    0.56
  -3  -4 -11    1.94    0.71
  -3  -4  11    1.22    0.60
  -4   3  11    1.94    0.58
   3   4  11    1.97    0.64
   4  -3  11    2.42    0.69
  -4  -4 -11   -0.36    0.53
   3  -5 -11    1.27    0.61
  -5  -3 -11    1.00    0.63
  -5  -2 -11    5.32    0.88
   2  -5 -11    7.02    0.86
   2  -5  11    3.45    0.81
  -5  -2  11    4.89    0.76
  -2   5  11    4.22    0.70
   5   2  11    5.30    0.81
   1  -5 -11    2.58    0.66
  -5  -1 -11    3.32    0.76
  -1   5  11    1.65    0.59
   5   1  11    2.66    0.71
  -5  -1  11    2.77    0.64
   1  -5  11    2.08    0.68
   0  -5 -11   10.38    1.06
  -5   0 -11   10.17    1.02
   0   5  11    9.81    0.95
  -5   0  11    7.46    0.89
   5   0  11    8.24    0.98
   0  -5  11   10.29    1.06
  -1  -5 -11    0.40    0.58
   5  -1  11   -0.34    0.53
  -1  -5  11    0.36    0.56
  -5   1  11    0.63    0.51
   1   5  11   -0.23    0.49
  -2  -5 -11    9.89    1.05
   2   5  11    8.06    0.93
  -2  -5  11    9.56    1.03
  -5   2  11    9.78    0.96
   5  -2  11    8.74    1.04
  -3  -5 -11    1.31    0.65
   0  -6 -11    0.42    0.59
  -6   0 -11    0.37    0.58
   0   0   0    0.00    0.00
;
_shelx_hkl_checksum              35662
loop_
_space_group_symop_operation_xyz
'x, y, z'
'-y, x+1/2, z+1/2'
'y+1/2, -x, z+1/2'
'-x+1/2, -y+1/2, z'
'-x, -y, -z'
'y, -x-1/2, -z-1/2'
'-y-1/2, x, -z-1/2'
'x-1/2, y-1/2, -z'
loop_
_atom_site_type_symbol
_atom_site_label
_atom_site_fract_x
_atom_site_fract_y
_atom_site_fract_z
_atom_site_U_iso_or_equiv
_atom_site_adp_type
_atom_site_calc_flag
_atom_site_refinement_flags_adp
_atom_site_refinement_flags_occupancy
_atom_site_refinement_flags_posn
_atom_site_occupancy
Zn Zn1 0.46835(3) 0.46382(3) 0.12004(6) 0.0283(2) Uani d . . . 1
O O1 0.28405(16) 0.32042(17) 0.5570(3) 0.0283(7) Uani d . . . 1
O O2 0.4624(3) 0.5610(2) 0.1915(5) 0.0791(18) Uani d . . . 1
O O3 0.4918(3) 0.3875(2) -0.0144(5) 0.0742(17) Uani d . . . 1
O O4 0.3897(2) 0.4890(3) -0.0087(5) 0.0820(19) Uani d . . . 1
O O5 0.56577(19) 0.4586(3) 0.1905(4) 0.0579(13) Uani d . . . 1
N N1 0.4107(2) 0.4129(2) 0.2647(4) 0.0284(9) Uani d . . . 1
C C1 0.4380(3) 0.3750(3) 0.3677(5) 0.0347(12) Uani d . . . 1
H H1 0.4867 0.3713 0.3719 0.042 Uiso calc U . R 1
C C2 0.4000(2) 0.3413(3) 0.4679(5) 0.0311(11) Uani d . . . 1
H H2 0.4216 0.3144 0.5382 0.037 Uiso calc U . R 1
C C3 0.3288(2) 0.3477(2) 0.4629(5) 0.0251(10) Uani d . . . 1
C C4 0.3107(2) 0.2736(3) 0.6594(5) 0.0288(11) Uani d . . . 1
H H4B 0.3457 0.2967 0.7181 0.035 Uiso calc U . R 1
H H4A 0.3324 0.2336 0.6128 0.035 Uiso calc U . R 1
C C5 0.25 0.25 0.75 0.030(2) Uani d T P S 1
C C6 0.2995(2) 0.3859(3) 0.3544(5) 0.0287(11) Uani d . . . 1
H H6 0.251 0.3899 0.3467 0.034 Uiso calc U . R 1
C C7 0.3414(2) 0.4174(2) 0.2594(5) 0.0294(11) Uani d . . . 1
H H7 0.321 0.4436 0.1865 0.035 Uiso calc U . R 1
C C8 0.4812(3) 0.6126(3) 0.1318(5) 0.0313(11) Uani d . . . 1
C C9 0.4745(2) 0.6821(3) 0.1996(5) 0.0289(11) Uani d . . . 1
C C10 0.5080(3) 0.7349(3) 0.1387(6) 0.0453(14) Uani d . . . 1
H H10 0.533 0.7265 0.055 0.054 Uiso calc U . R 1
C C11 0.5075(3) 0.8016(3) 0.1936(6) 0.0449(15) Uani d . . . 1
H H11 0.5303 0.8376 0.1451 0.054 Uiso calc U . R 1
C C12 0.4747(2) 0.8149(2) 0.3157(5) 0.0292(11) Uani d . . . 1
C C13 0.6143(3) 0.4809(3) 0.1233(5) 0.0295(11) Uani d . . . 1
C C14 0.4390(3) 0.7611(3) 0.3848(6) 0.0429(14) Uani d . . . 1
C C15 0.4376(3) 0.6937(3) 0.3267(6) 0.0408(13) Uani d . . . 1
C C16 0.4011(4) 0.6414(4) 0.4012(8) 0.070(2) Uani d . . . 1
H H16 0.3984 0.5963 0.3636 0.084 Uiso calc U . R 1
C C17 0.3695(5) 0.6561(4) 0.5279(10) 0.107(4) Uani d . . . 1
H H17 0.3446 0.6211 0.575 0.128 Uiso calc U . R 1
C C18 0.3737(6) 0.7219(4) 0.5877(10) 0.099(3) Uani d . . . 1
H H18 0.3539 0.7303 0.677 0.119 Uiso calc U . R 1
C C19 0.4062(4) 0.7738(4) 0.5179(8) 0.070(2) Uani d . . . 1
H H19 0.4073 0.8186 0.5573 0.084 Uiso calc U . R 1
loop_
_atom_site_aniso_label
_atom_site_aniso_U_11
_atom_site_aniso_U_22
_atom_site_aniso_U_33
_atom_site_aniso_U_12
_atom_site_aniso_U_13
_atom_site_aniso_U_23
Zn1 0.0273(3) 0.0294(4) 0.0281(4) -0.0010(2) 0.0050(2) 0.0024(2)
O1 0.0258(17) 0.0356(18) 0.0236(17) 0.0014(14) 0.0007(14) 0.0041(14)
O2 0.152(5) 0.026(2) 0.060(3) 0.003(3) 0.055(3) -0.001(2)
O3 0.123(4) 0.042(3) 0.058(3) -0.024(3) 0.047(3) -0.019(2)
O4 0.030(2) 0.151(5) 0.065(3) -0.010(3) -0.007(2) 0.066(3)
O5 0.028(2) 0.099(4) 0.047(2) -0.010(2) -0.0010(19) 0.031(2)
N1 0.026(2) 0.031(2) 0.028(2) -0.0001(17) 0.0047(17) 0.0024(18)
C1 0.026(3) 0.041(3) 0.037(3) 0.000(2) 0.001(2) 0.001(2)
C2 0.029(3) 0.037(3) 0.028(3) 0.000(2) -0.004(2) 0.006(2)
C3 0.027(2) 0.026(2) 0.023(2) -0.0023(19) 0.0045(19) -0.0033(19)
C4 0.030(3) 0.033(3) 0.023(2) -0.001(2) -0.001(2) 0.002(2)
C5 0.031(3) 0.031(3) 0.027(5) 0 0 0
C6 0.022(2) 0.037(3) 0.028(3) 0.001(2) -0.002(2) 0.000(2)
C7 0.030(3) 0.031(3) 0.027(2) 0.000(2) 0.001(2) 0.005(2)
C8 0.032(3) 0.033(3) 0.030(3) 0.002(2) 0.000(2) 0.000(2)
C9 0.024(2) 0.034(3) 0.029(3) 0.001(2) -0.002(2) 0.002(2)
C10 0.055(4) 0.041(3) 0.040(3) -0.001(3) 0.021(3) -0.004(3)
C11 0.054(4) 0.032(3) 0.048(4) -0.005(3) 0.026(3) 0.001(3)
C12 0.027(2) 0.032(3) 0.029(3) 0.004(2) -0.003(2) 0.002(2)
C13 0.030(3) 0.029(3) 0.029(3) 0.003(2) 0.000(2) -0.002(2)
C14 0.052(3) 0.036(3) 0.040(3) -0.008(3) 0.014(3) -0.005(2)
C15 0.042(3) 0.035(3) 0.045(3) -0.003(2) 0.012(3) -0.005(2)
C16 0.093(6) 0.041(4) 0.078(5) -0.014(4) 0.043(4) -0.005(3)
C17 0.155(9) 0.054(5) 0.112(7) -0.014(5) 0.096(7) -0.003(5)
C18 0.152(9) 0.061(5) 0.084(6) -0.014(5) 0.071(6) -0.007(4)
C19 0.104(6) 0.049(4) 0.057(4) -0.007(4) 0.039(4) -0.005(3)
loop_
_atom_type_symbol
_atom_type_description
_atom_type_scat_dispersion_real
_atom_type_scat_dispersion_imag
_atom_type_scat_source
C C 0.0033 0.0016 'International Tables Vol C Tables 4.2.6.8 and 6.1.1.4'
H H 0.0000 0.0000 'International Tables Vol C Tables 4.2.6.8 and 6.1.1.4'
N N 0.0061 0.0033 'International Tables Vol C Tables 4.2.6.8 and 6.1.1.4'
O O 0.0106 0.0060 'International Tables Vol C Tables 4.2.6.8 and 6.1.1.4'
Zn Zn 0.2839 1.4301 'International Tables Vol C Tables 4.2.6.8 and 6.1.1.4'
loop_
_geom_angle_atom_site_label_1
_geom_angle_atom_site_label_2
_geom_angle_atom_site_label_3
_geom_angle_site_symmetry_1
_geom_angle_site_symmetry_3
_geom_angle
O2 Zn1 O5 . . 89.3(2)
O2 Zn1 O3 . . 157.06(18)
O5 Zn1 O3 . . 87.8(2)
O2 Zn1 O4 . . 86.3(3)
O5 Zn1 O4 . . 157.98(16)
O3 Zn1 O4 . . 87.9(3)
O2 Zn1 N1 . . 101.26(17)
O5 Zn1 N1 . . 105.53(16)
O3 Zn1 N1 . . 101.43(17)
O4 Zn1 N1 . . 96.49(17)
O2 Zn1 Zn1 . 5_665 80.79(12)
O5 Zn1 Zn1 . 5_665 83.74(11)
O3 Zn1 Zn1 . 5_665 76.28(13)
O4 Zn1 Zn1 . 5_665 74.26(12)
N1 Zn1 Zn1 . 5_665 170.46(12)
C3 O1 C4 . . 117.9(3)
C8 O2 Zn1 . . 127.0(4)
C8 O3 Zn1 5_665 . 132.4(4)
C13 O4 Zn1 5_665 . 134.2(4)
C13 O5 Zn1 . . 122.3(4)
C1 N1 C7 . . 117.4(4)
C1 N1 Zn1 . . 123.1(3)
C7 N1 Zn1 . . 119.5(3)
N1 C1 C2 . . 124.0(5)
N1 C1 H1 . . 118.0
C2 C1 H1 . . 118.0
C1 C2 C3 . . 118.0(5)
C1 C2 H2 . . 121.0
C3 C2 H2 . . 121.0
O1 C3 C2 . . 125.5(4)
O1 C3 C6 . . 116.0(4)
C2 C3 C6 . . 118.6(4)
O1 C4 C5 . . 107.2(3)
O1 C4 H4B . . 110.3
C5 C4 H4B . . 110.3
O1 C4 H4A . . 110.3
C5 C4 H4A . . 110.3
H4B C4 H4A . . 108.5
C4 C5 C4 4 7_657 108.51(17)
C4 C5 C4 4 6_567 108.51(17)
C4 C5 C4 7_657 6_567 111.4(4)
C4 C5 C4 4 . 111.4(4)
C4 C5 C4 7_657 . 108.51(17)
C4 C5 C4 6_567 . 108.52(17)
C7 C6 C3 . . 119.2(4)
C7 C6 H6 . . 120.4
C3 C6 H6 . . 120.4
N1 C7 C6 . . 122.8(4)
N1 C7 H7 . . 118.6
C6 C7 H7 . . 118.6
O2 C8 O3 . 5_665 123.5(5)
O2 C8 C9 . . 121.1(5)
O3 C8 C9 5_665 . 115.4(5)
C10 C9 C15 . . 119.3(5)
C10 C9 C8 . . 117.2(5)
C15 C9 C8 . . 123.5(4)
C9 C10 C11 . . 122.8(5)
C9 C10 H10 . . 118.6
C11 C10 H10 . . 118.6
C12 C11 C10 . . 120.2(5)
C12 C11 H11 . . 119.9
C10 C11 H11 . . 119.9
C11 C12 C14 . . 119.3(5)
C11 C12 C13 . 6_576 118.2(5)
C14 C12 C13 . 6_576 122.4(4)
O5 C13 O4 . 5_665 125.5(5)
O5 C13 C12 . 7_756 118.5(4)
O4 C13 C12 5_665 7_756 115.9(4)
C12 C14 C15 . . 120.5(5)
C12 C14 C19 . . 120.0(5)
C15 C14 C19 . . 119.5(5)
C14 C15 C9 . . 117.9(5)
C14 C15 C16 . . 118.1(5)
C9 C15 C16 . . 124.0(5)
C17 C16 C15 . . 120.4(6)
C17 C16 H16 . . 119.8
C15 C16 H16 . . 119.8
C16 C17 C18 . . 121.2(7)
C16 C17 H17 . . 119.4
C18 C17 H17 . . 119.4
C19 C18 C17 . . 120.2(7)
C19 C18 H18 . . 119.9
C17 C18 H18 . . 119.9
C18 C19 C14 . . 120.5(7)
C18 C19 H19 . . 119.7
C14 C19 H19 . . 119.7
loop_
_geom_bond_atom_site_label_1
_geom_bond_atom_site_label_2
_geom_bond_site_symmetry_2
_geom_bond_distance
Zn1 O2 . 2.013(4)
Zn1 O5 . 2.014(4)
Zn1 O3 . 2.015(4)
Zn1 O4 . 2.023(4)
Zn1 N1 . 2.037(4)
Zn1 Zn1 5_665 2.9592(11)
O1 C3 . 1.359(5)
O1 C4 . 1.435(6)
O2 C8 . 1.212(6)
O3 C8 5_665 1.238(6)
O4 C13 5_665 1.244(6)
O5 C13 . 1.221(6)
N1 C1 . 1.339(7)
N1 C7 . 1.351(6)
C1 C2 . 1.377(7)
C1 H1 . 0.95
C2 C3 . 1.392(7)
C2 H2 . 0.95
C3 C6 . 1.397(7)
C4 C5 . 1.535(5)
C4 H4B . 0.99
C4 H4A . 0.99
C5 C4 4 1.535(5)
C5 C4 7_657 1.535(5)
C5 C4 6_567 1.535(5)
C6 C7 . 1.365(7)
C6 H6 . 0.95
C7 H7 . 0.95
C8 O3 5_665 1.238(6)
C8 C9 . 1.505(7)
C9 C10 . 1.349(7)
C9 C15 . 1.428(7)
C10 C11 . 1.399(8)
C10 H10 . 0.95
C11 C12 . 1.354(7)
C11 H11 . 0.95
C12 C14 . 1.420(7)
C12 C13 6_576 1.500(7)
C13 O4 5_665 1.244(6)
C13 C12 7_756 1.500(7)
C14 C15 . 1.425(8)
C14 C19 . 1.443(8)
C15 C16 . 1.431(8)
C16 C17 . 1.387(10)
C16 H16 . 0.95
C17 C18 . 1.404(11)
C17 H17 . 0.95
C18 C19 . 1.366(10)
C18 H18 . 0.95
C19 H19 . 0.95
loop_
_geom_torsion_atom_site_label_1
_geom_torsion_atom_site_label_2
_geom_torsion_atom_site_label_3
_geom_torsion_atom_site_label_4
_geom_torsion_site_symmetry_1
_geom_torsion_site_symmetry_4
_geom_torsion
C7 N1 C1 C2 . . -0.5(7)
Zn1 N1 C1 C2 . . 178.8(4)
N1 C1 C2 C3 . . -1.0(8)
C4 O1 C3 C2 . . -8.8(7)
C4 O1 C3 C6 . . 172.0(4)
C1 C2 C3 O1 . . -176.9(4)
C1 C2 C3 C6 . . 2.2(7)
C3 O1 C4 C5 . . -179.2(3)
O1 C4 C5 C4 . 4 49.2(2)
O1 C4 C5 C4 . 7_657 -70.18(17)
O1 C4 C5 C4 . 6_567 168.6(3)
O1 C3 C6 C7 . . 177.2(4)
C2 C3 C6 C7 . . -2.0(7)
C1 N1 C7 C6 . . 0.7(7)
Zn1 N1 C7 C6 . . -178.6(4)
C3 C6 C7 N1 . . 0.6(7)
Zn1 O2 C8 O3 . 5_665 -0.7(10)
Zn1 O2 C8 C9 . . -178.9(4)
O2 C8 C9 C10 . . 167.7(6)
O3 C8 C9 C10 5_665 . -10.6(8)
O2 C8 C9 C15 . . -9.2(8)
O3 C8 C9 C15 5_665 . 172.4(6)
C15 C9 C10 C11 . . -1.0(9)
C8 C9 C10 C11 . . -178.1(5)
C9 C10 C11 C12 . . 2.6(10)
C10 C11 C12 C14 . . -2.1(9)
C10 C11 C12 C13 . 6_576 174.7(5)
Zn1 O5 C13 O4 . 5_665 2.6(9)
Zn1 O5 C13 C12 . 7_756 180.0(3)
C11 C12 C14 C15 . . 0.1(9)
C13 C12 C14 C15 6_576 . -176.5(5)
C11 C12 C14 C19 . . 177.4(6)
C13 C12 C14 C19 6_576 . 0.7(9)
C12 C14 C15 C9 . . 1.4(9)
C19 C14 C15 C9 . . -175.9(6)
C12 C14 C15 C16 . . 179.7(6)
C19 C14 C15 C16 . . 2.4(10)
C10 C9 C15 C14 . . -0.9(8)
C8 C9 C15 C14 . . 176.0(5)
C10 C9 C15 C16 . . -179.1(7)
C8 C9 C15 C16 . . -2.2(9)
C14 C15 C16 C17 . . -1.6(12)
C9 C15 C16 C17 . . 176.7(8)
C15 C16 C17 C18 . . -1.4(17)
C16 C17 C18 C19 . . 3.4(18)
C17 C18 C19 C14 . . -2.5(16)
C12 C14 C19 C18 . . -177.7(8)
C15 C14 C19 C18 . . -0.5(12)
