#------------------------------------------------------------------------------
#$Date: 2019-11-24 21:07:31 +0200 (Sun, 24 Nov 2019) $
#$Revision: 239419 $
#$URL: file:///home/coder/svn-repositories/cod/cif/4/51/66/4516642.cif $
#------------------------------------------------------------------------------
#
# This file is available in the Crystallography Open Database (COD),
# http://www.crystallography.net/
#
# All data on this site have been placed in the public domain by the
# contributors.
#
data_4516642
loop_
_publ_author_name
'Gong, Teng'
'Lou, Xiaobing'
'Gao, En-Qing'
'Hu, Bingwen'
_publ_section_title
;
 Pillared-Layer Metal-Organic Frameworks for Improved Lithium-Ion Storage
 Performance.
;
_journal_issue                   26
_journal_name_full               'ACS applied materials &amp; interfaces'
_journal_page_first              21839
_journal_page_last               21847
_journal_paper_doi               10.1021/acsami.7b05889
_journal_volume                  9
_journal_year                    2017
_chemical_formula_sum            'C26 H18 Co4 N20 O10'
_chemical_formula_weight         1006.32
_space_group_crystal_system      triclinic
_space_group_IT_number           2
_space_group_name_Hall           '-P 1'
_space_group_name_H-M_alt        'P -1'
_atom_sites_solution_hydrogens   mixed
_audit_creation_method           SHELXL-2014/7
_cell_angle_alpha                104.884(7)
_cell_angle_beta                 98.534(7)
_cell_angle_gamma                103.807(7)
_cell_formula_units_Z            1
_cell_length_a                   7.988(4)
_cell_length_b                   9.978(5)
_cell_length_c                   11.035(5)
_cell_measurement_reflns_used    3362
_cell_measurement_temperature    296(2)
_cell_measurement_theta_max      28.017
_cell_measurement_theta_min      2.532
_cell_volume                     804.6(7)
_computing_cell_refinement       'Bruker SMART'
_computing_data_collection       'Bruker SMART'
_computing_data_reduction        'Bruker SAINT'
_computing_molecular_graphics    'Bruker SHELXTL'
_computing_publication_material  'Bruker SHELXTL'
_computing_structure_refinement  'SHELXL-2014 (Sheldrick, 2014)'
_computing_structure_solution    'Bruker SHELXTL'
_diffrn_ambient_temperature      296(2)
_diffrn_measured_fraction_theta_full 0.990
_diffrn_measured_fraction_theta_max 0.991
_diffrn_measurement_device_type  'CCD area detector'
_diffrn_measurement_method       'phi and omega scans'
_diffrn_radiation_type           MoK\a
_diffrn_radiation_wavelength     0.71073
_diffrn_reflns_av_unetI/netI     0.0385
_diffrn_reflns_Laue_measured_fraction_full 0.990
_diffrn_reflns_Laue_measured_fraction_max 0.991
_diffrn_reflns_limit_h_max       9
_diffrn_reflns_limit_h_min       -9
_diffrn_reflns_limit_k_max       11
_diffrn_reflns_limit_k_min       -12
_diffrn_reflns_limit_l_max       13
_diffrn_reflns_limit_l_min       0
_diffrn_reflns_number            3112
_diffrn_reflns_point_group_measured_fraction_full 0.990
_diffrn_reflns_point_group_measured_fraction_max 0.991
_diffrn_reflns_theta_full        25.242
_diffrn_reflns_theta_max         26.009
_diffrn_reflns_theta_min         1.959
_exptl_absorpt_coefficient_mu    2.121
_exptl_absorpt_correction_T_max  0.7454
_exptl_absorpt_correction_T_min  0.6378
_exptl_absorpt_correction_type   multi-scan
_exptl_crystal_colour            purple
_exptl_crystal_density_diffrn    2.077
_exptl_crystal_description       sheet
_exptl_crystal_F_000             502
_exptl_crystal_size_max          0.190
_exptl_crystal_size_mid          0.180
_exptl_crystal_size_min          0.040
_refine_diff_density_max         1.182
_refine_diff_density_min         -1.094
_refine_diff_density_rms         0.317
_refine_ls_extinction_method     none
_refine_ls_goodness_of_fit_ref   0.977
_refine_ls_hydrogen_treatment    mixed
_refine_ls_matrix_type           full
_refine_ls_number_parameters     281
_refine_ls_number_reflns         3112
_refine_ls_number_restraints     28
_refine_ls_restrained_S_all      0.975
_refine_ls_R_factor_all          0.0589
_refine_ls_R_factor_gt           0.0443
_refine_ls_shift/su_max          0.000
_refine_ls_shift/su_mean         0.000
_refine_ls_structure_factor_coef Fsqd
_refine_ls_weighting_details
'w=1/[\s^2^(Fo^2^)+(0.1362P)^2^+8.0465P] where P=(Fo^2^+2Fc^2^)/3'
_refine_ls_weighting_scheme      calc
_refine_ls_wR_factor_gt          0.1369
_refine_ls_wR_factor_ref         0.1955
_reflns_Friedel_coverage         0.000
_reflns_number_gt                2760
_reflns_number_total             3112
_reflns_threshold_expression     'I > 2\s(I)'
_cod_data_source_file            am7b05889_si_002.cif
_cod_data_source_block           2
_cod_database_code               4516642
_shelx_shelxl_version_number     2014/7
_shelx_space_group_comment
;
The symmetry employed for this shelxl refinement is uniquely defined
by the following loop, which should always be used as a source of
symmetry information in preference to the above space-group names.
They are only intended as comments.
;
_shelx_estimated_absorpt_t_min   0.689
_shelx_estimated_absorpt_t_max   0.920
_exptl_absorpt_special_details   SADABS
_shelx_res_file
;

    2.res created by SHELXL-2014/7

TITL mo_40814c in P-1
CELL 0.71073   7.9878   9.9783  11.0350 104.884  98.534 103.807
ZERR    1.00   0.0038   0.0047   0.0052   0.007   0.007   0.007
LATT 1
SFAC C  H  N  O  Co
UNIT 26 18 20 10 4
OMIT  -2.00 52.02
L.S. 20
BOND
FMAP 2
PLAN 4
SIZE 0.04 0.18 0.19
rem simu 0.001 c9 c8 c13
TEMP -100
acta
ISOR 0.01 C13
ISOR 0.003 N6
ISOR 0.005 N4 C1
rem EXTI    0.010074
DFIX 0.86 O5 H5B O5 H5C
DANG 1.39 H5B H5C
EQIV $1 x, -1+y, z
EQIV $2 -x, 2-y, -z
rem DFIX 2.0 H5B N9_$1
DFIX 2.3 H5C N9_$2
HTAB
WGHT    0.136200    8.046491
BASF   0.40977
FVAR       0.80840
CO1   5    0.348270    0.831232    0.126537    11.00000    0.00764    0.00752 =
         0.00518   -0.00024    0.00043    0.00455
CO2   5    0.500000    0.500000    0.000000    10.50000    0.00847    0.00627 =
         0.00425   -0.00143   -0.00052    0.00391
CO3   5    0.000000    1.000000    0.000000    10.50000    0.00704    0.00697 =
         0.00588    0.00186    0.00065    0.00363
N1    3    0.220927    0.918673   -0.014855    11.00000    0.01086    0.01017 =
         0.00730    0.00322   -0.00075    0.00544
N2    3    0.318690    0.963406   -0.077032    11.00000    0.01279    0.00751 =
         0.00569   -0.00064    0.00037    0.00627
N3    3    0.410449    0.999429   -0.144579    11.00000    0.01178    0.01522 =
         0.01897    0.00534    0.00649   -0.00045
N4    3    0.401148    0.677241   -0.028983    11.00000    0.01439    0.01054 =
         0.00315   -0.00117   -0.00164    0.00694
N5    3    0.303808    0.653497   -0.130132    11.00000    0.01950    0.00541 =
         0.01498    0.00240    0.00648    0.00560
N6    3    0.213682    0.631551   -0.231178    11.00000    0.02350    0.01544 =
         0.00773    0.00052   -0.00812    0.00483
N7    3    0.184470    1.206317    0.119020    11.00000    0.01406    0.00900 =
         0.01624    0.00408   -0.00228    0.00001
N8    3    0.217060    1.313705    0.089680    11.00000    0.01259    0.01452 =
         0.01047    0.00039    0.00136    0.00708
N9    3    0.252268    1.421502    0.061241    11.00000    0.01601    0.00587 =
         0.03583    0.00981    0.01532    0.00252
O1    4    0.498207    0.783969    0.270473    11.00000    0.01507    0.01850 =
         0.00510    0.00053   -0.00138    0.01159
O2    4    0.635686    0.626333    0.179267    11.00000    0.01889    0.01379 =
         0.01168   -0.00531   -0.00675    0.00986
O3    4    0.727467    1.032883    0.733337    11.00000    0.00963    0.01080 =
         0.00902    0.00046    0.00327    0.00840
O4    4    1.004499    1.053944    0.829564    11.00000    0.01131    0.00916 =
         0.01041   -0.00056    0.00299    0.00231
O5    4    0.122037    0.665206    0.128155    11.00000    0.01179    0.01387 =
         0.02431    0.00664    0.00624    0.00514
H5C   2    0.034922    0.646777    0.060985    11.00000   -1.50000
H5B   2    0.154741    0.586909    0.116013    11.00000   -1.50000
C1    1    0.621428    0.727037    0.266805    11.00000    0.00915    0.00761 =
         0.00160    0.00172   -0.00076    0.00364
C2    1    0.770297    0.781972    0.386492    11.00000    0.00701    0.00781 =
         0.00415    0.00295   -0.00155   -0.00022
C3    1    0.764075    0.878055    0.499559    11.00000    0.00455    0.00662 =
         0.01126    0.00594    0.00215    0.00350
AFIX  43
H3A   2    0.669312    0.920226    0.501106    11.00000   -1.20000
AFIX   0
C4    1    0.894114    0.914585    0.611714    11.00000    0.00937    0.00446 =
         0.00649   -0.00039    0.00382    0.00156
C5    1    1.034530    0.855985    0.608536    11.00000    0.00965    0.01342 =
         0.01020    0.00431   -0.00556    0.00288
AFIX  43
H5A   2    1.123712    0.879068    0.684097    11.00000   -1.20000
AFIX   0
C6    1    1.043577    0.762646    0.493105    11.00000    0.01013    0.00596 =
         0.01315    0.00032   -0.00120    0.00637
C7    1    0.914578    0.725806    0.381621    11.00000    0.01093    0.01149 =
         0.01358    0.00381    0.00278    0.00741
AFIX  43
H7A   2    0.923975    0.663589    0.303386    11.00000   -1.20000
AFIX   0
N10   3    1.185001    0.693455    0.491889    11.00000    0.00826    0.00954 =
         0.00830   -0.00108    0.00059    0.00522
C9    1    1.343548    0.756495    0.574606    11.00000    0.00907    0.00706 =
         0.01067   -0.00328    0.00007    0.00527
AFIX  43
H9A   2    1.370472    0.853029    0.629329    11.00000   -1.20000
AFIX   0
C10   1    1.467247    0.680566    0.579849    11.00000    0.00461    0.01644 =
         0.00639    0.00233    0.00182    0.00489
AFIX  43
H10A  2    1.576355    0.724174    0.641481    11.00000   -1.20000
AFIX   0
C11   1    1.435270    0.543030    0.497470    11.00000    0.00772    0.01166 =
         0.00682    0.00313    0.00223    0.00547
C12   1    1.271835    0.482281    0.409391    11.00000    0.01141    0.01010 =
         0.00860   -0.00182    0.00079    0.00330
AFIX  43
H12A  2    1.246295    0.388812    0.349300    11.00000   -1.20000
AFIX   0
C13   1    1.148836    0.556881    0.409480    11.00000    0.01150    0.00751 =
         0.00958   -0.00529    0.00026    0.00408
AFIX  43
H13A  2    1.036700    0.513142    0.351444    11.00000   -1.20000
AFIX   0
C14   1    0.874183    1.007792    0.736749    11.00000    0.01101    0.00793 =
         0.00695    0.00364    0.00243    0.00186

HKLF 5

REM  mo_40814c in P-1
REM R1 =  0.0443 for    2760 Fo > 4sig(Fo)  and  0.0589 for all    3112 data
REM    281 parameters refined using     28 restraints

END

WGHT      0.1549      0.4916

REM Instructions for potential hydrogen bonds
HTAB O5 N8_$2
HTAB O5 N9_$2
HTAB O5 N9_$1
EQIV $3 x+1, y, z+1
HTAB C5 N2_$3
HTAB C5 N3_$3
HTAB C9 N3_$3
EQIV $4 x+1, y-1, z
HTAB C12 N7_$4
EQIV $5 -x+1, -y+1, -z
HTAB C13 N6_$5

REM Highest difference peak  1.182,  deepest hole -1.094,  1-sigma level  0.317
Q1    1   0.1160  0.6871 -0.2607  11.00000  0.05    1.18
Q2    1   0.2343  0.7121  0.1950  11.00000  0.05    1.07
Q3    1   0.3934  0.9409 -0.2373  11.00000  0.05    1.07
Q4    1   0.2784  0.5974  0.2635  11.00000  0.05    1.04
;
_shelx_res_checksum              56422
_shelx_hkl_file
;
   1   0   0 219.316 4.32582   1
   2   0   0 88.3297 3.35556   1
   3   0   0 487.443 10.0903   1
  -5   0   3 672.064 14.4862  -2
   5   0   0 672.064 14.4862   1
   6   0   0 405.057 14.0868   1
   7   0   0 260.940 10.6535   1
  -8   0   5 1307.02 41.7516  -2
   8   0   0 1307.02 41.7516   1
   9   0   0 112.152 13.2515   1
 -10   0   6 45.0245 18.4004  -2
  10   0   0 45.0245 18.4004   1
 -10   1   0 4.55476 9.59571   1
  -9   1   5 106.359 18.0399  -2
  -9   1   0 106.359 18.0399   1
  -8   1   4 123.579 12.1165  -2
  -8   1   0 123.579 12.1165   1
  -7   1   0 67.6253 6.34290   1
  -6   1   3 62.4487 9.39752  -2
  -6   1   0 62.4487 9.39752   1
  -5   1   0 1526.30 23.0452   1
  -4   1   2 658.958 17.2014  -2
  -4   1   0 658.958 17.2014   1
  -3   1   0 1133.81 31.0222   1
  -2   1   0 1165.25 20.9080   1
  -1   1   0 412.450 10.8221  -2
  -1   1   0 412.450 10.8221   1
   0   1   0 483.776 6.85222   1
   1   1   0 4570.10 61.4578   1
  -2  -1   2 2909.91 48.7112  -2
   2   1   0 2909.91 48.7112   1
   3   1   0 4642.21 63.1288   1
  -4  -1   3 215.142 7.96919  -2
   4   1   0 215.142 7.96919   1
   5   1   0 2.97911 2.51574   1
   6   1   0 93.3423 5.16924   1
  -7  -1   5 597.962 24.1646  -2
   7   1   0 597.962 24.1646   1
   8   1   0 4.46615 8.13936   1
  -9  -1   6 693.490 33.3363  -2
   9   1   0 693.490 33.3363   1
 -10  -1   7 3.87156 19.8889  -2
  10   1   0 3.87156 19.8889   1
 -10   2   5 328.666 25.2958  -2
 -10   2   0 328.666 25.2958   1
  -9   2   4 324.932 15.7394  -2
  -9   2   0 324.932 15.7394   1
  -8   2   0 663.468 18.7696   1
  -7   2   3 909.777 22.1651  -2
  -7   2   0 909.777 22.1651   1
  -6   2   0 261.231 10.2619   1
  -5   2   0 75.9268 5.66555   1
  -4   2   1 3329.05 57.4743  -2
  -4   2   0 3329.05 57.4743   1
  -3   2   0 36.4606 4.94482   1
  -2   2   0 7120.29 158.842  -2
  -2   2   0 7120.29 158.842   1
  -1   2   0 7.83061 3.45732   1
   0   2   0 24.0196 1.93417   1
  -1  -2   2 5811.75 95.9144  -2
   1   2   0 5811.75 95.9144   1
   2   2   0 233.768 5.84794   1
   3   2   0 1.29251 1.82296   1
  -4  -2   4 3311.73 57.0644  -2
   4   2   0 3311.73 57.0644   1
   5   2   0 231.285 8.87454   1
  -6  -2   5 1515.56 30.2930  -2
   6   2   0 1515.56 30.2930   1
   7   2   0 843.327 30.0794   1
  -8  -2   6 22.5102 18.4716  -2
   8   2   0 22.5102 18.4716   1
  -9  -2   7 81.7304 17.8059  -2
   9   2   0 81.7304 17.8059   1
 -10   3   4 379.838 17.5259  -2
 -10   3   0 379.838 17.5259   1
  -9   3   0 203.101 11.7299   1
  -8   3   3 26.9351 10.3501  -2
  -8   3   0 26.9351 10.3501   1
  -7   3   2 1197.57 38.9372  -2
  -7   3   0 1197.57 38.9372   1
  -6   3   0 246.245 10.6134   1
  -5   3   1 2494.91 45.3423  -2
  -5   3   0 2494.91 45.3423   1
  -4   3   0 175.853 10.3567   1
  -3   3   0 173.650 9.26234  -2
  -3   3   0 173.650 9.26234   1
  -2   3   0 153.788 7.92869   1
  -1   3   0 713.885 20.1992   1
   0  -3   2 1135.19 20.0892  -2
   0   3   0 1135.19 20.0892   1
   1   3   0 2365.87 39.6069   1
   2   3   0 66.3900 3.11812   1
  -3  -3   4 1653.74 24.6115  -2
   3   3   0 1653.74 24.6115   1
   4   3   0 36.2343 3.18642   1
  -5  -3   5 725.727 18.2868  -2
   5   3   0 725.727 18.2868   1
  -6  -3   6 159.068 17.7138  -2
   6   3   0 159.068 17.7138   1
   7   3   0 732.187 28.8412   1
  -8  -3   7 31.4154 13.0684  -2
   8   3   0 31.4154 13.0684   1
   9   3   0 -14.352 8.82695   1
 -10   4   0 369.779 16.2355   1
  -9   4   3 182.325 14.0908  -2
  -9   4   0 182.325 14.0908   1
  -8   4   2 65.5665 15.9174  -2
  -8   4   0 65.5665 15.9174   1
  -7   4   0 295.206 12.0405   1
  -6   4   1 712.217 18.4939  -2
  -6   4   0 712.217 18.4939   1
  -5   4   0 615.091 15.4969   1
  -4   4   0 2205.11 31.7436   1
   3  -4   1 410.750 10.9379  -2
  -3   4   0 410.750 10.9379   1
  -2   4   0 519.304 16.9387   1
  -1   4   0 124.715 7.10190   1
   0   4   0 742.523 14.0894   1
   1   4   0 30.0229 2.52819   1
  -2  -4   4 3031.73 51.3028  -2
   2   4   0 3031.73 51.3028   1
   3   4   0 775.188 12.9408   1
  -4  -4   5 373.897 18.8074  -2
   4   4   0 373.897 18.8074   1
  -5  -4   6 164.434 10.8483  -2
   5   4   0 164.434 10.8483   1
   6   4   0 -2.7495 4.34670   1
  -7  -4   7 51.6329 13.9901  -2
   7   4   0 51.6329 13.9901   1
   8   4   0 211.468 17.7346   1
  -9  -4   8 276.497 27.9700  -2
   9   4   0 276.497 27.9700   1
 -11   5   0 67.5133 13.6432   1
 -10   5   3 122.926 16.3284  -2
 -10   5   0 122.926 16.3284   1
  -9   5   2 407.412 17.1935  -2
  -9   5   0 407.412 17.1935   1
  -8   5   0 42.0956 7.30138   1
  -7   5   1 711.727 20.1241  -2
  -7   5   0 711.727 20.1241   1
  -6   5   0 803.898 29.1643  -2
  -6   5   0 803.898 29.1643   1
  -5   5   0 2.79674 1.51440   1
   4  -5   1 897.559 15.0794  -2
  -4   5   0 897.559 15.0794   1
  -3   5   0 2334.65 61.6303   1
  -2   5   0 207.968 10.6086   1
  -1   5   0 0.29055 2.05816   1
   0   5   0 116.663 4.76628   1
  -1  -5   4 5692.75 94.1706  -2
   1   5   0 5692.75 94.1706   1
   2   5   0 13.1574 2.06100   1
   3   5   0 448.897 12.8023   1
  -4  -5   6 183.109 10.3038  -2
   4   5   0 183.109 10.3038   1
   5   5   0 437.674 14.0098   1
  -6  -5   7 26.4739 9.17095  -2
   6   5   0 26.4739 9.17095   1
  -7  -5   8 62.6857 19.6270  -2
   7   5   0 62.6857 19.6270   1
   8   5   0 76.5161 13.3076   1
 -11   6   0 22.4958 11.3656   1
 -10   6   2 196.673 14.3103  -2
 -10   6   0 196.673 14.3103   1
  -9   6   0 43.4801 6.17023   1
  -8   6   1 427.528 24.5615  -2
  -8   6   0 427.528 24.5615   1
  -7   6   0 5.34040 11.1109  -2
  -7   6   0 5.34040 11.1109   1
  -6   6   0 1197.23 26.8171   1
   5  -6   1 249.494 10.8867  -2
  -5   6   0 249.494 10.8867   1
  -4   6   0 321.664 9.66522   1
  -3   6   0 916.786 28.8960   1
   2  -6   3 2263.42 60.1376  -2
  -2   6   0 2263.42 60.1376   1
  -1   6   0 782.899 16.1941   1
   0  -6   4 1268.42 34.4873  -2
   0   6   0 1268.42 34.4873   1
   1   6   0 79.6713 4.62482   1
   2   6   0 52.7394 5.23631   1
  -3  -6   6 59.9313 7.66430  -2
   3   6   0 59.9313 7.66430   1
   4   6   0 142.574 8.61877   1
  -5  -6   7 9.67775 9.98901  -2
   5   6   0 9.67775 9.98901   1
  -6  -6   8 572.176 19.1303  -2
   6   6   0 572.176 19.1303   1
   7   6   0 38.2855 10.6289   1
  -8  -6   9 43.4773 14.9127  -2
   8   6   0 43.4773 14.9127   1
 -10   7   0 68.1339 9.52229   1
  -9   7   1 281.884 17.4897  -2
  -9   7   0 281.884 17.4897   1
  -8   7   0 143.958 18.7134  -2
  -8   7   0 143.958 18.7134   1
  -7   7   0 211.037 11.4250   1
   6  -7   1 174.626 10.7259  -2
  -6   7   0 174.626 10.7259   1
  -5   7   0 1381.14 43.2498   1
  -4   7   0 590.674 14.9871   1
   3  -7   3 497.504 13.7511  -2
  -3   7   0 497.504 13.7511   1
  -2   7   0 471.039 18.2301   1
   1  -7   4 1152.81 23.1679  -2
  -1   7   0 1152.81 23.1679   1
   0  -7   5 0.71249 9.71330  -2
   0   7   0 0.71249 9.71330   1
   1   7   0 1434.43 37.9491   1
  -2  -7   6 291.947 10.7651  -2
   2   7   0 291.947 10.7651   1
   3   7   0 879.392 21.0041   1
  -4  -7   7 225.401 19.0327  -2
   4   7   0 225.401 19.0327   1
  -5  -7   8 8.86792 9.29088  -2
   5   7   0 8.86792 9.29088   1
   6   7   0 18.7640 6.10974   1
  -7  -7   9 311.684 23.2568  -2
   7   7   0 311.684 23.2568   1
 -10   8   0 98.5826 8.88925   1
  -9   8   0 312.120 20.9950  -2
  -9   8   0 312.120 20.9950   1
  -8   8   0 378.165 15.4239   1
   7  -8   1 6.54770 17.1177  -2
  -7   8   0 6.54770 17.1177   1
   6  -8   2 -24.900 17.1870  -2
  -6   8   0 -24.900 17.1870   1
  -5   8   0 113.398 12.1548   1
   4  -8   3 505.511 14.3733  -2
  -4   8   0 505.511 14.3733   1
  -3   8   0 73.1812 6.24519   1
  -2   8   0 901.796 16.4236   1
   1  -8   5 164.206 7.75595  -2
  -1   8   0 164.206 7.75595   1
   0   8   0 16.7088 4.59308   1
  -1  -8   6 219.437 10.0940  -2
   1   8   0 219.437 10.0940   1
   2   8   0 89.6045 7.10067   1
   3   8   0 8.14685 4.94657   1
  -4  -8   8 715.580 20.2136  -2
   4   8   0 715.580 20.2136   1
   5   8   0 102.248 9.16209   1
  -6  -8   9 79.5021 12.6978  -2
   6   8   0 79.5021 12.6978   1
 -10   9   0 -10.844 9.21684  -2
 -10   9   0 -10.844 9.21684   1
  -9   9   0 28.4280 8.31640   1
   7  -9   2 661.695 32.6193  -2
  -7   9   0 661.695 32.6193   1
  -6   9   0 71.8934 11.8964   1
   5  -9   3 97.4590 16.8202  -2
  -5   9   0 97.4590 16.8202   1
  -4   9   0 5.84507 4.24970   1
  -3   9   0 142.597 8.75859   1
   2  -9   5 18.9455 5.57853  -2
  -2   9   0 18.9455 5.57853   1
  -1   9   0 173.296 8.51455   1
   0  -9   6 13.0361 8.65004  -2
   0   9   0 13.0361 8.65004   1
  -1  -9   7 836.119 21.2210  -2
   1   9   0 836.119 21.2210   1
   2   9   0 27.7197 5.35918   1
  -3  -9   8 155.975 15.4845  -2
   3   9   0 155.975 15.4845   1
   4   9   0 138.061 16.0046   1
  -5  -9   9 272.078 22.9122  -2
   5   9   0 272.078 22.9122   1
  -9  10   0 -7.3121 10.2124   1
  -7  10   0 8.10367 10.2857   1
   6 -10   3 608.069 31.1227  -2
  -6  10   0 608.069 31.1227   1
   5 -10   4 70.2805 18.9883  -2
  -5  10   0 70.2805 18.9883   1
  -4  10   0 209.119 10.3950   1
   3 -10   5 1029.24 19.2187  -2
  -3  10   0 1029.24 19.2187   1
  -2  10   0 14.5774 7.33344   1
   1 -10   6 68.3330 14.5004  -2
  -1  10   0 68.3330 14.5004   1
   0 -10   7 57.4431 13.7042  -2
   0  10   0 57.4431 13.7042   1
   1  10   0 14.5403 8.13954   1
  -2 -10   8 766.650 32.2723  -2
   2  10   0 766.650 32.2723   1
   3  10   0 15.3368 10.4193   1
  -4 -10   9 182.745 22.9118  -2
   4  10   0 182.745 22.9118   1
  -8  11   0 60.0969 14.9588   1
   7 -11   3 90.2633 24.3960  -2
  -7  11   0 90.2633 24.3960   1
   6 -11   4 110.354 21.2561  -2
  -6  11   0 110.354 21.2561   1
  -5  11   0 -7.4128 8.60063   1
   4 -11   5 216.035 12.1802  -2
  -4  11   0 216.035 12.1802   1
  -3  11   0 368.400 19.5227   1
  -2  11   0 93.5551 12.1936   1
   1 -11   7 1055.51 37.8923  -2
  -1  11   0 1055.51 37.8923   1
   0  11   0 2.69623 8.44058   1
  -1 -11   8 52.4183 15.1862  -2
   1  11   0 52.4183 15.1862   1
  -2 -11   9 17.3719 15.3524  -2
   2  11   0 17.3719 15.3524   1
   3  11   0 116.210 15.5678   1
  -6  12   0 432.068 25.8265   1
   5 -12   5 63.4878 19.5276  -2
  -5  12   0 63.4878 19.5276   1
  -3  12   0 359.192 20.8994   1
   2 -12   7 77.4771 13.3749  -2
  -2  12   0 77.4771 13.3749   1
  -1  12   0 88.8361 13.8638   1
   0 -12   8 474.774 28.9602  -2
   0  12   0 474.774 28.9602   1
  -1 -12   9 -10.802 15.5939  -2
   1  12   0 -10.802 15.5939   1
   3 -13   7 248.396 19.3847  -2
  -3  13   0 248.396 19.3847   1
  -2  13   0 213.450 18.9729   1
   1 -13   8 0.33712 17.8023  -2
  -1  13   0 0.33712 17.8023   1
   3 -14   7 74.4904 18.6755  -2
   3 -14   1 74.4904 18.6755   1
   0 -13   8 151.308 18.5729  -2
   0 -13   1 151.308 18.5729   1
   1 -13   7 -19.172 17.0646  -2
   1 -13   1 -19.172 17.0646   1
   2 -13   1 50.1777 11.2768   1
   3 -13   6 214.433 17.6618  -2
   3 -13   1 214.433 17.6618   1
   6 -13   4 158.447 22.5781  -2
   6 -13   1 158.447 22.5781   1
   7 -13   1 23.7947 8.24379   1
  -2 -12   1 25.2402 11.1143   1
  -1 -12   8 26.1585 16.0231  -2
  -1 -12   1 26.1585 16.0231   1
   0 -12   7 931.961 38.4320  -2
   0 -12   1 931.961 38.4320   1
   1 -12   1 234.714 18.5874   1
   2 -12   6 64.4873 12.2378  -2
   2 -12   1 64.4873 12.2378   1
   3 -12   1 24.4323 8.35870   1
   6 -12   1 0.24578 10.1753   1
   7 -12   3 160.588 19.1933  -2
   7 -12   1 160.588 19.1933   1
  -3 -11   1 243.277 20.9747   1
  -2 -11   8 65.2799 16.9682  -2
  -2 -11   1 65.2799 16.9682   1
  -1 -11   7 24.8114 12.7359  -2
  -1 -11   1 24.8114 12.7359   1
   0 -11   1 59.2462 11.1804   1
   1 -11   6 222.260 17.3941  -2
   1 -11   1 222.260 17.3941   1
   2 -11   1 63.1622 9.92828   1
   3 -11   1 506.927 15.7374   1
   4 -11   4 83.4538 11.7887  -2
   4 -11   1 83.4538 11.7887   1
   5 -11   1 170.822 16.5388   1
   8 -11   1 13.3756 7.94328   1
  -5 -10   9 246.278 21.5841  -2
  -5 -10   1 246.278 21.5841   1
  -4 -10   1 -11.734 7.13808   1
  -3 -10   1 33.7938 9.43419   1
  -2 -10   7 600.621 18.4243  -2
  -2 -10   1 600.621 18.4243   1
  -1 -10   1 189.242 10.2913   1
   0 -10   6 356.530 14.3531  -2
   0 -10   1 356.530 14.3531   1
   1 -10   5 215.149 16.9106  -2
   1 -10   1 215.149 16.9106   1
   2 -10   1 124.385 8.06225   1
   3 -10   4 228.833 8.52774  -2
   3 -10   1 228.833 8.52774   1
   4 -10   1 56.4997 6.49020   1
   5 -10   3 45.3754 17.4194  -2
   5 -10   1 45.3754 17.4194   1
   7 -10   1 28.2314 11.7816   1
   8 -10   1 52.5379 16.9599  -2
   8 -10   1 52.5379 16.9599   1
  -9  10   0 160.853 24.8904  -2
   9 -10   1 160.853 24.8904   1
  -6  -9   9 88.5253 18.8510  -2
  -6  -9   1 88.5253 18.8510   1
  -5  -9   8 216.214 15.5377  -2
  -5  -9   1 216.214 15.5377   1
  -4  -9   1 19.9307 6.11359   1
  -3  -9   7 73.9193 8.01268  -2
  -3  -9   1 73.9193 8.01268   1
  -2  -9   1 318.206 12.5029   1
  -1  -9   6 377.974 14.4321  -2
  -1  -9   1 377.974 14.4321   1
   0  -9   5 181.208 14.7960  -2
   0  -9   1 181.208 14.7960   1
   1  -9   1 417.771 16.9923   1
   2  -9   4 599.184 15.9207  -2
   2  -9   1 599.184 15.9207   1
   3  -9   1 321.364 17.2071   1
   4  -9   1 226.441 16.2385   1
   5  -9   2 92.0280 15.2908  -2
   5  -9   1 92.0280 15.2908   1
   6  -9   1 -6.7401 8.45463   1
  -8   9   0 221.290 21.8819  -2
   8  -9   1 221.290 21.8819   1
   9  -9   1 67.7362 8.06630   1
 -10   9   1 561.882 30.5393  -2
  10  -9   1 561.882 30.5393   1
  -7  -8   9 375.305 27.4788  -2
  -7  -8   1 375.305 27.4788   1
  -6  -8   8 62.7746 12.2538  -2
  -6  -8   1 62.7746 12.2538   1
  -5  -8   1 19.4658 6.15985   1
  -4  -8   7 411.041 15.4197  -2
  -4  -8   1 411.041 15.4197   1
  -3  -8   1 245.233 10.8597   1
  -2  -8   1 606.473 16.3704   1
  -1  -8   5 198.109 14.3155  -2
  -1  -8   1 198.109 14.3155   1
   0  -8   1 214.411 12.1114   1
   1  -8   4 369.210 12.1594  -2
   1  -8   1 369.210 12.1594   1
   2  -8   1 1512.01 43.6167   1
   3  -8   1 1389.04 41.9486   1
   4  -8   2 925.009 32.5976  -2
   4  -8   1 925.009 32.5976   1
   5  -8   1 1.56916 6.88116   1
   6  -8   1 492.432 26.6749  -2
   6  -8   1 492.432 26.6749   1
   8  -8   1 54.5925 6.46047   1
  -9   8   1 105.241 12.0353  -2
   9  -8   1 105.241 12.0353   1
  10  -8   1 417.165 18.2127   1
  -7  -7   8 192.033 21.1382  -2
  -7  -7   1 192.033 21.1382   1
  -6  -7   1 16.0984 6.15048   1
  -5  -7   7 54.2933 9.88231  -2
  -5  -7   1 54.2933 9.88231   1
  -4  -7   1 486.547 15.1428   1
  -3  -7   1 134.674 8.57770   1
  -2  -7   5 1664.01 44.5313  -2
  -2  -7   1 1664.01 44.5313   1
  -1  -7   1 548.055 19.0738   1
   0  -7   4 301.359 15.2998  -2
   0  -7   1 301.359 15.2998   1
   1  -7   3 1581.88 41.8386  -2
   1  -7   1 1581.88 41.8386   1
   2  -7   1 999.517 30.6064   1
   3  -7   2 381.023 18.5242  -2
   3  -7   1 381.023 18.5242   1
   4  -7   1 377.110 19.0224   1
   5  -7   1 1573.13 48.2189   1
   7  -7   1 53.3465 7.24122   1
  -8   7   1 70.1327 11.2051  -2
   8  -7   1 70.1327 11.2051   1
  -9   7   2 522.879 21.8116  -2
   9  -7   1 522.879 21.8116   1
  10  -7   1 17.1070 7.61945   1
  -8  -6   8 34.0352 14.8707  -2
  -8  -6   1 34.0352 14.8707   1
  -7  -6   1 2.60163 8.34429   1
  -6  -6   7 320.812 15.1661  -2
  -6  -6   1 320.812 15.1661   1
  -5  -6   6 253.648 13.2916  -2
  -5  -6   1 253.648 13.2916   1
  -4  -6   1 48.3367 5.88733   1
  -3  -6   5 121.592 11.5460  -2
  -3  -6   1 121.592 11.5460   1
  -2  -6   1 17.2591 5.68561   1
  -1  -6   1 213.227 6.58171   1
   0  -6   3 1202.82 22.9604  -2
   0  -6   1 1202.82 22.9604   1
   1  -6   1 715.252 15.2823   1
   2  -6   2 1031.51 31.2881  -2
   2  -6   1 1031.51 31.2881   1
   3  -6   1 168.443 10.9858   1
   4  -6   1 660.544 24.2345   1
  -5   6   0 316.893 12.0019  -2
   5  -6   1 316.893 12.0019   1
   6  -6   1 434.795 14.6445   1
  -7   6   1 501.091 25.0246  -2
   7  -6   1 501.091 25.0246   1
  -8   6   2 322.496 16.5590  -2
   8  -6   1 322.496 16.5590   1
   9  -6   1 -6.0332 5.88018   1
 -10   6   3 233.222 14.9556  -2
  10  -6   1 233.222 14.9556   1
  11  -6   1 -3.4208 10.6864   1
  -8  -5   1 0.90605 9.35531   1
  -7  -5   7 17.7876 18.0008  -2
  -7  -5   1 17.7876 18.0008   1
  -6  -5   6 88.9134 9.84809  -2
  -6  -5   1 88.9134 9.84809   1
  -5  -5   1 110.884 7.83347   1
  -4  -5   5 672.508 17.8829  -2
  -4  -5   1 672.508 17.8829   1
  -3  -5   1 766.239 24.2924   1
  -2  -5   1 -1.0726 4.15591   1
  -1  -5   3 564.243 11.6434  -2
  -1  -5   1 564.243 11.6434   1
   0  -5   1 329.450 8.22150   1
   2  -5   1 564.724 18.9309   1
   3  -5   1 2311.00 61.1948   1
  -4   5   0 1237.07 25.1871  -2
   4  -5   1 1237.07 25.1871   1
   5  -5   1 53.5542 8.50156   1
  -6   5   1 306.719 21.5478  -2
   6  -5   1 306.719 21.5478   1
  -7   5   2 707.736 20.1866  -2
   7  -5   1 707.736 20.1866   1
   8  -5   1 7.17560 5.49181   1
  -9   5   3 498.607 18.8680  -2
   9  -5   1 498.607 18.8680   1
 -10   5   4 13.9338 20.6531  -2
  10  -5   1 13.9338 20.6531   1
  11  -5   1 244.977 22.6864   1
  -9  -4   7 149.654 24.3838  -2
  -9  -4   1 149.654 24.3838   1
  -8  -4   1 507.214 25.9864   1
  -7  -4   6 219.347 18.6674  -2
  -7  -4   1 219.347 18.6674   1
  -6  -4   1 84.3841 7.19244   1
  -5  -4   5 169.067 11.0456  -2
  -5  -4   1 169.067 11.0456   1
  -4  -4   4 339.456 18.5754  -2
  -4  -4   1 339.456 18.5754   1
  -3  -4   1 86.9033 7.93284   1
  -2  -4   3 2662.70 63.5392  -2
  -2  -4   1 2662.70 63.5392   1
  -1  -4   1 121.151 3.90243   1
   0  -4   1 140.214 4.75773   1
   1  -4   1 1136.15 30.5079   1
   2  -4   1 17.4870 4.10889   1
  -3   4   0 317.947 15.0438  -2
   3  -4   1 317.947 15.0438   1
   4  -4   1 583.922 19.0929   1
   5  -4   1 447.016 13.0223   1
  -6   4   2 1643.40 45.7138  -2
   6  -4   1 1643.40 45.7138   1
   7  -4   1 12.3938 4.43397   1
  -8   4   3 1077.64 26.9882  -2
   8  -4   1 1077.64 26.9882   1
  -9   4   4 240.336 15.9112  -2
   9  -4   1 240.336 15.9112   1
  10  -4   1 53.5960 9.00007   1
  -9  -3   1 39.1206 12.2106   1
  -8  -3   6 130.015 15.9040  -2
  -8  -3   1 130.015 15.9040   1
  -7  -3   1 234.523 15.9275   1
  -6  -3   1 640.375 16.5978   1
  -5  -3   4 1191.83 25.2853  -2
  -5  -3   1 1191.83 25.2853   1
  -4  -3   1 52.2501 4.01007   1
  -3  -3   3 1136.80 20.9643  -2
  -3  -3   1 1136.80 20.9643   1
  -2  -3   1 1724.34 42.2200   1
  -1  -3   1 301.310 4.89182   1
   0  -3   1 1514.91 26.2784  -2
   0  -3   1 1514.91 26.2784   1
   1  -3   1 1830.56 46.3950   1
   2  -3   1 1877.80 48.6699   1
  -3   3   1 2151.82 52.3565  -2
   3  -3   1 2151.82 52.3565   1
   4  -3   1 392.892 10.8334   1
  -5   3   2 2068.74 52.7170  -2
   5  -3   1 2068.74 52.7170   1
   6  -3   1 195.215 8.20649   1
   7  -3   1 609.943 17.1304   1
  -8   3   4 4.02092 9.87650  -2
   8  -3   1 4.02092 9.87650   1
   9  -3   1 163.133 11.3057   1
 -10   3   5 97.9682 12.8194  -2
  10  -3   1 97.9682 12.8194   1
 -10  -2   1 133.061 16.9253   1
  -9  -2   6 167.015 19.4093  -2
  -9  -2   1 167.015 19.4093   1
  -8  -2   5 260.253 21.8106  -2
  -8  -2   1 260.253 21.8106   1
  -7  -2   1 7.36958 7.63431   1
  -6  -2   4 60.4044 7.23071  -2
  -6  -2   1 60.4044 7.23071   1
  -5  -2   1 15.3855 2.70055   1
  -4  -2   3 548.117 20.3338  -2
  -4  -2   1 548.117 20.3338   1
  -3  -2   1 719.537 14.0860   1
  -2  -2   1 2347.22 32.2396   1
  -1  -2   1 9999.99 221.716  -2
  -1  -2   1 9999.99 221.716   1
   0  -2   1 256.215 4.57291   1
   1  -2   1 326.785 10.6993   1
  -2   2   1 4998.51 112.834  -2
   2  -2   1 4998.51 112.834   1
   3  -2   1 76.1481 4.34781   1
  -4   2   2 555.755 18.7317  -2
   4  -2   1 555.755 18.7317   1
   5  -2   1 1.20757 3.13213   1
   6  -2   1 61.1571 8.72634   1
  -7   2   4 169.262 10.4384  -2
   7  -2   1 169.262 10.4384   1
   8  -2   1 446.078 15.1818   1
  -9   2   5 256.504 14.6274  -2
   9  -2   1 256.504 14.6274   1
 -10   2   6 666.429 33.6778  -2
  10  -2   1 666.429 33.6778   1
 -10  -1   6 34.5650 20.4057  -2
 -10  -1   1 34.5650 20.4057   1
  -9  -1   5 620.087 29.7595  -2
  -9  -1   1 620.087 29.7595   1
  -8  -1   1 918.326 32.7859   1
  -7  -1   4 401.888 19.4354  -2
  -7  -1   1 401.888 19.4354   1
  -6  -1   1 -1.1228 2.48054   1
  -4  -1   2 -2.5184 2.54023  -2
  -4  -1   1 -2.5184 2.54023   1
  -2  -1   1 0.57645 1.77395  -2
  -2  -1   1 0.57645 1.77395   1
  -1  -1   1 4411.42 74.2675   1
   0  -1   1 70.3466 2.91192   1
  -1   1   1 0.17867 1.29245  -2
   1  -1   1 0.17867 1.29245   1
   2  -1   1 332.916 7.42131   1
  -4   1   3 99.3466 6.89679  -2
   4  -1   1 99.3466 6.89679   1
   5  -1   1 2708.59 47.9294   1
  -6   1   4 60.1047 10.4228  -2
   6  -1   1 60.1047 10.4228   1
   7  -1   1 1403.85 29.7948   1
  -8   1   5 -7.8678 10.5158  -2
   8  -1   1 -7.8678 10.5158   1
  -9   1   6 93.0536 18.5478  -2
   9  -1   1 93.0536 18.5478   1
  10  -1   1 -4.9276 9.82634   1
 -10   0   5 255.561 23.1863  -2
 -10   0   1 255.561 23.1863   1
  -9   0   1 267.919 19.4612   1
  -8   0   4 177.307 16.2436  -2
  -8   0   1 177.307 16.2436   1
  -7   0   1 60.1080 6.14789   1
  -6   0   1 399.493 11.8498   1
  -5   0   2 60.3446 4.29081  -2
  -5   0   1 60.3446 4.29081   1
  -4   0   1 180.822 6.54692   1
  -2   0   1 480.388 9.86453   1
  -1   0   1 102.102 2.78916   1
   0   0   1 1162.75 28.2871  -2
   0   0   1 1162.75 28.2871   1
   1   0   1 1839.73 25.1827   1
   2   0   1 212.963 4.68876   1
  -3   0   3 1806.76 44.6925  -2
   3   0   1 1806.76 44.6925   1
   4   0   1 0.49982 1.89356   1
  -5   0   4 646.840 15.8836  -2
   5   0   1 646.840 15.8836   1
   6   0   1 1284.39 21.2455   1
   7   0   1 51.4559 6.33904   1
  -8   0   6 773.913 30.3804  -2
   8   0   1 773.913 30.3804   1
   9   0   1 7.64741 8.41203   1
 -10   0   7 176.030 23.3405  -2
  10   0   1 176.030 23.3405   1
 -10   1   1 205.033 18.1367   1
  -9   1   4 547.488 26.9621  -2
  -9   1   1 547.488 26.9621   1
  -8   1   3 410.115 15.6438  -2
  -8   1   1 410.115 15.6438   1
  -7   1   1 212.666 8.14008   1
  -6   1   2 929.415 20.8131  -2
  -6   1   1 929.415 20.8131   1
  -5   1   1 484.902 8.88484   1
  -4   1   1 814.667 12.8121   1
  -3   1   1 1860.00 47.9707   1
  -2   1   1 713.950 9.06577   1
   1  -1   1 6.49852 2.10159  -2
  -1   1   1 6.49852 2.10159   1
   0   1   1 2283.15 29.9765   1
   1   1   1 4.03585 1.65395   1
  -2  -1   3 97.7952 3.96909  -2
   2   1   1 97.7952 3.96909   1
   3   1   1 2410.26 34.1236   1
   5   1   1 246.435 7.04974   1
   6   1   1 275.108 8.02161   1
  -7  -1   6 34.0518 9.67048  -2
   7   1   1 34.0518 9.67048   1
   8   1   1 17.0087 8.04665   1
  -9  -1   7 559.790 30.0531  -2
   9   1   1 559.790 30.0531   1
 -10   2   4 0.14279 20.2122  -2
 -10   2   1 0.14279 20.2122   1
  -9   2   3 129.491 12.5996  -2
  -9   2   1 129.491 12.5996   1
  -8   2   1 1114.21 21.1867   1
  -7   2   2 656.888 25.2153  -2
  -7   2   1 656.888 25.2153   1
  -6   2   1 75.1090 6.60238   1
  -5   2   1 431.616 11.9872   1
  -4   2   0 4528.28 76.6775  -2
  -4   2   1 4528.28 76.6775   1
  -3   2   1 594.539 9.49246   1
   2  -2   1 4746.75 106.521  -2
  -2   2   1 4746.75 106.521   1
  -1   2   1 1375.25 24.4352   1
   0   2   1 3351.72 54.9088   1
  -1  -2   3 1353.14 19.4885  -2
   1   2   1 1353.14 19.4885   1
   2   2   1 2.10729 1.57924   1
  -3  -2   4 95.1531 7.80225  -2
   3   2   1 95.1531 7.80225   1
  -4  -2   5 1355.06 26.6835  -2
   4   2   1 1355.06 26.6835   1
   5   2   1 136.130 6.04039   1
  -6  -2   6 2120.24 40.0567  -2
   6   2   1 2120.24 40.0567   1
   7   2   1 -1.6030 7.26658   1
  -8  -2   7 62.5375 19.1206  -2
   8   2   1 62.5375 19.1206   1
  -9  -2   8 192.213 20.3854  -2
   9   2   1 192.213 20.3854   1
 -11   3   1 5.81509 10.9856   1
 -10   3   3 104.137 12.4495  -2
 -10   3   1 104.137 12.4495   1
  -9   3   1 76.9416 6.54697   1
  -8   3   2 347.762 21.7743  -2
  -8   3   1 347.762 21.7743   1
  -7   3   1 1050.99 35.5095  -2
  -7   3   1 1050.99 35.5095   1
  -6   3   1 873.668 20.3485   1
  -5   3   0 3111.29 55.0944  -2
  -5   3   1 3111.29 55.0944   1
  -4   3   1 -0.5825 2.90387   1
   3  -3   1 1048.17 27.2559  -2
  -3   3   1 1048.17 27.2559   1
   2  -3   2 2977.64 68.0232  -2
  -2   3   1 2977.64 68.0232   1
  -1   3   1 22.7173 2.72677   1
   0  -3   3 174.870 4.47203  -2
   0   3   1 174.870 4.47203   1
   1   3   1 5117.37 69.1997   1
   2   3   1 650.231 11.0313   1
  -3  -3   5 1090.43 17.6116  -2
   3   3   1 1090.43 17.6116   1
   4   3   1 239.535 6.89288   1
  -5  -3   6 192.395 10.6484  -2
   5   3   1 192.395 10.6484   1
  -6  -3   7 87.1821 15.9871  -2
   6   3   1 87.1821 15.9871   1
   7   3   1 1498.88 45.7663   1
  -8  -3   8 111.461 15.6223  -2
   8   3   1 111.461 15.6223   1
   9   3   1 78.6295 14.2711   1
 -11   4   3 195.869 20.6337  -2
 -11   4   1 195.869 20.6337   1
 -10   4   1 239.457 13.8396   1
  -9   4   2 44.8624 18.6799  -2
  -9   4   1 44.8624 18.6799   1
  -8   4   1 112.851 12.5095  -2
  -8   4   1 112.851 12.5095   1
  -7   4   1 1091.37 25.2553   1
  -6   4   0 547.954 15.5010  -2
  -6   4   1 547.954 15.5010   1
  -5   4   1 56.8518 5.55786   1
  -4   4   1 1499.28 22.4770   1
   3  -4   2 3454.26 60.1969  -2
  -3   4   1 3454.26 60.1969   1
  -2   4   1 1124.41 21.5849   1
  -1   4   1 476.871 15.6219   1
   0   4   1 129.778 3.97173   1
   1   4   1 709.954 11.7375   1
  -2  -4   5 1379.40 21.0279  -2
   2   4   1 1379.40 21.0279   1
   3   4   1 4.18864 2.36258   1
  -4  -4   6 1115.15 24.5179  -2
   4   4   1 1115.15 24.5179   1
  -5  -4   7 179.296 11.1733  -2
   5   4   1 179.296 11.1733   1
   6   4   1 2.19192 4.56297   1
  -7  -4   8 70.2397 14.2033  -2
   7   4   1 70.2397 14.2033   1
   8   4   1 173.665 17.0847   1
  -9  -4   9 134.139 24.9408  -2
   9   4   1 134.139 24.9408   1
 -11   5   2 109.778 22.1133  -2
 -11   5   1 109.778 22.1133   1
 -10   5   2 53.0124 14.4168  -2
 -10   5   1 53.0124 14.4168   1
  -9   5   1 516.599 26.7396  -2
  -9   5   1 516.599 26.7396   1
  -8   5   1 42.4551 7.09892   1
  -7   5   0 918.850 23.1712  -2
  -7   5   1 918.850 23.1712   1
   6  -5   1 210.886 18.4187  -2
  -6   5   1 210.886 18.4187   1
  -5   5   1 1.54233 1.54069   1
   4  -5   2 1529.04 23.3706  -2
  -4   5   1 1529.04 23.3706   1
  -3   5   1 867.375 18.1418   1
  -2   5   1 242.616 7.79669   1
   1  -5   4 2515.30 58.6577  -2
  -1   5   1 2515.30 58.6577   1
   0   5   1 504.860 9.34743   1
  -1  -5   5 1525.77 23.0287  -2
   1   5   1 1525.77 23.0287   1
   2   5   1 272.015 6.73008   1
   3   5   1 17.9594 4.31412   1
  -4  -5   7 86.0164 8.89968  -2
   4   5   1 86.0164 8.89968   1
   5   5   1 799.239 20.2289   1
  -6  -5   8 -2.5257 8.82633  -2
   6   5   1 -2.5257 8.82633   1
  -7  -5   9 104.648 20.9382  -2
   7   5   1 104.648 20.9382   1
   8   5   1 7.58743 9.99927   1
 -11   6   1 48.7721 8.84622   1
 -10   6   1 24.3650 10.1704  -2
 -10   6   1 24.3650 10.1704   1
  -9   6   1 293.641 14.4395   1
  -8   6   0 379.308 16.9330  -2
  -8   6   1 379.308 16.9330   1
   7  -6   1 496.334 17.5293  -2
  -7   6   1 496.334 17.5293   1
  -6   6   1 1298.09 28.3935   1
   5  -6   2 726.742 13.5430  -2
  -5   6   1 726.742 13.5430   1
  -4   6   1 288.230 9.45040   1
  -3   6   1 806.338 18.0584   1
   2  -6   4 642.608 15.8922  -2
  -2   6   1 642.608 15.8922   1
  -1   6   1 11.6620 2.57092   1
   0  -6   5 2842.14 40.8204  -2
   0   6   1 2842.14 40.8204   1
   1   6   1 376.387 9.60689   1
   2   6   1 753.334 17.5897   1
  -3  -6   7 220.362 10.0638  -2
   3   6   1 220.362 10.0638   1
   4   6   1 48.4139 6.03178   1
  -5  -6   8 39.6305 10.1422  -2
   5   6   1 39.6305 10.1422   1
  -6  -6   9 228.174 14.2528  -2
   6   6   1 228.174 14.2528   1
   7   6   1 -4.6744 8.69510   1
  -8  -6  10 371.565 23.1895  -2
   8   6   1 371.565 23.1895   1
 -10   7   1 62.1859 9.51834   1
  -9   7   0 345.585 25.4558  -2
  -9   7   1 345.585 25.4558   1
   8  -7   1 60.8938 10.8964  -2
  -8   7   1 60.8938 10.8964   1
  -7   7   1 63.1838 7.48240   1
   6  -7   2 51.3950 8.60195  -2
  -6   7   1 51.3950 8.60195   1
  -5   7   1 417.307 21.0205   1
  -4   7   1 699.394 17.0668   1
   3  -7   4 1000.57 22.0985  -2
  -3   7   1 1000.57 22.0985   1
  -2   7   1 81.0680 4.59074   1
   1  -7   5 783.093 14.6865  -2
  -1   7   1 783.093 14.6865   1
   0  -7   6 274.117 10.0122  -2
   0   7   1 274.117 10.0122   1
   1   7   1 85.0540 6.01072   1
  -2  -7   7 303.853 11.0580  -2
   2   7   1 303.853 11.0580   1
   3   7   1 1371.98 29.0321   1
   4   7   1 45.1243 6.31568   1
  -5  -7   9 -0.4186 9.16696  -2
   5   7   1 -0.4186 9.16696   1
   6   7   1 23.4659 6.54201   1
 -10   8   1 175.096 12.9791   1
   9  -8   1 99.4307 11.8661  -2
  -9   8   1 99.4307 11.8661   1
  -8   8   1 459.312 17.3688   1
   7  -8   2 109.997 20.0724  -2
  -7   8   1 109.997 20.0724   1
   6  -8   3 624.372 30.1620  -2
  -6   8   1 624.372 30.1620   1
  -5   8   1 346.577 19.9329   1
   4  -8   4 148.492 8.51225  -2
  -4   8   1 148.492 8.51225   1
  -3   8   1 146.602 8.32925   1
  -2   8   1 1246.20 20.8500   1
   1  -8   6 575.524 12.6120  -2
  -1   8   1 575.524 12.6120   1
   0   8   1 212.546 8.85867   1
  -1  -8   7 109.270 8.47621  -2
   1   8   1 109.270 8.47621   1
   2   8   1 12.3928 4.52107   1
   3   8   1 64.4866 6.79937   1
  -4  -8   9 332.489 20.8571  -2
   4   8   1 332.489 20.8571   1
   5   8   1 265.459 20.3024   1
  -6  -8  10 326.821 24.1451  -2
   6   8   1 326.821 24.1451   1
  -9   9   1 3.22631 7.23872   1
   8  -9   2 41.7581 21.3042  -2
  -8   9   1 41.7581 21.3042   1
   7  -9   3 360.617 25.9323  -2
  -7   9   1 360.617 25.9323   1
  -6   9   1 250.529 19.4623   1
   5  -9   4 213.376 19.1239  -2
  -5   9   1 213.376 19.1239   1
  -4   9   1 5.62346 4.23223   1
  -3   9   1 286.333 11.3696   1
   2  -9   6 356.121 12.6893  -2
  -2   9   1 356.121 12.6893   1
  -1   9   1 180.560 14.4166   1
   0  -9   7 132.862 15.7549  -2
   0   9   1 132.862 15.7549   1
  -1  -9   8 889.866 33.9642  -2
   1   9   1 889.866 33.9642   1
   2   9   1 52.5624 10.0020   1
  -3  -9   9 110.934 15.0836  -2
   3   9   1 110.934 15.0836   1
   4   9   1 7.63697 9.27274   1
  -5  -9  10 242.469 22.9727  -2
   5   9   1 242.469 22.9727   1
  -9  10   1 10.1919 12.4771   1
   8 -10   3 173.869 22.0845  -2
  -8  10   1 173.869 22.0845   1
  -7  10   1 406.870 25.7080   1
   6 -10   4 81.2587 19.5943  -2
  -6  10   1 81.2587 19.5943   1
   5 -10   5 39.0275 19.2579  -2
  -5  10   1 39.0275 19.2579   1
  -4  10   1 1152.80 26.8397   1
   3 -10   6 587.593 17.1331  -2
  -3  10   1 587.593 17.1331   1
  -2  10   1 408.593 20.7980   1
   1 -10   7 392.616 23.0542  -2
  -1  10   1 392.616 23.0542   1
   0 -10   8 75.1234 14.8004  -2
   0  10   1 75.1234 14.8004   1
   1  10   1 15.5668 8.53233   1
  -2 -10   9 520.823 26.3280  -2
   2  10   1 520.823 26.3280   1
  -3 -10  10 187.633 22.3923  -2
   3  10   1 187.633 22.3923   1
   4  10   1 109.108 16.6978   1
  -8  11   1 99.6728 17.4495   1
   7 -11   4 163.811 25.4403  -2
  -7  11   1 163.811 25.4403   1
   6 -11   5 0.88519 19.2247  -2
  -6  11   1 0.88519 19.2247   1
  -5  11   1 53.4508 11.1361   1
   4 -11   6 480.599 16.6400  -2
  -4  11   1 480.599 16.6400   1
  -3  11   1 436.246 21.6851   1
  -2  11   1 38.7601 9.77993   1
   1 -11   8 320.839 20.4568  -2
  -1  11   1 320.839 20.4568   1
   0  11   1 -3.7394 7.22395   1
  -1 -11   9 11.3454 14.2652  -2
   1  11   1 11.3454 14.2652   1
  -2 -11  10 128.937 18.8777  -2
   2  11   1 128.937 18.8777   1
   7 -12   5 231.589 23.8892  -2
  -7  12   1 231.589 23.8892   1
  -6  12   1 34.0940 11.9996   1
   5 -12   6 133.162 21.3760  -2
  -5  12   1 133.162 21.3760   1
  -3  12   1 26.2460 9.42989   1
   2 -12   8 87.7930 13.8283  -2
  -2  12   1 87.7930 13.8283   1
  -1  12   1 6.31944 8.89289   1
   0 -12   9 924.263 39.8368  -2
   0  12   1 924.263 39.8368   1
   3 -13   8 198.024 18.9072  -2
  -3  13   1 198.024 18.9072   1
   2 -13   9 23.8151 19.1056  -2
  -2  13   1 23.8151 19.1056   1
   2 -14   2 -3.6121 8.75191   1
   3 -14   6 51.4702 18.4369  -2
   3 -14   2 51.4702 18.4369   1
   0 -13   7 169.577 18.7325  -2
   0 -13   2 169.577 18.7325   1
   1 -13   6 134.931 21.1573  -2
   1 -13   2 134.931 21.1573   1
   2 -13   2 210.570 18.1201   1
   3 -13   5 244.987 19.2530  -2
   3 -13   2 244.987 19.2530   1
   6 -13   3 232.449 26.2203  -2
   6 -13   2 232.449 26.2203   1
   7 -13   2 71.1719 14.1832   1
  -2 -12   2 20.8670 9.87036   1
  -1 -12   7 55.8561 17.0709  -2
  -1 -12   2 55.8561 17.0709   1
   0 -12   6 433.811 27.4113  -2
   0 -12   2 433.811 27.4113   1
   1 -12   2 7.60498 7.78099   1
   2 -12   5 802.356 32.0322  -2
   2 -12   2 802.356 32.0322   1
   3 -12   2 1.46656 7.02356   1
   5 -12   3 288.438 23.5252  -2
   5 -12   2 288.438 23.5252   1
   6 -12   2 77.3934 9.46954   1
   7 -12   2 50.8193 17.5403  -2
   7 -12   2 50.8193 17.5403   1
  -4 -11   8 94.5212 16.3060  -2
  -4 -11   2 94.5212 16.3060   1
  -3 -11   2 209.842 19.5353   1
  -2 -11   7 61.9368 17.1180  -2
  -2 -11   2 61.9368 17.1180   1
  -1 -11   6 24.6611 10.3031  -2
  -1 -11   2 24.6611 10.3031   1
   0 -11   2 38.4593 8.60420   1
   1 -11   5 730.569 27.2043  -2
   1 -11   2 730.569 27.2043   1
   2 -11   2 210.351 14.6380   1
   3 -11   2 182.581 8.45888   1
   4 -11   3 259.261 18.5310  -2
   4 -11   2 259.261 18.5310   1
   5 -11   2 421.256 15.8064   1
   6 -11   2 196.603 21.0714  -2
   6 -11   2 196.603 21.0714   1
   7 -11   1 74.1612 21.0179  -2
   7 -11   2 74.1612 21.0179   1
   8 -11   2 38.9607 12.4099   1
  -5 -10   8 159.471 13.2442  -2
  -5 -10   2 159.471 13.2442   1
  -4 -10   2 40.0219 7.41171   1
  -3 -10   2 35.3303 6.59803   1
  -2 -10   6 104.460 14.4421  -2
  -2 -10   2 104.460 14.4421   1
  -1 -10   2 103.248 10.9404   1
   0 -10   5 975.503 32.4877  -2
   0 -10   2 975.503 32.4877   1
   1 -10   4 15.2437 13.8079  -2
   1 -10   2 15.2437 13.8079   1
   2 -10   2 130.262 6.65496   1
   3 -10   3 496.748 22.1291  -2
   3 -10   2 496.748 22.1291   1
   4 -10   2 249.334 16.9478   1
   6 -10   1 876.536 36.3454  -2
   6 -10   2 876.536 36.3454   1
   7 -10   2 429.565 17.0526   1
  -8  10   0 135.475 19.5903  -2
   8 -10   2 135.475 19.5903   1
   9 -10   2 247.037 22.5174   1
  -6  -9   8 48.1220 12.7482  -2
  -6  -9   2 48.1220 12.7482   1
  -5  -9   7 342.521 17.4033  -2
  -5  -9   2 342.521 17.4033   1
  -4  -9   2 41.2361 6.81072   1
  -3  -9   6 520.497 16.4866  -2
  -3  -9   2 520.497 16.4866   1
  -2  -9   2 124.803 11.6768   1
  -1  -9   5 96.9930 15.1276  -2
  -1  -9   2 96.9930 15.1276   1
   0  -9   4 78.9562 13.0896  -2
   0  -9   2 78.9562 13.0896   1
   1  -9   2 635.979 12.8831   1
   2  -9   3 480.541 20.2212  -2
   2  -9   2 480.541 20.2212   1
   3  -9   2 622.017 24.0723   1
   4  -9   2 -2.1362 6.17853   1
   6  -9   2 7.13411 6.09741   1
  -7   9   0 599.432 30.3044  -2
   7  -9   2 599.432 30.3044   1
  -8   9   1 112.392 21.5911  -2
   8  -9   2 112.392 21.5911   1
   9  -9   2 228.357 20.0011   1
 -10   9   2 67.1032 15.3441  -2
  10  -9   2 67.1032 15.3441   1
  -7  -8   8 70.3963 21.2384  -2
  -7  -8   2 70.3963 21.2384   1
  -6  -8   7 161.222 14.5069  -2
  -6  -8   2 161.222 14.5069   1
  -5  -8   2 117.080 9.10528   1
  -4  -8   6 432.989 15.4722  -2
  -4  -8   2 432.989 15.4722   1
  -3  -8   2 0.77682 6.14072   1
  -2  -8   2 1057.31 31.9968   1
  -1  -8   4 49.4039 12.0246  -2
  -1  -8   2 49.4039 12.0246   1
   0  -8   2 47.6495 4.72180   1
   1  -8   3 1608.68 43.7676  -2
   1  -8   2 1608.68 43.7676   1
   2  -8   2 251.790 13.8370   1
   3  -8   2 31.3238 7.33727   1
   5  -8   2 210.454 16.1663   1
  -7   8   1 134.786 18.1507  -2
   7  -8   2 134.786 18.1507   1
   8  -8   2 40.3750 7.43324   1
  -9   8   2 8.50983 10.3649  -2
   9  -8   2 8.50983 10.3649   1
  10  -8   2 226.369 15.0802   1
  -7  -7   7 263.026 23.0563  -2
  -7  -7   2 263.026 23.0563   1
  -6  -7   2 8.49685 5.52143   1
  -5  -7   6 334.697 14.4233  -2
  -5  -7   2 334.697 14.4233   1
  -4  -7   2 288.789 16.4700   1
  -3  -7   2 22.1361 6.71779   1
  -2  -7   4 109.472 11.2348  -2
  -2  -7   2 109.472 11.2348   1
  -1  -7   2 811.453 25.2229   1
   0  -7   3 73.9074 11.8110  -2
   0  -7   2 73.9074 11.8110   1
   1  -7   2 247.104 14.3471  -2
   1  -7   2 247.104 14.3471   1
   2  -7   2 68.4603 7.95436   1
   4  -7   2 65.8470 9.16327   1
   5  -7   2 390.146 19.6141   1
  -6   7   1 65.7301 14.0981  -2
   6  -7   2 65.7301 14.0981   1
   7  -7   2 238.283 12.3740   1
  -8   7   2 26.3511 11.2256  -2
   8  -7   2 26.3511 11.2256   1
  -9   7   3 398.657 19.6212  -2
   9  -7   2 398.657 19.6212   1
  10  -7   2 100.149 11.4147   1
  -8  -6   7 323.623 22.2195  -2
  -8  -6   2 323.623 22.2195   1
  -7  -6   2 38.9268 10.8172   1
  -6  -6   6 463.023 17.3432  -2
  -6  -6   2 463.023 17.3432   1
  -5  -6   5 327.321 20.8223  -2
  -5  -6   2 327.321 20.8223   1
  -4  -6   2 1109.44 34.0279   1
  -3  -6   4 152.603 12.7903  -2
  -3  -6   2 152.603 12.7903   1
  -2  -6   2 220.060 12.0976   1
  -1  -6   2 35.0979 3.09653   1
   0  -6   2 488.510 11.9118  -2
   0  -6   2 488.510 11.9118   1
   1  -6   2 348.994 13.4615   1
   3  -6   2 249.790 13.7886   1
   4  -6   2 100.383 10.7504   1
   6  -6   2 70.4008 5.86059   1
  -7   6   2 30.7070 11.8379  -2
   7  -6   2 30.7070 11.8379   1
  -8   6   3 644.455 21.5329  -2
   8  -6   2 644.455 21.5329   1
   9  -6   2 523.685 19.1467   1
 -10   6   4 448.065 19.0571  -2
  10  -6   2 448.065 19.0571   1
  -8  -5   2 37.0524 10.8028   1
  -7  -5   6 126.053 20.6061  -2
  -7  -5   2 126.053 20.6061   1
  -6  -5   5 338.062 13.7617  -2
  -6  -5   2 338.062 13.7617   1
  -5  -5   2 2.81912 6.65074   1
  -4  -5   4 984.115 31.2860  -2
  -4  -5   2 984.115 31.2860   1
  -3  -5   2 1036.37 30.2884   1
  -2  -5   2 9.67955 4.27793   1
  -1  -5   2 2344.02 40.4139  -2
  -1  -5   2 2344.02 40.4139   1
   0  -5   2 14.7908 2.69141   1
   1  -5   2 -1.9785 2.22816   1
   2  -5   2 27.8278 5.53913   1
   3  -5   2 2891.13 74.9701   1
  -4   5   1 1455.32 39.4328  -2
   4  -5   2 1455.32 39.4328   1
  -6   5   2 39.0365 17.7293  -2
   6  -5   2 39.0365 17.7293   1
  -7   5   3 787.570 21.6536  -2
   7  -5   2 787.570 21.6536   1
   8  -5   2 132.454 10.1416   1
  -9   5   4 124.947 13.6531  -2
   9  -5   2 124.947 13.6531   1
 -10   5   5 575.880 33.4422  -2
  10  -5   2 575.880 33.4422   1
  11  -5   2 310.842 24.6585   1
  -9  -4   6 -49.265 22.1190  -2
  -9  -4   2 -49.265 22.1190   1
  -8  -4   2 24.4887 9.98296   1
  -7  -4   5 269.438 18.9934  -2
  -7  -4   2 269.438 18.9934   1
  -6  -4   2 914.193 21.5490   1
  -5  -4   4 255.949 18.1428  -2
  -5  -4   2 255.949 18.1428   1
  -4  -4   3 17.8515 12.9027  -2
  -4  -4   2 17.8515 12.9027   1
  -3  -4   2 844.230 25.3056   1
  -2  -4   2 267.736 11.7689  -2
  -2  -4   2 267.736 11.7689   1
  -1  -4   2 291.570 6.82124   1
   0  -4   2 1015.40 18.8046   1
   1  -4   2 739.827 15.1537   1
   2  -4   2 9.21408 2.87783   1
  -3   4   1 3800.96 96.1526  -2
   3  -4   2 3800.96 96.1526   1
   4  -4   2 143.806 7.30046   1
   5  -4   2 5.60280 4.56307   1
  -6   4   3 541.760 16.2817  -2
   6  -4   2 541.760 16.2817   1
   7  -4   2 292.282 12.4628   1
  -8   4   4 577.274 19.3660  -2
   8  -4   2 577.274 19.3660   1
  -9   4   5 182.495 14.7278  -2
   9  -4   2 182.495 14.7278   1
  10  -4   2 21.3865 7.38633   1
  -9  -3   2 0.62332 9.46023   1
  -8  -3   5 2.22353 12.5668  -2
  -8  -3   2 2.22353 12.5668   1
  -7  -3   2 17.8735 8.38456   1
  -6  -3   2 59.2101 5.92775   1
  -5  -3   3 1263.43 37.7254  -2
  -5  -3   2 1263.43 37.7254   1
  -4  -3   2 505.266 11.2519   1
  -3  -3   2 431.861 15.8976  -2
  -3  -3   2 431.861 15.8976   1
  -2  -3   2 1627.87 40.2209   1
  -1  -3   2 2187.50 36.9618   1
   0   3   0 1338.32 23.7493  -2
   0  -3   2 1338.32 23.7493   1
   1  -3   2 2445.38 61.0237   1
   2  -3   2 2549.27 64.7739   1
  -3   3   2 446.351 16.7615  -2
   3  -3   2 446.351 16.7615   1
   4  -3   2 378.222 10.7448   1
   6  -3   2 906.950 31.2463   1
   7  -3   2 449.483 14.8336   1
  -8   3   5 219.483 13.5814  -2
   8  -3   2 219.483 13.5814   1
   9  -3   2 227.977 12.9311   1
 -10   3   6 10.6646 16.4535  -2
  10  -3   2 10.6646 16.4535   1
 -10  -2   2 262.755 22.3953   1
  -9  -2   5 144.711 19.6024  -2
  -9  -2   2 144.711 19.6024   1
  -8  -2   2 337.639 20.5372   1
  -7  -2   2 15.5934 7.10518   1
  -6  -2   3 95.5409 7.65888  -2
  -6  -2   2 95.5409 7.65888   1
  -5  -2   2 70.2876 4.59654   1
  -4  -2   2 815.545 22.4190   1
   1   2   0 6908.86 113.492  -2
  -1  -2   2 6908.86 113.492   1
   0  -2   2 219.326 8.25894   1
   1  -2   2 1209.68 31.6728   1
  -2   2   2 2.05350 3.63170  -2
   2  -2   2 2.05350 3.63170   1
   3  -2   2 133.541 5.10707   1
  -4   2   3 801.441 23.8205  -2
   4  -2   2 801.441 23.8205   1
   5  -2   2 462.464 11.2897   1
   6  -2   2 89.4188 6.94484   1
  -7   2   5 49.4412 8.64005  -2
   7  -2   2 49.4412 8.64005   1
   8  -2   2 42.3908 6.93658   1
  -9   2   6 -19.568 11.3592  -2
   9  -2   2 -19.568 11.3592   1
 -10   2   7 476.427 29.6835  -2
  10  -2   2 476.427 29.6835   1
 -10  -1   5 63.8097 21.1562  -2
 -10  -1   2 63.8097 21.1562   1
  -9  -1   4 148.206 21.3081  -2
  -9  -1   2 148.206 21.3081   1
  -8  -1   2 48.9509 9.52585   1
  -7  -1   3 730.343 26.8075  -2
  -7  -1   2 730.343 26.8075   1
  -6  -1   2 1.28379 2.60560   1
  -5  -1   2 119.472 6.55844   1
  -4  -1   1 1914.12 48.4326  -2
  -4  -1   2 1914.12 48.4326   1
  -3  -1   2 212.288 6.18222   1
   2   1   0 3861.70 87.9719  -2
  -2  -1   2 3861.70 87.9719   1
  -1  -1   2 4718.73 77.0707   1
   0  -1   2 1440.29 36.2441   1
  -1   1   2 1363.45 19.7218  -2
   1  -1   2 1363.45 19.7218   1
   2  -1   2 2.41208 1.79798   1
  -3   1   3 1673.60 29.5502  -2
   3  -1   2 1673.60 29.5502   1
  -4   1   4 1464.15 38.2796  -2
   4  -1   2 1464.15 38.2796   1
   5  -1   2 2137.60 39.7446   1
  -6   1   5 1035.00 23.0245  -2
   6  -1   2 1035.00 23.0245   1
   7  -1   2 4.06683 4.92427   1
  -8   1   6 124.724 13.0165  -2
   8  -1   2 124.724 13.0165   1
  -9   1   7 9.82776 17.6554  -2
   9  -1   2 9.82776 17.6554   1
  10  -1   2 335.599 23.8920   1
 -10   0   4 199.307 22.1796  -2
 -10   0   2 199.307 22.1796   1
  -9   0   2 312.686 19.5456   1
  -8   0   3 412.190 21.9102  -2
  -8   0   2 412.190 21.9102   1
  -7   0   2 35.6179 5.66376   1
  -6   0   2 769.190 18.1982   1
  -5   0   1 52.2139 6.56753  -2
  -5   0   2 52.2139 6.56753   1
  -4   0   2 1234.58 23.5092   1
   3   0   0 2.29019 4.54461  -2
  -3   0   2 2.29019 4.54461   1
  -2   0   2 265.954 6.68337   1
  -1   0   2 892.728 12.9429   1
   0   0   2 1942.14 47.1605  -2
   0   0   2 1942.14 47.1605   1
   1   0   2 351.452 6.43520   1
   2   0   2 166.204 4.48620   1
  -3   0   4 1094.22 20.7397  -2
   3   0   2 1094.22 20.7397   1
   4   0   2 338.577 9.90726   1
  -5   0   5 991.416 17.2614  -2
   5   0   2 991.416 17.2614   1
   6   0   2 21.8263 3.71734   1
   7   0   2 66.6080 6.88198   1
  -8   0   7 1072.89 37.4236  -2
   8   0   2 1072.89 37.4236   1
   9   0   2 54.6491 12.5063   1
 -10   0   8 -4.6869 19.9609  -2
  10   0   2 -4.6869 19.9609   1
 -10   1   2 196.526 18.7469   1
  -9   1   3 1242.46 42.3627  -2
  -9   1   2 1242.46 42.3627   1
  -8   1   2 -16.770 15.6275  -2
  -8   1   2 -16.770 15.6275   1
  -7   1   2 8.50968 4.88990   1
  -6   1   1 887.984 19.9524  -2
  -6   1   2 887.984 19.9524   1
  -5   1   2 124.923 6.88143   1
  -4   1   2 455.809 11.1530   1
   3  -1   1 1537.06 37.7832  -2
  -3   1   2 1537.06 37.7832   1
  -2   1   2 38.1244 2.15358   1
   1  -1   2 1148.18 16.5555  -2
  -1   1   2 1148.18 16.5555   1
   0   1   2 7.65460 1.00004   1
   1   1   2 217.872 4.87252   1
  -2  -1   4 211.030 6.80448  -2
   2   1   2 211.030 6.80448   1
   3   1   2 6124.26 100.443   1
  -4  -1   5 1765.98 26.8663  -2
   4   1   2 1765.98 26.8663   1
  -5  -1   6 1255.98 37.6550  -2
   5   1   2 1255.98 37.6550   1
   6   1   2 214.080 7.60326   1
  -7  -1   7 47.7250 11.5647  -2
   7   1   2 47.7250 11.5647   1
   8   1   2 108.534 13.2568   1
  -9  -1   8 411.012 27.4024  -2
   9   1   2 411.012 27.4024   1
 -11   2   2 22.3219 12.2728   1
 -10   2   3 82.0707 20.2560  -2
 -10   2   2 82.0707 20.2560   1
  -9   2   2 46.1881 16.2598  -2
  -9   2   2 46.1881 16.2598   1
  -8   2   2 847.016 21.4205   1
  -7   2   1 649.565 17.8532  -2
  -7   2   2 649.565 17.8532   1
  -6   2   2 533.368 14.6902   1
  -5   2   2 1.95160 3.52594   1
   4  -2   1 424.788 11.3296  -2
  -4   2   2 424.788 11.3296   1
  -3   2   2 890.275 13.7090   1
   2  -2   2 509.470 10.1595  -2
  -2   2   2 509.470 10.1595   1
  -1   2   2 4493.81 60.3786   1
   0   2   2 3039.46 50.1303   1
  -1  -2   4 735.062 13.9277  -2
   1   2   2 735.062 13.9277   1
   2   2   2 617.323 10.7707   1
  -3  -2   5 465.729 15.9108  -2
   3   2   2 465.729 15.9108   1
  -4  -2   6 553.139 11.8816  -2
   4   2   2 553.139 11.8816   1
   5   2   2 51.7098 4.45765   1
  -6  -2   7 1401.77 29.1500  -2
   6   2   2 1401.77 29.1500   1
   7   2   2 53.1390 10.2863   1
  -8  -2   8 26.2456 19.0862  -2
   8   2   2 26.2456 19.0862   1
  -9  -2   9 148.823 20.6688  -2
   9   2   2 148.823 20.6688   1
 -11   3   3 632.786 36.2797  -2
 -11   3   2 632.786 36.2797   1
 -10   3   2 17.3834 10.6672  -2
 -10   3   2 17.3834 10.6672   1
  -9   3   2 87.6854 8.61456   1
  -8   3   1 305.924 14.4039  -2
  -8   3   2 305.924 14.4039   1
  -7   3   0 892.754 31.7113  -2
  -7   3   2 892.754 31.7113   1
  -6   3   2 123.340 7.78911   1
   5  -3   1 2873.30 51.2052  -2
  -5   3   2 2873.30 51.2052   1
  -4   3   2 138.135 4.18593   1
   3  -3   2 300.816 7.57119  -2
  -3   3   2 300.816 7.57119   1
   2  -3   3 6014.64 134.170  -2
  -2   3   2 6014.64 134.170   1
  -1   3   2 96.9906 6.32469   1
   0  -3   4 1621.37 23.3023  -2
   0   3   2 1621.37 23.3023   1
   1   3   2 2527.50 35.5820   1
  -2  -3   5 461.654 16.2702  -2
   2   3   2 461.654 16.2702   1
  -3  -3   6 754.836 17.0565  -2
   3   3   2 754.836 17.0565   1
   4   3   2 101.305 5.27087   1
  -5  -3   7 35.0865 8.15972  -2
   5   3   2 35.0865 8.15972   1
   6   3   2 169.990 9.41522   1
   7   3   2 226.607 16.9018   1
  -8  -3   9 95.3246 15.2712  -2
   8   3   2 95.3246 15.2712   1
   9   3   2 82.0306 14.0374   1
 -11   4   2 4.04923 9.85365  -2
 -11   4   2 4.04923 9.85365   1
 -10   4   2 218.057 13.3018   1
  -9   4   1 81.7153 13.3010  -2
  -9   4   2 81.7153 13.3010   1
  -8   4   0 106.926 12.1416  -2
  -8   4   2 106.926 12.1416   1
  -7   4   2 155.777 9.51822   1
   6  -4   1 1199.74 25.6812  -2
  -6   4   2 1199.74 25.6812   1
  -5   4   2 94.0036 3.73547   1
  -4   4   2 1045.51 16.7449   1
   3  -4   3 1552.36 23.1935  -2
  -3   4   2 1552.36 23.1935   1
  -2   4   2 3164.55 55.8447   1
   1  -4   4 476.323 8.73057  -2
  -1   4   2 476.323 8.73057   1
   0   4   2 65.8651 3.70271   1
   1   4   2 1080.99 16.9726   1
  -2  -4   6 1155.75 18.4924  -2
   2   4   2 1155.75 18.4924   1
   3   4   2 288.525 9.78852   1
  -4  -4   7 780.070 19.6846  -2
   4   4   2 780.070 19.6846   1
  -5  -4   8 76.1568 9.83489  -2
   5   4   2 76.1568 9.83489   1
   6   4   2 144.536 9.37723   1
  -7  -4   9 148.142 16.7595  -2
   7   4   2 148.142 16.7595   1
   8   4   2 60.9750 12.0354   1
 -11   5   1 142.871 22.5810  -2
 -11   5   2 142.871 22.5810   1
 -10   5   1 -5.8093 21.1810  -2
 -10   5   2 -5.8093 21.1810   1
  -9   5   0 319.547 15.1603  -2
  -9   5   2 319.547 15.1603   1
  -8   5   2 77.1420 8.22476   1
   7  -5   1 939.431 23.5740  -2
  -7   5   2 939.431 23.5740   1
   6  -5   2 122.318 16.3336  -2
  -6   5   2 122.318 16.3336   1
  -5   5   2 145.406 6.05890   1
   4  -5   3 576.711 11.0714  -2
  -4   5   2 576.711 11.0714   1
  -3   5   2 255.627 8.44070   1
  -2   5   2 23.1175 3.56842   1
  -1   5   2 1750.63 25.7544   1
   0   5   2 2671.99 38.0330   1
   2   5   2 221.436 8.53804   1
   3   5   2 583.956 15.3624   1
  -4  -5   8 279.773 11.7817  -2
   4   5   2 279.773 11.7817   1
   5   5   2 449.913 14.5565   1
  -6  -5   9 208.480 12.2607  -2
   6   5   2 208.480 12.2607   1
  -7  -5  10 534.021 28.5011  -2
   7   5   2 534.021 28.5011   1
   8   5   2 5.59313 9.38455   1
 -11   6   2 57.9112 9.88164   1
 -10   6   0 208.519 19.0573  -2
 -10   6   2 208.519 19.0573   1
  -9   6   2 86.1302 9.21635   1
   8  -6   1 235.483 15.0998  -2
  -8   6   2 235.483 15.0998   1
   7  -6   2 47.0942 11.2272  -2
  -7   6   2 47.0942 11.2272   1
  -6   6   2 510.891 15.1247   1
   5  -6   3 109.545 5.74373  -2
  -5   6   2 109.545 5.74373   1
  -4   6   2 48.0377 4.89426   1
  -3   6   2 302.938 10.1454   1
   2  -6   5 1265.67 20.3036  -2
  -2   6   2 1265.67 20.3036   1
  -1   6   2 127.906 4.98767   1
   0  -6   6 347.483 8.63527  -2
   0   6   2 347.483 8.63527   1
   1   6   2 355.991 9.58611   1
   2   6   2 903.028 20.1078   1
  -3  -6   8 156.742 9.25206  -2
   3   6   2 156.742 9.25206   1
   4   6   2 51.0535 6.15780   1
  -5  -6   9 332.692 14.7253  -2
   5   6   2 332.692 14.7253   1
  -6  -6  10 414.112 17.0842  -2
   6   6   2 414.112 17.0842   1
 -11   7   0 471.308 27.3366  -2
 -11   7   2 471.308 27.3366   1
 -10   7   2 154.795 12.7249   1
   9  -7   1 643.437 30.8489  -2
  -9   7   2 643.437 30.8489   1
   8  -7   2 2.29437 8.83710  -2
  -8   7   2 2.29437 8.83710   1
  -7   7   2 4.30475 5.29115   1
   6  -7   3 388.848 13.4776  -2
  -6   7   2 388.848 13.4776   1
  -5   7   2 162.906 8.08415   1
  -4   7   2 812.835 19.3807   1
   3  -7   5 830.053 19.7965  -2
  -3   7   2 830.053 19.7965   1
  -2   7   2 44.0029 3.72554   1
   1  -7   6 439.429 10.5630  -2
  -1   7   2 439.429 10.5630   1
   0  -7   7 269.256 8.76313  -2
   0   7   2 269.256 8.76313   1
   1   7   2 4.36400 3.57688   1
  -2  -7   8 88.8899 7.29651  -2
   2   7   2 88.8899 7.29651   1
   3   7   2 392.170 13.2190   1
  -4  -7   9 430.436 25.0700  -2
   4   7   2 430.436 25.0700   1
  -5  -7  10 162.372 17.9713  -2
   5   7   2 162.372 17.9713   1
   6   7   2 6.48858 9.27030   1
  10  -8   1 311.618 31.0788  -2
 -10   8   2 311.618 31.0788   1
   9  -8   2 -16.611 16.1377  -2
  -9   8   2 -16.611 16.1377   1
  -8   8   2 468.185 17.0098   1
   7  -8   3 285.300 22.9029  -2
  -7   8   2 285.300 22.9029   1
   6  -8   4 1651.42 53.4813  -2
  -6   8   2 1651.42 53.4813   1
  -5   8   2 236.764 17.3889   1
   4  -8   5 370.643 12.3863  -2
  -4   8   2 370.643 12.3863   1
  -3   8   2 422.420 13.6693   1
  -2   8   2 893.615 21.3109   1
   1  -8   7 426.215 14.3134  -2
  -1   8   2 426.215 14.3134   1
   0   8   2 274.295 16.0819   1
  -1  -8   8 316.207 18.7730  -2
   1   8   2 316.207 18.7730   1
   2   8   2 15.3187 8.06731   1
   3   8   2 193.579 16.2335   1
  -4  -8  10 264.595 19.7715  -2
   4   8   2 264.595 19.7715   1
   5   8   2 8.32116 8.81536   1
  -6  -8  11 525.830 30.1972  -2
   6   8   2 525.830 30.1972   1
  -9   9   2 9.97704 12.4945   1
   8  -9   3 65.5844 22.7465  -2
  -8   9   2 65.5844 22.7465   1
   7  -9   4 -33.417 17.7226  -2
  -7   9   2 -33.417 17.7226   1
  -6   9   2 143.446 15.1727   1
   5  -9   5 2882.94 81.3202  -2
  -5   9   2 2882.94 81.3202   1
  -4   9   2 162.801 9.66634   1
  -3   9   2 9.06640 4.75434   1
   2  -9   7 372.921 13.7716  -2
  -2   9   2 372.921 13.7716   1
  -1   9   2 104.832 11.9532   1
   0  -9   8 130.644 15.8551  -2
   0   9   2 130.644 15.8551   1
  -1  -9   9 343.883 22.2337  -2
   1   9   2 343.883 22.2337   1
   2   9   2 347.272 21.5223   1
  -3  -9  10 731.418 32.0082  -2
   3   9   2 731.418 32.0082   1
   4   9   2 202.991 19.0607   1
  -5  -9  11 147.852 22.1462  -2
   5   9   2 147.852 22.1462   1
   8 -10   4 217.556 23.1196  -2
  -8  10   2 217.556 23.1196   1
  -7  10   2 2.38415 9.66674   1
   6 -10   5 25.1523 18.5680  -2
  -6  10   2 25.1523 18.5680   1
   5 -10   6 88.0994 19.4831  -2
  -5  10   2 88.0994 19.4831   1
  -4  10   2 269.311 11.9959   1
   3 -10   7 737.595 20.0292  -2
  -3  10   2 737.595 20.0292   1
  -2  10   2 476.614 22.5585   1
   1 -10   8 301.381 20.6079  -2
  -1  10   2 301.381 20.6079   1
   0 -10   9 117.110 16.3934  -2
   0  10   2 117.110 16.3934   1
   1  10   2 28.8957 10.1352   1
  -2 -10  10 189.445 18.2372  -2
   2  10   2 189.445 18.2372   1
  -3 -10  11 34.8471 18.5706  -2
   3  10   2 34.8471 18.5706   1
  -8  11   2 28.3648 14.0064   1
   7 -11   5 755.120 39.5953  -2
  -7  11   2 755.120 39.5953   1
   6 -11   6 40.7535 20.6223  -2
  -6  11   2 40.7535 20.6223   1
  -5  11   2 9.94228 9.46537   1
   4 -11   7 543.137 17.9996  -2
  -4  11   2 543.137 17.9996   1
  -3  11   2 3.36888 7.65827   1
  -2  11   2 21.6875 9.50313   1
   1 -11   9 409.541 24.3447  -2
  -1  11   2 409.541 24.3447   1
   0  11   2 360.867 23.7090   1
  -1 -11  10 109.504 18.4851  -2
   1  11   2 109.504 18.4851   1
  -2 -11  11 118.939 19.1070  -2
   2  11   2 118.939 19.1070   1
   7 -12   6 -9.9143 19.7226  -2
  -7  12   2 -9.9143 19.7226   1
  -6  12   2 177.999 18.8616   1
   5 -12   7 30.4499 19.6195  -2
  -5  12   2 30.4499 19.6195   1
  -3  12   2 2.88068 8.05870   1
   2 -12   9 52.4454 13.3722  -2
  -2  12   2 52.4454 13.3722   1
  -1  12   2 36.9136 11.6307   1
   0 -12  10 96.6045 20.4009  -2
   0  12   2 96.6045 20.4009   1
   3 -13   9 41.4359 14.7346  -2
  -3  13   2 41.4359 14.7346   1
   2 -14   3 114.699 15.2701   1
   3 -14   5 76.8358 18.1916  -2
   3 -14   3 76.8358 18.1916   1
  -1 -13   3 109.187 16.9707   1
   0 -13   6 166.921 20.5201  -2
   0 -13   3 166.921 20.5201   1
   2 -13   3 54.5095 10.7884   1
   6 -13   2 204.375 26.0397  -2
   6 -13   3 204.375 26.0397   1
   7 -13   3 413.689 26.8596   1
  -2 -12   3 24.3210 6.84710   1
  -1 -12   6 161.259 19.3398  -2
  -1 -12   3 161.259 19.3398   1
   0 -12   5 14.7242 17.1821  -2
   0 -12   3 14.7242 17.1821   1
   1 -12   3 2.22471 7.51424   1
   2 -12   4 167.742 14.5791  -2
   2 -12   3 167.742 14.5791   1
   3 -12   3 -1.4548 7.03424   1
   4 -12   3 156.071 19.7816  -2
   4 -12   3 156.071 19.7816   1
   5 -12   2 256.248 22.9691  -2
   5 -12   3 256.248 22.9691   1
   6 -12   3 8.20439 9.90725   1
   7 -12   1 145.837 20.4786  -2
   7 -12   3 145.837 20.4786   1
  -4 -11   7 71.6597 9.47372  -2
  -4 -11   3 71.6597 9.47372   1
  -3 -11   3 77.7060 8.79037   1
  -2 -11   6 193.402 20.7020  -2
  -2 -11   3 193.402 20.7020   1
  -1 -11   5 1406.19 44.4654  -2
  -1 -11   3 1406.19 44.4654   1
   0 -11   3 13.5611 7.61969   1
   1 -11   4 39.3772 13.3524  -2
   1 -11   3 39.3772 13.3524   1
   2 -11   3 214.986 15.1272   1
   3 -11   3 3.94352 4.93735   1
   4 -11   2 240.693 19.0136  -2
   4 -11   3 240.693 19.0136   1
   5 -11   3 434.958 23.3610   1
   6 -11   1 233.465 22.5563  -2
   6 -11   3 233.465 22.5563   1
  -7  11   0 129.945 24.0381  -2
   7 -11   3 129.945 24.0381   1
   8 -11   3 150.948 18.7336   1
  -6 -10   3 275.298 24.2014   1
  -5 -10   7 56.7615 11.2650  -2
  -5 -10   3 56.7615 11.2650   1
  -4 -10   3 230.641 13.1700   1
  -3 -10   3 90.8074 11.9760   1
  -2 -10   5 -0.4895 11.9421  -2
  -2 -10   3 -0.4895 11.9421   1
  -1 -10   3 -0.5348 6.95022   1
   0 -10   4 1709.33 48.9645  -2
   0 -10   3 1709.33 48.9645   1
   1 -10   3 445.819 22.8309  -2
   1 -10   3 445.819 22.8309   1
   2 -10   3 537.064 15.3141   1
   3 -10   2 467.549 21.5808  -2
   3 -10   3 467.549 21.5808   1
   4 -10   3 37.6606 9.23571   1
   5 -10   1 56.2000 18.0380  -2
   5 -10   3 56.2000 18.0380   1
  -6  10   0 607.284 30.2775  -2
   6 -10   3 607.284 30.2775   1
   7 -10   3 164.891 16.6099   1
  -8  10   1 235.355 22.3863  -2
   8 -10   3 235.355 22.3863   1
   9 -10   3 210.084 22.0226   1
  -7  -9   3 33.4713 11.2997   1
  -6  -9   7 100.654 13.8485  -2
  -6  -9   3 100.654 13.8485   1
  -5  -9   6 139.556 14.4535  -2
  -5  -9   3 139.556 14.4535   1
  -4  -9   3 44.4217 9.47740   1
  -3  -9   5 1074.61 34.9750  -2
  -3  -9   3 1074.61 34.9750   1
  -2  -9   3 168.904 13.4337   1
  -1  -9   4 20.1472 13.6733  -2
  -1  -9   3 20.1472 13.6733   1
   0  -9   3 106.108 14.7945  -2
   0  -9   3 106.108 14.7945   1
   1  -9   3 222.818 9.41979   1
   2  -9   2 563.403 15.6227  -2
   2  -9   3 563.403 15.6227   1
   3  -9   3 2146.16 60.5227   1
   4  -9   3 77.4381 11.0821   1
  -5   9   0 96.0969 16.3117  -2
   5  -9   3 96.0969 16.3117   1
   6  -9   3 599.351 27.5823   1
  -7   9   1 342.338 23.5549  -2
   7  -9   3 342.338 23.5549   1
  -8   9   2 85.2136 21.9003  -2
   8  -9   3 85.2136 21.9003   1
   9  -9   3 243.572 22.8157   1
  -7  -8   7 9.73519 20.8838  -2
  -7  -8   3 9.73519 20.8838   1
  -6  -8   6 347.428 17.1622  -2
  -6  -8   3 347.428 17.1622   1
  -5  -8   3 286.473 18.6054   1
  -4  -8   5 162.517 15.2654  -2
  -4  -8   3 162.517 15.2654   1
  -3  -8   3 0.70535 6.28792   1
  -2  -8   3 385.653 17.7609   1
  -1  -8   3 69.4368 12.4413  -2
  -1  -8   3 69.4368 12.4413   1
   0  -8   3 210.124 8.53983   1
   1  -8   2 1662.05 32.6661  -2
   1  -8   3 1662.05 32.6661   1
   2  -8   3 69.2751 8.83819   1
   3  -8   3 15.8916 7.61510   1
  -4   8   0 663.466 26.4902  -2
   4  -8   3 663.466 26.4902   1
   5  -8   3 315.169 18.8114   1
  -6   8   1 894.298 35.3723  -2
   6  -8   3 894.298 35.3723   1
  -7   8   2 293.999 22.0547  -2
   7  -8   3 293.999 22.0547   1
   8  -8   3 10.6870 6.54015   1
  -9   8   3 123.329 13.3151  -2
   9  -8   3 123.329 13.3151   1
  10  -8   3 130.787 13.3619   1
  -7  -7   6 355.335 24.3137  -2
  -7  -7   3 355.335 24.3137   1
  -6  -7   3 17.0209 5.95057   1
  -5  -7   5 490.287 23.9593  -2
  -5  -7   3 490.287 23.9593   1
  -4  -7   4 369.271 21.4729  -2
  -4  -7   3 369.271 21.4729   1
  -3  -7   3 21.3705 7.32146   1
  -2  -7   3 1.24949 8.96888  -2
  -2  -7   3 1.24949 8.96888   1
  -1  -7   3 452.611 17.9756   1
   0  -7   2 27.6771 7.19555  -2
   0  -7   3 27.6771 7.19555   1
   1  -7   1 2141.64 55.3335  -2
   1  -7   3 2141.64 55.3335   1
   2  -7   3 38.2101 7.16703   1
  -3   7   0 554.500 22.6496  -2
   3  -7   3 554.500 22.6496   1
   4  -7   3 431.885 20.5148   1
   5  -7   3 18.7810 7.88911   1
  -6   7   2 353.433 21.0527  -2
   6  -7   3 353.433 21.0527   1
   7  -7   3 962.774 24.7702   1
  -8   7   3 244.894 21.8450  -2
   8  -7   3 244.894 21.8450   1
  -9   7   4 141.657 22.3134  -2
   9  -7   3 141.657 22.3134   1
  10  -7   3 135.140 12.2456   1
  -8  -6   6 240.577 20.5054  -2
  -8  -6   3 240.577 20.5054   1
  -7  -6   3 274.544 18.9099   1
  -6  -6   5 409.745 24.6278  -2
  -6  -6   3 409.745 24.6278   1
  -5  -6   4 338.640 21.6171  -2
  -5  -6   3 338.640 21.6171   1
  -4  -6   3 572.481 22.3256   1
  -3  -6   3 24.9642 10.6150  -2
  -3  -6   3 24.9642 10.6150   1
  -2  -6   3 505.660 18.8859   1
  -1  -6   3 352.770 9.06427   1
   0  -6   1 869.413 18.1930  -2
   0  -6   3 869.413 18.1930   1
   1  -6   3 1.97065 4.26265   1
  -2   6   0 2801.64 73.0614  -2
   2  -6   3 2801.64 73.0614   1
   3  -6   3 67.4138 8.41879   1
   4  -6   3 650.722 24.6598   1
  -5   6   2 111.710 9.00205  -2
   5  -6   3 111.710 9.00205   1
   6  -6   3 40.3873 6.22249   1
  -7   6   3 152.470 13.2439  -2
   7  -6   3 152.470 13.2439   1
  -8   6   4 473.248 18.9789  -2
   8  -6   3 473.248 18.9789   1
   9  -6   3 170.520 12.4271   1
 -10   6   5 629.008 22.7418  -2
  10  -6   3 629.008 22.7418   1
  -8  -5   3 1.94432 9.03831   1
  -7  -5   5 553.949 29.1720  -2
  -7  -5   3 553.949 29.1720   1
  -6  -5   4 71.3695 16.0457  -2
  -6  -5   3 71.3695 16.0457   1
  -5  -5   3 119.333 11.6512   1
  -4  -5   3 277.636 17.5320  -2
  -4  -5   3 277.636 17.5320   1
  -3  -5   3 225.411 13.0833   1
  -2  -5   3 831.875 24.9684   1
  -1  -5   1 723.703 14.7087  -2
  -1  -5   3 723.703 14.7087   1
   0  -5   3 121.167 5.35023   1
   1  -5   3 93.9142 7.47809   1
   2  -5   3 58.1703 6.35062   1
   3  -5   3 590.217 20.7966   1
  -6   5   3 6.97158 16.9993  -2
   6  -5   3 6.97158 16.9993   1
  -7   5   4 35.1928 10.3634  -2
   7  -5   3 35.1928 10.3634   1
   8  -5   3 370.666 15.4101   1
  -9   5   5 128.174 13.0233  -2
   9  -5   3 128.174 13.0233   1
 -10   5   6 43.6684 15.9682  -2
  10  -5   3 43.6684 15.9682   1
  -9  -4   5 269.519 27.7998  -2
  -9  -4   3 269.519 27.7998   1
  -8  -4   3 362.434 21.1477   1
  -7  -4   4 89.8330 13.4665  -2
  -7  -4   3 89.8330 13.4665   1
  -6  -4   3 1128.19 36.2537   1
  -5  -4   3 -14.861 14.2531  -2
  -5  -4   3 -14.861 14.2531   1
  -4  -4   2 14.7141 10.6871  -2
  -4  -4   3 14.7141 10.6871   1
  -3  -4   3 385.791 14.8962   1
  -2  -4   1 2399.09 41.3914  -2
  -2  -4   3 2399.09 41.3914   1
  -1  -4   3 965.417 18.1860   1
   0  -4   3 4572.37 76.2900   1
   1  -4   3 252.030 10.6169   1
   2  -4   3 581.817 19.3058   1
  -3   4   2 1551.17 43.7804  -2
   3  -4   3 1551.17 43.7804   1
   4  -4   3 -0.7169 3.33857   1
  -6   4   4 401.065 14.3062  -2
   6  -4   3 401.065 14.3062   1
   7  -4   3 323.169 12.7122   1
  -8   4   5 833.337 23.9910  -2
   8  -4   3 833.337 23.9910   1
  -9   4   6 147.762 14.4763  -2
   9  -4   3 147.762 14.4763   1
  10  -4   3 3.05470 6.84662   1
  -9  -3   3 257.747 21.0801   1
  -8  -3   4 16.6031 12.5637  -2
  -8  -3   3 16.6031 12.5637   1
  -7  -3   3 6.17967 6.66673   1
  -6  -3   3 175.475 17.4518  -2
  -6  -3   3 175.475 17.4518   1
  -5  -3   2 -2.3812 4.08113  -2
  -5  -3   3 -2.3812 4.08113   1
  -2  -3   3 142.079 4.52136   1
   0   3   1 155.372 8.53485  -2
   0  -3   3 155.372 8.53485   1
   1  -3   3 1284.84 34.3161   1
   2  -3   3 2241.46 57.9339   1
  -3   3   3 1509.05 39.4234  -2
   3  -3   3 1509.05 39.4234   1
   4  -3   3 16.1322 3.82468   1
   6  -3   3 670.823 18.0357   1
  -7   3   5 201.129 18.7799  -2
   7  -3   3 201.129 18.7799   1
  -8   3   6 10.1625 10.5793  -2
   8  -3   3 10.1625 10.5793   1
   9  -3   3 314.122 14.9627   1
 -10   3   7 188.529 21.3721  -2
  10  -3   3 188.529 21.3721   1
 -10  -2   3 101.613 15.5276   1
  -9  -2   4 85.6165 17.3750  -2
  -9  -2   3 85.6165 17.3750   1
  -8  -2   3 226.744 16.5465   1
  -7  -2   3 4.29857 6.19311   1
  -6  -2   2 114.678 13.6300  -2
  -6  -2   3 114.678 13.6300   1
  -5  -2   3 432.945 15.0733   1
  -4  -2   1 442.808 18.0882  -2
  -4  -2   3 442.808 18.0882   1
  -3  -2   3 1378.83 25.1213   1
  -2  -2   3 2513.66 61.6214   1
   1   2   1 1554.55 27.2029  -2
  -1  -2   3 1554.55 27.2029   1
   0  -2   3 1352.92 35.2519   1
   1  -2   3 2332.31 58.8425   1
  -2   2   3 1808.28 44.4498  -2
   2  -2   3 1808.28 44.4498   1
   3  -2   3 11.1398 2.32834   1
  -4   2   4 1381.23 27.2920  -2
   4  -2   3 1381.23 27.2920   1
   5  -2   3 1615.56 32.0636   1
   6  -2   3 1180.72 26.1387   1
  -7   2   6 36.0904 9.03714  -2
   7  -2   3 36.0904 9.03714   1
   8  -2   3 -2.9013 5.39351   1
  -9   2   7 137.702 14.0733  -2
   9  -2   3 137.702 14.0733   1
 -10   2   8 222.119 24.8281  -2
  10  -2   3 222.119 24.8281   1
 -10  -1   4 55.7372 19.5289  -2
 -10  -1   3 55.7372 19.5289   1
  -9  -1   3 -19.356 18.8024  -2
  -9  -1   3 -19.356 18.8024   1
  -8  -1   3 26.1291 9.43904   1
  -7  -1   2 727.080 18.2582  -2
  -7  -1   3 727.080 18.2582   1
  -6  -1   3 1.17141 4.11162   1
  -5  -1   3 175.890 7.57564   1
   4   1   0 163.874 11.8104  -2
  -4  -1   3 163.874 11.8104   1
  -3  -1   3 39.2559 3.27744   1
   2   1   1 119.477 5.41182  -2
  -2  -1   3 119.477 5.41182   1
  -1  -1   3 1700.10 29.3046   1
   0  -1   3 271.906 7.72256   1
  -1   1   3 5193.11 88.2565  -2
   1  -1   3 5193.11 88.2565   1
   2  -1   3 108.281 4.84705   1
  -3   1   4 417.321 10.3626  -2
   3  -1   3 417.321 10.3626   1
  -4   1   5 1394.35 37.9134  -2
   4  -1   3 1394.35 37.9134   1
   5  -1   3 132.089 5.93056   1
  -6   1   6 410.982 13.2153  -2
   6  -1   3 410.982 13.2153   1
   7  -1   3 410.210 14.2854   1
  -8   1   7 185.614 14.1099  -2
   8  -1   3 185.614 14.1099   1
  -9   1   8 57.8705 17.9331  -2
   9  -1   3 57.8705 17.9331   1
  10  -1   3 122.839 16.5458   1
 -10   0   3 420.734 28.2955  -2
 -10   0   3 420.734 28.2955   1
  -9   0   3 5.41096 8.20658   1
  -8   0   2 339.888 20.1556  -2
  -8   0   3 339.888 20.1556   1
  -7   0   3 2.74634 4.72465   1
  -6   0   3 103.857 7.03858   1
   5   0   0 886.336 19.3274  -2
  -5   0   3 886.336 19.3274   1
  -4   0   3 1116.29 21.7702   1
   3   0   1 -1.8143 4.30476  -2
  -3   0   3 -1.8143 4.30476   1
  -2   0   3 1648.46 28.7086   1
  -1   0   3 1090.67 16.0409   1
   0   0   3 207.560 8.03230  -2
   0   0   3 207.560 8.03230   1
   1   0   3 214.259 5.07220   1
  -3   0   5 619.214 11.8307  -2
   3   0   3 619.214 11.8307   1
   4   0   3 1548.43 24.1443   1
  -5   0   6 976.316 17.6007  -2
   5   0   3 976.316 17.6007   1
   6   0   3 150.437 7.00902   1
   7   0   3 59.5228 7.13312   1
  -8   0   8 523.524 26.2901  -2
   8   0   3 523.524 26.2901   1
   9   0   3 145.179 16.1675   1
 -10   1   3 31.0197 11.2080   1
  -9   1   2 1078.78 38.3739  -2
  -9   1   3 1078.78 38.3739   1
  -8   1   1 578.747 26.6017  -2
  -8   1   3 578.747 26.6017   1
  -7   1   3 667.483 17.6925   1
  -6   1   0 65.1869 6.50891  -2
  -6   1   3 65.1869 6.50891   1
  -5   1   3 110.315 6.87953   1
  -4   1   3 1.55996 2.72282   1
   3  -1   2 2060.19 48.9607  -2
  -3   1   3 2060.19 48.9607   1
  -2   1   3 864.118 13.2007   1
   1  -1   3 4121.71 56.2048  -2
  -1   1   3 4121.71 56.2048   1
   1   1   3 2614.89 44.3763   1
  -2  -1   5 255.699 6.36905  -2
   2   1   3 255.699 6.36905   1
   3   1   3 18.0895 2.70047   1
  -4  -1   6 1002.85 17.5873  -2
   4   1   3 1002.85 17.5873   1
  -5  -1   7 885.391 21.1548  -2
   5   1   3 885.391 21.1548   1
   6   1   3 49.6855 4.69830   1
  -7  -1   8 115.245 13.4104  -2
   7   1   3 115.245 13.4104   1
   8   1   3 145.987 15.1327   1
  -9  -1   9 316.748 25.8574  -2
   9   1   3 316.748 25.8574   1
 -11   2   3 6.35636 11.2213   1
 -10   2   2 100.983 20.6583  -2
 -10   2   3 100.983 20.6583   1
  -9   2   1 163.518 13.3851  -2
  -9   2   3 163.518 13.3851   1
  -8   2   3 74.2114 7.71263   1
  -7   2   0 824.255 20.5701  -2
  -7   2   3 824.255 20.5701   1
  -6   2   3 1249.09 26.0496   1
  -5   2   3 131.439 7.19750   1
   4  -2   2 1500.36 28.1814  -2
  -4   2   3 1500.36 28.1814   1
  -3   2   3 1809.73 26.0867   1
   2  -2   3 1772.20 30.1523  -2
  -2   2   3 1772.20 30.1523   1
   0   2   3 1587.40 35.5711   1
  -1  -2   5 362.570 8.36561  -2
   1   2   3 362.570 8.36561   1
   2   2   3 188.520 5.48884   1
  -3  -2   6 1009.49 30.3647  -2
   3   2   3 1009.49 30.3647   1
  -4  -2   7 399.481 10.5514  -2
   4   2   3 399.481 10.5514   1
   5   2   3 7.26655 3.53274   1
  -6  -2   8 598.169 16.9144  -2
   6   2   3 598.169 16.9144   1
   7   2   3 145.623 13.7331   1
  -8  -2   9 232.151 23.0013  -2
   8   2   3 232.151 23.0013   1
  -9  -2  10 29.3651 16.6863  -2
   9   2   3 29.3651 16.6863   1
 -11   3   2 533.668 34.2206  -2
 -11   3   3 533.668 34.2206   1
 -10   3   1 96.5916 16.1833  -2
 -10   3   3 96.5916 16.1833   1
  -9   3   3 40.8844 7.25246   1
  -8   3   0 52.3987 10.6456  -2
  -8   3   3 52.3987 10.6456   1
   7  -3   1 483.511 22.9572  -2
  -7   3   3 483.511 22.9572   1
  -6   3   3 140.842 8.26124   1
   5  -3   2 1470.59 28.7752  -2
  -5   3   3 1470.59 28.7752   1
  -4   3   3 1428.26 21.6328   1
   3  -3   3 2688.73 45.0717  -2
  -3   3   3 2688.73 45.0717   1
   2  -3   4 944.065 26.7950  -2
  -2   3   3 944.065 26.7950   1
  -1   3   3 1515.81 28.6040   1
   0  -3   5 298.902 6.03389  -2
   0   3   3 298.902 6.03389   1
   1   3   3 1031.51 16.2085   1
  -2  -3   6 651.558 21.4015  -2
   2   3   3 651.558 21.4015   1
  -3  -3   7 676.653 13.1863  -2
   3   3   3 676.653 13.1863   1
   4   3   3 -1.3294 3.23620   1
  -5  -3   8 203.418 10.6447  -2
   5   3   3 203.418 10.6447   1
  -6  -3   9 354.987 20.9667  -2
   6   3   3 354.987 20.9667   1
   7   3   3 43.3759 9.51343   1
  -8  -3  10 19.8814 13.3403  -2
   8   3   3 19.8814 13.3403   1
   9   3   3 286.910 22.0862   1
 -11   4   1 221.191 15.1924  -2
 -11   4   3 221.191 15.1924   1
 -10   4   3 3.57195 6.64744   1
  -9   4   0 259.331 15.9246  -2
  -9   4   3 259.331 15.9246   1
   8  -4   1 1542.23 34.4021  -2
  -8   4   3 1542.23 34.4021   1
  -7   4   3 6.07870 4.77340   1
   6  -4   2 411.955 13.2630  -2
  -6   4   3 411.955 13.2630   1
  -5   4   3 -0.2654 2.13331   1
   4  -4   3 207.978 11.9964  -2
  -4   4   3 207.978 11.9964   1
   3  -4   4 326.736 7.54640  -2
  -3   4   3 326.736 7.54640   1
  -2   4   3 2579.13 46.6483   1
   1  -4   5 760.958 17.2575  -2
  -1   4   3 760.958 17.2575   1
   0   4   3 88.1020 3.51278   1
   1   4   3 950.928 15.4999   1
  -2  -4   7 344.462 8.30846  -2
   2   4   3 344.462 8.30846   1
   3   4   3 19.8540 3.60240   1
  -4  -4   8 815.186 20.3001  -2
   4   4   3 815.186 20.3001   1
  -5  -4   9 324.525 13.9652  -2
   5   4   3 324.525 13.9652   1
   6   4   3 253.470 11.6501   1
  -7  -4  10 19.0331 14.0094  -2
   7   4   3 19.0331 14.0094   1
   8   4   3 -0.5683 8.88492   1
 -11   5   3 7.46757 7.46925   1
 -10   5   0 68.7754 20.2412  -2
 -10   5   3 68.7754 20.2412   1
   9  -5   1 350.034 15.3633  -2
  -9   5   3 350.034 15.3633   1
  -8   5   3 12.2454 5.60264   1
   7  -5   2 1003.86 23.9747  -2
  -7   5   3 1003.86 23.9747   1
   6  -5   3 -7.5787 12.8850  -2
  -6   5   3 -7.5787 12.8850   1
  -5   5   3 912.920 18.4769   1
   4  -5   4 259.733 7.01301  -2
  -4   5   3 259.733 7.01301   1
  -3   5   3 1.08030 3.26401   1
  -2   5   3 62.9705 5.29049   1
   1  -5   6 1516.27 43.2342  -2
  -1   5   3 1516.27 43.2342   1
   0   5   3 1066.47 17.1073   1
  -1  -5   7 2100.99 37.2340  -2
   1   5   3 2100.99 37.2340   1
   2   5   3 131.414 5.77586   1
   3   5   3 145.375 8.01128   1
  -4  -5   9 524.716 15.9381  -2
   4   5   3 524.716 15.9381   1
   5   5   3 22.9789 5.41407   1
  -6  -5  10 422.994 16.3274  -2
   6   5   3 422.994 16.3274   1
 -11   6   3 160.210 12.8471   1
  10  -6   1 327.498 16.3801  -2
 -10   6   3 327.498 16.3801   1
  -9   6   3 -0.9708 6.24265   1
   8  -6   2 492.775 18.6137  -2
  -8   6   3 492.775 18.6137   1
   7  -6   3 155.635 12.2645  -2
  -7   6   3 155.635 12.2645   1
  -6   6   3 171.693 9.50238   1
   5  -6   4 52.8620 5.21142  -2
  -5   6   3 52.8620 5.21142   1
  -4   6   3 2043.88 39.4167   1
  -3   6   3 149.544 7.73702   1
   2  -6   6 639.793 12.1592  -2
  -2   6   3 639.793 12.1592   1
  -1   6   3 263.699 6.61362   1
   0  -6   7 983.456 16.8736  -2
   0   6   3 983.456 16.8736   1
   1   6   3 8.61865 2.91242   1
   2   6   3 1042.54 22.2784   1
  -3  -6   9 122.121 13.4258  -2
   3   6   3 122.121 13.4258   1
   4   6   3 271.058 17.7593   1
  -5  -6  10 190.674 18.7492  -2
   5   6   3 190.674 18.7492   1
  -6  -6  11 87.3390 18.9490  -2
   6   6   3 87.3390 18.9490   1
 -10   7   3 18.6950 13.2739   1
   9  -7   2 471.683 30.9786  -2
  -9   7   3 471.683 30.9786   1
   8  -7   3 220.896 20.9222  -2
  -8   7   3 220.896 20.9222   1
  -7   7   3 233.147 11.9409   1
   6  -7   4 474.355 24.9423  -2
  -6   7   3 474.355 24.9423   1
  -5   7   3 8.41332 4.29696   1
  -4   7   3 243.529 10.2115   1
   3  -7   6 1460.98 30.6493  -2
  -3   7   3 1460.98 30.6493   1
  -2   7   3 238.735 10.2803   1
   1  -7   7 1385.45 30.2229  -2
  -1   7   3 1385.45 30.2229   1
   0  -7   8 -10.754 8.23397  -2
   0   7   3 -10.754 8.23397   1
   1   7   3 41.6338 8.06672   1
  -2  -7   9 606.280 25.8751  -2
   2   7   3 606.280 25.8751   1
   3   7   3 656.654 27.9913   1
  -4  -7  10 396.981 24.4941  -2
   4   7   3 396.981 24.4941   1
  -5  -7  11 462.025 26.5872  -2
   5   7   3 462.025 26.5872   1
   6   7   3 8.54675 9.42606   1
 -10   8   3 0.63924 12.4074   1
   9  -8   3 93.0203 19.1148  -2
  -9   8   3 93.0203 19.1148   1
  -8   8   3 -0.2504 9.75607   1
   7  -8   4 103.819 18.8070  -2
  -7   8   3 103.819 18.8070   1
   6  -8   5 2731.23 79.3799  -2
  -6   8   3 2731.23 79.3799   1
  -5   8   3 39.4652 9.65046   1
   4  -8   6 133.912 8.55976  -2
  -4   8   3 133.912 8.55976   1
  -3   8   3 10.1363 4.57096   1
   2  -8   7 210.205 18.0748  -2
  -2   8   3 210.205 18.0748   1
   1  -8   8 80.6774 9.24185  -2
  -1   8   3 80.6774 9.24185   1
   0   8   3 485.919 22.5749   1
  -1  -8   9 28.2773 11.2929  -2
   1   8   3 28.2773 11.2929   1
   2   8   3 483.916 24.2057   1
   3   8   3 67.7982 11.8460   1
  -4  -8  11 69.4333 14.9163  -2
   4   8   3 69.4333 14.9163   1
   5   8   3 -1.0518 9.26684   1
  -9   9   3 33.1934 13.5480   1
   8  -9   4 391.611 30.6768  -2
  -8   9   3 391.611 30.6768   1
   7  -9   5 -24.135 16.7165  -2
  -7   9   3 -24.135 16.7165   1
  -6   9   3 5.12546 9.75145   1
   5  -9   6 1516.47 50.1340  -2
  -5   9   3 1516.47 50.1340   1
   4  -9   7 102.335 14.8468  -2
  -4   9   3 102.335 14.8468   1
  -3   9   3 114.610 8.39396   1
   2  -9   8 284.853 12.5356  -2
  -2   9   3 284.853 12.5356   1
  -1   9   3 -2.3299 7.38936   1
   0  -9   9 90.4333 15.8210  -2
   0   9   3 90.4333 15.8210   1
  -1  -9  10 286.975 20.7309  -2
   1   9   3 286.975 20.7309   1
   2   9   3 125.254 14.6642   1
  -3  -9  11 197.775 17.5076  -2
   3   9   3 197.775 17.5076   1
   4   9   3 5.93548 10.2037   1
   8 -10   5 734.750 36.2639  -2
  -8  10   3 734.750 36.2639   1
  -7  10   3 116.566 15.8552   1
   6 -10   6 46.8477 19.5294  -2
  -6  10   3 46.8477 19.5294   1
   5 -10   7 132.266 20.5330  -2
  -5  10   3 132.266 20.5330   1
  -4  10   3 145.811 9.91958   1
   3 -10   8 138.841 9.50671  -2
  -3  10   3 138.841 9.50671   1
  -2  10   3 613.458 26.8479   1
   1 -10   9 114.364 16.3819  -2
  -1  10   3 114.364 16.3819   1
   0 -10  10 247.993 20.0750  -2
   0  10   3 247.993 20.0750   1
   1  10   3 74.2546 12.3894   1
  -2 -10  11 52.0337 14.2379  -2
   2  10   3 52.0337 14.2379   1
   7 -11   6 430.757 32.2876  -2
  -7  11   3 430.757 32.2876   1
   6 -11   7 46.2545 21.1967  -2
  -6  11   3 46.2545 21.1967   1
  -5  11   3 224.477 19.9863   1
   4 -11   8 33.9021 9.64678  -2
  -4  11   3 33.9021 9.64678   1
   3 -11   9 291.117 22.6656  -2
  -3  11   3 291.117 22.6656   1
   2 -11   9 19.9973 16.4204  -2
  -2  11   3 19.9973 16.4204   1
   1 -11  10 475.324 25.6639  -2
  -1  11   3 475.324 25.6639   1
   0  11   3 136.544 16.6668   1
  -1 -11  11 789.451 35.8811  -2
   1  11   3 789.451 35.8811   1
  -6  12   3 24.0655 12.3511   1
   5 -12   8 -11.070 18.9676  -2
  -5  12   3 -11.070 18.9676   1
  -3  12   3 53.6400 11.4981   1
   2 -12  10 224.142 18.9692  -2
  -2  12   3 224.142 18.9692   1
  -1  12   3 71.7225 13.8506   1
   3 -13  10 218.947 20.7074  -2
  -3  13   3 218.947 20.7074   1
  -1 -13   4 37.5990 10.7149   1
   0 -13   5 56.7964 17.6742  -2
   0 -13   4 56.7964 17.6742   1
   1 -13   4 352.642 21.9926   1
   2 -13   4 9.02821 9.00679   1
   3 -13   3 22.5941 13.3382  -2
   3 -13   4 22.5941 13.3382   1
   4 -13   4 15.3661 9.23894   1
   6 -13   1 59.7763 24.1818  -2
   6 -13   4 59.7763 24.1818   1
  -3 -12   6 20.7280 16.3834  -2
  -3 -12   4 20.7280 16.3834   1
  -2 -12   4 159.829 15.6799   1
  -1 -12   5 34.7257 17.7276  -2
  -1 -12   4 34.7257 17.7276   1
   0 -12   4 -0.4900 18.1158  -2
   0 -12   4 -0.4900 18.1158   1
   1 -12   4 177.852 15.5982   1
   2 -12   3 186.461 15.8837  -2
   2 -12   4 186.461 15.8837   1
   3 -12   4 103.533 12.5376   1
   4 -12   2 325.331 24.2767  -2
   4 -12   4 325.331 24.2767   1
   5 -12   1 148.046 20.8766  -2
   5 -12   4 148.046 20.8766   1
   6 -12   4 196.911 19.2371   1
  -7  12   0 31.4309 20.2851  -2
   7 -12   4 31.4309 20.2851   1
  -5 -11   4 6.59526 9.72780   1
  -4 -11   6 81.2468 9.48233  -2
  -4 -11   4 81.2468 9.48233   1
  -3 -11   4 57.0228 11.3117   1
  -2 -11   5 31.2428 17.6116  -2
  -2 -11   4 31.2428 17.6116   1
  -1 -11   4 1145.81 39.1288  -2
  -1 -11   4 1145.81 39.1288   1
   0 -11   4 63.5910 10.4610   1
   1 -11   3 29.3763 12.8310  -2
   1 -11   4 29.3763 12.8310   1
   2 -11   4 81.4670 10.9957   1
   3 -11   2 132.770 19.8068  -2
   3 -11   4 132.770 19.8068   1
   4 -11   1 81.4265 15.7249  -2
   4 -11   4 81.4265 15.7249   1
   5 -11   4 1061.66 39.2512   1
  -6  11   0 110.092 20.4397  -2
   6 -11   4 110.092 20.4397   1
  -7  11   1 150.932 25.6950  -2
   7 -11   4 150.932 25.6950   1
   8 -11   4 15.9386 12.3024   1
  -5 -10   6 139.839 13.3852  -2
  -5 -10   4 139.839 13.3852   1
  -4 -10   4 77.3706 11.8972   1
  -3 -10   4 40.2171 9.47599   1
  -2 -10   4 90.8289 15.8369  -2
  -2 -10   4 90.8289 15.8369   1
  -1 -10   4 97.7325 11.3081   1
   0 -10   3 1487.51 44.7627  -2
   0 -10   4 1487.51 44.7627   1
   1 -10   2 18.5905 16.2535  -2
   1 -10   4 18.5905 16.2535   1
   2 -10   4 434.813 14.2164   1
   3 -10   1 178.007 15.1804  -2
   3 -10   4 178.007 15.1804   1
   4 -10   4 41.1222 9.68634   1
  -5  10   0 120.338 19.7199  -2
   5 -10   4 120.338 19.7199   1
  -6  10   1 86.8104 19.2590  -2
   6 -10   4 86.8104 19.2590   1
   7 -10   4 16.6514 10.2270   1
  -8  10   2 288.445 24.5860  -2
   8 -10   4 288.445 24.5860   1
  -7  -9   4 18.4696 9.77971   1
  -6  -9   6 73.5274 13.3018  -2
  -6  -9   4 73.5274 13.3018   1
  -5  -9   5 7.16420 19.0600  -2
  -5  -9   4 7.16420 19.0600   1
  -4  -9   4 24.4977 9.23796   1
  -3  -9   4 950.447 32.4718  -2
  -3  -9   4 950.447 32.4718   1
  -2  -9   4 11.1186 7.53237   1
  -1  -9   3 2.97782 14.1079  -2
  -1  -9   4 2.97782 14.1079   1
   0  -9   2 80.2233 15.3736  -2
   0  -9   4 80.2233 15.3736   1
   1  -9   4 69.0046 6.19429   1
   2  -9   1 620.794 24.2383  -2
   2  -9   4 620.794 24.2383   1
   3  -9   4 1076.10 35.4887   1
   4  -9   4 231.675 16.4895   1
  -5   9   1 170.762 18.3769  -2
   5  -9   4 170.762 18.3769   1
   6  -9   4 473.080 25.1628   1
  -7   9   2 5.90792 17.5434  -2
   7  -9   4 5.90792 17.5434   1
  -8   9   3 276.372 26.7477  -2
   8  -9   4 276.372 26.7477   1
   9  -9   4 135.341 17.6798   1
  -7  -8   6 121.730 23.7112  -2
  -7  -8   4 121.730 23.7112   1
  -6  -8   5 284.912 24.4035  -2
  -6  -8   4 284.912 24.4035   1
  -5  -8   4 57.0525 10.8994   1
  -4  -8   4 203.800 16.5807  -2
  -4  -8   4 203.800 16.5807   1
  -3  -8   4 57.6103 9.70480   1
  -2  -8   4 379.068 18.1026   1
  -1  -8   2 57.2745 12.7840  -2
  -1  -8   4 57.2745 12.7840   1
   0  -8   4 1217.42 24.9494   1
   1  -8   1 318.642 12.5027  -2
   1  -8   4 318.642 12.5027   1
   2  -8   4 -0.5700 6.47952   1
   3  -8   4 22.7902 8.13460   1
  -4   8   1 195.711 14.7225  -2
   4  -8   4 195.711 14.7225   1
   5  -8   4 47.3374 9.62320   1
  -6   8   2 1968.43 61.3756  -2
   6  -8   4 1968.43 61.3756   1
  -7   8   3 62.3688 17.1976  -2
   7  -8   4 62.3688 17.1976   1
   8  -8   4 52.3727 8.46403   1
  -9   8   4 465.506 19.8475  -2
   9  -8   4 465.506 19.8475   1
  -7  -7   5 43.4271 17.9175  -2
  -7  -7   4 43.4271 17.9175   1
  -6  -7   4 8.78903 8.48027   1
  -5  -7   4 1670.47 50.0009  -2
  -5  -7   4 1670.47 50.0009   1
  -4  -7   4 247.614 15.9849   1
  -3  -7   4 8.02170 6.70067   1
  -2  -7   2 88.4038 11.2378  -2
  -2  -7   4 88.4038 11.2378   1
  -1  -7   4 390.679 10.5388   1
   0  -7   1 217.970 10.3353  -2
   0  -7   4 217.970 10.3353   1
  -1   7   0 1436.40 41.1455  -2
   1  -7   4 1436.40 41.1455   1
   2  -7   4 452.388 18.7322   1
  -3   7   1 1144.20 36.4901  -2
   3  -7   4 1144.20 36.4901   1
   4  -7   4 137.589 13.2346   1
   5  -7   4 24.6258 8.37660   1
  -6   7   3 343.044 21.6112  -2
   6  -7   4 343.044 21.6112   1
   7  -7   4 1171.56 28.6549   1
  -8   7   4 295.891 23.6827  -2
   8  -7   4 295.891 23.6827   1
  -9   7   5 657.554 35.3268  -2
   9  -7   4 657.554 35.3268   1
  10  -7   4 112.806 18.1347   1
  -8  -6   5 253.296 21.0859  -2
  -8  -6   4 253.296 21.0859   1
  -7  -6   4 102.270 13.6253   1
  -6  -6   4 159.553 18.8244  -2
  -6  -6   4 159.553 18.8244   1
  -5  -6   3 237.426 19.7614  -2
  -5  -6   4 237.426 19.7614   1
  -4  -6   4 215.380 13.6873   1
  -3  -6   2 139.467 12.9899  -2
  -3  -6   4 139.467 12.9899   1
  -2  -6   4 1451.14 39.8342   1
  -1  -6   1 565.844 18.2055  -2
  -1  -6   4 565.844 18.2055   1
   0   6   0 1650.45 31.1137  -2
   0  -6   4 1650.45 31.1137   1
   1  -6   4 102.477 9.01484   1
  -2   6   1 645.475 23.8442  -2
   2  -6   4 645.475 23.8442   1
   3  -6   4 26.9209 7.70313   1
   4  -6   4 1075.20 35.0353   1
  -5   6   3 47.2524 8.51648  -2
   5  -6   4 47.2524 8.51648   1
   6  -6   4 -2.5674 5.15411   1
  -7   6   4 493.944 26.2512  -2
   7  -6   4 493.944 26.2512   1
  -8   6   5 298.472 16.4267  -2
   8  -6   4 298.472 16.4267   1
   9  -6   4 175.349 13.1005   1
 -10   6   6 325.925 25.1270  -2
  10  -6   4 325.925 25.1270   1
  -8  -5   4 4.36219 9.38524   1
  -7  -5   4 662.240 31.5384  -2
  -7  -5   4 662.240 31.5384   1
  -6  -5   3 52.0235 15.2704  -2
  -6  -5   4 52.0235 15.2704   1
  -5  -5   4 8.26907 6.50493   1
  -4  -5   2 1147.21 35.5402  -2
  -4  -5   4 1147.21 35.5402   1
  -3  -5   4 0.77724 3.77285   1
  -2  -5   4 45.3687 3.47058   1
   1   5   0 7342.25 121.460  -2
  -1  -5   4 7342.25 121.460   1
   0  -5   4 94.6689 7.45837   1
   1  -5   4 117.225 8.54194   1
   2  -5   4 984.811 29.6251   1
   3  -5   4 -3.5330 5.70144   1
  -4   5   3 0.93033 2.04107  -2
   4  -5   4 0.93033 2.04107   1
   5  -5   4 0.92560 3.49310   1
   6  -5   4 45.3555 6.43204   1
  -7   5   5 1027.30 26.2740  -2
   7  -5   4 1027.30 26.2740   1
   8  -5   4 45.1784 8.03550   1
  -9   5   6 55.9066 12.4673  -2
   9  -5   4 55.9066 12.4673   1
 -10   5   7 -32.995 22.1476  -2
  10  -5   4 -32.995 22.1476   1
  -9  -4   4 38.2727 11.0975   1
  -8  -4   4 4.06974 8.51463   1
  -7  -4   3 61.9495 13.9887  -2
  -7  -4   4 61.9495 13.9887   1
  -6  -4   4 1395.89 42.0056   1
  -5  -4   2 368.997 20.0424  -2
  -5  -4   4 368.997 20.0424   1
  -4  -4   1 -2.3212 4.66415  -2
  -4  -4   4 -2.3212 4.66415   1
   2   4   0 2575.16 44.5114  -2
  -2  -4   4 2575.16 44.5114   1
  -1  -4   4 244.184 7.39444   1
   0   4   1 2238.63 55.0084  -2
   0  -4   4 2238.63 55.0084   1
  -1   4   2 539.007 19.2490  -2
   1  -4   4 539.007 19.2490   1
   2  -4   4 2170.46 57.4138   1
  -3   4   3 215.927 12.8069  -2
   3  -4   4 215.927 12.8069   1
   4  -4   4 10.8854 3.33900   1
   5  -4   4 82.6547 10.3311   1
  -6   4   5 493.788 16.1440  -2
   6  -4   4 493.788 16.1440   1
   7  -4   4 -0.0431 5.07035   1
  -8   4   6 680.521 21.8509  -2
   8  -4   4 680.521 21.8509   1
  -9   4   7 116.581 15.2016  -2
   9  -4   4 116.581 15.2016   1
  10  -4   4 51.5380 9.36508   1
  -9  -3   4 231.355 20.2101   1
  -8  -3   3 28.7856 12.7495  -2
  -8  -3   4 28.7856 12.7495   1
  -7  -3   4 47.7683 10.1005   1
  -6  -3   2 249.630 19.4038  -2
  -6  -3   4 249.630 19.4038   1
  -5  -3   1 1157.42 35.8027  -2
  -5  -3   4 1157.42 35.8027   1
  -4  -3   4 296.992 8.52383   1
   3   3   0 2192.44 38.6801  -2
  -3  -3   4 2192.44 38.6801   1
  -2  -3   4 1153.40 21.5200   1
  -1  -3   4 585.300 12.7243   1
   0   3   2 2149.51 55.1359  -2
   0  -3   4 2149.51 55.1359   1
   1  -3   4 33.7287 5.63218   1
   2  -3   4 68.4923 6.82557   1
   3  -3   4 2866.55 74.7128   1
   4  -3   4 114.016 7.09587   1
  -5   3   5 675.662 17.6198  -2
   5  -3   4 675.662 17.6198   1
   6  -3   4 732.372 19.4189   1
  -7   3   6 791.759 31.3629  -2
   7  -3   4 791.759 31.3629   1
  -8   3   7 201.116 13.9817  -2
   8  -3   4 201.116 13.9817   1
   9  -3   4 74.5353 9.42881   1
 -10  -2   4 -4.8188 8.97235   1
  -9  -2   3 92.6221 17.9013  -2
  -9  -2   4 92.6221 17.9013   1
  -8  -2   4 536.552 24.4014   1
  -7  -2   4 241.818 16.8616   1
  -6  -2   1 42.8257 7.30704  -2
  -6  -2   4 42.8257 7.30704   1
  -5  -2   4 28.0785 4.39327   1
   4   2   0 2533.00 62.8049  -2
  -4  -2   4 2533.00 62.8049   1
   3   2   1 121.231 11.2685  -2
  -3  -2   4 121.231 11.2685   1
  -2  -2   4 1405.66 25.5039   1
   1   2   2 240.121 8.93235  -2
  -1  -2   4 240.121 8.93235   1
   0  -2   4 1453.65 38.9056   1
   1  -2   4 975.434 27.9749   1
  -2   2   4 1311.46 37.3702  -2
   2  -2   4 1311.46 37.3702   1
   3  -2   4 12.2761 2.57991   1
  -4   2   5 1615.96 25.4434  -2
   4  -2   4 1615.96 25.4434   1
   5  -2   4 319.782 8.84310   1
   6  -2   4 1294.90 28.2851   1
  -7   2   7 494.621 16.9853  -2
   7  -2   4 494.621 16.9853   1
   8  -2   4 53.0742 7.73051   1
  -9   2   8 578.609 30.7409  -2
   9  -2   4 578.609 30.7409   1
 -10  -1   3 22.0950 21.2467  -2
 -10  -1   4 22.0950 21.2467   1
  -9  -1   2 114.295 20.1162  -2
  -9  -1   4 114.295 20.1162   1
  -8  -1   4 443.765 22.6544   1
  -7  -1   1 410.382 12.8702  -2
  -7  -1   4 410.382 12.8702   1
  -6  -1   4 110.470 7.18450   1
  -5  -1   4 1683.78 31.9682   1
   4   1   1 348.430 10.7292  -2
  -4  -1   4 348.430 10.7292   1
  -3  -1   4 25.0316 3.07809   1
   2   1   2 214.331 6.85915  -2
  -2  -1   4 214.331 6.85915   1
   1   1   3 3161.58 79.2669  -2
  -1  -1   4 3161.58 79.2669   1
   0  -1   4 0.62979 1.70861   1
  -1   1   4 1412.03 26.9016  -2
   1  -1   4 1412.03 26.9016   1
   2  -1   4 4319.54 59.7587   1
  -3   1   5 390.998 9.43555  -2
   3  -1   4 390.998 9.43555   1
  -4   1   6 1534.73 42.4589  -2
   4  -1   4 1534.73 42.4589   1
   5  -1   4 71.0502 5.08403   1
  -6   1   7 90.9752 5.95534  -2
   6  -1   4 90.9752 5.95534   1
   7  -1   4 671.994 18.8848   1
  -8   1   8 188.506 14.5056  -2
   8  -1   4 188.506 14.5056   1
  -9   1   9 392.693 26.8338  -2
   9  -1   4 392.693 26.8338   1
 -10   0   2 287.075 26.0946  -2
 -10   0   4 287.075 26.0946   1
  -9   0   4 36.1685 10.3973   1
  -8   0   1 152.479 11.0691  -2
  -8   0   4 152.479 11.0691   1
  -7   0   4 88.1872 7.19544   1
  -6   0   4 14.1212 4.75133   1
   5   0   1 620.887 15.4227  -2
  -5   0   4 620.887 15.4227   1
  -4   0   4 2416.04 42.7234   1
  -2   0   4 667.667 11.0581   1
  -1   0   4 41.1877 2.64965   1
   0   0   4 -0.3457 1.47278  -2
   0   0   4 -0.3457 1.47278   1
   1   0   4 227.538 5.70599   1
   2   0   4 1175.12 18.4947   1
  -3   0   6 711.633 13.5371  -2
   3   0   4 711.633 13.5371   1
   4   0   4 2072.12 31.5028   1
  -5   0   7 69.4135 6.66392  -2
   5   0   4 69.4135 6.66392   1
   6   0   4 24.1753 4.14557   1
  -7   0   8 156.775 19.6257  -2
   7   0   4 156.775 19.6257   1
  -8   0   9 278.862 20.4342  -2
   8   0   4 278.862 20.4342   1
   9   0   4 280.167 21.2749   1
 -10   1   4 6.01453 9.86940   1
  -9   1   1 575.058 28.2462  -2
  -9   1   4 575.058 28.2462   1
  -8   1   0 71.9291 12.1315  -2
  -8   1   4 71.9291 12.1315   1
  -7   1   4 609.277 16.6985   1
   6  -1   1 83.2813 6.48544  -2
  -6   1   4 83.2813 6.48544   1
  -5   1   4 842.139 18.5401   1
  -4   1   4 1643.36 30.3633   1
   3  -1   3 600.113 13.4543  -2
  -3   1   4 600.113 13.4543   1
  -2   1   4 1331.17 19.6961   1
   1  -1   4 3163.82 52.4967  -2
  -1   1   4 3163.82 52.4967   1
  -1  -1   5 1337.53 38.4060  -2
   1   1   4 1337.53 38.4060   1
  -2  -1   6 670.810 12.2973  -2
   2   1   4 670.810 12.2973   1
   3   1   4 64.7477 4.20766   1
  -4  -1   7 44.1708 6.74831  -2
   4   1   4 44.1708 6.74831   1
  -5  -1   8 313.406 13.4026  -2
   5   1   4 313.406 13.4026   1
   6   1   4 -1.1957 3.57536   1
  -7  -1   9 323.565 18.6504  -2
   7   1   4 323.565 18.6504   1
   8   1   4 1.74361 8.23244   1
  -9  -1  10 59.9079 21.2034  -2
   9   1   4 59.9079 21.2034   1
 -11   2   4 35.1706 12.3877   1
 -10   2   1 16.7294 19.1813  -2
 -10   2   4 16.7294 19.1813   1
  -9   2   0 360.790 16.0647  -2
  -9   2   4 360.790 16.0647   1
  -8   2   4 154.438 10.0655   1
   7  -2   1 161.150 9.78502  -2
  -7   2   4 161.150 9.78502   1
  -6   2   4 1308.80 27.0458   1
  -5   2   4 155.978 7.85910   1
   4  -2   3 1058.45 21.3675  -2
  -4   2   4 1058.45 21.3675   1
  -3   2   4 170.905 4.88141   1
   2  -2   4 1452.31 21.5201  -2
  -2   2   4 1452.31 21.5201   1
   1  -2   5 95.2071 10.8756  -2
  -1   2   4 95.2071 10.8756   1
   0   2   4 2328.57 60.7977   1
  -1  -2   6 196.224 5.33787  -2
   1   2   4 196.224 5.33787   1
   2   2   4 600.307 11.4309   1
  -3  -2   7 13.1638 6.57813  -2
   3   2   4 13.1638 6.57813   1
  -4  -2   8 651.458 14.2634  -2
   4   2   4 651.458 14.2634   1
   5   2   4 15.3020 3.88743   1
  -6  -2   9 15.1128 7.75099  -2
   6   2   4 15.1128 7.75099   1
   7   2   4 66.7669 11.0337   1
  -8  -2  10 475.552 28.1090  -2
   8   2   4 475.552 28.1090   1
  -9  -2  11 14.4617 17.2948  -2
   9   2   4 14.4617 17.2948   1
 -11   3   1 285.064 29.0521  -2
 -11   3   4 285.064 29.0521   1
 -10   3   0 355.812 16.1867  -2
 -10   3   4 355.812 16.1867   1
  -9   3   4 165.522 10.7482   1
   8  -3   1 -8.9053 10.0861  -2
  -8   3   4 -8.9053 10.0861   1
   7  -3   2 348.478 20.0108  -2
  -7   3   4 348.478 20.0108   1
  -6   3   4 98.9567 7.03211   1
   5  -3   3 924.912 15.7337  -2
  -5   3   4 924.912 15.7337   1
  -4   3   4 331.937 12.2851   1
   3  -3   4 2919.12 49.0078  -2
  -3   3   4 2919.12 49.0078   1
   2  -3   5 277.171 9.87576  -2
  -2   3   4 277.171 9.87576   1
  -1   3   4 1392.00 27.4167   1
   0  -3   6 145.107 3.87912  -2
   0   3   4 145.107 3.87912   1
   1   3   4 179.629 5.38663   1
  -2  -3   7 628.896 23.9051  -2
   2   3   4 628.896 23.9051   1
  -3  -3   8 1013.54 18.0712  -2
   3   3   4 1013.54 18.0712   1
   4   3   4 83.8762 5.37829   1
  -5  -3   9 705.238 19.0177  -2
   5   3   4 705.238 19.0177   1
  -6  -3  10 12.9313 10.3920  -2
   6   3   4 12.9313 10.3920   1
   7   3   4 -6.5725 7.56734   1
  -8  -3  11 29.4652 14.9710  -2
   8   3   4 29.4652 14.9710   1
 -11   4   0 174.558 14.1221  -2
 -11   4   4 174.558 14.1221   1
 -10   4   4 3.07604 6.98161   1
   9  -4   1 227.270 15.2827  -2
  -9   4   4 227.270 15.2827   1
   8  -4   2 766.424 21.8808  -2
  -8   4   4 766.424 21.8808   1
  -7   4   4 9.10270 5.14957   1
   6  -4   3 338.627 12.0856  -2
  -6   4   4 338.627 12.0856   1
  -5   4   4 19.2665 3.43491   1
   4  -4   4 11.1947 5.17213  -2
  -4   4   4 11.1947 5.17213   1
   3  -4   5 258.372 9.69719  -2
  -3   4   4 258.372 9.69719   1
  -2   4   4 1747.03 33.6917   1
   1  -4   6 1207.20 25.2912  -2
  -1   4   4 1207.20 25.2912   1
   0  -4   7 934.325 30.4506  -2
   0   4   4 934.325 30.4506   1
   1   4   4 267.729 7.75881   1
  -2  -4   8 1898.23 29.0908  -2
   2   4   4 1898.23 29.0908   1
   3   4   4 28.9683 3.82978   1
  -4  -4   9 170.099 10.6007  -2
   4   4   4 170.099 10.6007   1
  -5  -4  10 500.826 16.8468  -2
   5   4   4 500.826 16.8468   1
   6   4   4 746.419 20.5592   1
 -11   5   4 227.891 14.9468   1
  10  -5   1 16.6531 15.1209  -2
 -10   5   4 16.6531 15.1209   1
   9  -5   2 105.790 11.4835  -2
  -9   5   4 105.790 11.4835   1
  -8   5   4 342.272 14.1406   1
   7  -5   3 35.1452 8.27996  -2
  -7   5   4 35.1452 8.27996   1
   6  -5   4 122.647 13.7427  -2
  -6   5   4 122.647 13.7427   1
  -5   5   4 16.2493 3.31683   1
   4  -5   5 595.782 15.4382  -2
  -4   5   4 595.782 15.4382   1
  -3   5   4 6.73584 3.89895   1
   2  -5   6 201.367 10.7717  -2
  -2   5   4 201.367 10.7717   1
   1  -5   7 763.294 19.3691  -2
  -1   5   4 763.294 19.3691   1
   0   5   4 193.414 8.84359   1
  -1  -5   8 422.681 18.8861  -2
   1   5   4 422.681 18.8861   1
   2   5   4 3.95814 4.11049   1
   3   5   4 153.259 14.1553   1
  -4  -5  10 256.537 18.9871  -2
   4   5   4 256.537 18.9871   1
   5   5   4 7.19337 7.77330   1
  -6  -5  11 156.425 18.5389  -2
   6   5   4 156.425 18.5389   1
  10  -6   2 560.415 30.7231  -2
 -10   6   4 560.415 30.7231   1
  -9   6   4 307.040 22.9249   1
   8  -6   3 382.132 25.5315  -2
  -8   6   4 382.132 25.5315   1
   7  -6   4 522.786 27.7272  -2
  -7   6   4 522.786 27.7272   1
  -6   6   4 66.4156 11.4506   1
   5  -6   5 26.3736 6.57441  -2
  -5   6   4 26.3736 6.57441   1
  -4   6   4 527.055 15.1707   1
  -3   6   4 591.073 16.2754   1
   2  -6   7 424.530 14.1798  -2
  -2   6   4 424.530 14.1798   1
  -1   6   4 43.5253 5.74073   1
   0  -6   8 529.007 15.7568  -2
   0   6   4 529.007 15.7568   1
  -1  -6   9 380.597 18.8931  -2
   1   6   4 380.597 18.8931   1
   2   6   4 254.715 16.8758   1
  -3  -6  10 907.432 34.0739  -2
   3   6   4 907.432 34.0739   1
   4   6   4 288.036 19.3040   1
  -5  -6  11 -7.5684 16.2114  -2
   5   6   4 -7.5684 16.2114   1
  -6  -6  12 36.3551 17.6736  -2
   6   6   4 36.3551 17.6736   1
 -10   7   4 46.0184 14.1692   1
   9  -7   3 246.166 28.2134  -2
  -9   7   4 246.166 28.2134   1
   8  -7   4 266.615 21.9536  -2
  -8   7   4 266.615 21.9536   1
  -7   7   4 779.029 32.6609   1
   6  -7   5 244.581 19.9914  -2
  -6   7   4 244.581 19.9914   1
  -5   7   4 1.00570 4.42882   1
  -4   7   4 430.184 13.6509   1
   3  -7   7 490.827 15.2396  -2
  -3   7   4 490.827 15.2396   1
  -2   7   4 132.798 8.76579   1
   1  -7   8 937.322 23.2969  -2
  -1   7   4 937.322 23.2969   1
   0  -7   9 281.921 13.1387  -2
   0   7   4 281.921 13.1387   1
   1   7   4 89.1881 11.3405   1
  -2  -7  10 39.0287 10.3982  -2
   2   7   4 39.0287 10.3982   1
   3   7   4 -5.7388 7.80949   1
  -4  -7  11 125.399 19.8529  -2
   4   7   4 125.399 19.8529   1
  -5  -7  12 442.969 27.6452  -2
   5   7   4 442.969 27.6452   1
   6   7   4 23.1506 11.0252   1
   9  -8   4 435.218 28.2805  -2
  -9   8   4 435.218 28.2805   1
  -8   8   4 73.0170 13.9870   1
   7  -8   5 103.339 20.3652  -2
  -7   8   4 103.339 20.3652   1
   6  -8   6 1518.11 52.3949  -2
  -6   8   4 1518.11 52.3949   1
  -5   8   4 226.184 17.2987   1
   4  -8   7 82.9161 8.31017  -2
  -4   8   4 82.9161 8.31017   1
  -3   8   4 143.041 9.39188   1
   2  -8   8 552.468 17.8958  -2
  -2   8   4 552.468 17.8958   1
   1  -8   9 411.484 15.3507  -2
  -1   8   4 411.484 15.3507   1
   0   8   4 416.197 21.8333   1
  -1  -8  10 204.838 16.9231  -2
   1   8   4 204.838 16.9231   1
   2   8   4 429.762 23.6428   1
   3   8   4 36.1676 10.2089   1
  -4  -8  12 5.80980 14.4667  -2
   4   8   4 5.80980 14.4667   1
   5   8   4 108.480 16.2128   1
  -9   9   4 98.6587 16.2155   1
   8  -9   5 59.0056 23.5839  -2
  -8   9   4 59.0056 23.5839   1
   7  -9   6 14.2101 17.6810  -2
  -7   9   4 14.2101 17.6810   1
  -6   9   4 83.5608 13.3781   1
   5  -9   7 303.177 21.9657  -2
  -5   9   4 303.177 21.9657   1
   4  -9   8 100.101 15.3656  -2
  -4   9   4 100.101 15.3656   1
  -3   9   4 506.106 16.5302   1
   2  -9   9 47.0124 8.61465  -2
  -2   9   4 47.0124 8.61465   1
  -1   9   4 198.271 16.7044   1
   0  -9  10 290.096 21.1877  -2
   0   9   4 290.096 21.1877   1
  -1  -9  11 -14.075 14.9117  -2
   1   9   4 -14.075 14.9117   1
   2   9   4 21.4113 10.3540   1
  -3  -9  12 659.835 31.3473  -2
   3   9   4 659.835 31.3473   1
   8 -10   6 312.360 26.5821  -2
  -8  10   4 312.360 26.5821   1
  -7  10   4 123.352 17.3967   1
   6 -10   7 213.433 23.0626  -2
  -6  10   4 213.433 23.0626   1
   5 -10   8 31.1611 21.2012  -2
  -5  10   4 31.1611 21.2012   1
  -4  10   4 6.68212 5.36164   1
   3 -10   9 295.195 13.3184  -2
  -3  10   4 295.195 13.3184   1
  -2  10   4 791.936 32.1180   1
   1 -10  10 51.2343 17.1655  -2
  -1  10   4 51.2343 17.1655   1
   0 -10  11 442.831 26.6094  -2
   0  10   4 442.831 26.6094   1
   1  10   4 12.6152 8.73444   1
  -2 -10  12 20.2761 14.6373  -2
   2  10   4 20.2761 14.6373   1
   7 -11   7 415.652 30.5522  -2
  -7  11   4 415.652 30.5522   1
   6 -11   8 64.4211 21.7581  -2
  -6  11   4 64.4211 21.7581   1
  -5  11   4 502.933 27.5336   1
   4 -11   9 111.064 19.3515  -2
  -4  11   4 111.064 19.3515   1
   3 -11  10 18.8569 18.3969  -2
  -3  11   4 18.8569 18.3969   1
  -2  11   4 11.5473 9.76983   1
   1 -11  11 19.4683 14.1830  -2
  -1  11   4 19.4683 14.1830   1
   0  11   4 4.84097 9.90439   1
  -6  12   4 18.6244 12.1591   1
  -3  12   4 89.2498 14.0081   1
   2 -12  11 59.5794 15.0474  -2
  -2  12   4 59.5794 15.0474   1
   0 -14   5 339.923 22.6191   1
   1 -14   4 112.661 17.4726  -2
   1 -14   5 112.661 17.4726   1
   2 -14   5 1.68275 8.94982   1
   3 -14   3 60.4403 21.6949  -2
   3 -14   5 60.4403 21.6949   1
   4 -14   2 409.479 25.9472  -2
   4 -14   5 409.479 25.9472   1
   5 -14   5 28.2841 11.5753   1
  -2 -13   5 -7.4267 18.9164  -2
  -2 -13   5 -7.4267 18.9164   1
  -1 -13   5 33.0787 11.2216   1
   0 -13   4 100.976 19.4651  -2
   0 -13   5 100.976 19.4651   1
   1 -13   5 123.110 14.7213   1
   2 -13   5 61.8028 11.8315   1
   3 -13   2 227.187 18.2908  -2
   3 -13   5 227.187 18.2908   1
   4 -13   5 44.2995 11.5821   1
  -6  13   0 -37.455 22.5724  -2
   6 -13   5 -37.455 22.5724   1
  -3 -12   5 343.191 23.8006  -2
  -3 -12   5 343.191 23.8006   1
  -2 -12   5 293.842 20.4969   1
  -1 -12   4 6.45941 18.8659  -2
  -1 -12   5 6.45941 18.8659   1
   0 -12   3 7.10054 19.4680  -2
   0 -12   5 7.10054 19.4680   1
   1 -12   5 45.0020 10.6250   1
   2 -12   2 576.669 26.3335  -2
   2 -12   5 576.669 26.3335   1
   3 -12   5 18.7350 8.87063   1
   4 -12   1 696.140 32.7689  -2
   4 -12   5 696.140 32.7689   1
  -5  12   0 81.4098 19.7068  -2
   5 -12   5 81.4098 19.7068   1
   6 -12   5 40.6758 12.6935   1
  -7  12   1 132.911 21.7864  -2
   7 -12   5 132.911 21.7864   1
  -4 -11   5 77.0462 12.7530  -2
  -4 -11   5 77.0462 12.7530   1
  -3 -11   5 48.1118 11.0103   1
  -2 -11   4 27.8880 18.4283  -2
  -2 -11   5 27.8880 18.4283   1
  -1 -11   3 1207.43 40.8970  -2
  -1 -11   5 1207.43 40.8970   1
   0 -11   5 117.163 12.7026   1
   1 -11   2 804.130 30.0026  -2
   1 -11   5 804.130 30.0026   1
   2 -11   5 11.2258 7.96302   1
   3 -11   5 85.2126 8.24937   1
  -4  11   0 191.863 18.9380  -2
   4 -11   5 191.863 18.9380   1
   5 -11   5 198.404 18.5881   1
  -6  11   1 23.4119 19.0391  -2
   6 -11   5 23.4119 19.0391   1
  -7  11   2 630.391 35.5918  -2
   7 -11   5 630.391 35.5918   1
   8 -11   5 33.7282 12.7304   1
  -6 -10   5 -2.7050 8.25055   1
  -5 -10   5 221.695 20.8953  -2
  -5 -10   5 221.695 20.8953   1
  -4 -10   5 140.308 14.9129   1
  -3 -10   5 42.2334 10.3088   1
  -2 -10   3 7.55110 13.8128  -2
  -2 -10   5 7.55110 13.8128   1
  -1 -10   5 65.3908 10.1921   1
   0 -10   2 809.070 30.7318  -2
   0 -10   5 809.070 30.7318   1
   1 -10   1 260.146 20.4105  -2
   1 -10   5 260.146 20.4105   1
   2 -10   5 839.799 21.3874   1
  -3  10   0 837.611 30.7788  -2
   3 -10   5 837.611 30.7788   1
   4 -10   5 73.3984 11.6934   1
  -5  10   1 62.0140 19.0059  -2
   5 -10   5 62.0140 19.0059   1
  -6  10   2 27.8795 17.9400  -2
   6 -10   5 27.8795 17.9400   1
   7 -10   5 96.1684 15.4640   1
  -8  10   3 752.714 36.2893  -2
   8 -10   5 752.714 36.2893   1
  -7  -9   5 18.7939 9.79539   1
  -6  -9   5 363.872 26.8194  -2
  -6  -9   5 363.872 26.8194   1
  -5  -9   4 40.3222 20.3777  -2
  -5  -9   5 40.3222 20.3777   1
  -4  -9   5 41.5204 9.95221   1
  -3  -9   3 972.666 33.4624  -2
  -3  -9   5 972.666 33.4624   1
  -2  -9   5 103.913 11.8267   1
  -1  -9   2 114.496 16.4150  -2
  -1  -9   5 114.496 16.4150   1
   0  -9   1 157.182 16.5968  -2
   0  -9   5 157.182 16.5968   1
   1  -9   5 1.72882 4.45522   1
  -2   9   0 31.3207 11.3791  -2
   2  -9   5 31.3207 11.3791   1
   3  -9   5 319.237 17.8596   1
   4  -9   5 430.608 21.9693   1
  -5   9   2 2574.21 74.7392  -2
   5  -9   5 2574.21 74.7392   1
   6  -9   5 30.2113 11.0267   1
  -7   9   3 -1.7780 16.0158  -2
   7  -9   5 -1.7780 16.0158   1
  -8   9   4 53.9437 22.5464  -2
   8  -9   5 53.9437 22.5464   1
   9  -9   5 77.4726 16.8601   1
  -7  -8   5 278.437 25.4668  -2
  -7  -8   5 278.437 25.4668   1
  -6  -8   4 350.639 25.3531  -2
  -6  -8   5 350.639 25.3531   1
  -5  -8   5 -7.8449 7.23600   1
  -4  -8   3 123.221 15.1543  -2
  -4  -8   5 123.221 15.1543   1
  -3  -8   5 480.862 20.7234   1
  -2  -8   5 37.0227 7.64048   1
  -1  -8   1 173.888 15.5708  -2
  -1  -8   5 173.888 15.5708   1
   0  -8   5 1085.36 23.3218   1
  -1   8   0 165.651 11.2401  -2
   1  -8   5 165.651 11.2401   1
   2  -8   5 68.9202 9.42032   1
   3  -8   5 11.9953 7.53112   1
  -4   8   2 280.726 18.0129  -2
   4  -8   5 280.726 18.0129   1
   5  -8   5 57.8601 10.7794   1
  -6   8   3 2524.08 74.5362  -2
   6  -8   5 2524.08 74.5362   1
  -7   8   4 148.526 19.1806  -2
   7  -8   5 148.526 19.1806   1
   8  -8   5 -6.4931 9.03163   1
  -9   8   5 -0.8937 11.5070  -2
   9  -8   5 -0.8937 11.5070   1
  -7  -7   4 56.5741 17.7070  -2
  -7  -7   5 56.5741 17.7070   1
  -6  -7   5 37.0599 10.4712   1
  -5  -7   3 459.697 23.7543  -2
  -5  -7   5 459.697 23.7543   1
  -4  -7   2 605.942 27.1425  -2
  -4  -7   5 605.942 27.1425   1
  -3  -7   5 614.860 23.4438   1
  -2  -7   1 1934.47 51.6800  -2
  -2  -7   5 1934.47 51.6800   1
  -1  -7   5 20.8276 4.20924   1
   0   7   0 -4.9101 8.26419  -2
   0  -7   5 -4.9101 8.26419   1
  -1   7   1 955.229 31.3001  -2
   1  -7   5 955.229 31.3001   1
   2  -7   5 90.7271 9.26737   1
  -3   7   2 763.594 28.1055  -2
   3  -7   5 763.594 28.1055   1
   4  -7   5 48.8452 9.32099   1
   5  -7   5 56.9602 10.7811   1
  -6   7   4 317.313 21.7604  -2
   6  -7   5 317.313 21.7604   1
   7  -7   5 396.002 15.8023   1
  -8   7   5 246.325 23.0439  -2
   8  -7   5 246.325 23.0439   1
  -9   7   6 206.071 26.3754  -2
   9  -7   5 206.071 26.3754   1
  -8  -6   4 279.475 21.5233  -2
  -8  -6   5 279.475 21.5233   1
  -7  -6   5 26.1270 9.05829   1
  -6  -6   3 266.821 22.0184  -2
  -6  -6   5 266.821 22.0184   1
  -5  -6   2 298.729 20.7517  -2
  -5  -6   5 298.729 20.7517   1
  -4  -6   5 166.216 13.2216   1
  -3  -6   1 104.713 11.5809  -2
  -3  -6   5 104.713 11.5809   1
   1  -6   5 342.433 14.8779   1
  -2   6   2 1070.38 34.4447  -2
   2  -6   5 1070.38 34.4447   1
   3  -6   5 55.7802 9.32137   1
   4  -6   5 1668.30 49.7264   1
  -5   6   4 35.0115 12.2383  -2
   5  -6   5 35.0115 12.2383   1
   6  -6   5 321.283 13.6443   1
  -7   6   5 86.5124 18.3556  -2
   7  -6   5 86.5124 18.3556   1
  -8   6   6 277.674 24.0480  -2
   8  -6   5 277.674 24.0480   1
   9  -6   5 79.8971 10.3446   1
  -8  -5   5 35.3217 10.7163   1
  -7  -5   3 440.543 26.8102  -2
  -7  -5   5 440.543 26.8102   1
  -6  -5   2 293.006 19.6923  -2
  -6  -5   5 293.006 19.6923   1
  -5  -5   5 78.8420 9.91825   1
  -4  -5   1 627.566 24.1487  -2
  -4  -5   5 627.566 24.1487   1
   1   5   1 1958.27 35.6026  -2
  -1  -5   5 1958.27 35.6026   1
   0  -5   5 929.764 19.3347   1
   1  -5   5 1052.72 31.1629   1
   2  -5   5 50.5183 7.65927   1
   3  -5   5 17.2549 6.76114   1
  -4   5   4 -0.6032 3.74305  -2
   4  -5   5 -0.6032 3.74305   1
   5  -5   5 1890.05 38.0060   1
   6  -5   5 28.5405 6.10207   1
  -7   5   6 1004.99 26.4688  -2
   7  -5   5 1004.99 26.4688   1
   8  -5   5 33.4246 7.45575   1
  -9   5   7 250.463 16.4996  -2
   9  -5   5 250.463 16.4996   1
  -9  -4   5 90.6156 14.6841   1
  -8  -4   5 -1.0089 8.32588   1
  -7  -4   2 164.259 15.7322  -2
  -7  -4   5 164.259 15.7322   1
  -6  -4   5 381.644 18.8416   1
  -5  -4   1 116.332 15.7518  -2
  -5  -4   5 116.332 15.7518   1
   4   4   0 465.487 21.1919  -2
  -4  -4   5 465.487 21.1919   1
  -3  -4   5 49.0388 4.01778   1
   2   4   1 965.452 19.2279  -2
  -2  -4   5 965.452 19.2279   1
   1   4   2 1506.24 41.9840  -2
  -1  -4   5 1506.24 41.9840   1
   0  -4   5 218.895 10.8034   1
  -1   4   3 583.294 21.2783  -2
   1  -4   5 583.294 21.2783   1
   2  -4   5 2493.99 65.7615   1
   5  -4   5 18.2353 5.55257   1
  -6   4   6 574.178 17.8873  -2
   6  -4   5 574.178 17.8873   1
   7  -4   5 105.214 9.19851   1
  -8   4   7 812.662 24.6674  -2
   8  -4   5 812.662 24.6674   1
  -9   4   8 19.6399 14.7634  -2
   9  -4   5 19.6399 14.7634   1
  10  -4   5 86.5017 15.2555   1
  -9  -3   5 296.439 20.8086   1
  -8  -3   2 6.07788 12.8633  -2
  -8  -3   5 6.07788 12.8633   1
  -7  -3   5 7.46589 8.39863   1
  -6  -3   1 949.006 33.9824  -2
  -6  -3   5 949.006 33.9824   1
   5   3   0 769.325 18.2040  -2
  -5  -3   5 769.325 18.2040   1
  -4  -3   5 49.3002 4.32093   1
   3   3   1 1068.86 21.2271  -2
  -3  -3   5 1068.86 21.2271   1
   2   3   2 386.991 15.3422  -2
  -2  -3   5 386.991 15.3422   1
  -1  -3   5 401.034 10.4770   1
   0   3   3 427.516 16.3368  -2
   0  -3   5 427.516 16.3368   1
   1  -3   5 430.995 16.1700   1
   2  -3   5 88.3778 7.58191   1
   3  -3   5 1439.97 41.7305   1
   4  -3   5 124.331 8.02286   1
  -5   3   6 1096.32 19.6781  -2
   5  -3   5 1096.32 19.6781   1
   6  -3   5 -2.5916 4.52903   1
  -7   3   7 1146.23 28.7632  -2
   7  -3   5 1146.23 28.7632   1
  -8   3   8 139.668 14.1038  -2
   8  -3   5 139.668 14.1038   1
   9  -3   5 67.7261 9.17841   1
 -10  -2   5 3.44249 9.62088   1
  -9  -2   2 66.4861 18.1497  -2
  -9  -2   5 66.4861 18.1497   1
  -8  -2   5 423.014 22.5634   1
  -7  -2   5 205.679 16.2119   1
   6   2   0 1855.12 35.8751  -2
  -6  -2   5 1855.12 35.8751   1
  -5  -2   5 47.7463 5.04589   1
   4   2   1 992.461 20.7365  -2
  -4  -2   5 992.461 20.7365   1
   3   2   2 830.878 25.1029  -2
  -3  -2   5 830.878 25.1029   1
  -2  -2   5 130.440 5.62099   1
   1   2   3 405.851 9.88815  -2
  -1  -2   5 405.851 9.88815   1
   0  -2   5 1688.75 45.9482   1
   1  -2   5 110.388 6.18885   1
  -2   2   5 406.361 17.8306  -2
   2  -2   5 406.361 17.8306   1
   3  -2   5 202.185 6.61937   1
  -4   2   6 1225.05 21.0299  -2
   4  -2   5 1225.05 21.0299   1
   5  -2   5 16.5938 3.94420   1
   6  -2   5 1401.62 30.4561   1
  -7   2   8 45.6416 9.91672  -2
   7  -2   5 45.6416 9.91672   1
   8  -2   5 9.41728 6.43441   1
  -9   2   9 109.705 21.1974  -2
   9  -2   5 109.705 21.1974   1
 -10  -1   2 31.5719 21.2644  -2
 -10  -1   5 31.5719 21.2644   1
  -9  -1   1 672.795 32.2306  -2
  -9  -1   5 672.795 32.2306   1
  -8  -1   5 286.575 18.8119   1
   7   1   0 470.737 14.1718  -2
  -7  -1   5 470.737 14.1718   1
  -6  -1   5 37.1674 5.41779   1
   5   1   1 2638.01 66.5341  -2
  -5  -1   5 2638.01 66.5341   1
   4   1   2 1745.34 32.6631  -2
  -4  -1   5 1745.34 32.6631   1
  -3  -1   5 668.008 14.4232   1
   1   1   4 1194.08 34.8935  -2
  -1  -1   5 1194.08 34.8935   1
   0  -1   5 137.573 6.35266   1
  -1   1   5 4384.41 76.7501  -2
   1  -1   5 4384.41 76.7501   1
   2  -1   5 150.475 5.39568   1
  -3   1   6 1196.83 20.3577  -2
   3  -1   5 1196.83 20.3577   1
  -4   1   7 385.146 11.2697  -2
   4  -1   5 385.146 11.2697   1
   5  -1   5 15.1443 3.73166   1
  -6   1   8 56.8892 5.43253  -2
   6  -1   5 56.8892 5.43253   1
   7  -1   5 195.924 10.9048   1
  -8   1   9 257.281 22.9058  -2
   8  -1   5 257.281 22.9058   1
  -9   1  10 980.063 39.7918  -2
   9  -1   5 980.063 39.7918   1
 -10   0   1 235.167 23.4138  -2
 -10   0   5 235.167 23.4138   1
  -9   0   5 50.2100 10.2124   1
   8   0   0 1462.45 31.8590  -2
  -8   0   5 1462.45 31.8590   1
  -7   0   5 -3.4923 4.48912   1
  -6   0   5 27.4022 5.24662   1
   5   0   2 1045.08 22.4294  -2
  -5   0   5 1045.08 22.4294   1
  -4   0   5 687.606 15.3369   1
   3   0   3 515.204 12.3575  -2
  -3   0   5 515.204 12.3575   1
   2   0   4 3875.07 65.4656  -2
  -2   0   5 3875.07 65.4656   1
  -1   0   5 48.9839 2.92365   1
   0   0   5 28.8003 4.34195  -2
   0   0   5 28.8003 4.34195   1
   1   0   5 523.277 13.7761   1
  -2   0   6 1669.14 25.8208  -2
   2   0   5 1669.14 25.8208   1
  -3   0   7 62.2177 6.70846  -2
   3   0   5 62.2177 6.70846   1
   4   0   5 759.923 14.8276   1
  -5   0   8 222.974 8.88204  -2
   5   0   5 222.974 8.88204   1
  -6   0   9 541.500 28.1218  -2
   6   0   5 541.500 28.1218   1
  -7   0   9 92.5501 20.2149  -2
   7   0   5 92.5501 20.2149   1
  -8   0  10 33.5034 14.5575  -2
   8   0   5 33.5034 14.5575   1
   9   0   5 4.72846 9.66373   1
 -10   1   5 219.548 18.2679   1
  -9   1   0 104.145 17.2401  -2
  -9   1   5 104.145 17.2401   1
   8  -1   1 10.8392 11.0993  -2
  -8   1   5 10.8392 11.0993   1
  -7   1   5 667.524 17.7838   1
   6  -1   2 892.557 20.4935  -2
  -6   1   5 892.557 20.4935   1
  -5   1   5 338.997 10.7392   1
  -4   1   5 1021.38 20.6948   1
   3  -1   4 399.039 10.5985  -2
  -3   1   5 399.039 10.5985   1
  -2   1   5 724.162 12.1495   1
   1  -1   5 4253.49 58.6763  -2
  -1   1   5 4253.49 58.6763   1
  -1  -1   6 1561.18 45.2407  -2
   1   1   5 1561.18 45.2407   1
  -2  -1   7 485.255 10.5438  -2
   2   1   5 485.255 10.5438   1
   3   1   5 256.550 7.76124   1
  -4  -1   8 197.883 9.03651  -2
   4   1   5 197.883 9.03651   1
  -5  -1   9 399.095 15.8668  -2
   5   1   5 399.095 15.8668   1
   6   1   5 23.2835 4.63681   1
  -7  -1  10 996.217 34.5331  -2
   7   1   5 996.217 34.5331   1
   8   1   5 57.7187 11.6872   1
  -9  -1  11 18.9802 20.0690  -2
   9   1   5 18.9802 20.0690   1
 -11   2   5 30.2628 11.8442   1
 -10   2   0 309.743 24.6990  -2
 -10   2   5 309.743 24.6990   1
   9  -2   1 164.405 13.0134  -2
  -9   2   5 164.405 13.0134   1
  -8   2   5 159.995 10.1227   1
   7  -2   2 44.0296 7.52047  -2
  -7   2   5 44.0296 7.52047   1
  -6   2   5 228.769 9.91324   1
  -5   2   5 209.617 8.71352   1
   4  -2   4 1700.34 31.7077  -2
  -4   2   5 1700.34 31.7077   1
  -3   2   5 97.6297 4.18452   1
   2  -2   5 310.300 6.75294  -2
  -2   2   5 310.300 6.75294   1
   1  -2   6 2588.49 68.7100  -2
  -1   2   5 2588.49 68.7100   1
   0   2   5 1257.29 36.9799   1
  -1  -2   7 172.434 5.37134  -2
   1   2   5 172.434 5.37134   1
   2   2   5 1736.65 26.8821   1
  -3  -2   8 760.856 15.6783  -2
   3   2   5 760.856 15.6783   1
  -4  -2   9 986.566 18.7917  -2
   4   2   5 986.566 18.7917   1
   5   2   5 319.663 9.99782   1
  -6  -2  10 113.725 9.83957  -2
   6   2   5 113.725 9.83957   1
   7   2   5 1.57709 7.75701   1
  -8  -2  11 495.493 28.8601  -2
   8   2   5 495.493 28.8601   1
 -11   3   0 104.193 25.7698  -2
 -11   3   5 104.193 25.7698   1
  10  -3   1 132.995 12.7883  -2
 -10   3   5 132.995 12.7883   1
  -9   3   5 342.321 14.4332   1
   8  -3   2 166.385 11.4975  -2
  -8   3   5 166.385 11.4975   1
   7  -3   3 151.673 15.6688  -2
  -7   3   5 151.673 15.6688   1
  -6   3   5 11.6030 4.59326   1
   5  -3   4 537.027 11.0249  -2
  -5   3   5 537.027 11.0249   1
  -4   3   5 4.15590 1.44426   1
   3  -3   5 2741.69 39.2332  -2
  -3   3   5 2741.69 39.2332   1
   2  -3   6 1003.51 22.3320  -2
  -2   3   5 1003.51 22.3320   1
  -1   3   5 406.197 12.0080   1
   1   3   5 94.2769 4.34747   1
  -2  -3   8 820.479 29.5415  -2
   2   3   5 820.479 29.5415   1
  -3  -3   9 398.696 10.6124  -2
   3   3   5 398.696 10.6124   1
   4   3   5 501.588 12.0192   1
  -5  -3  10 1178.28 26.9455  -2
   5   3   5 1178.28 26.9455   1
  -6  -3  11 28.6279 16.6989  -2
   6   3   5 28.6279 16.6989   1
  11  -4   1 304.686 15.9643  -2
 -11   4   5 304.686 15.9643   1
 -10   4   5 14.0327 7.32175   1
   9  -4   2 115.426 11.9724  -2
  -9   4   5 115.426 11.9724   1
   8  -4   3 815.100 21.7140  -2
  -8   4   5 815.100 21.7140   1
  -7   4   5 183.282 10.3810   1
   6  -4   4 366.268 12.2372  -2
  -6   4   5 366.268 12.2372   1
  -5   4   5 98.0775 5.17972   1
   4  -4   5 727.290 20.6061  -2
  -4   4   5 727.290 20.6061   1
   3  -4   6 1508.57 30.9133  -2
  -3   4   5 1508.57 30.9133   1
  -2   4   5 452.944 13.1457   1
   1  -4   7 57.5538 8.32386  -2
  -1   4   5 57.5538 8.32386   1
   0  -4   8 634.121 25.9338  -2
   0   4   5 634.121 25.9338   1
   1   4   5 130.321 12.0491   1
  -2  -4   9 1398.60 29.8892  -2
   2   4   5 1398.60 29.8892   1
   3   4   5 203.552 9.93846   1
  -4  -4  10 35.9713 14.4054  -2
   4   4   5 35.9713 14.4054   1
  -5  -4  11 52.1508 15.3800  -2
   5   4   5 52.1508 15.3800   1
   6   4   5 426.656 23.4621   1
 -11   5   5 402.319 26.6634   1
  10  -5   2 408.418 31.0004  -2
 -10   5   5 408.418 31.0004   1
   9  -5   3 106.760 18.7576  -2
  -9   5   5 106.760 18.7576   1
  -8   5   5 393.779 23.3088   1
   7  -5   4 784.007 32.6453  -2
  -7   5   5 784.007 32.6453   1
  -6   5   5 81.2759 11.4825   1
  -5   5   5 3493.44 63.7739   1
   4  -5   6 824.151 20.0169  -2
  -4   5   5 824.151 20.0169   1
  -3   5   5 220.316 9.72094   1
   2  -5   7 594.177 17.1582  -2
  -2   5   5 594.177 17.1582   1
   1  -5   8 387.143 14.6897  -2
  -1   5   5 387.143 14.6897   1
   0   5   5 9.10849 4.67016   1
  -1  -5   9 555.154 15.9285  -2
   1   5   5 555.154 15.9285   1
   2   5   5 299.845 11.8465   1
  -3  -5  10 612.711 28.2533  -2
   3   5   5 612.711 28.2533   1
  -4  -5  11 84.8433 15.0127  -2
   4   5   5 84.8433 15.0127   1
   5   5   5 16.7076 9.30054   1
  -6  -5  12 5.46553 15.8497  -2
   6   5   5 5.46553 15.8497   1
  10  -6   3 636.753 32.9462  -2
 -10   6   5 636.753 32.9462   1
  -9   6   5 345.983 24.1288   1
   8  -6   4 344.336 24.6622  -2
  -8   6   5 344.336 24.6622   1
   7  -6   5 122.465 19.6805  -2
  -7   6   5 122.465 19.6805   1
  -6   6   5 0.93747 7.29678   1
   5  -6   6 626.749 17.2209  -2
  -5   6   5 626.749 17.2209   1
  -4   6   5 1315.21 28.8491   1
  -3   6   5 335.941 12.1990   1
   2  -6   8 896.708 22.3768  -2
  -2   6   5 896.708 22.3768   1
  -1   6   5 6.42957 4.85932   1
   0  -6   9 794.299 20.6589  -2
   0   6   5 794.299 20.6589   1
  -1  -6  10 64.3686 14.7388  -2
   1   6   5 64.3686 14.7388   1
   2   6   5 420.918 22.2635   1
  -3  -6  11 136.941 15.9550  -2
   3   6   5 136.941 15.9550   1
   4   6   5 559.379 27.5320   1
  -5  -6  12 109.096 20.4100  -2
   5   6   5 109.096 20.4100   1
  -6  -6  13 -10.410 18.8573  -2
   6   6   5 -10.410 18.8573   1
 -10   7   5 92.6566 15.6729   1
   9  -7   4 452.288 31.0916  -2
  -9   7   5 452.288 31.0916   1
   8  -7   5 226.478 21.6119  -2
  -8   7   5 226.478 21.6119   1
  -7   7   5 553.811 27.8740   1
   6  -7   6 75.6814 18.1500  -2
  -6   7   5 75.6814 18.1500   1
  -5   7   5 3.47357 7.70806   1
  -4   7   5 111.364 8.44672   1
   3  -7   8 385.815 14.0095  -2
  -3   7   5 385.815 14.0095   1
  -2   7   5 33.8171 5.97653   1
   1  -7   9 1660.54 35.7830  -2
  -1   7   5 1660.54 35.7830   1
   0  -7  10 486.357 17.2491  -2
   0   7   5 486.357 17.2491   1
   1   7   5 99.0843 12.6524   1
  -2  -7  11 39.1059 12.4198  -2
   2   7   5 39.1059 12.4198   1
   3   7   5 17.2815 9.43509   1
  -4  -7  12 79.1177 20.3328  -2
   4   7   5 79.1177 20.3328   1
  -5  -7  13 96.2824 20.0967  -2
   5   7   5 96.2824 20.0967   1
   9  -8   5 6.01095 14.6957  -2
  -9   8   5 6.01095 14.6957   1
  -8   8   5 14.7375 10.0361   1
   7  -8   6 67.4781 19.6729  -2
  -7   8   5 67.4781 19.6729   1
   6  -8   7 171.170 21.6422  -2
  -6   8   5 171.170 21.6422   1
  -5   8   5 155.246 16.1345   1
   4  -8   8 1025.03 25.2059  -2
  -4   8   5 1025.03 25.2059   1
  -3   8   5 30.4242 6.23909   1
   2  -8   9 544.171 18.6940  -2
  -2   8   5 544.171 18.6940   1
   1  -8  10 308.870 14.3040  -2
  -1   8   5 308.870 14.3040   1
   0   8   5 146.880 14.7575   1
  -1  -8  11 142.118 17.1722  -2
   1   8   5 142.118 17.1722   1
  -2  -8  12 432.124 27.6232  -2
   2   8   5 432.124 27.6232   1
   3   8   5 45.4489 12.2638   1
  -4  -8  13 27.9194 17.4323  -2
   4   8   5 27.9194 17.4323   1
   8  -9   6 -22.509 22.4634  -2
  -8   9   5 -22.509 22.4634   1
   7  -9   7 302.295 25.9316  -2
  -7   9   5 302.295 25.9316   1
  -6   9   5 28.1665 11.4875   1
   5  -9   8 182.317 19.7778  -2
  -5   9   5 182.317 19.7778   1
   4  -9   9 103.063 13.2480  -2
  -4   9   5 103.063 13.2480   1
   3  -9   9 518.227 28.5527  -2
  -3   9   5 518.227 28.5527   1
   2  -9  10 745.479 21.6037  -2
  -2   9   5 745.479 21.6037   1
  -1   9   5 228.752 17.4328   1
   0  -9  11 10.3356 15.2058  -2
   0   9   5 10.3356 15.2058   1
  -1  -9  12 92.2448 19.0517  -2
   1   9   5 92.2448 19.0517   1
   2   9   5 38.3942 11.9060   1
  -7  10   5 93.0965 16.4677   1
   6 -10   8 590.275 32.3790  -2
  -6  10   5 590.275 32.3790   1
   5 -10   9 126.117 22.0236  -2
  -5  10   5 126.117 22.0236   1
  -4  10   5 7.69723 6.52239   1
   3 -10  10 118.892 10.3398  -2
  -3  10   5 118.892 10.3398   1
  -2  10   5 181.367 17.3161   1
   1 -10  11 190.076 22.0929  -2
  -1  10   5 190.076 22.0929   1
   0 -10  12 414.960 27.4200  -2
   0  10   5 414.960 27.4200   1
   1  10   5 -3.3583 8.70126   1
   6 -11   9 61.1039 21.0400  -2
  -6  11   5 61.1039 21.0400   1
  -5  11   5 125.684 17.0228   1
   3 -11  11 85.1512 21.5663  -2
  -3  11   5 85.1512 21.5663   1
   2 -11  11 74.1557 19.7996  -2
  -2  11   5 74.1557 19.7996   1
   1 -11  12 136.506 18.6437  -2
  -1  11   5 136.506 18.6437   1
  -3  12   5 42.8342 12.0954   1
   1 -14   3 117.082 15.1890  -2
   1 -14   6 117.082 15.1890   1
   2 -14   6 134.255 16.4029   1
   3 -14   2 51.5323 22.9770  -2
   3 -14   6 51.5323 22.9770   1
  -1 -13   6 -11.679 9.07706   1
   0 -13   3 269.668 22.8801  -2
   0 -13   6 269.668 22.8801   1
   1 -13   2 97.1953 24.0190  -2
   1 -13   6 97.1953 24.0190   1
   2 -13   6 186.209 17.6360   1
   3 -13   1 292.302 20.7757  -2
   3 -13   6 292.302 20.7757   1
   4 -13   6 146.530 16.2787   1
  -6  13   1 -0.1334 21.7317  -2
   6 -13   6 -0.1334 21.7317   1
  -3 -12   4 25.7880 17.4131  -2
  -3 -12   6 25.7880 17.4131   1
  -2 -12   6 50.0520 12.0258   1
  -1 -12   3 190.133 21.6570  -2
  -1 -12   6 190.133 21.6570   1
   0 -12   2 385.754 26.2288  -2
   0 -12   6 385.754 26.2288   1
   1 -12   6 34.9836 10.1155   1
   2 -12   1 51.7520 10.6003  -2
   2 -12   6 51.7520 10.6003   1
   3 -12   6 7.43389 9.14799   1
  -4  12   0 185.348 22.7624  -2
   4 -12   6 185.348 22.7624   1
  -5  12   1 95.3477 21.4237  -2
   5 -12   6 95.3477 21.4237   1
   6 -12   6 202.722 19.8061   1
  -4 -11   4 50.3579 11.7165  -2
  -4 -11   6 50.3579 11.7165   1
  -3 -11   6 54.3963 11.2969   1
  -2 -11   3 152.977 21.7718  -2
  -2 -11   6 152.977 21.7718   1
  -1 -11   2 25.3041 18.2255  -2
  -1 -11   6 25.3041 18.2255   1
   0 -11   6 62.1163 10.8946   1
   1 -11   1 173.732 15.8866  -2
   1 -11   6 173.732 15.8866   1
   2 -11   6 29.5740 8.97593   1
   3 -11   6 19.7089 9.26891   1
  -4  11   1 551.054 27.6560  -2
   4 -11   6 551.054 27.6560   1
   5 -11   6 -12.860 8.81506   1
  -6  11   2 17.0031 19.3144  -2
   6 -11   6 17.0031 19.3144   1
  -7  11   3 396.980 30.3721  -2
   7 -11   6 396.980 30.3721   1
  -5 -10   4 85.2402 18.1882  -2
  -5 -10   6 85.2402 18.1882   1
  -4 -10   6 213.681 18.6262   1
  -3 -10   6 -4.1863 8.00117   1
  -2 -10   2 130.542 17.1978  -2
  -2 -10   6 130.542 17.1978   1
  -1 -10   6 8.42680 8.12187   1
   0 -10   1 287.341 20.4006  -2
   0 -10   6 287.341 20.4006   1
  -1  10   0 74.4078 17.6704  -2
   1 -10   6 74.4078 17.6704   1
   2 -10   6 292.212 12.9556   1
  -3  10   1 549.708 24.5935  -2
   3 -10   6 549.708 24.5935   1
   4 -10   6 178.976 16.7231   1
  -5  10   2 56.7182 18.7625  -2
   5 -10   6 56.7182 18.7625   1
  -6  10   3 51.6977 19.1614  -2
   6 -10   6 51.6977 19.1614   1
   7 -10   6 94.2262 16.0012   1
  -8  10   4 247.287 24.2639  -2
   8 -10   6 247.287 24.2639   1
  -6  -9   4 44.0940 19.3148  -2
  -6  -9   6 44.0940 19.3148   1
  -5  -9   3 138.717 22.9831  -2
  -5  -9   6 138.717 22.9831   1
  -4  -9   6 153.340 14.2957   1
  -3  -9   2 579.067 25.0978  -2
  -3  -9   6 579.067 25.0978   1
  -2  -9   6 273.222 17.5382   1
  -1  -9   1 322.644 21.0726  -2
  -1  -9   6 322.644 21.0726   1
   0   9   0 6.45747 14.6272  -2
   0  -9   6 6.45747 14.6272   1
   1  -9   6 332.960 12.4133   1
  -2   9   1 395.558 20.2385  -2
   2  -9   6 395.558 20.2385   1
   3  -9   6 31.0446 8.34802   1
   4  -9   6 104.534 13.1797   1
  -5   9   3 1418.16 48.3112  -2
   5  -9   6 1418.16 48.3112   1
   6  -9   6 54.4795 12.7815   1
  -7   9   4 29.6528 18.9476  -2
   7  -9   6 29.6528 18.9476   1
  -8   9   5 -17.553 21.8485  -2
   8  -9   6 -17.553 21.8485   1
  -7  -8   4 77.1161 21.9118  -2
  -7  -8   6 77.1161 21.9118   1
  -6  -8   3 430.766 27.0622  -2
  -6  -8   6 430.766 27.0622   1
  -5  -8   6 80.7600 11.4156   1
  -4  -8   2 333.081 19.5062  -2
  -4  -8   6 333.081 19.5062   1
  -3  -8   6 220.486 16.0680   1
  -2  -8   6 125.241 12.0379   1
   1   8   0 202.805 16.2137  -2
  -1  -8   6 202.805 16.2137   1
   0  -8   6 882.154 20.4300   1
  -1   8   1 553.546 16.9157  -2
   1  -8   6 553.546 16.9157   1
   2  -8   6 243.646 15.4263   1
   3  -8   6 92.6389 11.6135   1
  -4   8   3 201.590 16.8908  -2
   4  -8   6 201.590 16.8908   1
   5  -8   6 246.031 17.6284   1
  -6   8   4 1050.80 40.1759  -2
   6  -8   6 1050.80 40.1759   1
  -7   8   5 83.1627 19.1305  -2
   7  -8   6 83.1627 19.1305   1
   8  -8   6 319.663 24.8438   1
  -7  -7   3 247.227 21.9148  -2
  -7  -7   6 247.227 21.9148   1
  -6  -7   6 121.019 14.3818   1
  -5  -7   2 290.254 19.9716  -2
  -5  -7   6 290.254 19.9716   1
  -4  -7   1 1140.40 37.9666  -2
  -4  -7   6 1140.40 37.9666   1
  -3  -7   6 193.637 14.1478   1
   2   7   0 214.625 13.3951  -2
  -2  -7   6 214.625 13.3951   1
  -1  -7   6 12.1616 4.52223   1
  -1   7   2 320.249 19.9943  -2
   1  -7   6 320.249 19.9943   1
   2  -7   6 49.1760 8.31973   1
  -3   7   3 1661.38 50.2206  -2
   3  -7   6 1661.38 50.2206   1
   4  -7   6 100.837 12.6422   1
   5  -7   6 24.9507 9.98003   1
  -6   7   5 59.4015 17.2913  -2
   6  -7   6 59.4015 17.2913   1
   7  -7   6 70.1334 12.5961   1
  -8   7   6 1.05920 16.8671  -2
   8  -7   6 1.05920 16.8671   1
  -9   7   7 215.638 26.2516  -2
   9  -7   6 215.638 26.2516   1
  -8  -6   3 325.589 22.5903  -2
  -8  -6   6 325.589 22.5903   1
  -7  -6   6 1.05126 8.74236   1
  -6  -6   2 401.351 23.6678  -2
  -6  -6   6 401.351 23.6678   1
  -5  -6   1 226.371 19.5137  -2
  -5  -6   6 226.371 19.5137   1
  -4  -6   6 12.7354 7.16516   1
   3   6   0 73.4715 11.1529  -2
  -3  -6   6 73.4715 11.1529   1
   2   6   1 1812.18 48.1764  -2
  -2  -6   6 1812.18 48.1764   1
   1  -6   6 568.417 21.1408   1
  -2   6   3 465.704 21.9102  -2
   2  -6   6 465.704 21.9102   1
   3  -6   6 47.6494 9.08054   1
   4  -6   6 262.417 17.0373   1
  -5   6   5 944.833 34.3344  -2
   5  -6   6 944.833 34.3344   1
   6  -6   6 464.899 16.2861   1
  -7   6   6 17.1787 18.7507  -2
   7  -6   6 17.1787 18.7507   1
  -8   6   7 146.486 23.6561  -2
   8  -6   6 146.486 23.6561   1
   9  -6   6 50.5187 9.60677   1
  -8  -5   6 3.94405 9.99209   1
  -7  -5   2 196.649 22.4320  -2
  -7  -5   6 196.649 22.4320   1
  -6  -5   1 103.731 17.3792  -2
  -6  -5   6 103.731 17.3792   1
  -5  -5   6 917.806 31.1985   1
   4   5   0 134.433 15.0320  -2
  -4  -5   6 134.433 15.0320   1
  -3  -5   6 319.304 9.61972   1
   2   5   1 433.527 17.2740  -2
  -2  -5   6 433.527 17.2740   1
   1   5   2 516.565 13.4705  -2
  -1  -5   6 516.565 13.4705   1
   0  -5   6 664.057 15.9506   1
  -1   5   3 1485.74 43.4637  -2
   1  -5   6 1485.74 43.4637   1
  -2   5   4 140.495 16.6848  -2
   2  -5   6 140.495 16.6848   1
   3  -5   6 150.156 12.8142   1
  -4   5   5 841.839 31.0557  -2
   4  -5   6 841.839 31.0557   1
   5  -5   6 121.889 9.16958   1
   6  -5   6 210.209 12.0447   1
  -7   5   7 947.471 37.7271  -2
   7  -5   6 947.471 37.7271   1
   8  -5   6 46.4930 8.45106   1
  -9   5   8 106.399 14.7137  -2
   9  -5   6 106.399 14.7137   1
  -9  -4   6 -16.452 9.63889   1
  -8  -4   6 2.31445 9.37232   1
  -7  -4   1 232.854 17.3250  -2
  -7  -4   6 232.854 17.3250   1
  -6  -4   6 232.292 16.7780   1
   5   4   0 139.066 16.0768  -2
  -5  -4   6 139.066 16.0768   1
   4   4   1 940.182 20.8484  -2
  -4  -4   6 940.182 20.8484   1
  -3  -4   6 239.259 8.21882   1
   2   4   2 1140.25 22.6731  -2
  -2  -4   6 1140.25 22.6731   1
   1   4   3 1682.59 47.6399  -2
  -1  -4   6 1682.59 47.6399   1
   0  -4   6 2.55407 5.05691   1
  -1   4   4 1010.47 32.2794  -2
   1  -4   6 1010.47 32.2794   1
   2  -4   6 1517.86 43.7322   1
  -3   4   5 -7.1477 3.58994  -2
   3  -4   6 -7.1477 3.58994   1
   4  -4   6 1023.97 23.7249   1
   5  -4   6 813.551 20.7292   1
  -6   4   7 1299.96 30.0278  -2
   6  -4   6 1299.96 30.0278   1
   7  -4   6 268.766 13.7057   1
  -8   4   8 25.2735 13.4639  -2
   8  -4   6 25.2735 13.4639   1
  -9   4   9 21.1830 15.5232  -2
   9  -4   6 21.1830 15.5232   1
  -9  -3   6 106.355 14.8603   1
  -8  -3   1 159.837 16.7829  -2
  -8  -3   6 159.837 16.7829   1
  -7  -3   6 460.112 22.5813   1
   6   3   0 125.687 18.3800  -2
  -6  -3   6 125.687 18.3800   1
   5   3   1 180.750 10.0224  -2
  -5  -3   6 180.750 10.0224   1
  -4  -3   6 106.649 6.27173   1
   3   3   2 735.840 16.6851  -2
  -3  -3   6 735.840 16.6851   1
   2   3   3 1405.95 39.8973  -2
  -2  -3   6 1405.95 39.8973   1
   1   3   3 2202.81 58.9858  -2
  -1  -3   6 2202.81 58.9858   1
   0   3   4 192.037 13.0352  -2
   0  -3   6 192.037 13.0352   1
   1  -3   6 1079.70 32.6119   1
  -2   3   5 -3.2424 3.81291  -2
   2  -3   6 -3.2424 3.81291   1
   3  -3   6 130.627 10.0479   1
   4  -3   6 71.3895 5.35379   1
  -5   3   7 1008.81 19.0110  -2
   5  -3   6 1008.81 19.0110   1
   6  -3   6 48.0568 7.21231   1
  -7   3   8 1204.87 30.6385  -2
   7  -3   6 1204.87 30.6385   1
  -8   3   9 203.746 15.7259  -2
   8  -3   6 203.746 15.7259   1
   9  -3   6 13.5209 7.83478   1
 -10  -2   6 15.0456 12.0268   1
  -9  -2   1 229.526 21.4549  -2
  -9  -2   6 229.526 21.4549   1
  -8  -2   6 2.41843 8.59351   1
  -7  -2   6 302.542 18.5940   1
   6   2   1 2161.53 41.0102  -2
  -6  -2   6 2161.53 41.0102   1
  -5  -2   6 59.3252 5.59212   1
   4   2   2 465.682 13.2757  -2
  -4  -2   6 465.682 13.2757   1
   3   2   3 1404.56 27.3714  -2
  -3  -2   6 1404.56 27.3714   1
  -2  -2   6 1290.52 24.8076   1
   1   2   4 191.788 6.99772  -2
  -1  -2   6 191.788 6.99772   1
   0  -2   6 2189.42 59.6260   1
  -2   2   6 2107.30 58.5736  -2
   2  -2   6 2107.30 58.5736   1
   3  -2   6 70.2629 5.01935   1
  -4   2   7 696.280 14.9247  -2
   4  -2   6 696.280 14.9247   1
   5  -2   6 165.568 7.44159   1
   6  -2   6 369.801 14.0317   1
  -7   2   9 531.282 18.5191  -2
   7  -2   6 531.282 18.5191   1
   8  -2   6 597.288 19.8510   1
  -9   2  10 44.4989 20.4009  -2
   9  -2   6 44.4989 20.4009   1
 -10  -1   1 52.3092 20.6799  -2
 -10  -1   6 52.3092 20.6799   1
   9   1   0 475.008 28.6892  -2
  -9  -1   6 475.008 28.6892   1
  -8  -1   6 341.394 20.0956   1
   7   1   1 43.2951 6.64708  -2
  -7  -1   6 43.2951 6.64708   1
  -6  -1   6 144.147 8.67914   1
   5   1   2 1457.08 29.7021  -2
  -5  -1   6 1457.08 29.7021   1
   4   1   3 879.997 19.5395  -2
  -4  -1   6 879.997 19.5395   1
  -3  -1   6 1737.27 32.0434   1
   2   1   4 613.878 13.8523  -2
  -2  -1   6 613.878 13.8523   1
   1   1   5 1294.27 38.8667  -2
  -1  -1   6 1294.27 38.8667   1
   0  -1   6 917.602 28.1470   1
  -1   1   6 1031.03 22.8064  -2
   1  -1   6 1031.03 22.8064   1
   2  -1   6 263.357 7.51677   1
  -3   1   7 650.481 14.1057  -2
   3  -1   6 650.481 14.1057   1
  -4   1   8 172.623 9.78779  -2
   4  -1   6 172.623 9.78779   1
   5  -1   6 324.684 9.76223   1
  -6   1   9 48.5078 5.58819  -2
   6  -1   6 48.5078 5.58819   1
   7  -1   6 93.2490 8.54465   1
  -8   1  10 100.209 19.8622  -2
   8  -1   6 100.209 19.8622   1
  -9   1  11 807.580 36.5612  -2
   9  -1   6 807.580 36.5612   1
  10   0   0 54.8786 19.3048  -2
 -10   0   6 54.8786 19.3048   1
  -9   0   6 34.3392 10.5310   1
   8   0   1 736.912 20.1569  -2
  -8   0   6 736.912 20.1569   1
  -7   0   6 12.3243 5.16511   1
  -6   0   6 -2.9726 4.22727   1
   5   0   3 1256.32 25.9269  -2
  -5   0   6 1256.32 25.9269   1
  -4   0   6 75.8789 5.52873   1
   3   0   4 511.826 12.9314  -2
  -3   0   6 511.826 12.9314   1
   2   0   5 2132.03 38.1606  -2
  -2   0   6 2132.03 38.1606   1
  -1   0   6 827.688 16.4663   1
   0   0   6 129.367 8.31290  -2
   0   0   6 129.367 8.31290   1
   1   0   6 1147.37 24.7626   1
  -2   0   7 1350.47 29.1696  -2
   2   0   6 1350.47 29.1696   1
  -3   0   8 150.654 8.55454  -2
   3   0   6 150.654 8.55454   1
   4   0   6 354.294 9.93340   1
  -5   0   9 195.714 8.88265  -2
   5   0   6 195.714 8.88265   1
  -6   0  10 795.336 34.2339  -2
   6   0   6 795.336 34.2339   1
   7   0   6 42.8570 9.55362   1
  -8   0  11 74.5905 17.2497  -2
   8   0   6 74.5905 17.2497   1
   9   0   6 90.5673 14.2345   1
 -10   1   6 31.4135 10.6307   1
   9  -1   1 67.2189 16.6909  -2
  -9   1   6 67.2189 16.6909   1
   8  -1   2 79.4936 12.4628  -2
  -8   1   6 79.4936 12.4628   1
  -7   1   6 322.727 12.2241   1
   6  -1   3 480.301 13.9647  -2
  -6   1   6 480.301 13.9647   1
  -5   1   6 881.255 19.6269   1
   4  -1   4 1247.86 33.2635  -2
  -4   1   6 1247.86 33.2635   1
   3  -1   5 891.602 18.5517  -2
  -3   1   6 891.602 18.5517   1
  -2   1   6 17.5877 2.36825   1
   1  -1   6 982.435 16.0009  -2
  -1   1   6 982.435 16.0009   1
   0  -1   7 1060.98 35.1349  -2
   0   1   6 1060.98 35.1349   1
  -1  -1   7 3247.93 86.0842  -2
   1   1   6 3247.93 86.0842   1
  -2  -1   8 453.657 10.7986  -2
   2   1   6 453.657 10.7986   1
   3   1   6 25.9290 4.19487   1
  -4  -1   9 826.473 17.0892  -2
   4   1   6 826.473 17.0892   1
  -5  -1  10 520.502 14.5361  -2
   5   1   6 520.502 14.5361   1
   6   1   6 3.71532 4.39616   1
  -7  -1  11 788.801 30.3996  -2
   7   1   6 788.801 30.3996   1
   8   1   6 18.3213 9.30716   1
 -11   2   6 46.6839 13.3292   1
  10  -2   1 719.282 34.2634  -2
 -10   2   6 719.282 34.2634   1
   9  -2   2 -12.044 9.48343  -2
  -9   2   6 -12.044 9.48343   1
  -8   2   6 132.967 9.10178   1
   7  -2   3 34.2735 7.88664  -2
  -7   2   6 34.2735 7.88664   1
  -6   2   6 104.671 7.12569   1
  -5   2   6 381.254 11.6513   1
   4  -2   5 1426.42 27.3949  -2
  -4   2   6 1426.42 27.3949   1
  -3   2   6 564.360 12.2431   1
   2  -2   6 2005.17 29.4557  -2
  -2   2   6 2005.17 29.4557   1
   1  -2   7 503.959 15.5251  -2
  -1   2   6 503.959 15.5251   1
   0   2   6 20.8696 7.94471   1
  -1  -2   8 469.087 9.99482  -2
   1   2   6 469.087 9.99482   1
   2   2   6 1134.63 19.4747   1
  -3  -2   9 1111.68 20.2760  -2
   3   2   6 1111.68 20.2760   1
  -4  -2  10 1070.69 20.4309  -2
   4   2   6 1070.69 20.4309   1
   5   2   6 170.681 8.17423   1
  -6  -2  11 49.3332 8.83657  -2
   6   2   6 49.3332 8.83657   1
  11  -3   1 173.677 26.2593  -2
 -11   3   6 173.677 26.2593   1
  10  -3   2 20.1422 10.4759  -2
 -10   3   6 20.1422 10.4759   1
  -9   3   6 60.9715 7.95133   1
   8  -3   3 7.95921 9.07033  -2
  -8   3   6 7.95921 9.07033   1
   7  -3   4 523.349 20.4674  -2
  -7   3   6 523.349 20.4674   1
  -6   3   6 979.470 22.1074   1
   5  -3   5 829.879 15.1550  -2
  -5   3   6 829.879 15.1550   1
  -4   3   6 43.4368 3.93184   1
   2  -3   7 49.6895 9.09266  -2
  -2   3   6 49.6895 9.09266   1
  -1   3   6 1047.30 23.5642   1
   1   3   6 46.2961 6.51125   1
  -2  -3   9 1566.72 48.0287  -2
   2   3   6 1566.72 48.0287   1
  -3  -3  10 502.266 16.3931  -2
   3   3   6 502.266 16.3931   1
   4   3   6 218.533 11.6035   1
  -5  -3  11 1113.25 40.2955  -2
   5   3   6 1113.25 40.2955   1
  -6  -3  12 68.0288 19.1953  -2
   6   3   6 68.0288 19.1953   1
  11  -4   2 7.83647 16.0920  -2
 -11   4   6 7.83647 16.0920   1
 -10   4   6 0.61206 9.90361   1
   9  -4   3 203.698 22.8667  -2
  -9   4   6 203.698 22.8667   1
   8  -4   4 515.964 27.7674  -2
  -8   4   6 515.964 27.7674   1
  -7   4   6 13.9253 9.15852   1
   6  -4   5 786.672 30.6991  -2
  -6   4   6 786.672 30.6991   1
  -5   4   6 3.60875 4.30997   1
  -4   4   6 610.689 16.5693   1
   3  -4   7 1003.71 23.6842  -2
  -3   4   6 1003.71 23.6842   1
  -2   4   6 44.7116 6.01255   1
   1  -4   8 6.26671 8.62790  -2
  -1   4   6 6.26671 8.62790   1
   0  -4   9 243.592 18.9117  -2
   0   4   6 243.592 18.9117   1
   1   4   6 60.2476 6.73771   1
  -2  -4  10 2023.36 41.0880  -2
   2   4   6 2023.36 41.0880   1
   3   4   6 58.5978 7.14566   1
  -4  -4  11 203.444 19.1031  -2
   4   4   6 203.444 19.1031   1
  -5  -4  12 57.9123 17.9808  -2
   5   4   6 57.9123 17.9808   1
   6   4   6 231.137 19.7765   1
  10  -5   3 91.5745 24.2375  -2
 -10   5   6 91.5745 24.2375   1
   9  -5   4 59.2818 18.3787  -2
  -9   5   6 59.2818 18.3787   1
  -8   5   6 124.059 15.2673   1
   7  -5   5 729.998 31.7554  -2
  -7   5   6 729.998 31.7554   1
   6  -5   6 135.488 18.8796  -2
  -6   5   6 135.488 18.8796   1
  -5   5   6 367.263 12.6650   1
   4  -5   7 659.680 17.8245  -2
  -4   5   6 659.680 17.8245   1
  -3   5   6 956.581 23.0983   1
   2  -5   8 377.624 15.0147  -2
  -2   5   6 377.624 15.0147   1
   1  -5   9 203.023 12.3347  -2
  -1   5   6 203.023 12.3347   1
   0   5   6 82.8237 7.46387   1
  -1  -5  10 968.477 23.7113  -2
   1   5   6 968.477 23.7113   1
   2   5   6 6.84100 4.89810   1
  -3  -5  11 701.394 32.1606  -2
   3   5   6 701.394 32.1606   1
  -4  -5  12 119.154 16.7698  -2
   4   5   6 119.154 16.7698   1
   5   5   6 197.199 18.6959   1
  -6  -5  13 176.803 21.3636  -2
   6   5   6 176.803 21.3636   1
  10  -6   4 296.804 24.7414  -2
 -10   6   6 296.804 24.7414   1
  -9   6   6 304.874 22.1306   1
   8  -6   5 380.976 27.9717  -2
  -8   6   6 380.976 27.9717   1
   7  -6   6 9.64536 17.9417  -2
  -7   6   6 9.64536 17.9417   1
  -6   6   6 74.2540 11.4701   1
   5  -6   7 872.620 22.1939  -2
  -5   6   6 872.620 22.1939   1
  -4   6   6 30.4641 5.80127   1
   3  -6   8 248.010 19.4206  -2
  -3   6   6 248.010 19.4206   1
   2  -6   9 476.490 16.0496  -2
  -2   6   6 476.490 16.0496   1
  -1   6   6 142.671 9.50984   1
   0  -6  10 428.136 15.6534  -2
   0   6   6 428.136 15.6534   1
  -1  -6  11 347.668 15.6069  -2
   1   6   6 347.668 15.6069   1
   2   6   6 71.7855 11.0582   1
  -3  -6  12 371.053 22.9891  -2
   3   6   6 371.053 22.9891   1
   4   6   6 48.1101 12.0950   1
  -5  -6  13 96.9764 20.4186  -2
   5   6   6 96.9764 20.4186   1
   9  -7   5 175.436 23.7107  -2
  -9   7   6 175.436 23.7107   1
   8  -7   6 10.1273 17.5300  -2
  -8   7   6 10.1273 17.5300   1
  -7   7   6 219.469 18.6970   1
   6  -7   7 171.747 19.7944  -2
  -6   7   6 171.747 19.7944   1
   5  -7   8 1133.66 42.6965  -2
  -5   7   6 1133.66 42.6965   1
  -4   7   6 85.7909 8.22044   1
   3  -7   9 232.530 12.3321  -2
  -3   7   6 232.530 12.3321   1
  -2   7   6 78.3225 7.57944   1
   1  -7  10 437.957 16.9964  -2
  -1   7   6 437.957 16.9964   1
   0  -7  11 427.204 16.9143  -2
   0   7   6 427.204 16.9143   1
   1   7   6 312.662 19.5670   1
  -2  -7  12 57.1816 14.4120  -2
   2   7   6 57.1816 14.4120   1
   3   7   6 5.05415 9.70837   1
  -4  -7  13 296.212 27.2623  -2
   4   7   6 296.212 27.2623   1
  -8   8   6 138.819 17.0572   1
   7  -8   7 25.5965 20.1409  -2
  -7   8   6 25.5965 20.1409   1
   6  -8   8 27.8672 19.1976  -2
  -6   8   6 27.8672 19.1976   1
  -5   8   6 76.9724 13.4866   1
   4  -8   9 975.384 25.0868  -2
  -4   8   6 975.384 25.0868   1
  -3   8   6 264.990 12.6522   1
   2  -8  10 337.464 16.1489  -2
  -2   8   6 337.464 16.1489   1
   1  -8  11 299.161 14.9318  -2
  -1   8   6 299.161 14.9318   1
   0   8   6 -5.2567 8.42247   1
  -1  -8  12 47.6461 16.1839  -2
   1   8   6 47.6461 16.1839   1
  -2  -8  13 681.954 34.9899  -2
   2   8   6 681.954 34.9899   1
  -3  -8  13 281.922 27.0506  -2
   3   8   6 281.922 27.0506   1
   8  -9   7 355.600 31.7669  -2
  -8   9   6 355.600 31.7669   1
   7  -9   8 516.920 32.9977  -2
  -7   9   6 516.920 32.9977   1
  -6   9   6 -6.8689 10.4716   1
   5  -9   9 43.5280 17.6439  -2
  -5   9   6 43.5280 17.6439   1
   4  -9  10 104.987 14.5828  -2
  -4   9   6 104.987 14.5828   1
   3  -9  10 409.628 25.3091  -2
  -3   9   6 409.628 25.3091   1
   2  -9  11 301.437 14.6698  -2
  -2   9   6 301.437 14.6698   1
  -1   9   6 554.986 27.2962   1
   0  -9  12 -16.652 16.0565  -2
   0   9   6 -16.652 16.0565   1
  -1  -9  13 299.729 25.9423  -2
   1   9   6 299.729 25.9423   1
   2   9   6 37.4509 13.0866   1
  -7  10   6 184.720 20.3140   1
   6 -10   9 608.559 35.0204  -2
  -6  10   6 608.559 35.0204   1
   5 -10  10 36.5305 23.1102  -2
  -5  10   6 36.5305 23.1102   1
  -4  10   6 52.8562 8.36076   1
   3 -10  11 165.724 12.0847  -2
  -3  10   6 165.724 12.0847   1
  -2  10   6 41.8672 11.5249   1
   1 -10  12 46.1691 20.3013  -2
  -1  10   6 46.1691 20.3013   1
   0 -10  13 238.122 22.8739  -2
   0  10   6 238.122 22.8739   1
  -5  11   6 329.599 24.8961   1
   3 -11  12 290.772 26.1856  -2
  -3  11   6 290.772 26.1856   1
   2 -11  12 22.6511 19.9960  -2
  -2  11   6 22.6511 19.9960   1
  -1 -13   7 32.6681 11.8837   1
   0 -13   2 135.849 18.2607  -2
   0 -13   7 135.849 18.2607   1
   1 -13   7 6.85116 9.66746   1
   2 -13   7 -1.1259 9.49185   1
  -3  13   0 334.813 24.0166  -2
   3 -13   7 334.813 24.0166   1
   4 -13   7 29.3547 11.9117   1
  -2 -12   7 103.102 14.7108   1
  -1 -12   2 49.8005 19.9448  -2
  -1 -12   7 49.8005 19.9448   1
   0 -12   1 1167.54 44.2936  -2
   0 -12   7 1167.54 44.2936   1
   1 -12   7 -4.9586 8.92366   1
  -2  12   0 63.9791 12.2940  -2
   2 -12   7 63.9791 12.2940   1
   3 -12   7 209.070 18.4744   1
  -4  12   1 -15.935 20.7935  -2
   4 -12   7 -15.935 20.7935   1
  -5  12   2 17.4022 21.8182  -2
   5 -12   7 17.4022 21.8182   1
   6 -12   7 330.100 25.4332   1
  -4 -11   3 87.5792 14.4133  -2
  -4 -11   7 87.5792 14.4133   1
  -3 -11   7 117.189 14.5831   1
  -2 -11   2 54.9248 19.9190  -2
  -2 -11   7 54.9248 19.9190   1
  -1 -11   1 -13.972 17.4517  -2
  -1 -11   7 -13.972 17.4517   1
   0 -11   7 7.29530 7.90962   1
  -1  11   0 1151.90 39.4107  -2
   1 -11   7 1151.90 39.4107   1
   2 -11   7 90.9265 12.6872   1
   3 -11   7 308.011 19.4255   1
  -4  11   2 450.857 26.9233  -2
   4 -11   7 450.857 26.9233   1
   5 -11   7 29.9618 11.8843   1
  -6  11   3 35.7535 21.3177  -2
   6 -11   7 35.7535 21.3177   1
  -7  11   4 487.936 34.7168  -2
   7 -11   7 487.936 34.7168   1
  -5 -10   3 27.9475 15.1200  -2
  -5 -10   7 27.9475 15.1200   1
  -4 -10   7 76.6457 12.2240   1
  -3 -10   2 203.527 23.3998  -2
  -3 -10   7 203.527 23.3998   1
  -2 -10   1 609.421 28.2370  -2
  -2 -10   7 609.421 28.2370   1
  -1 -10   7 13.2016 8.55451   1
   0  10   0 77.5812 16.6572  -2
   0 -10   7 77.5812 16.6572   1
  -1  10   1 310.840 23.2444  -2
   1 -10   7 310.840 23.2444   1
   2 -10   7 300.482 12.8778   1
  -3  10   2 551.880 25.2160  -2
   3 -10   7 551.880 25.2160   1
   4 -10   7 845.786 33.8713   1
  -5  10   3 134.811 22.7361  -2
   5 -10   7 134.811 22.7361   1
  -6  10   4 167.472 23.8809  -2
   6 -10   7 167.472 23.8809   1
   7 -10   7 435.434 27.0440   1
  -6  -9   3 53.7140 21.5906  -2
  -6  -9   7 53.7140 21.5906   1
  -5  -9   2 236.065 25.2870  -2
  -5  -9   7 236.065 25.2870   1
  -4  -9   7 15.8466 9.32175   1
  -3  -9   1 107.097 14.1593  -2
  -3  -9   7 107.097 14.1593   1
  -2  -9   7 18.6829 8.49526   1
   1   9   0 823.458 31.9774  -2
  -1  -9   7 823.458 31.9774   1
   0   9   1 86.7022 16.2091  -2
   0  -9   7 86.7022 16.2091   1
   1  -9   7 355.874 12.8792   1
  -2   9   2 404.410 21.5041  -2
   2  -9   7 404.410 21.5041   1
   3  -9   7 6.28351 7.91794   1
   4  -9   7 83.5911 12.7685   1
  -5   9   4 273.802 23.4889  -2
   5  -9   7 273.802 23.4889   1
   6  -9   7 31.5870 11.4198   1
  -7   9   5 318.729 27.3711  -2
   7  -9   7 318.729 27.3711   1
  -8   9   6 201.709 26.0594  -2
   8  -9   7 201.709 26.0594   1
  -6  -8   2 218.565 22.8857  -2
  -6  -8   7 218.565 22.8857   1
  -5  -8   7 29.9552 9.68052   1
  -4  -8   1 326.273 19.2282  -2
  -4  -8   7 326.273 19.2282   1
  -3  -8   7 66.5100 10.3974   1
  -2  -8   7 -1.3808 6.51636   1
   1   8   1 102.664 14.3294  -2
  -1  -8   7 102.664 14.3294   1
   0  -8   7 344.022 12.1690   1
  -1   8   2 423.594 15.3743  -2
   1  -8   7 423.594 15.3743   1
  -2   8   3 209.236 19.4263  -2
   2  -8   7 209.236 19.4263   1
   3  -8   7 -10.157 7.58158   1
  -4   8   4 52.6038 14.0607  -2
   4  -8   7 52.6038 14.0607   1
   5  -8   7 11.3668 8.99506   1
  -6   8   5 101.049 20.2355  -2
   6  -8   7 101.049 20.2355   1
  -7   8   6 -9.6868 18.7334  -2
   7  -8   7 -9.6868 18.7334   1
   8  -8   7 111.351 17.4223   1
  -7  -7   2 246.758 22.2622  -2
  -7  -7   7 246.758 22.2622   1
  -6  -7   7 69.3331 12.2423   1
  -5  -7   1 65.4217 15.9381  -2
  -5  -7   7 65.4217 15.9381   1
   4   7   0 260.438 20.3431  -2
  -4  -7   7 260.438 20.3431   1
  -3  -7   7 1253.43 38.2971   1
   2   7   1 203.995 14.3876  -2
  -2  -7   7 203.995 14.3876   1
   1   7   2 167.088 18.6744  -2
  -1  -7   7 167.088 18.6744   1
   0   7   2 226.160 12.7017  -2
   0  -7   7 226.160 12.7017   1
  -1   7   3 1048.10 36.3619  -2
   1  -7   7 1048.10 36.3619   1
   2  -7   7 5.44435 7.57125   1
  -3   7   4 555.818 24.8424  -2
   3  -7   7 555.818 24.8424   1
   4  -7   7 1048.31 37.1669   1
   5  -7   7 334.226 20.2769   1
  -6   7   6 132.445 19.1819  -2
   6  -7   7 132.445 19.1819   1
   7  -7   7 45.7373 13.0968   1
  -8   7   7 36.5557 20.3234  -2
   8  -7   7 36.5557 20.3234   1
  -8  -6   2 379.799 24.1718  -2
  -8  -6   7 379.799 24.1718   1
  -7  -6   7 2.92251 9.33739   1
  -6  -6   1 219.006 20.1504  -2
  -6  -6   7 219.006 20.1504   1
   5   6   0 23.5598 15.4117  -2
  -5  -6   7 23.5598 15.4117   1
  -4  -6   7 58.9475 9.54929   1
   3   6   1 153.496 12.4659  -2
  -3  -6   7 153.496 12.4659   1
   2   6   2 959.788 30.8402  -2
  -2  -6   7 959.788 30.8402   1
   1   6   2 844.359 21.4842  -2
  -1  -6   7 844.359 21.4842   1
   0   6   3 1261.50 27.0747  -2
   0  -6   7 1261.50 27.0747   1
   1  -6   7 24.2820 7.95335   1
  -2   6   4 340.248 21.0863  -2
   2  -6   7 340.248 21.0863   1
   3  -6   7 121.131 13.3531   1
   4  -6   7 424.364 21.2360   1
  -5   6   6 822.012 32.7817  -2
   5  -6   7 822.012 32.7817   1
   6  -6   7 325.286 21.8184   1
  -7   6   7 -28.195 17.1631  -2
   7  -6   7 -28.195 17.1631   1
  -8   6   8 144.952 24.4867  -2
   8  -6   7 144.952 24.4867   1
   9  -6   7 58.0512 10.7577   1
  -8  -5   7 6.58314 10.4837   1
  -7  -5   1 15.4587 19.1476  -2
  -7  -5   7 15.4587 19.1476   1
   6   5   0 25.7164 14.8195  -2
  -6  -5   7 25.7164 14.8195   1
  -5  -5   7 901.509 31.3855   1
   4   5   1 86.7738 14.3563  -2
  -4  -5   7 86.7738 14.3563   1
  -3  -5   7 88.9665 6.31680   1
   2   5   2 413.731 18.8726  -2
  -2  -5   7 413.731 18.8726   1
   1   5   3 1546.01 30.5179  -2
  -1  -5   7 1546.01 30.5179   1
   0  -5   7 135.879 8.05319   1
  -1   5   4 1003.48 34.0679  -2
   1  -5   7 1003.48 34.0679   1
  -2   5   5 779.150 30.0544  -2
   2  -5   7 779.150 30.0544   1
   3  -5   7 478.173 22.3968   1
  -4   5   6 649.246 27.6305  -2
   4  -5   7 649.246 27.6305   1
   5  -5   7 1.46944 7.90957   1
   6  -5   7 2.46353 5.60682   1
  -7   5   8 690.101 34.1000  -2
   7  -5   7 690.101 34.1000   1
   8  -5   7 41.9957 8.62025   1
  -9   5   9 181.839 25.3612  -2
   9  -5   7 181.839 25.3612   1
  -9  -4   7 173.139 17.9649   1
  -8  -4   7 81.2002 13.0812   1
   7   4   0 34.3328 12.8444  -2
  -7  -4   7 34.3328 12.8444   1
  -6  -4   7 36.0617 9.67599   1
   5   4   1 192.864 17.1991  -2
  -5  -4   7 192.864 17.1991   1
   4   4   2 706.647 17.8813  -2
  -4  -4   7 706.647 17.8813   1
  -3  -4   7 29.4574 4.74636   1
   2   4   3 397.324 11.6428  -2
  -2  -4   7 397.324 11.6428   1
   1   4   4 197.387 19.0397  -2
  -1  -4   7 197.387 19.0397   1
   0   4   4 670.064 26.3373  -2
   0  -4   7 670.064 26.3373   1
  -1   4   5 31.4274 13.0041  -2
   1  -4   7 31.4274 13.0041   1
   2  -4   7 192.740 13.6063   1
  -3   4   6 -4.4137 7.57940  -2
   3  -4   7 -4.4137 7.57940   1
   4  -4   7 807.522 30.8222   1
   5  -4   7 15.3504 5.64511   1
  -6   4   8 -1.1148 14.9813  -2
   6  -4   7 -1.1148 14.9813   1
   7  -4   7 288.127 13.9997   1
  -8   4   9 290.932 18.1303  -2
   8  -4   7 290.932 18.1303   1
  -9   4  10 81.3769 26.0985  -2
   9  -4   7 81.3769 26.0985   1
  -9  -3   7 73.7329 13.7681   1
   8   3   0 38.4754 12.0818  -2
  -8  -3   7 38.4754 12.0818   1
  -7  -3   7 1161.21 38.4802   1
   6   3   1 88.6286 17.3459  -2
  -6  -3   7 88.6286 17.3459   1
   5   3   2 38.8859 8.44560  -2
  -5  -3   7 38.8859 8.44560   1
  -4  -3   7 126.383 7.44529   1
   3   3   3 512.759 13.4988  -2
  -3  -3   7 512.759 13.4988   1
   2   3   4 484.340 21.2287  -2
  -2  -3   7 484.340 21.2287   1
   1   3   4 1616.92 47.4935  -2
  -1  -3   7 1616.92 47.4935   1
   0   3   5 314.926 16.6361  -2
   0  -3   7 314.926 16.6361   1
   1  -3   7 157.616 12.3662   1
  -3   3   7 389.949 22.9923  -2
   3  -3   7 389.949 22.9923   1
   4  -3   7 25.1988 4.46124   1
  -5   3   8 558.351 13.4239  -2
   5  -3   7 558.351 13.4239   1
   6  -3   7 348.708 14.3097   1
  -7   3   9 969.076 27.7444  -2
   7  -3   7 969.076 27.7444   1
  -8   3  10 22.8286 13.9363  -2
   8  -3   7 22.8286 13.9363   1
   9  -3   7 -5.3833 7.08024   1
 -10  -2   7 60.6978 14.4349   1
   9   2   0 73.9094 15.8905  -2
  -9  -2   7 73.9094 15.8905   1
  -8  -2   7 0.99772 7.71330   1
  -7  -2   7 2.62684 7.25526   1
   6   2   2 1297.54 27.5591  -2
  -6  -2   7 1297.54 27.5591   1
  -5  -2   7 78.6545 6.21968   1
   4   2   3 539.445 15.0899  -2
  -4  -2   7 539.445 15.0899   1
   3   2   4 21.4698 8.42608  -2
  -3  -2   7 21.4698 8.42608   1
  -2  -2   7 361.052 10.7950   1
   1   2   5 147.462 7.01498  -2
  -1  -2   7 147.462 7.01498   1
   0  -2   7 617.331 24.4107   1
  -1   2   6 -2.5022 3.12717  -2
   1  -2   7 -2.5022 3.12717   1
  -2   2   7 705.200 26.0138  -2
   2  -2   7 705.200 26.0138   1
   3  -2   7 -7.7036 4.53635   1
  -4   2   8 572.812 17.3244  -2
   4  -2   7 572.812 17.3244   1
   5  -2   7 382.544 10.9978   1
   6  -2   7 26.1940 6.24836   1
  -7   2  10 98.4695 12.3841  -2
   7  -2   7 98.4695 12.3841   1
   8  -2   7 460.214 18.1217   1
  10   1   0 11.1352 20.2245  -2
 -10  -1   7 11.1352 20.2245   1
   9   1   1 596.044 31.9716  -2
  -9  -1   7 596.044 31.9716   1
  -8  -1   7 9.51460 8.19094   1
   7   1   2 33.5220 6.69415  -2
  -7  -1   7 33.5220 6.69415   1
  -6  -1   7 1.85277 4.45400   1
   5   1   3 768.164 27.1391  -2
  -5  -1   7 768.164 27.1391   1
   4   1   4 23.0664 7.77625  -2
  -4  -1   7 23.0664 7.77625   1
  -3  -1   7 947.304 20.0200   1
   2   1   5 473.810 12.2829  -2
  -2  -1   7 473.810 12.2829   1
   1   1   6 2651.03 71.8662  -2
  -1  -1   7 2651.03 71.8662   1
   0   1   6 6.79176 5.13720  -2
   0  -1   7 6.79176 5.13720   1
  -1   1   7 56.9935 8.43783  -2
   1  -1   7 56.9935 8.43783   1
   2  -1   7 150.482 8.88113   1
  -3   1   8 696.522 19.8988  -2
   3  -1   7 696.522 19.8988   1
  -4   1   9 353.493 11.8562  -2
   4  -1   7 353.493 11.8562   1
   5  -1   7 540.552 13.2340   1
  -6   1  10 77.3869 8.77157  -2
   6  -1   7 77.3869 8.77157   1
   7  -1   7 1.42925 6.05590   1
  -8   1  11 237.000 23.4783  -2
   8  -1   7 237.000 23.4783   1
  10   0   1 94.8494 16.3958  -2
 -10   0   7 94.8494 16.3958   1
  -9   0   7 20.4587 9.75931   1
   8   0   2 1023.68 24.9285  -2
  -8   0   7 1023.68 24.9285   1
  -7   0   7 1.86851 4.77686   1
  -6   0   7 976.544 22.3993   1
   5   0   4 96.0493 7.83922  -2
  -5   0   7 96.0493 7.83922   1
  -4   0   7 7.03717 3.80030   1
   3   0   5 84.0556 7.78977  -2
  -3   0   7 84.0556 7.78977   1
  -1   0   7 1633.91 29.8639   1
   1   0   7 18.5951 5.54772   1
  -2   0   8 299.477 14.4344  -2
   2   0   7 299.477 14.4344   1
  -3   0   9 413.071 15.8720  -2
   3   0   7 413.071 15.8720   1
   4   0   7 11.3361 4.01668   1
  -5   0  10 567.340 14.4811  -2
   5   0   7 567.340 14.4811   1
  -6   0  11 622.666 21.1066  -2
   6   0   7 622.666 21.1066   1
   7   0   7 39.2293 9.80149   1
  -8   0  12 332.407 23.3553  -2
   8   0   7 332.407 23.3553   1
 -10   1   7 -15.910 8.10136   1
   9  -1   2 -3.5957 9.71849  -2
  -9   1   7 -3.5957 9.71849   1
   8  -1   3 250.046 14.3167  -2
  -8   1   7 250.046 14.3167   1
  -7   1   7 380.516 13.3760   1
   6  -1   4 67.5503 6.27569  -2
  -6   1   7 67.5503 6.27569   1
  -5   1   7 1647.02 32.1412   1
   4  -1   5 294.246 11.0463  -2
  -4   1   7 294.246 11.0463   1
  -2   1   7 227.032 7.18849   1
   1  -1   7 38.1092 3.87674  -2
  -1   1   7 38.1092 3.87674   1
   0  -1   8 107.377 18.1751  -2
   0   1   7 107.377 18.1751   1
  -1  -1   8 3277.62 88.0221  -2
   1   1   7 3277.62 88.0221   1
  -2  -1   9 459.594 16.0131  -2
   2   1   7 459.594 16.0131   1
   3   1   7 153.880 7.35588   1
  -4  -1  10 548.377 14.2104  -2
   4   1   7 548.377 14.2104   1
  -5  -1  11 413.865 17.8725  -2
   5   1   7 413.865 17.8725   1
   6   1   7 9.62456 4.75180   1
 -11   2   7 -5.0273 9.97209   1
  10  -2   2 349.425 22.3505  -2
 -10   2   7 349.425 22.3505   1
   9  -2   3 195.869 12.9403  -2
  -9   2   7 195.869 12.9403   1
  -8   2   7 228.711 11.7375   1
   7  -2   4 640.626 17.7271  -2
  -7   2   7 640.626 17.7271   1
  -6   2   7 102.850 7.25477   1
  -5   2   7 35.6363 5.14069   1
   4  -2   6 442.237 14.0552  -2
  -4   2   7 442.237 14.0552   1
   1  -2   8 477.807 16.1349  -2
  -1   2   7 477.807 16.1349   1
   0   2   7 3.19470 1.99469   1
  -1  -2   9 1841.62 37.9516  -2
   1   2   7 1841.62 37.9516   1
   2   2   7 707.706 19.3791   1
  -3  -2  10 533.506 18.0103  -2
   3   2   7 533.506 18.0103   1
  -4  -2  11 602.250 19.7927  -2
   4   2   7 602.250 19.7927   1
   5   2   7 37.2841 7.14882   1
  -6  -2  12 25.9971 14.5057  -2
   6   2   7 25.9971 14.5057   1
  10  -3   3 200.061 20.9914  -2
 -10   3   7 200.061 20.9914   1
  -9   3   7 53.0494 12.0428   1
   8  -3   4 186.214 19.4592  -2
  -8   3   7 186.214 19.4592   1
   7  -3   5 1481.36 49.4916  -2
  -7   3   7 1481.36 49.4916   1
  -6   3   7 366.904 20.7654   1
   5  -3   6 709.992 18.2017  -2
  -5   3   7 709.992 18.2017   1
  -4   3   7 136.779 8.55143   1
   3  -3   7 482.326 16.0148  -2
  -3   3   7 482.326 16.0148   1
   2  -3   8 15.3709 9.88710  -2
  -2   3   7 15.3709 9.88710   1
  -1   3   7 535.448 16.3045   1
   0  -3   9 4.91331 7.65174  -2
   0   3   7 4.91331 7.65174   1
   1   3   7 294.954 12.8043   1
  -2  -3  10 999.307 26.0504  -2
   2   3   7 999.307 26.0504   1
  -3  -3  11 545.979 18.5235  -2
   3   3   7 545.979 18.5235   1
   4   3   7 -1.1427 5.64400   1
  -5  -3  12 509.719 27.5510  -2
   5   3   7 509.719 27.5510   1
  -6  -3  13 264.795 24.9575  -2
   6   3   7 264.795 24.9575   1
 -10   4   7 26.6966 12.1542   1
   9  -4   4 190.150 23.9872  -2
  -9   4   7 190.150 23.9872   1
   8  -4   5 615.032 31.5763  -2
  -8   4   7 615.032 31.5763   1
  -7   4   7 10.6387 8.08216   1
   6  -4   6 1629.19 51.7401  -2
  -6   4   7 1629.19 51.7401   1
  -5   4   7 537.086 15.7078   1
   4  -4   7 1635.84 51.0784  -2
  -4   4   7 1635.84 51.0784   1
   3  -4   8 97.1336 10.2831  -2
  -3   4   7 97.1336 10.2831   1
  -2   4   7 39.4672 5.88532   1
   1  -4   9 27.5640 9.25853  -2
  -1   4   7 27.5640 9.25853   1
   0  -4  10 1461.64 33.0185  -2
   0   4   7 1461.64 33.0185   1
   1   4   7 196.455 10.8144   1
  -2  -4  11 654.395 19.3318  -2
   2   4   7 654.395 19.3318   1
   3   4   7 51.8274 7.52752   1
  -4  -4  12 245.260 22.3278  -2
   4   4   7 245.260 22.3278   1
  -5  -4  13 422.093 27.8710  -2
   5   4   7 422.093 27.8710   1
   6   4   7 23.4583 11.1658   1
  10  -5   4 3.99667 22.3229  -2
 -10   5   7 3.99667 22.3229   1
   9  -5   5 298.479 26.3003  -2
  -9   5   7 298.479 26.3003   1
  -8   5   7 3.92877 9.20077   1
   7  -5   6 693.846 32.4733  -2
  -7   5   7 693.846 32.4733   1
   6  -5   7 200.663 21.6216  -2
  -6   5   7 200.663 21.6216   1
  -5   5   7 438.907 14.4000   1
   4  -5   8 250.727 11.6807  -2
  -4   5   7 250.727 11.6807   1
  -3   5   7 736.055 19.7885   1
   2  -5   9 36.5747 10.5729  -2
  -2   5   7 36.5747 10.5729   1
   1  -5  10 209.546 13.0514  -2
  -1   5   7 209.546 13.0514   1
   0   5   7 109.130 8.88137   1
  -1  -5  11 605.245 18.2223  -2
   1   5   7 605.245 18.2223   1
   2   5   7 45.9952 6.78221   1
  -3  -5  12 558.911 30.1510  -2
   3   5   7 558.911 30.1510   1
  -4  -5  13 175.746 21.0812  -2
   4   5   7 175.746 21.0812   1
   5   5   7 48.3513 12.7101   1
  -6  -5  14 77.1111 20.9033  -2
   6   5   7 77.1111 20.9033   1
  -9   6   7 2.60329 10.1009   1
   8  -6   6 271.948 26.7463  -2
  -8   6   7 271.948 26.7463   1
   7  -6   7 2.66379 17.8007  -2
  -7   6   7 2.66379 17.8007   1
  -6   6   7 187.437 17.9380   1
   5  -6   8 62.2573 9.22513  -2
  -5   6   7 62.2573 9.22513   1
  -4   6   7 57.7040 7.08810   1
   3  -6   9 109.395 12.6743  -2
  -3   6   7 109.395 12.6743   1
   2  -6  10 1192.25 28.9798  -2
  -2   6   7 1192.25 28.9798   1
  -1   6   7 211.089 11.2936   1
   0  -6  11 911.736 24.8563  -2
   0   6   7 911.736 24.8563   1
  -1  -6  12 247.791 14.7573  -2
   1   6   7 247.791 14.7573   1
   2   6   7 -3.0029 8.17278   1
  -3  -6  13 239.686 21.0533  -2
   3   6   7 239.686 21.0533   1
   4   6   7 -13.851 9.22084   1
   9  -7   6 286.711 28.7705  -2
  -9   7   7 286.711 28.7705   1
   8  -7   7 32.1415 18.9565  -2
  -8   7   7 32.1415 18.9565   1
  -7   7   7 131.426 16.6991   1
   6  -7   8 23.7274 17.0617  -2
  -6   7   7 23.7274 17.0617   1
   5  -7   9 1138.94 44.3898  -2
  -5   7   7 1138.94 44.3898   1
  -4   7   7 10.3099 6.10590   1
   3  -7  10 125.585 11.3412  -2
  -3   7   7 125.585 11.3412   1
  -2   7   7 150.185 10.4377   1
   1  -7  11 701.409 21.9662  -2
  -1   7   7 701.409 21.9662   1
   0  -7  12 81.6378 11.9115  -2
   0   7   7 81.6378 11.9115   1
   1   7   7 384.112 23.5579   1
  -2  -7  13 176.290 19.1196  -2
   2   7   7 176.290 19.1196   1
   3   7   7 69.8069 13.3838   1
  -8   8   7 22.4416 11.6189   1
   7  -8   8 138.987 23.5608  -2
  -7   8   7 138.987 23.5608   1
   6  -8   9 84.8845 22.1246  -2
  -6   8   7 84.8845 22.1246   1
  -5   8   7 27.7815 11.5611   1
   4  -8  10 632.316 20.1642  -2
  -4   8   7 632.316 20.1642   1
   3  -8  11 113.369 22.6199  -2
  -3   8   7 113.369 22.6199   1
   2  -8  11 487.047 19.2356  -2
  -2   8   7 487.047 19.2356   1
   1  -8  12 49.1975 11.6891  -2
  -1   8   7 49.1975 11.6891   1
   0   8   7 -5.1181 9.01655   1
  -1  -8  13 16.8968 14.9869  -2
   1   8   7 16.8968 14.9869   1
  -2  -8  14 109.964 21.6467  -2
   2   8   7 109.964 21.6467   1
   7  -9   9 581.205 34.6181  -2
  -7   9   7 581.205 34.6181   1
  -6   9   7 27.9697 13.2113   1
   5  -9  10 86.6477 19.9953  -2
  -5   9   7 86.6477 19.9953   1
   4  -9  11 57.5770 15.1209  -2
  -4   9   7 57.5770 15.1209   1
  -3   9   7 9.58958 7.00180   1
   2  -9  12 156.037 19.2228  -2
  -2   9   7 156.037 19.2228   1
  -1   9   7 238.223 21.0753   1
   0  -9  13 -3.7120 17.6659  -2
   0   9   7 -3.7120 17.6659   1
   5 -10  11 127.900 25.3487  -2
  -5  10   7 127.900 25.3487   1
  -4  10   7 259.822 15.1513   1
   3 -10  12 0.43203 13.0343  -2
  -3  10   7 0.43203 13.0343   1
  -2  10   7 52.7443 13.3752   1
   1 -10  13 -10.982 18.6103  -2
  -1  10   7 -10.982 18.6103   1
   0 -13   1 200.699 20.4806  -2
   0 -13   8 200.699 20.4806   1
   1 -13   8 8.24883 10.4021   1
   2 -13   8 5.19601 10.0559   1
  -3  13   1 155.478 20.4368  -2
   3 -13   8 155.478 20.4368   1
   4 -13   8 17.0905 11.7250   1
  -2 -12   8 82.4867 13.7590   1
  -1 -12   1 -0.2899 19.8371  -2
  -1 -12   8 -0.2899 19.8371   1
   0  12   0 368.591 28.0493  -2
   0 -12   8 368.591 28.0493   1
   1 -12   8 -8.5407 8.93776   1
  -2  12   1 95.1795 13.1851  -2
   2 -12   8 95.1795 13.1851   1
   3 -12   8 213.178 19.6712   1
  -4  12   2 292.576 27.8270  -2
   4 -12   8 292.576 27.8270   1
  -5  12   3 -33.330 19.6212  -2
   5 -12   8 -33.330 19.6212   1
   6 -12   8 554.944 31.0119   1
  -4 -11   2 143.101 16.3920  -2
  -4 -11   8 143.101 16.3920   1
  -3 -11   8 275.037 21.2699   1
  -2 -11   1 57.4282 20.9940  -2
  -2 -11   8 57.4282 20.9940   1
   1  11   0 32.8447 18.7037  -2
  -1 -11   8 32.8447 18.7037   1
   0 -11   8 43.1738 11.3323   1
  -1  11   1 367.274 23.6740  -2
   1 -11   8 367.274 23.6740   1
   2 -11   8 92.1392 12.6048   1
   3 -11   8 246.136 19.2022   1
  -4  11   3 27.5703 16.7943  -2
   4 -11   8 27.5703 16.7943   1
   5 -11   8 10.6974 11.5502   1
  -6  11   4 65.7091 22.1785  -2
   6 -11   8 65.7091 22.1785   1
  -5 -10   2 190.985 19.8201  -2
  -5 -10   8 190.985 19.8201   1
  -4 -10   8 127.146 16.1544   1
  -3 -10   8 16.0888 9.53216   1
   2  10   0 896.462 34.8647  -2
  -2 -10   8 896.462 34.8647   1
  -1 -10   8 107.719 13.1498   1
   0  10   1 75.2285 14.9630  -2
   0 -10   8 75.2285 14.9630   1
  -1  10   2 300.823 22.9335  -2
   1 -10   8 300.823 22.9335   1
   2 -10   8 -6.1228 5.36216   1
  -3  10   3 123.501 15.7768  -2
   3 -10   8 123.501 15.7768   1
   4 -10   8 -9.2122 8.76223   1
  -5  10   4 11.4671 19.8995  -2
   5 -10   8 11.4671 19.8995   1
  -6  10   5 616.280 34.1568  -2
   6 -10   8 616.280 34.1568   1
   7 -10   8 22.4928 12.4005   1
  -5  -9   1 203.503 23.5883  -2
  -5  -9   8 203.503 23.5883   1
  -4  -9   8 170.005 16.5381   1
   3   9   0 142.518 15.4513  -2
  -3  -9   8 142.518 15.4513   1
  -2  -9   8 165.917 15.6155   1
   1   9   1 754.875 29.8458  -2
  -1  -9   8 754.875 29.8458   1
   0   9   2 85.6206 16.7253  -2
   0  -9   8 85.6206 16.7253   1
   1  -9   8 649.158 18.2373   1
  -2   9   3 235.996 18.8387  -2
   2  -9   8 235.996 18.8387   1
   3  -9   8 60.2066 11.2141   1
   4  -9   8 131.747 15.1670   1
  -5   9   5 242.019 22.1613  -2
   5  -9   8 242.019 22.1613   1
   6  -9   8 -7.7402 9.33092   1
  -7   9   6 599.438 34.4419  -2
   7  -9   8 599.438 34.4419   1
  -6  -8   1 79.7754 22.1937  -2
  -6  -8   8 79.7754 22.1937   1
  -5  -8   8 -8.2936 8.24628   1
   4   8   0 715.087 28.5445  -2
  -4  -8   8 715.087 28.5445   1
  -3  -8   8 284.778 18.2144   1
  -2  -8   8 297.117 17.9113   1
   1   8   2 427.234 22.1189  -2
  -1  -8   8 427.234 22.1189   1
   0  -8   8 0.39858 4.52892   1
  -1   8   3 48.8614 10.5313  -2
   1  -8   8 48.8614 10.5313   1
  -2   8   4 729.719 31.1868  -2
   2  -8   8 729.719 31.1868   1
   3  -8   8 21.1955 8.72997   1
  -4   8   5 1248.61 43.8914  -2
   4  -8   8 1248.61 43.8914   1
   5  -8   8 23.2711 10.1082   1
  -6   8   6 -23.809 19.6609  -2
   6  -8   8 -23.809 19.6609   1
  -7   8   7 75.3551 22.2529  -2
   7  -8   8 75.3551 22.2529   1
   8  -8   8 359.962 25.9751   1
  -7  -7   1 153.481 21.5979  -2
  -7  -7   8 153.481 21.5979   1
  -6  -7   8 6.86073 8.04439   1
   5   7   0 18.9607 15.1209  -2
  -5  -7   8 18.9607 15.1209   1
   4   7   1 48.7357 17.8377  -2
  -4  -7   8 48.7357 17.8377   1
  -3  -7   8 520.054 22.3454   1
   2   7   2 77.9580 11.7526  -2
  -2  -7   8 77.9580 11.7526   1
   1   7   3 507.149 25.8300  -2
  -1  -7   8 507.149 25.8300   1
   0   7   3 -0.2971 10.3940  -2
   0  -7   8 -0.2971 10.3940   1
  -1   7   4 781.927 31.4475  -2
   1  -7   8 781.927 31.4475   1
   2  -7   8 307.992 18.1450   1
  -3   7   5 503.160 24.8512  -2
   3  -7   8 503.160 24.8512   1
   4  -7   8 322.329 19.8228   1
   5  -7   8 1117.80 40.6939   1
  -6   7   7 19.0895 16.7635  -2
   6  -7   8 19.0895 16.7635   1
   7  -7   8 82.2037 15.6127   1
  -8   7   8 174.969 24.0515  -2
   8  -7   8 174.969 24.0515   1
  -8  -6   1 74.1079 16.8224  -2
  -8  -6   8 74.1079 16.8224   1
  -7  -6   8 63.5492 12.4305   1
   6   6   0 545.998 28.2599  -2
  -6  -6   8 545.998 28.2599   1
   5   6   1 41.2935 16.1661  -2
  -5  -6   8 41.2935 16.1661   1
  -4  -6   8 26.1887 8.37251   1
   3   6   2 167.401 13.0009  -2
  -3  -6   8 167.401 13.0009   1
   2   6   3 779.146 28.5446  -2
  -2  -6   8 779.146 28.5446   1
   1   6   3 24.4920 11.2688  -2
  -1  -6   8 24.4920 11.2688   1
   0   6   4 683.681 19.1508  -2
   0  -6   8 683.681 19.1508   1
   1  -6   8 135.662 12.7987   1
  -2   6   5 707.311 29.1672  -2
   2  -6   8 707.311 29.1672   1
   3  -6   8 302.408 18.0165   1
   4  -6   8 376.309 21.9158   1
  -5   6   7 34.5384 15.2100  -2
   5  -6   8 34.5384 15.2100   1
   6  -6   8 508.117 26.3276   1
  -7   6   8 15.6507 20.1985  -2
   7  -6   8 15.6507 20.1985   1
  -8   6   9 250.394 28.2877  -2
   8  -6   8 250.394 28.2877   1
  -8  -5   8 47.9374 13.1181   1
   7   5   0 15.9857 21.3702  -2
  -7  -5   8 15.9857 21.3702   1
   6   5   1 27.2454 15.5092  -2
  -6  -5   8 27.2454 15.5092   1
  -5  -5   8 1016.01 34.1618   1
   4   5   2 382.136 20.3819  -2
  -4  -5   8 382.136 20.3819   1
   3   5   3 186.707 11.3817  -2
  -3  -5   8 186.707 11.3817   1
   2   5   3 166.885 17.5696  -2
  -2  -5   8 166.885 17.5696   1
   1   5   4 825.033 19.7604  -2
  -1  -5   8 825.033 19.7604   1
   0  -5   8 5.11595 4.82349   1
  -1   5   5 565.727 26.7362  -2
   1  -5   8 565.727 26.7362   1
  -2   5   6 473.312 25.3877  -2
   2  -5   8 473.312 25.3877   1
   3  -5   8 707.120 28.3942   1
  -4   5   7 264.715 19.2281  -2
   4  -5   8 264.715 19.2281   1
   5  -5   8 47.7133 10.8687   1
  -6   5   8 373.117 27.4696  -2
   6  -5   8 373.117 27.4696   1
  -7   5   9 193.607 22.9385  -2
   7  -5   8 193.607 22.9385   1
   8  -5   8 85.4181 10.5870   1
  -9  -4   8 157.257 17.4622   1
  -8  -4   8 388.011 23.6852   1
   7   4   1 46.8696 13.1827  -2
  -7  -4   8 46.8696 13.1827   1
  -6  -4   8 -2.4607 7.64854   1
   5   4   2 91.6003 16.1148  -2
  -5  -4   8 91.6003 16.1148   1
   4   4   3 552.975 16.0989  -2
  -4  -4   8 552.975 16.0989   1
  -3  -4   8 1149.81 24.3800   1
   2   4   4 2261.30 42.1169  -2
  -2  -4   8 2261.30 42.1169   1
   1   4   5 224.954 20.2615  -2
  -1  -4   8 224.954 20.2615   1
   0   4   5 636.026 18.2807  -2
   0  -4   8 636.026 18.2807   1
  -1   4   6 3.78983 14.6052  -2
   1  -4   8 3.78983 14.6052   1
   2  -4   8 30.6760 8.87445   1
  -3   4   7 90.3819 15.9011  -2
   3  -4   8 90.3819 15.9011   1
   4  -4   8 446.586 22.9998   1
   5  -4   8 47.4593 11.7849   1
  -6   4   9 257.201 21.7663  -2
   6  -4   8 257.201 21.7663   1
   7  -4   8 17.2424 7.21876   1
  -8   4  10 -8.2021 21.6256  -2
   8  -4   8 -8.2021 21.6256   1
  -9  -3   8 11.4421 10.3248   1
   8   3   1 61.8847 11.5679  -2
  -8  -3   8 61.8847 11.5679   1
  -7  -3   8 419.521 22.1074   1
   6   3   2 434.093 25.3311  -2
  -6  -3   8 434.093 25.3311   1
   5   3   3 203.023 10.7734  -2
  -5  -3   8 203.023 10.7734   1
  -4  -3   8 83.6998 6.61699   1
   3   3   4 762.662 18.1130  -2
  -3  -3   8 762.662 18.1130   1
   2   3   5 644.983 26.5244  -2
  -2  -3   8 644.983 26.5244   1
   1   3   5 1332.98 43.0984  -2
  -1  -3   8 1332.98 43.0984   1
   0   3   6 360.999 19.2112  -2
   0  -3   8 360.999 19.2112   1
   1  -3   8 616.950 24.9333   1
  -2   3   7 -11.616 9.24087  -2
   2  -3   8 -11.616 9.24087   1
  -3   3   8 9.28444 16.3697  -2
   3  -3   8 9.28444 16.3697   1
   4  -3   8 26.9727 5.78262   1
  -5   3   9 188.571 9.01021  -2
   5  -3   8 188.571 9.01021   1
   6  -3   8 329.446 13.9818   1
  -7   3  10 444.053 30.8751  -2
   7  -3   8 444.053 30.8751   1
  -8   3  11 18.2277 22.7000  -2
   8  -3   8 18.2277 22.7000   1
 -10  -2   8 31.8196 13.1210   1
   9   2   1 168.488 18.2580  -2
  -9  -2   8 168.488 18.2580   1
  -8  -2   8 14.7716 9.36673   1
  -7  -2   8 172.915 15.3042   1
   6   2   3 442.305 14.2276  -2
  -6  -2   8 442.305 14.2276   1
  -5  -2   8 68.1462 6.31601   1
   4   2   4 889.042 21.1330  -2
  -4  -2   8 889.042 21.1330   1
   3   2   5 577.960 16.4457  -2
  -3  -2   8 577.960 16.4457   1
  -2  -2   8 13.1863 4.41628   1
   1   2   6 491.207 13.2946  -2
  -1  -2   8 491.207 13.2946   1
   0  -2   8 -0.0944 1.99337   1
  -1   2   7 -2.4756 4.79051  -2
   1  -2   8 -2.4756 4.79051   1
  -2   2   8 1988.82 59.7658  -2
   2  -2   8 1988.82 59.7658   1
   3  -2   8 243.430 11.4310   1
  -4   2   9 65.0572 9.96527  -2
   4  -2   8 65.0572 9.96527   1
  -5   2  10 59.8143 19.5332  -2
   5  -2   8 59.8143 19.5332   1
   6  -2   8 13.7534 5.87469   1
  -7   2  11 5.19697 19.4373  -2
   7  -2   8 5.19697 19.4373   1
   8  -2   8 223.528 14.1458   1
  10   1   1 6.24836 14.8017  -2
 -10  -1   8 6.24836 14.8017   1
   9   1   2 380.948 26.4775  -2
  -9  -1   8 380.948 26.4775   1
  -8  -1   8 6.63710 8.23644   1
   7   1   3 204.153 10.7006  -2
  -7  -1   8 204.153 10.7006   1
   6   1   4 5.75767 14.5602  -2
  -6  -1   8 5.75767 14.5602   1
   5   1   4 232.005 11.9825  -2
  -5  -1   8 232.005 11.9825   1
   4   1   5 170.757 9.38429  -2
  -4  -1   8 170.757 9.38429   1
  -3  -1   8 1073.31 22.7145   1
   2   1   6 572.280 14.6748  -2
  -2  -1   8 572.280 14.6748   1
   1   1   7 2959.07 53.0346  -2
  -1  -1   8 2959.07 53.0346   1
   0   1   7 7.15907 4.54504  -2
   0  -1   8 7.15907 4.54504   1
  -1   1   8 23.4206 8.13647  -2
   1  -1   8 23.4206 8.13647   1
   2  -1   8 142.875 9.76490   1
  -3   1   9 558.605 18.6269  -2
   3  -1   8 558.605 18.6269   1
  -4   1  10 416.684 17.3600  -2
   4  -1   8 416.684 17.3600   1
   5  -1   8 629.534 15.0890   1
  -6   1  11 114.118 9.93385  -2
   6  -1   8 114.118 9.93385   1
   7  -1   8 -6.1235 6.39558   1
  10   0   2 -16.716 13.1014  -2
 -10   0   8 -16.716 13.1014   1
  -9   0   8 61.9018 11.6997   1
   8   0   3 454.840 15.8894  -2
  -8   0   8 454.840 15.8894   1
  -7   0   8 175.213 10.0979   1
   6   0   4 13.8455 15.6658  -2
  -6   0   8 13.8455 15.6658   1
   5   0   5 167.775 8.97964  -2
  -5   0   8 167.775 8.97964   1
  -4   0   8 121.829 7.68422   1
   3   0   6 109.770 7.47948  -2
  -3   0   8 109.770 7.47948   1
   2   0   7 207.185 11.2437  -2
  -2   0   8 207.185 11.2437   1
  -1   0   8 18.5464 2.24911   1
   1   0   8 3.92018 5.65602   1
  -2   0   9 11.8244 11.9136  -2
   2   0   8 11.8244 11.9136   1
  -3   0  10 108.729 12.0655  -2
   3   0   8 108.729 12.0655   1
   4   0   8 2.54500 4.07970   1
  -5   0  11 222.272 10.3408  -2
   5   0   8 222.272 10.3408   1
  -6   0  12 576.004 35.4647  -2
   6   0   8 576.004 35.4647   1
 -10   1   8 85.5027 13.3718   1
   9  -1   3 60.6058 10.9654  -2
  -9   1   8 60.6058 10.9654   1
   8  -1   4 108.671 13.5931  -2
  -8   1   8 108.671 13.5931   1
  -7   1   8 73.2676 7.20218   1
   6  -1   5 90.5645 7.21760  -2
  -6   1   8 90.5645 7.21760   1
  -5   1   8 563.552 15.0117   1
   4  -1   6 113.063 7.24911  -2
  -4   1   8 113.063 7.24911   1
   3  -1   7 626.446 27.3621  -2
  -3   1   8 626.446 27.3621   1
  -2   1   8 22.8397 7.47259   1
   1  -1   8 6.93846 7.42120  -2
  -1   1   8 6.93846 7.42120   1
   0  -1   9 728.462 32.7710  -2
   0   1   8 728.462 32.7710   1
  -1  -1   9 1722.51 52.8005  -2
   1   1   8 1722.51 52.8005   1
  -2  -1  10 432.735 15.8302  -2
   2   1   8 432.735 15.8302   1
   3   1   8 314.809 13.4239   1
  -4  -1  11 102.599 12.4751  -2
   4   1   8 102.599 12.4751   1
  -5  -1  12 501.948 19.8137  -2
   5   1   8 501.948 19.8137   1
   6   1   8 96.9044 13.4037   1
   9  -2   4 435.959 27.5643  -2
  -9   2   8 435.959 27.5643   1
  -8   2   8 289.975 19.5578   1
   7  -2   5 73.4918 14.6404  -2
  -7   2   8 73.4918 14.6404   1
   6  -2   6 264.162 21.9348  -2
  -6   2   8 264.162 21.9348   1
  -5   2   8 33.9177 8.52820   1
   4  -2   7 481.325 23.5052  -2
  -4   2   8 481.325 23.5052   1
  -3   2   8 155.416 9.39141   1
   2  -2   8 2136.92 43.1156  -2
  -2   2   8 2136.92 43.1156   1
   1  -2   9 146.301 13.0098  -2
  -1   2   8 146.301 13.0098   1
   0   2   8 -5.2301 4.66163   1
  -1  -2  10 494.471 16.2487  -2
   1   2   8 494.471 16.2487   1
   2   2   8 70.3159 7.89137   1
  -3  -2  11 12.9836 11.2604  -2
   3   2   8 12.9836 11.2604   1
  -4  -2  12 546.145 19.6636  -2
   4   2   8 546.145 19.6636   1
   5   2   8 83.8778 13.1911   1
  -6  -2  13 408.115 24.8547  -2
   6   2   8 408.115 24.8547   1
  10  -3   4 301.624 25.1948  -2
 -10   3   8 301.624 25.1948   1
  -9   3   8 0.27324 9.64395   1
   8  -3   5 133.401 20.1662  -2
  -8   3   8 133.401 20.1662   1
   7  -3   6 1654.78 54.4280  -2
  -7   3   8 1654.78 54.4280   1
  -6   3   8 187.791 15.6959   1
   5  -3   7 421.829 14.0781  -2
  -5   3   8 421.829 14.0781   1
  -4   3   8 97.6935 7.66568   1
   3  -3   8 0.82259 9.89467  -2
  -3   3   8 0.82259 9.89467   1
   2  -3   9 303.077 14.3843  -2
  -2   3   8 303.077 14.3843   1
  -1   3   8 308.191 12.6382   1
   0  -3  10 361.742 14.4593  -2
   0   3   8 361.742 14.4593   1
  -1  -3  11 1686.87 53.9259  -2
   1   3   8 1686.87 53.9259   1
  -2  -3  11 99.4603 13.1959  -2
   2   3   8 99.4603 13.1959   1
  -3  -3  12 246.423 14.2139  -2
   3   3   8 246.423 14.2139   1
   4   3   8 23.5075 6.55209   1
  -5  -3  13 94.0481 19.1774  -2
   5   3   8 94.0481 19.1774   1
  -6  -3  14 -4.1678 20.3038  -2
   6   3   8 -4.1678 20.3038   1
 -10   4   8 126.034 16.7163   1
   9  -4   5 7.39425 21.5231  -2
  -9   4   8 7.39425 21.5231   1
   8  -4   6 10.0346 19.7472  -2
  -8   4   8 10.0346 19.7472   1
  -7   4   8 135.055 15.4095   1
   6  -4   7 -1.2358 14.3390  -2
  -6   4   8 -1.2358 14.3390   1
  -5   4   8 12.8363 5.33242   1
   4  -4   8 1718.84 54.7191  -2
  -4   4   8 1718.84 54.7191   1
   3  -4   9 194.039 11.7668  -2
  -3   4   8 194.039 11.7668   1
  -2   4   8 0.61492 5.39638   1
   1  -4  10 164.398 11.7814  -2
  -1   4   8 164.398 11.7814   1
   0  -4  11 975.768 26.1908  -2
   0   4   8 975.768 26.1908   1
   1   4   8 4.17781 5.73306   1
  -2  -4  12 985.580 25.8494  -2
   2   4   8 985.580 25.8494   1
   3   4   8 46.8823 7.89186   1
  -4  -4  13 244.001 24.5023  -2
   4   4   8 244.001 24.5023   1
  -5  -4  14 37.5469 20.6722  -2
   5   4   8 37.5469 20.6722   1
   6   4   8 34.5689 12.4252   1
   9  -5   6 149.148 22.2786  -2
  -9   5   8 149.148 22.2786   1
  -8   5   8 175.527 18.7463   1
   7  -5   7 790.917 34.9952  -2
  -7   5   8 790.917 34.9952   1
   6  -5   8 496.242 28.5841  -2
  -6   5   8 496.242 28.5841   1
  -5   5   8 76.0677 7.78686   1
   4  -5   9 303.228 13.7391  -2
  -4   5   8 303.228 13.7391   1
  -3   5   8 672.066 19.9003   1
   2  -5  10 234.562 14.3025  -2
  -2   5   8 234.562 14.3025   1
   1  -5  11 783.843 23.2946  -2
  -1   5   8 783.843 23.2946   1
   0   5   8 95.2405 8.84265   1
  -1  -5  12 1749.40 38.9922  -2
   1   5   8 1749.40 38.9922   1
   2   5   8 186.796 12.5585   1
  -3  -5  13 132.191 22.8333  -2
   3   5   8 132.191 22.8333   1
  -4  -5  14 52.9917 19.8862  -2
   4   5   8 52.9917 19.8862   1
   5   5   8 492.727 29.2213   1
  -9   6   8 11.3176 12.2907   1
   8  -6   7 276.028 26.4068  -2
  -8   6   8 276.028 26.4068   1
   7  -6   8 4.14823 19.0815  -2
  -7   6   8 4.14823 19.0815   1
  -6   6   8 809.870 34.8774   1
   5  -6   9 136.354 10.7960  -2
  -5   6   8 136.354 10.7960   1
   4  -6  10 106.706 21.1428  -2
  -4   6   8 106.706 21.1428   1
   3  -6  10 90.9542 13.1928  -2
  -3   6   8 90.9542 13.1928   1
   2  -6  11 329.711 15.9100  -2
  -2   6   8 329.711 15.9100   1
  -1   6   8 116.191 9.77839   1
   0  -6  12 1347.14 32.7774  -2
   0   6   8 1347.14 32.7774   1
  -1  -6  13 57.7144 17.8946  -2
   1   6   8 57.7144 17.8946   1
   2   6   8 10.7144 10.6554   1
  -3  -6  14 369.988 26.4392  -2
   3   6   8 369.988 26.4392   1
   8  -7   8 229.117 24.6708  -2
  -8   7   8 229.117 24.6708   1
  -7   7   8 91.5278 14.5250   1
   6  -7   9 18.4571 18.0839  -2
  -6   7   8 18.4571 18.0839   1
   5  -7  10 570.723 33.8015  -2
  -5   7   8 570.723 33.8015   1
   4  -7  10 305.386 26.9274  -2
  -4   7   8 305.386 26.9274   1
   3  -7  11 468.025 17.6016  -2
  -3   7   8 468.025 17.6016   1
  -2   7   8 98.2127 9.66731   1
   1  -7  12 282.351 16.3707  -2
  -1   7   8 282.351 16.3707   1
   0  -7  13 23.0574 19.2775  -2
   0   7   8 23.0574 19.2775   1
   1   7   8 608.159 30.9530   1
  -2  -7  14 75.3808 17.6788  -2
   2   7   8 75.3808 17.6788   1
   7  -8   9 161.140 25.2631  -2
  -7   8   8 161.140 25.2631   1
   6  -8  10 74.5417 23.0734  -2
  -6   8   8 74.5417 23.0734   1
  -5   8   8 98.8970 15.6079   1
   4  -8  11 169.443 12.6296  -2
  -4   8   8 169.443 12.6296   1
  -3   8   8 3.03091 6.64187   1
   2  -8  12 372.313 19.4154  -2
  -2   8   8 372.313 19.4154   1
   1  -8  13 81.3734 19.6737  -2
  -1   8   8 81.3734 19.6737   1
   0   8   8 139.198 17.7606   1
  -1  -8  14 82.7516 19.7723  -2
   1   8   8 82.7516 19.7723   1
  -6   9   8 35.0906 13.6109   1
   5  -9  11 2.25574 18.9047  -2
  -5   9   8 2.25574 18.9047   1
   4  -9  12 106.444 16.5273  -2
  -4   9   8 106.444 16.5273   1
   3  -9  12 138.114 16.9531  -2
  -3   9   8 138.114 16.9531   1
   2  -9  13 0.47594 15.1702  -2
  -2   9   8 0.47594 15.1702   1
  -1   9   8 111.437 15.8539   1
  -4  10   8 414.621 26.5523   1
   3 -10  13 122.002 18.0711  -2
  -3  10   8 122.002 18.0711   1
   1 -13   9 18.0609 12.3985   1
   2 -13   9 32.7160 13.6108   1
  -2 -12   9 27.9911 12.1912   1
   1  12   0 -7.1815 19.7167  -2
  -1 -12   9 -7.1815 19.7167   1
   0  12   1 806.924 37.6776  -2
   0 -12   9 806.924 37.6776   1
   1 -12   9 164.924 17.8639   1
  -2  12   2 53.6684 11.3832  -2
   2 -12   9 53.6684 11.3832   1
   3 -12   9 8.14929 9.27559   1
  -4  12   3 648.471 36.8304  -2
   4 -12   9 648.471 36.8304   1
  -5  12   4 58.6971 22.9595  -2
   5 -12   9 58.6971 22.9595   1
  -3 -11   9 312.109 22.5711   1
   2  11   0 7.45408 20.2780  -2
  -2 -11   9 7.45408 20.2780   1
   1  11   1 21.5045 18.7398  -2
  -1 -11   9 21.5045 18.7398   1
   0 -11   9 57.3885 11.1004   1
  -1  11   2 410.536 24.9276  -2
   1 -11   9 410.536 24.9276   1
   2 -11   9 7.55411 9.30646   1
   3 -11   9 434.648 17.5054   1
  -4  11   4 55.0448 19.0985  -2
   4 -11   9 55.0448 19.0985   1
   5 -11   9 144.102 18.1567   1
  -6  11   5 37.9009 23.0314  -2
   6 -11   9 37.9009 23.0314   1
  -4 -10   9 4.61407 10.1224   1
  -3 -10   9 14.2939 9.73438   1
   2  10   1 651.688 30.2733  -2
  -2 -10   9 651.688 30.2733   1
  -1 -10   9 152.493 14.6679   1
   0  10   2 160.694 19.4005  -2
   0 -10   9 160.694 19.4005   1
  -1  10   3 186.988 21.3024  -2
   1 -10   9 186.988 21.3024   1
   2 -10   9 39.5721 7.03030   1
  -3  10   4 375.176 22.7705  -2
   3 -10   9 375.176 22.7705   1
   4 -10   9 264.693 21.1930   1
  -5  10   5 18.2513 22.3874  -2
   5 -10   9 18.2513 22.3874   1
  -6  10   6 625.784 36.3714  -2
   6 -10   9 625.784 36.3714   1
   5   9   0 251.521 25.5505  -2
  -5  -9   9 251.521 25.5505   1
  -4  -9   9 7.47726 9.21989   1
   3   9   1 70.5840 13.9382  -2
  -3  -9   9 70.5840 13.9382   1
  -2  -9   9 324.684 20.0947   1
   1   9   2 298.883 21.9231  -2
  -1  -9   9 298.883 21.9231   1
   0   9   3 101.702 18.0247  -2
   0  -9   9 101.702 18.0247   1
   1  -9   9 739.940 20.7017   1
  -2   9   4 62.2804 15.1909  -2
   2  -9   9 62.2804 15.1909   1
   3  -9   9 170.046 16.2009   1
   4  -9   9 140.185 16.3421   1
  -5   9   6 95.1559 20.1711  -2
   5  -9   9 95.1559 20.1711   1
   6  -9   9 18.3045 11.7232   1
  -7   9   7 526.396 33.0749  -2
   7  -9   9 526.396 33.0749   1
   6   8   0 91.1219 21.6310  -2
  -6  -8   9 91.1219 21.6310   1
  -5  -8   9 16.1737 9.97421   1
   4   8   1 393.393 21.9827  -2
  -4  -8   9 393.393 21.9827   1
  -3  -8   9 74.2275 11.7532   1
  -2  -8   9 370.796 20.6219   1
   1   8   3 26.2296 12.5529  -2
  -1  -8   9 26.2296 12.5529   1
   0  -8   9 44.5740 6.93326   1
  -1   8   4 360.196 15.7375  -2
   1  -8   9 360.196 15.7375   1
  -2   8   5 747.305 33.1798  -2
   2  -8   9 747.305 33.1798   1
   3  -8   9 505.787 25.2641   1
  -4   8   6 1019.74 39.4528  -2
   4  -8   9 1019.74 39.4528   1
   5  -8   9 45.1150 13.0233   1
  -6   8   7 22.1718 22.7905  -2
   6  -8   9 22.1718 22.7905   1
  -7   8   8 186.206 26.4405  -2
   7  -8   9 186.206 26.4405   1
   7   7   0 389.895 27.3913  -2
  -7  -7   9 389.895 27.3913   1
  -6  -7   9 5.22334 9.39218   1
   5   7   1 -2.5794 15.7200  -2
  -5  -7   9 -2.5794 15.7200   1
   4   7   2 345.372 23.4807  -2
  -4  -7   9 345.372 23.4807   1
  -3  -7   9 159.564 14.2598   1
   2   7   3 444.049 21.0633  -2
  -2  -7   9 444.049 21.0633   1
   1   7   4 280.686 22.6000  -2
  -1  -7   9 280.686 22.6000   1
   0   7   4 337.954 15.7560  -2
   0  -7   9 337.954 15.7560   1
  -1   7   5 1351.52 31.1357  -2
   1  -7   9 1351.52 31.1357   1
   2  -7   9 504.530 23.0482   1
  -3   7   6 279.313 20.6422  -2
   3  -7   9 279.313 20.6422   1
   4  -7   9 119.366 15.3340   1
   5  -7   9 374.650 24.1504   1
  -6   7   8 7.15675 19.8953  -2
   6  -7   9 7.15675 19.8953   1
   7  -7   9 40.8532 14.3968   1
  -7  -6   9 4.36596 10.1633   1
   6   6   1 287.203 23.2272  -2
  -6  -6   9 287.203 23.2272   1
   5   6   2 249.830 21.2144  -2
  -5  -6   9 249.830 21.2144   1
  -4  -6   9 86.9319 11.3564   1
   3   6   3 153.945 13.1412  -2
  -3  -6   9 153.945 13.1412   1
   2   6   4 287.260 20.7921  -2
  -2  -6   9 287.260 20.7921   1
   1   6   4 319.930 14.5852  -2
  -1  -6   9 319.930 14.5852   1
   0   6   5 1077.38 25.9293  -2
   0  -6   9 1077.38 25.9293   1
   1  -6   9 97.4538 12.0651   1
  -2   6   6 448.432 25.2454  -2
   2  -6   9 448.432 25.2454   1
  -3   6   7 69.6073 19.8781  -2
   3  -6   9 69.6073 19.8781   1
   4  -6   9 72.5368 12.0412   1
  -5   6   8 221.127 20.7347  -2
   5  -6   9 221.127 20.7347   1
   6  -6   9 54.6273 12.7968   1
  -7   6   9 328.719 28.9289  -2
   7  -6   9 328.719 28.9289   1
  -8  -5   9 5.05263 10.4855   1
   7   5   1 80.8163 22.6168  -2
  -7  -5   9 80.8163 22.6168   1
   6   5   2 304.392 21.7047  -2
  -6  -5   9 304.392 21.7047   1
  -5  -5   9 305.480 18.3703   1
   4   5   3 371.568 20.4478  -2
  -4  -5   9 371.568 20.4478   1
   3   5   4 285.764 13.3504  -2
  -3  -5   9 285.764 13.3504   1
   2   5   4 3.01527 16.0716  -2
  -2  -5   9 3.01527 16.0716   1
   1   5   5 586.770 16.4988  -2
  -1  -5   9 586.770 16.4988   1
   0  -5   9 45.0493 6.67545   1
  -1   5   6 279.499 22.3563  -2
   1  -5   9 279.499 22.3563   1
  -2   5   7 49.6513 17.8781  -2
   2  -5   9 49.6513 17.8781   1
   3  -5   9 395.978 21.1417   1
  -4   5   8 367.067 23.2420  -2
   4  -5   9 367.067 23.2420   1
   5  -5   9 293.993 21.4536   1
  -6   5   9 -28.180 20.9258  -2
   6  -5   9 -28.180 20.9258   1
  -7   5  10 474.202 31.4111  -2
   7  -5   9 474.202 31.4111   1
   8  -5   9 -5.4891 12.0852   1
  -9  -4   9 15.7790 11.7941   1
  -8  -4   9 260.776 20.7401   1
   7   4   2 118.815 15.5036  -2
  -7  -4   9 118.815 15.5036   1
  -6  -4   9 39.3329 9.73612   1
   5   4   3 305.622 20.1825  -2
  -5  -4   9 305.622 20.1825   1
   4   4   4 136.214 10.6021  -2
  -4  -4   9 136.214 10.6021   1
  -3  -4   9 256.246 10.9804   1
   2   4   5 1461.59 29.9683  -2
  -2  -4   9 1461.59 29.9683   1
   1   4   6 275.840 22.7471  -2
  -1  -4   9 275.840 22.7471   1
   0   4   6 234.161 13.9446  -2
   0  -4   9 234.161 13.9446   1
  -1   4   7 28.3401 16.5224  -2
   1  -4   9 28.3401 16.5224   1
   2  -4   9 1.20302 7.76371   1
  -3   4   8 190.395 19.7775  -2
   3  -4   9 190.395 19.7775   1
  -4   4   9 619.070 32.2401  -2
   4  -4   9 619.070 32.2401   1
   5  -4   9 35.4239 11.7735   1
  -6   4  10 459.927 28.8186  -2
   6  -4   9 459.927 28.8186   1
   7  -4   9 47.7163 13.9239   1
  -8   4  11 186.745 27.8009  -2
   8  -4   9 186.745 27.8009   1
  -9  -3   9 113.138 15.9306   1
   8   3   2 58.3445 12.4973  -2
  -8  -3   9 58.3445 12.4973   1
  -7  -3   9 56.0218 10.5678   1
   6   3   3 411.847 24.0865  -2
  -6  -3   9 411.847 24.0865   1
   5   3   4 797.165 20.3567  -2
  -5  -3   9 797.165 20.3567   1
  -4  -3   9 59.4936 6.19558   1
   3   3   5 283.874 11.3835  -2
  -3  -3   9 283.874 11.3835   1
   2   3   6 1496.04 31.3959  -2
  -2  -3   9 1496.04 31.3959   1
   1   3   6 312.426 22.5062  -2
  -1  -3   9 312.426 22.5062   1
   0   3   7 7.77126 7.57197  -2
   0  -3   9 7.77126 7.57197   1
   1  -3   9 662.318 28.1546   1
  -2   3   8 376.313 24.5397  -2
   2  -3   9 376.313 24.5397   1
  -3   3   9 82.3491 19.3466  -2
   3  -3   9 82.3491 19.3466   1
   4  -3   9 278.963 13.0596   1
  -5   3  10 160.102 11.5295  -2
   5  -3   9 160.102 11.5295   1
   6  -3   9 7.22777 6.19194   1
  -7   3  11 152.652 27.3326  -2
   7  -3   9 152.652 27.3326   1
   9   2   2 154.583 18.1576  -2
  -9  -2   9 154.583 18.1576   1
  -8  -2   9 -0.1086 8.95319   1
  -7  -2   9 30.8156 8.92349   1
   6   2   4 10.9477 7.49426  -2
  -6  -2   9 10.9477 7.49426   1
  -5  -2   9 7.54379 4.68350   1
   4   2   5 1173.67 25.8010  -2
  -4  -2   9 1173.67 25.8010   1
   3   2   6 1111.51 24.7722  -2
  -3  -2   9 1111.51 24.7722   1
  -2  -2   9 637.607 16.4657   1
   1   2   7 1556.94 30.9896  -2
  -1  -2   9 1556.94 30.9896   1
   0  -2   9 36.7368 4.88689   1
  -1   2   8 166.156 20.9411  -2
   1  -2   9 166.156 20.9411   1
  -2   2   9 1229.37 43.2877  -2
   2  -2   9 1229.37 43.2877   1
   3  -2   9 397.822 14.7730   1
  -4   2  10 855.579 35.4591  -2
   4  -2   9 855.579 35.4591   1
  -5   2  11 -27.569 22.2288  -2
   5  -2   9 -27.569 22.2288   1
  -6   2  11 508.624 33.7223  -2
   6  -2   9 508.624 33.7223   1
  -7   2  12 79.4633 21.1496  -2
   7  -2   9 79.4633 21.1496   1
   8  -2   9 134.702 19.3112   1
  10   1   2 115.390 22.1856  -2
 -10  -1   9 115.390 22.1856   1
   9   1   3 295.626 24.6637  -2
  -9  -1   9 295.626 24.6637   1
  -8  -1   9 381.839 21.3281   1
   7   1   4 285.085 12.6062  -2
  -7  -1   9 285.085 12.6062   1
   6   1   5 59.4708 17.2476  -2
  -6  -1   9 59.4708 17.2476   1
   5   1   5 313.829 13.5460  -2
  -5  -1   9 313.829 13.5460   1
   4   1   6 685.739 18.1082  -2
  -4  -1   9 685.739 18.1082   1
  -3  -1   9 69.4434 6.38867   1
   2   1   7 509.939 14.2850  -2
  -2  -1   9 509.939 14.2850   1
   1   1   8 1991.10 38.4975  -2
  -1  -1   9 1991.10 38.4975   1
   0   1   8 738.392 24.2073  -2
   0  -1   9 738.392 24.2073   1
  -1   1   9 234.863 12.9284  -2
   1  -1   9 234.863 12.9284   1
   2  -1   9 179.847 11.2999   1
  -3   1  10 523.144 19.1136  -2
   3  -1   9 523.144 19.1136   1
  -4   1  11 423.357 18.8716  -2
   4  -1   9 423.357 18.8716   1
   5  -1   9 933.209 19.8188   1
  -6   1  12 21.1631 12.6029  -2
   6  -1   9 21.1631 12.6029   1
   7  -1   9 412.929 27.4357   1
  -9   0   9 231.383 19.6058   1
   8   0   4 179.097 11.9254  -2
  -8   0   9 179.097 11.9254   1
   7   0   5 79.5662 19.0869  -2
  -7   0   9 79.5662 19.0869   1
   6   0   5 643.700 28.7766  -2
  -6   0   9 643.700 28.7766   1
   5   0   6 234.647 10.4606  -2
  -5   0   9 234.647 10.4606   1
  -4   0   9 217.609 9.42624   1
   3   0   7 329.338 19.7847  -2
  -3   0   9 329.338 19.7847   1
   2   0   8 22.5718 17.1221  -2
  -2   0   9 22.5718 17.1221   1
  -1   0   9 1.32949 5.54510   1
   0   0   9 16.0719 6.22868  -2
   0   0   9 16.0719 6.22868   1
   1   0   9 232.782 11.8540   1
  -2   0  10 194.534 13.7987  -2
   2   0   9 194.534 13.7987   1
  -3   0  11 2.27399 11.5994  -2
   3   0   9 2.27399 11.5994   1
   4   0   9 59.9862 7.76952   1
  -5   0  12 237.991 14.6284  -2
   5   0   9 237.991 14.6284   1
  -6   0  13 462.986 33.9377  -2
   6   0   9 462.986 33.9377   1
   9  -1   4 333.359 24.5627  -2
  -9   1   9 333.359 24.5627   1
   8  -1   5 270.083 23.3942  -2
  -8   1   9 270.083 23.3942   1
  -7   1   9 26.0240 9.52014   1
   6  -1   6 49.5781 10.2283  -2
  -6   1   9 49.5781 10.2283   1
  -5   1   9 234.598 17.0403   1
   4  -1   7 351.592 22.1585  -2
  -4   1   9 351.592 22.1585   1
   3  -1   8 529.846 26.1285  -2
  -3   1   9 529.846 26.1285   1
  -2   1   9 3.64215 5.63876   1
   1  -1   9 160.076 11.1520  -2
  -1   1   9 160.076 11.1520   1
   0  -1  10 191.495 20.9851  -2
   0   1   9 191.495 20.9851   1
  -1  -1  10 280.203 15.5185  -2
   1   1   9 280.203 15.5185   1
  -2  -1  11 169.210 12.1306  -2
   2   1   9 169.210 12.1306   1
   3   1   9 642.891 20.3098   1
  -4  -1  12 155.695 13.1589  -2
   4   1   9 155.695 13.1589   1
  -5  -1  13 255.932 17.4208  -2
   5   1   9 255.932 17.4208   1
   6   1   9 180.258 18.3420   1
   9  -2   5 172.065 23.4385  -2
  -9   2   9 172.065 23.4385   1
  -8   2   9 446.115 24.1867   1
   7  -2   6 549.905 27.1395  -2
  -7   2   9 549.905 27.1395   1
   6  -2   7 138.718 20.8326  -2
  -6   2   9 138.718 20.8326   1
   5  -2   7 395.812 25.2155  -2
  -5   2   9 395.812 25.2155   1
   4  -2   8 111.314 15.7771  -2
  -4   2   9 111.314 15.7771   1
  -3   2   9 21.8458 5.98210   1
   2  -2   9 1194.16 28.8650  -2
  -2   2   9 1194.16 28.8650   1
   1  -2  10 606.544 20.3989  -2
  -1   2   9 606.544 20.3989   1
   0   2   9 332.865 13.9441   1
  -1  -2  11 211.432 12.1858  -2
   1   2   9 211.432 12.1858   1
   2   2   9 46.4437 7.99166   1
  -3  -2  12 212.621 14.8058  -2
   3   2   9 212.621 14.8058   1
  -4  -2  13 56.6067 13.3615  -2
   4   2   9 56.6067 13.3615   1
   5   2   9 63.6909 13.1262   1
  10  -3   5 40.7952 18.4702  -2
 -10   3   9 40.7952 18.4702   1
  -9   3   9 27.5543 11.5704   1
   8  -3   6 161.855 20.7507  -2
  -8   3   9 161.855 20.7507   1
   7  -3   7 872.992 38.1750  -2
  -7   3   9 872.992 38.1750   1
  -6   3   9 847.884 33.1363   1
   5  -3   8 255.705 12.1258  -2
  -5   3   9 255.705 12.1258   1
  -4   3   9 179.416 10.7701   1
   3  -3   9 75.1540 11.1704  -2
  -3   3   9 75.1540 11.1704   1
   2  -3  10 376.091 15.7093  -2
  -2   3   9 376.091 15.7093   1
  -1   3   9 71.2394 8.04927   1
   0  -3  11 637.478 19.7350  -2
   0   3   9 637.478 19.7350   1
  -1  -3  12 864.259 36.4996  -2
   1   3   9 864.259 36.4996   1
  -2  -3  12 32.7638 12.7030  -2
   2   3   9 32.7638 12.7030   1
  -3  -3  13 110.652 12.1535  -2
   3   3   9 110.652 12.1535   1
   4   3   9 218.530 20.4344   1
  -5  -3  14 3.36951 16.7732  -2
   5   3   9 3.36951 16.7732   1
   9  -4   6 30.7970 20.9689  -2
  -9   4   9 30.7970 20.9689   1
   8  -4   7 229.483 24.1585  -2
  -8   4   9 229.483 24.1585   1
  -7   4   9 190.172 18.8690   1
   6  -4   8 225.277 18.4418  -2
  -6   4   9 225.277 18.4418   1
   5  -4   9 12.5024 20.1219  -2
  -5   4   9 12.5024 20.1219   1
   4  -4   9 698.722 21.9922  -2
  -4   4   9 698.722 21.9922   1
   3  -4  10 1244.82 30.3742  -2
  -3   4   9 1244.82 30.3742   1
  -2   4   9 113.504 9.93556   1
   1  -4  11 267.368 14.1976  -2
  -1   4   9 267.368 14.1976   1
   0  -4  12 354.443 17.2455  -2
   0   4   9 354.443 17.2455   1
   1   4   9 20.1267 6.53098   1
  -2  -4  13 318.196 15.1522  -2
   2   4   9 318.196 15.1522   1
   3   4   9 5.20870 9.94464   1
  -4  -4  14 249.805 25.6396  -2
   4   4   9 249.805 25.6396   1
   9  -5   7 274.673 25.8245  -2
  -9   5   9 274.673 25.8245   1
  -8   5   9 257.628 22.4302   1
   7  -5   8 229.758 22.4564  -2
  -7   5   9 229.758 22.4564   1
   6  -5   9 44.5347 19.9454  -2
  -6   5   9 44.5347 19.9454   1
   5  -5   9 225.722 24.8449  -2
  -5   5   9 225.722 24.8449   1
   4  -5  10 49.3604 9.67902  -2
  -4   5   9 49.3604 9.67902   1
  -3   5   9 361.288 15.3590   1
   2  -5  11 489.652 19.5065  -2
  -2   5   9 489.652 19.5065   1
   1  -5  12 961.781 27.0485  -2
  -1   5   9 961.781 27.0485   1
   0   5   9 9.02171 5.86977   1
  -1  -5  13 40.1077 10.1937  -2
   1   5   9 40.1077 10.1937   1
   2   5   9 74.1540 13.9693   1
  -3  -5  14 240.475 26.8085  -2
   3   5   9 240.475 26.8085   1
   8  -6   8 225.764 27.1644  -2
  -8   6   9 225.764 27.1644   1
   7  -6   9 275.465 25.9617  -2
  -7   6   9 275.465 25.9617   1
  -6   6   9 171.337 19.0359   1
   5  -6  10 399.223 24.3599  -2
  -5   6   9 399.223 24.3599   1
   4  -6  11 529.779 32.1224  -2
  -4   6   9 529.779 32.1224   1
   3  -6  11 214.279 15.8922  -2
  -3   6   9 214.279 15.8922   1
   2  -6  12 221.391 14.9824  -2
  -2   6   9 221.391 14.9824   1
  -1   6   9 9.92396 6.10866   1
   0  -6  13 444.471 18.6929  -2
   0   6   9 444.471 18.6929   1
  -1  -6  14 68.2628 20.0197  -2
   1   6   9 68.2628 20.0197   1
   2   6   9 88.5051 15.0767   1
  -7   7   9 18.0468 11.3458   1
   6  -7  10 82.0631 21.0551  -2
  -6   7   9 82.0631 21.0551   1
   5  -7  11 169.823 25.9843  -2
  -5   7   9 169.823 25.9843   1
   4  -7  11 40.1067 22.3073  -2
  -4   7   9 40.1067 22.3073   1
   3  -7  12 173.697 13.5764  -2
  -3   7   9 173.697 13.5764   1
  -2   7   9 13.7323 7.22318   1
   1  -7  13 211.094 16.0584  -2
  -1   7   9 211.094 16.0584   1
   0  -7  14 216.558 26.1538  -2
   0   7   9 216.558 26.1538   1
   1   7   9 21.6052 12.6052   1
  -5   8   9 50.4714 13.2346   1
   4  -8  12 33.5025 10.9747  -2
  -4   8   9 33.5025 10.9747   1
  -3   8   9 12.3659 7.17411   1
   2  -8  13 474.048 21.7761  -2
  -2   8   9 474.048 21.7761   1
   1  -8  14 78.6047 21.2456  -2
  -1   8   9 78.6047 21.2456   1
   3  -9  13 353.458 31.2830  -2
  -3   9   9 353.458 31.2830   1
   0  12   2 32.9188 22.0870  -2
   0 -12  10 32.9188 22.0870   1
   1 -12  10 24.9104 11.4095   1
  -2  12   3 329.510 23.3090  -2
   2 -12  10 329.510 23.3090   1
   3 -12  10 4.89632 9.21434   1
  -4  12   4 182.571 29.0916  -2
   4 -12  10 182.571 29.0916   1
  -3 -11  10 173.547 18.0937   1
   2  11   1 146.615 23.5264  -2
  -2 -11  10 146.615 23.5264   1
   1  11   2 102.426 21.1464  -2
  -1 -11  10 102.426 21.1464   1
   0 -11  10 47.5327 11.2193   1
  -1  11   3 480.278 27.1917  -2
   1 -11  10 480.278 27.1917   1
   2 -11  10 95.7487 14.2525   1
   3 -11  10 13.3600 7.58938   1
  -4  11   5 172.436 24.3917  -2
   4 -11  10 172.436 24.3917   1
   5 -11  10 221.555 21.4489   1
  -4 -10  10 70.9316 13.6334   1
  -3 -10  10 11.3175 9.99232   1
   2  10   2 140.576 19.8707  -2
  -2 -10  10 140.576 19.8707   1
  -1 -10  10 126.847 15.3843   1
   0  10   3 337.582 24.4481  -2
   0 -10  10 337.582 24.4481   1
  -1  10   4 36.3039 20.0017  -2
   1 -10  10 36.3039 20.0017   1
   2 -10  10 1.66583 6.62325   1
  -3  10   5 94.2306 17.2187  -2
   3 -10  10 94.2306 17.2187   1
   4 -10  10 16.9660 12.0685   1
  -5  10   6 27.2500 24.6238  -2
   5 -10  10 27.2500 24.6238   1
   5   9   1 321.552 30.0922  -2
  -5  -9  10 321.552 30.0922   1
  -4  -9  10 30.6133 11.2778   1
   3   9   2 572.666 27.3779  -2
  -3  -9  10 572.666 27.3779   1
  -2  -9  10 123.392 13.7340   1
   1   9   3 220.689 21.5805  -2
  -1  -9  10 220.689 21.5805   1
   0   9   4 224.670 19.4631  -2
   0  -9  10 224.670 19.4631   1
   1  -9  10 780.595 22.2881   1
  -2   9   5 860.568 24.3906  -2
   2  -9  10 860.568 24.3906   1
   3  -9  10 359.150 22.7395   1
  -4   9   6 97.8305 25.2145  -2
   4  -9  10 97.8305 25.2145   1
  -5   9   7 86.3567 22.0607  -2
   5  -9  10 86.3567 22.0607   1
   6  -9  10 -5.7984 12.3277   1
   6   8   1 246.293 25.0722  -2
  -6  -8  10 246.293 25.0722   1
  -5  -8  10 47.8169 12.0222   1
   4   8   2 197.977 17.8888  -2
  -4  -8  10 197.977 17.8888   1
  -3  -8  10 30.7103 10.1764   1
   2   8   3 970.461 37.2157  -2
  -2  -8  10 970.461 37.2157   1
   1   8   4 206.336 19.0189  -2
  -1  -8  10 206.336 19.0189   1
   0  -8  10 25.2209 6.87582   1
  -1   8   5 351.494 16.6304  -2
   1  -8  10 351.494 16.6304   1
  -2   8   6 372.379 27.8617  -2
   2  -8  10 372.379 27.8617   1
   3  -8  10 0.93813 9.71092   1
  -4   8   7 620.112 31.0745  -2
   4  -8  10 620.112 31.0745   1
   5  -8  10 147.312 18.3008   1
  -6   8   8 10.7012 22.9075  -2
   6  -8  10 10.7012 22.9075   1
  -6  -7  10 14.6193 10.2267   1
   5   7   2 158.247 17.7016  -2
  -5  -7  10 158.247 17.7016   1
   4   7   3 406.552 25.5343  -2
  -4  -7  10 406.552 25.5343   1
  -3  -7  10 29.9508 9.48407   1
   2   7   4 19.5822 11.1617  -2
  -2  -7  10 19.5822 11.1617   1
   1   7   5 593.843 29.8980  -2
  -1  -7  10 593.843 29.8980   1
   0   7   5 477.777 18.1370  -2
   0  -7  10 477.777 18.1370   1
  -1   7   6 503.321 19.2076  -2
   1  -7  10 503.321 19.2076   1
   2  -7  10 208.327 16.9390   1
  -3   7   7 82.4110 17.5946  -2
   3  -7  10 82.4110 17.5946   1
   4  -7  10 166.955 17.6999   1
  -5   7   8 484.915 30.9057  -2
   5  -7  10 484.915 30.9057   1
  -6   7   9 77.3514 21.8629  -2
   6  -7  10 77.3514 21.8629   1
   7  -7  10 433.195 28.4774   1
  -7  -6  10 5.27423 9.37318   1
   6   6   2 467.104 27.8001  -2
  -6  -6  10 467.104 27.8001   1
   5   6   3 107.201 18.5521  -2
  -5  -6  10 107.201 18.5521   1
  -4  -6  10 1296.16 41.1333   1
   3   6   4 680.665 26.4774  -2
  -3  -6  10 680.665 26.4774   1
   2   6   5 349.633 23.2339  -2
  -2  -6  10 349.633 23.2339   1
   1   6   5 87.0191 12.7265  -2
  -1  -6  10 87.0191 12.7265   1
   0   6   6 449.942 16.6217  -2
   0  -6  10 449.942 16.6217   1
   1  -6  10 15.4845 10.3818   1
  -2   6   7 1077.78 40.3702  -2
   2  -6  10 1077.78 40.3702   1
  -3   6   8 36.6611 22.8991  -2
   3  -6  10 36.6611 22.8991   1
   4  -6  10 99.1122 13.9191   1
  -5   6   9 403.225 25.2709  -2
   5  -6  10 403.225 25.2709   1
   6  -6  10 78.4867 15.0429   1
  -7   6  10 9.43716 24.0050  -2
   7  -6  10 9.43716 24.0050   1
  -8  -5  10 17.1428 11.4793   1
   7   5   2 370.496 26.8984  -2
  -7  -5  10 370.496 26.8984   1
   6   5   3 468.927 25.5574  -2
  -6  -5  10 468.927 25.5574   1
  -5  -5  10 27.1071 9.13194   1
   4   5   4 185.959 17.1145  -2
  -4  -5  10 185.959 17.1145   1
   3   5   5 808.298 21.7476  -2
  -3  -5  10 808.298 21.7476   1
   2   5   5 267.543 21.2447  -2
  -2  -5  10 267.543 21.2447   1
   1   5   6 1030.81 24.0677  -2
  -1  -5  10 1030.81 24.0677   1
   0   5   7 75.7221 21.0797  -2
   0  -5  10 75.7221 21.0797   1
  -1   5   7 109.644 20.3830  -2
   1  -5  10 109.644 20.3830   1
  -2   5   8 283.645 24.3182  -2
   2  -5  10 283.645 24.3182   1
   3  -5  10 683.981 29.4740   1
  -4   5   9 39.2479 16.3421  -2
   4  -5  10 39.2479 16.3421   1
   5  -5  10 426.842 24.9835   1
  -6   5  10 -4.2604 24.0743  -2
   6  -5  10 -4.2604 24.0743   1
  -7   5  11 291.159 30.3367  -2
   7  -5  10 291.159 30.3367   1
  -8  -4  10 70.9643 12.8473   1
   7   4   3 34.4384 13.8018  -2
  -7  -4  10 34.4384 13.8018   1
  -6  -4  10 448.274 22.5599   1
   5   4   4 342.413 20.9001  -2
  -5  -4  10 342.413 20.9001   1
   4   4   5 41.9231 10.0782  -2
  -4  -4  10 41.9231 10.0782   1
  -3  -4  10 55.8144 6.73680   1
   2   4   6 1773.08 35.5856  -2
  -2  -4  10 1773.08 35.5856   1
   1   4   7 260.096 22.4581  -2
  -1  -4  10 260.096 22.4581   1
   0   4   7 1608.41 34.5103  -2
   0  -4  10 1608.41 34.5103   1
  -1   4   8 124.165 18.4276  -2
   1  -4  10 124.165 18.4276   1
   2  -4  10 16.3451 9.29051   1
  -3   4   9 1317.19 46.7127  -2
   3  -4  10 1317.19 46.7127   1
  -4   4  10 416.689 30.1051  -2
   4  -4  10 416.689 30.1051   1
   5  -4  10 7.75559 11.3734   1
  -6   4  11 444.913 29.9312  -2
   6  -4  10 444.913 29.9312   1
   7  -4  10 29.2120 14.4475   1
  -9  -3  10 47.3588 13.1386   1
   8   3   3 18.6915 13.9513  -2
  -8  -3  10 18.6915 13.9513   1
  -7  -3  10 14.3737 8.82960   1
   6   3   4 10.7911 16.4227  -2
  -6  -3  10 10.7911 16.4227   1
   5   3   5 1097.69 25.8105  -2
  -5  -3  10 1097.69 25.8105   1
  -4  -3  10 3.97603 4.91227   1
   3   3   6 453.049 14.2990  -2
  -3  -3  10 453.049 14.2990   1
   2   3   7 842.491 21.7320  -2
  -2  -3  10 842.491 21.7320   1
   1   3   7 247.139 22.1731  -2
  -1  -3  10 247.139 22.1731   1
   0   3   8 378.542 13.4474  -2
   0  -3  10 378.542 13.4474   1
   1  -3  10 1244.18 42.7804   1
  -2   3   9 372.636 25.9884  -2
   2  -3  10 372.636 25.9884   1
  -3   3  10 371.394 27.2144  -2
   3  -3  10 371.394 27.2144   1
   4  -3  10 46.0953 12.0701   1
  -5   3  11 298.781 22.4247  -2
   5  -3  10 298.781 22.4247   1
   6  -3  10 108.452 16.9669   1
  -7   3  12 48.9067 27.9984  -2
   7  -3  10 48.9067 27.9984   1
   9   2   3 52.6659 16.2874  -2
  -9  -2  10 52.6659 16.2874   1
  -8  -2  10 344.773 21.9779   1
  -7  -2  10 348.396 19.9501   1
   6   2   5 63.9217 8.86654  -2
  -6  -2  10 63.9217 8.86654   1
  -5  -2  10 21.1305 5.33620   1
   4   2   6 1036.03 24.1221  -2
  -4  -2  10 1036.03 24.1221   1
   3   2   7 564.657 16.7757  -2
  -3  -2  10 564.657 16.7757   1
  -2  -2  10 361.351 12.2496   1
   1   2   8 414.611 12.9534  -2
  -1  -2  10 414.611 12.9534   1
   0  -2  10 22.6869 5.24073   1
  -1   2   9 612.074 29.8003  -2
   1  -2  10 612.074 29.8003   1
  -2   2  10 439.706 27.2228  -2
   2  -2  10 439.706 27.2228   1
   3  -2  10 164.947 11.3721   1
  -4   2  11 540.224 30.1376  -2
   4  -2  10 540.224 30.1376   1
  -5   2  12 211.955 29.5180  -2
   5  -2  10 211.955 29.5180   1
  -6   2  12 294.341 31.8039  -2
   6  -2  10 294.341 31.8039   1
  -7   2  13 4.98790 21.0308  -2
   7  -2  10 4.98790 21.0308   1
  -8  -1  10 8.36456 8.75941   1
   7   1   5 882.683 22.6493  -2
  -7  -1  10 882.683 22.6493   1
  -6  -1  10 -1.5286 4.93554   1
   5   1   6 408.574 15.2858  -2
  -5  -1  10 408.574 15.2858   1
   4   1   7 542.537 25.7584  -2
  -4  -1  10 542.537 25.7584   1
  -3  -1  10 67.8507 11.3805   1
   2   1   8 367.684 22.1095  -2
  -2  -1  10 367.684 22.1095   1
   1   1   9 381.197 25.0673  -2
  -1  -1  10 381.197 25.0673   1
   0   1   9 171.786 20.5131  -2
   0  -1  10 171.786 20.5131   1
  -1   1  10 807.620 32.7815  -2
   1  -1  10 807.620 32.7815   1
   2  -1  10 99.1612 9.21672   1
  -3   1  11 373.134 17.6954  -2
   3  -1  10 373.134 17.6954   1
  -4   1  12 297.662 17.7331  -2
   4  -1  10 297.662 17.7331   1
   5  -1  10 273.100 14.8626   1
  -6   1  13 166.839 19.2763  -2
   6  -1  10 166.839 19.2763   1
   7  -1  10 107.071 18.6566   1
   8   0   5 19.8336 15.7207  -2
  -8   0  10 19.8336 15.7207   1
   7   0   6 15.4360 18.3701  -2
  -7   0  10 15.4360 18.3701   1
  -6   0  10 320.111 19.5432   1
   5   0   7 554.954 25.8125  -2
  -5   0  10 554.954 25.8125   1
  -4   0  10 1012.32 36.4678   1
   3   0   8 93.1973 16.8859  -2
  -3   0  10 93.1973 16.8859   1
   2   0   9 125.381 18.6598  -2
  -2   0  10 125.381 18.6598   1
  -1   0  10 243.851 12.1591   1
   0   0  10 944.904 24.7288  -2
   0   0  10 944.904 24.7288   1
   1   0  10 8.62492 6.10714   1
  -2   0  11 521.403 20.2198  -2
   2   0  10 521.403 20.2198   1
  -3   0  12 274.577 15.5324  -2
   3   0  10 274.577 15.5324   1
   4   0  10 14.2537 7.02371   1
  -5   0  13 335.387 17.4494  -2
   5   0  10 335.387 17.4494   1
  -6   0  14 39.8826 26.3327  -2
   6   0  10 39.8826 26.3327   1
   8  -1   6 95.8564 20.9820  -2
  -8   1  10 95.8564 20.9820   1
   7  -1   6 100.717 22.7058  -2
  -7   1  10 100.717 22.7058   1
   6  -1   7 100.442 12.6167  -2
  -6   1  10 100.442 12.6167   1
  -5   1  10 12.7660 9.22998   1
   4  -1   8 263.775 19.8664  -2
  -4   1  10 263.775 19.8664   1
   3  -1   9 525.555 25.9418  -2
  -3   1  10 525.555 25.9418   1
  -2   1  10 290.982 12.9917   1
   1  -1  10 903.876 24.2624  -2
  -1   1  10 903.876 24.2624   1
   0  -1  11 77.8323 20.0945  -2
   0   1  10 77.8323 20.0945   1
  -1  -1  11 185.158 15.4554  -2
   1   1  10 185.158 15.4554   1
  -2  -1  12 77.4151 11.7012  -2
   2   1  10 77.4151 11.7012   1
   3   1  10 760.266 23.0233   1
  -4  -1  13 249.092 16.4931  -2
   4   1  10 249.092 16.4931   1
  -5  -1  14 209.104 18.1116  -2
   5   1  10 209.104 18.1116   1
   9  -2   6 56.2135 21.5321  -2
  -9   2  10 56.2135 21.5321   1
  -8   2  10 135.592 15.7919   1
   7  -2   7 105.225 17.7393  -2
  -7   2  10 105.225 17.7393   1
   6  -2   8 248.952 23.1503  -2
  -6   2  10 248.952 23.1503   1
   5  -2   8 101.088 19.9420  -2
  -5   2  10 101.088 19.9420   1
   4  -2   9 632.561 29.5277  -2
  -4   2  10 632.561 29.5277   1
  -3   2  10 220.940 11.8196   1
   2  -2  10 373.564 15.8691  -2
  -2   2  10 373.564 15.8691   1
   1  -2  11 707.302 22.5918  -2
  -1   2  10 707.302 22.5918   1
   0  -2  11 949.248 39.9996  -2
   0   2  10 949.248 39.9996   1
  -1  -2  12 199.567 12.8368  -2
   1   2  10 199.567 12.8368   1
  -2  -2  13 114.158 23.3699  -2
   2   2  10 114.158 23.3699   1
  -3  -2  13 532.715 21.5733  -2
   3   2  10 532.715 21.5733   1
  -4  -2  14 26.7419 13.8773  -2
   4   2  10 26.7419 13.8773   1
   5   2  10 62.7070 13.1216   1
  -9   3  10 -8.0118 9.84270   1
   8  -3   7 49.9316 18.7615  -2
  -8   3  10 49.9316 18.7615   1
   7  -3   8 356.506 28.6985  -2
  -7   3  10 356.506 28.6985   1
  -6   3  10 -12.559 8.66706   1
   5  -3   9 193.922 11.8178  -2
  -5   3  10 193.922 11.8178   1
  -4   3  10 13.2046 5.79534   1
   3  -3  10 296.341 16.1438  -2
  -3   3  10 296.341 16.1438   1
   2  -3  11 315.094 15.6049  -2
  -2   3  10 315.094 15.6049   1
  -1   3  10 55.3793 8.41139   1
   0  -3  12 53.9889 9.96349  -2
   0   3  10 53.9889 9.96349   1
  -1  -3  13 1001.70 41.6482  -2
   1   3  10 1001.70 41.6482   1
  -2  -3  13 151.682 15.3843  -2
   2   3  10 151.682 15.3843   1
  -3  -3  14 66.9222 13.0178  -2
   3   3  10 66.9222 13.0178   1
   4   3  10 47.1781 13.9534   1
   8  -4   8 38.7178 20.6817  -2
  -8   4  10 38.7178 20.6817   1
  -7   4  10 -18.816 10.1992   1
   6  -4   9 322.944 23.6656  -2
  -6   4  10 322.944 23.6656   1
   5  -4  10 28.9911 19.8402  -2
  -5   4  10 28.9911 19.8402   1
   4  -4  10 455.695 18.6871  -2
  -4   4  10 455.695 18.6871   1
   3  -4  11 375.682 16.8688  -2
  -3   4  10 375.682 16.8688   1
  -2   4  10 528.912 19.0376   1
   1  -4  12 173.162 13.8767  -2
  -1   4  10 173.162 13.8767   1
   0  -4  13 37.4733 13.2856  -2
   0   4  10 37.4733 13.2856   1
   1   4  10 46.2202 8.31240   1
  -2  -4  14 28.2065 10.6640  -2
   2   4  10 28.2065 10.6640   1
   3   4  10 64.6177 14.5488   1
  -8   5  10 262.208 23.6702   1
   7  -5   9 655.812 34.6979  -2
  -7   5  10 655.812 34.6979   1
   6  -5  10 11.1940 20.9205  -2
  -6   5  10 11.1940 20.9205   1
  -5   5  10 29.9803 7.21424   1
   4  -5  11 32.8670 9.45649  -2
  -4   5  10 32.8670 9.45649   1
  -3   5  10 20.7350 7.36635   1
   2  -5  12 139.327 13.9537  -2
  -2   5  10 139.327 13.9537   1
   1  -5  13 334.065 17.9301  -2
  -1   5  10 334.065 17.9301   1
   0   5  10 485.019 19.0929   1
  -1  -5  14 46.9370 10.6025  -2
   1   5  10 46.9370 10.6025   1
   2   5  10 31.4972 11.6785   1
   7  -6  10 38.7154 21.3985  -2
  -7   6  10 38.7154 21.3985   1
  -6   6  10 212.163 22.1063   1
   5  -6  11 178.313 21.6881  -2
  -5   6  10 178.313 21.6881   1
   4  -6  12 479.312 32.5562  -2
  -4   6  10 479.312 32.5562   1
   3  -6  12 44.8022 14.6578  -2
  -3   6  10 44.8022 14.6578   1
   2  -6  13 32.9094 12.9150  -2
  -2   6  10 32.9094 12.9150   1
  -1   6  10 27.7855 8.21692   1
   0  -6  14 100.602 14.0970  -2
   0   6  10 100.602 14.0970   1
   6  -7  11 494.460 32.5746  -2
  -6   7  10 494.460 32.5746   1
   5  -7  12 87.2534 25.6836  -2
  -5   7  10 87.2534 25.6836   1
   4  -7  12 -1.8917 25.2534  -2
  -4   7  10 -1.8917 25.2534   1
   3  -7  13 632.113 22.8904  -2
  -3   7  10 632.113 22.8904   1
  -2   7  10 71.5333 9.55987   1
   1  -7  14 99.8359 15.2190  -2
  -1   7  10 99.8359 15.2190   1
   4  -8  13 48.4353 11.7935  -2
  -4   8  10 48.4353 11.7935   1
  -3   8  10 233.089 15.5131   1
   2  -8  14 182.348 24.5003  -2
  -2   8  10 182.348 24.5003   1
   1  11   3 846.556 38.3936  -2
  -1 -11  11 846.556 38.3936   1
   0 -11  11 -2.5524 10.0392   1
  -1  11   4 17.3756 17.7438  -2
   1 -11  11 17.3756 17.7438   1
   2 -11  11 103.247 15.8184   1
  -3  11   5 70.5377 26.6918  -2
   3 -11  11 70.5377 26.6918   1
  -4  11   6 198.021 24.9039  -2
   4 -11  11 198.021 24.9039   1
  -3 -10  11 44.3339 12.0053   1
   2  10   3 52.7338 18.8870  -2
  -2 -10  11 52.7338 18.8870   1
  -1 -10  11 10.7440 9.16380   1
   0  10   4 486.361 28.8037  -2
   0 -10  11 486.361 28.8037   1
  -1  10   5 176.237 23.8478  -2
   1 -10  11 176.237 23.8478   1
   2 -10  11 284.799 15.4605   1
  -3  10   6 113.193 19.2040  -2
   3 -10  11 113.193 19.2040   1
   4 -10  11 5.65184 11.7056   1
  -5  10   7 68.4716 26.6886  -2
   5 -10  11 68.4716 26.6886   1
  -4  -9  11 -9.8693 9.14468   1
   3   9   3 228.252 18.5240  -2
  -3  -9  11 228.252 18.5240   1
  -2  -9  11 27.9464 9.94399   1
   1   9   4 21.0328 18.0944  -2
  -1  -9  11 21.0328 18.0944   1
   0   9   5 -2.8192 17.2035  -2
   0  -9  11 -2.8192 17.2035   1
   1  -9  11 142.634 11.3972   1
  -2   9   6 289.814 16.4074  -2
   2  -9  11 289.814 16.4074   1
  -3   9   7 265.143 29.8360  -2
   3  -9  11 265.143 29.8360   1
  -4   9   7 35.3690 26.5489  -2
   4  -9  11 35.3690 26.5489   1
  -5   9   8 -9.7849 23.0791  -2
   5  -9  11 -9.7849 23.0791   1
  -5  -8  11 64.9664 13.5411   1
   4   8   3 29.1963 14.1262  -2
  -4  -8  11 29.1963 14.1262   1
  -3  -8  11 41.6541 11.0818   1
   2   8   4 646.117 31.1213  -2
  -2  -8  11 646.117 31.1213   1
   1   8   5 117.545 17.4471  -2
  -1  -8  11 117.545 17.4471   1
   0  -8  11 49.5449 7.92379   1
  -1   8   6 215.263 15.4034  -2
   1  -8  11 215.263 15.4034   1
  -2   8   7 507.458 33.0644  -2
   2  -8  11 507.458 33.0644   1
   3  -8  11 10.9756 11.0666   1
  -4   8   8 172.589 21.8192  -2
   4  -8  11 172.589 21.8192   1
   5  -8  11 103.766 17.1770   1
  -6  -7  11 57.9027 13.2146   1
   5   7   3 432.982 26.0056  -2
  -5  -7  11 432.982 26.0056   1
   4   7   4 82.7999 19.8606  -2
  -4  -7  11 82.7999 19.8606   1
  -3  -7  11 -9.4616 7.45230   1
   2   7   5 51.7735 12.4314  -2
  -2  -7  11 51.7735 12.4314   1
   1   7   6 488.693 28.9102  -2
  -1  -7  11 488.693 28.9102   1
   0   7   6 368.793 16.9566  -2
   0  -7  11 368.793 16.9566   1
  -1   7   7 973.275 27.0911  -2
   1  -7  11 973.275 27.0911   1
   2  -7  11 2.99241 9.12979   1
  -3   7   8 437.263 27.4691  -2
   3  -7  11 437.263 27.4691   1
   4  -7  11 12.5179 10.9972   1
  -5   7   9 130.186 27.5892  -2
   5  -7  11 130.186 27.5892   1
  -7  -6  11 80.5322 14.5533   1
   6   6   3 57.9762 19.5567  -2
  -6  -6  11 57.9762 19.5567   1
   5   6   4 20.0672 17.1452  -2
  -5  -6  11 20.0672 17.1452   1
  -4  -6  11 207.586 16.9029   1
   3   6   5 149.608 14.6720  -2
  -3  -6  11 149.608 14.6720   1
   2   6   6 142.026 21.8084  -2
  -2  -6  11 142.026 21.8084   1
   1   6   6 432.465 18.2769  -2
  -1  -6  11 432.465 18.2769   1
   0   6   7 701.696 21.2093  -2
   0  -6  11 701.696 21.2093   1
   1  -6  11 5.94575 6.09413   1
  -2   6   8 446.665 29.2262  -2
   2  -6  11 446.665 29.2262   1
  -3   6   9 263.979 27.2199  -2
   3  -6  11 263.979 27.2199   1
   4  -6  11 528.883 29.0936   1
  -5   6  10 99.0178 21.5132  -2
   5  -6  11 99.0178 21.5132   1
   6  -6  11 35.8736 15.1725   1
  -8  -5  11 -1.7346 10.0086   1
   7   5   3 502.096 30.4767  -2
  -7  -5  11 502.096 30.4767   1
   6   5   4 171.255 19.8376  -2
  -6  -5  11 171.255 19.8376   1
  -5  -5  11 40.9394 10.0946   1
   4   5   5 107.109 15.6193  -2
  -4  -5  11 107.109 15.6193   1
   3   5   6 537.934 18.3537  -2
  -3  -5  11 537.934 18.3537   1
   2   5   6 258.326 23.7114  -2
  -2  -5  11 258.326 23.7114   1
   1   5   7 805.397 21.0440  -2
  -1  -5  11 805.397 21.0440   1
   0   5   8 80.8522 22.7456  -2
   0  -5  11 80.8522 22.7456   1
  -1   5   8 594.502 31.6591  -2
   1  -5  11 594.502 31.6591   1
  -2   5   9 531.723 31.9104  -2
   2  -5  11 531.723 31.9104   1
   3  -5  11 65.2290 12.7424   1
  -4   5  10 61.4640 18.6736  -2
   4  -5  11 61.4640 18.6736   1
   5  -5  11 261.297 24.2154   1
  -6   5  11 -2.9710 26.7098  -2
   6  -5  11 -2.9710 26.7098   1
  -8  -4  11 397.071 24.6754   1
   7   4   4 -11.802 13.9804  -2
  -7  -4  11 -11.802 13.9804   1
  -6  -4  11 295.936 19.6858   1
   5   4   5 54.6520 15.5865  -2
  -5  -4  11 54.6520 15.5865   1
   4   4   6 227.923 13.4423  -2
  -4  -4  11 227.923 13.4423   1
  -3  -4  11 217.371 11.3560   1
   2   4   7 557.818 16.5391  -2
  -2  -4  11 557.818 16.5391   1
   1   4   8 3.74826 20.3874  -2
  -1  -4  11 3.74826 20.3874   1
   0   4   8 1325.43 31.0399  -2
   0  -4  11 1325.43 31.0399   1
  -1   4   9 247.140 22.1703  -2
   1  -4  11 247.140 22.1703   1
   2  -4  11 216.944 20.1899   1
  -3   4  10 316.618 25.0122  -2
   3  -4  11 316.618 25.0122   1
  -4   4  11 3.04850 24.4129  -2
   4  -4  11 3.04850 24.4129   1
   5  -4  11 4.48641 12.9138   1
  -6   4  12 198.359 26.2995  -2
   6  -4  11 198.359 26.2995   1
   8   3   4 66.9803 15.3684  -2
  -8  -3  11 66.9803 15.3684   1
  -7  -3  11 -10.193 8.46568   1
   6   3   5 51.6429 17.2315  -2
  -6  -3  11 51.6429 17.2315   1
   5   3   6 1058.59 25.4826  -2
  -5  -3  11 1058.59 25.4826   1
  -4  -3  11 37.7476 6.49270   1
   3   3   7 591.307 17.3769  -2
  -3  -3  11 591.307 17.3769   1
   2   3   8 85.1775 11.5993  -2
  -2  -3  11 85.1775 11.5993   1
   1   3   8 1495.94 50.2639  -2
  -1  -3  11 1495.94 50.2639   1
   0   3   9 717.775 19.4000  -2
   0  -3  11 717.775 19.4000   1
   1  -3  11 308.820 22.0589   1
  -2   3  10 335.050 26.4129  -2
   2  -3  11 335.050 26.4129   1
  -3   3  11 1559.66 55.8893  -2
   3  -3  11 1559.66 55.8893   1
   4  -3  11 14.6609 11.6642   1
  -5   3  12 132.485 21.4805  -2
   5  -3  11 132.485 21.4805   1
   6  -3  11 9.34824 13.7708   1
  -7  -2  11 9.77274 8.97863   1
   6   2   6 60.5335 14.5375  -2
  -6  -2  11 60.5335 14.5375   1
  -5  -2  11 129.006 8.96640   1
   4   2   7 488.939 25.1038  -2
  -4  -2  11 488.939 25.1038   1
   3   2   8 46.6381 17.0701  -2
  -3  -2  11 46.6381 17.0701   1
  -2  -2  11 586.771 26.8699   1
   1   2   9 274.052 18.9774  -2
  -1  -2  11 274.052 18.9774   1
   0  -2  11 463.581 25.4451   1
  -1   2  10 619.107 29.9511  -2
   1  -2  11 619.107 29.9511   1
  -2   2  11 0.20032 16.9168  -2
   2  -2  11 0.20032 16.9168   1
   3  -2  11 4.31774 5.83112   1
  -4   2  12 730.940 35.9967  -2
   4  -2  11 730.940 35.9967   1
  -5   2  13 268.232 30.7632  -2
   5  -2  11 268.232 30.7632   1
  -6   2  13 353.197 35.5152  -2
   6  -2  11 353.197 35.5152   1
   7   1   6 796.148 31.7332  -2
  -7  -1  11 796.148 31.7332   1
  -6  -1  11 114.976 13.1985   1
   5   1   7 414.722 24.6777  -2
  -5  -1  11 414.722 24.6777   1
   4   1   8 153.319 18.4405  -2
  -4  -1  11 153.319 18.4405   1
  -3  -1  11 8.88514 8.75995   1
   2   1   9 169.048 19.1286  -2
  -2  -1  11 169.048 19.1286   1
   1   1  10 185.450 22.1670  -2
  -1  -1  11 185.450 22.1670   1
   0   1  10 72.3021 20.1531  -2
   0  -1  11 72.3021 20.1531   1
  -1   1  11 1964.44 61.5362  -2
   1  -1  11 1964.44 61.5362   1
   2  -1  11 -4.1000 5.51721   1
  -3   1  12 179.937 14.9523  -2
   3  -1  11 179.937 14.9523   1
  -4   1  13 126.843 24.8322  -2
   4  -1  11 126.843 24.8322   1
   5  -1  11 34.1483 7.90418   1
  -6   1  14 77.3877 17.0644  -2
   6  -1  11 77.3877 17.0644   1
   8   0   6 54.5787 17.7984  -2
  -8   0  11 54.5787 17.7984   1
   7   0   7 169.253 23.0582  -2
  -7   0  11 169.253 23.0582   1
   6   0   7 486.976 27.2979  -2
  -6   0  11 486.976 27.2979   1
   5   0   8 270.380 19.0758  -2
  -5   0  11 270.380 19.0758   1
  -4   0  11 616.195 28.7264   1
   3   0   9 26.7418 14.6550  -2
  -3   0  11 26.7418 14.6550   1
   2   0  10 451.474 27.2131  -2
  -2   0  11 451.474 27.2131   1
   1   0  10 136.019 22.8823  -2
  -1   0  11 136.019 22.8823   1
   0   0  11 -2.2129 6.42273  -2
   0   0  11 -2.2129 6.42273   1
   1   0  11 18.4233 7.21503   1
  -2   0  12 974.251 28.4604  -2
   2   0  11 974.251 28.4604   1
  -3   0  13 135.757 15.1297  -2
   3   0  11 135.757 15.1297   1
   4   0  11 154.076 12.2677   1
  -5   0  14 152.757 14.7794  -2
   5   0  11 152.757 14.7794   1
   8  -1   7 218.943 25.1690  -2
  -8   1  11 218.943 25.1690   1
   7  -1   7 331.778 27.5184  -2
  -7   1  11 331.778 27.5184   1
   6  -1   8 161.989 16.5769  -2
  -6   1  11 161.989 16.5769   1
  -5   1  11 118.320 14.7745   1
   4  -1   9 349.837 25.1284  -2
  -4   1  11 349.837 25.1284   1
   3  -1  10 513.225 28.4296  -2
  -3   1  11 513.225 28.4296   1
  -2   1  11 497.995 17.6543   1
   1  -1  11 1897.54 42.0366  -2
  -1   1  11 1897.54 42.0366   1
   0  -1  12 225.216 25.0723  -2
   0   1  11 225.216 25.0723   1
  -1  -1  12 270.513 17.2659  -2
   1   1  11 270.513 17.2659   1
  -2  -1  13 158.628 13.7634  -2
   2   1  11 158.628 13.7634   1
   3   1  11 -8.8599 6.17937   1
  -4  -1  14 153.852 16.0528  -2
   4   1  11 153.852 16.0528   1
  -5  -1  15 243.497 18.7449  -2
   5   1  11 243.497 18.7449   1
   9  -2   7 34.6738 21.5286  -2
  -9   2  11 34.6738 21.5286   1
  -8   2  11 67.9335 14.2302   1
   7  -2   8 50.2549 17.3579  -2
  -7   2  11 50.2549 17.3579   1
   6  -2   9 670.021 34.3467  -2
  -6   2  11 670.021 34.3467   1
   5  -2   9 49.4328 20.1438  -2
  -5   2  11 49.4328 20.1438   1
   4  -2  10 427.077 24.5507  -2
  -4   2  11 427.077 24.5507   1
  -3   2  11 518.725 17.7639   1
   2  -2  11 -12.848 10.7930  -2
  -2   2  11 -12.848 10.7930   1
   1  -2  12 350.604 18.1673  -2
  -1   2  11 350.604 18.1673   1
   0  -2  12 872.131 38.3414  -2
   0   2  11 872.131 38.3414   1
  -1  -2  13 91.1340 11.4574  -2
   1   2  11 91.1340 11.4574   1
  -2  -2  14 103.760 25.1043  -2
   2   2  11 103.760 25.1043   1
  -3  -2  14 267.557 18.5350  -2
   3   2  11 267.557 18.5350   1
  -4  -2  15 118.565 16.4114  -2
   4   2  11 118.565 16.4114   1
   8  -3   8 106.516 21.1535  -2
  -8   3  11 106.516 21.1535   1
   7  -3   9 155.814 24.4497  -2
  -7   3  11 155.814 24.4497   1
   6  -3   9 13.9986 22.0460  -2
  -6   3  11 13.9986 22.0460   1
   5  -3  10 350.507 15.4078  -2
  -5   3  11 350.507 15.4078   1
   4  -3  11 209.073 24.9860  -2
  -4   3  11 209.073 24.9860   1
   3  -3  11 1322.52 33.4900  -2
  -3   3  11 1322.52 33.4900   1
   2  -3  12 13.8436 11.9786  -2
  -2   3  11 13.8436 11.9786   1
  -1   3  11 32.3289 7.91376   1
   0  -3  13 52.8158 11.3035  -2
   0   3  11 52.8158 11.3035   1
  -1  -3  14 473.282 31.7686  -2
   1   3  11 473.282 31.7686   1
  -2  -3  14 475.557 22.2229  -2
   2   3  11 475.557 22.2229   1
  -3  -3  15 430.567 20.0488  -2
   3   3  11 430.567 20.0488   1
  -7   4  11 -9.5898 10.8146   1
   6  -4  10 415.679 27.6185  -2
  -6   4  11 415.679 27.6185   1
   5  -4  11 34.2873 19.5995  -2
  -5   4  11 34.2873 19.5995   1
   4  -4  11 44.1643 14.5306  -2
  -4   4  11 44.1643 14.5306   1
   3  -4  12 150.480 13.7660  -2
  -3   4  11 150.480 13.7660   1
  -2   4  11 264.816 14.6403   1
   1  -4  13 81.8173 13.3171  -2
  -1   4  11 81.8173 13.3171   1
   0  -4  14 187.587 16.7866  -2
   0   4  11 187.587 16.7866   1
   1   4  11 79.6847 10.5384   1
  -2  -4  15 202.836 14.8905  -2
   2   4  11 202.836 14.8905   1
   6  -5  11 34.9473 22.8707  -2
  -6   5  11 34.9473 22.8707   1
   5  -5  11 251.455 28.7346  -2
  -5   5  11 251.455 28.7346   1
   4  -5  12 8.00302 9.92033  -2
  -4   5  11 8.00302 9.92033   1
  -3   5  11 72.8345 9.74950   1
   2  -5  13 23.5226 14.4748  -2
  -2   5  11 23.5226 14.4748   1
   1  -5  14 229.094 17.4392  -2
  -1   5  11 229.094 17.4392   1
   0   5  11 19.3153 8.43307   1
  -1  -5  15 324.966 17.4903  -2
   1   5  11 324.966 17.4903   1
   5  -6  12 35.4874 16.9688  -2
  -5   6  11 35.4874 16.9688   1
  -4   6  11 319.824 16.6696   1
   3  -6  13 106.541 17.2638  -2
  -3   6  11 106.541 17.2638   1
   2  -6  14 29.6665 12.8749  -2
  -2   6  11 29.6665 12.8749   1
  -1   6  11 106.376 11.5660   1
   0  -6  15 343.807 25.9336  -2
   0   6  11 343.807 25.9336   1
  -4   7  11 131.417 16.8415   1
   3  -7  14 399.945 28.3181  -2
  -3   7  11 399.945 28.3181   1
  -2   7  11 168.204 18.0112   1
   1  -7  15 245.314 25.0717  -2
  -1   7  11 245.314 25.0717   1
   0 -11  12 93.1748 15.2145   1
  -3  11   6 181.609 30.8499  -2
   3 -11  12 181.609 30.8499   1
   2  10   4 44.6920 16.7985  -2
  -2 -10  12 44.6920 16.7985   1
  -1 -10  12 26.1880 11.1914   1
   0  10   5 394.156 27.5082  -2
   0 -10  12 394.156 27.5082   1
  -1  10   6 84.9471 23.1849  -2
   1 -10  12 84.9471 23.1849   1
   2 -10  12 261.211 15.9144   1
  -3  10   7 40.8788 12.2744  -2
   3 -10  12 40.8788 12.2744   1
   4 -10  12 -16.064 10.2221   1
  -4  -9  12 32.3364 11.9769   1
   3   9   4 616.368 29.8581  -2
  -3  -9  12 616.368 29.8581   1
  -2  -9  12 9.77816 10.0451   1
   1   9   5 83.4735 21.7872  -2
  -1  -9  12 83.4735 21.7872   1
   0   9   6 -1.6439 17.6812  -2
   0  -9  12 -1.6439 17.6812   1
   1  -9  12 3.77314 7.24606   1
  -2   9   7 154.067 14.7630  -2
   2  -9  12 154.067 14.7630   1
  -3   9   8 108.672 29.5295  -2
   3  -9  12 108.672 29.5295   1
  -4   9   8 85.1071 29.5565  -2
   4  -9  12 85.1071 29.5565   1
  -5  -8  12 4.26186 10.6173   1
   4   8   4 -3.8829 13.5890  -2
  -4  -8  12 -3.8829 13.5890   1
  -3  -8  12 5.29556 8.84905   1
   2   8   5 472.119 28.6999  -2
  -2  -8  12 472.119 28.6999   1
   1   8   6 76.0798 16.7460  -2
  -1  -8  12 76.0798 16.7460   1
   0  -8  12 121.154 10.5067   1
  -1   8   7 30.0265 13.5104  -2
   1  -8  12 30.0265 13.5104   1
  -2   8   8 287.624 19.8727  -2
   2  -8  12 287.624 19.8727   1
   3  -8  12 63.1330 15.2140   1
  -4   8   9 58.2331 20.4909  -2
   4  -8  12 58.2331 20.4909   1
   5  -8  12 168.769 20.1410   1
  -6  -7  12 51.0062 12.4172   1
   5   7   4 481.058 28.0552  -2
  -5  -7  12 481.058 28.0552   1
   4   7   5 149.719 22.4904  -2
  -4  -7  12 149.719 22.4904   1
  -3  -7  12 -6.5247 8.39303   1
   2   7   6 70.0446 13.2604  -2
  -2  -7  12 70.0446 13.2604   1
   1   7   7 309.737 27.2218  -2
  -1  -7  12 309.737 27.2218   1
   0   7   7 75.3340 13.7040  -2
   0  -7  12 75.3340 13.7040   1
  -1   7   8 371.957 19.0536  -2
   1  -7  12 371.957 19.0536   1
   2  -7  12 125.321 17.0446   1
  -3   7   9 131.992 22.7463  -2
   3  -7  12 131.992 22.7463   1
  -4   7  10 2.75884 28.3098  -2
   4  -7  12 2.75884 28.3098   1
  -5   7  10 46.4299 26.6722  -2
   5  -7  12 46.4299 26.6722   1
  -7  -6  12 -1.7091 10.9084   1
   6   6   4 -18.170 20.2258  -2
  -6  -6  12 -18.170 20.2258   1
   5   6   5 102.731 19.7051  -2
  -5  -6  12 102.731 19.7051   1
  -4  -6  12 361.864 21.1657   1
   3   6   6 382.921 20.8035  -2
  -3  -6  12 382.921 20.8035   1
   2   6   7 316.830 26.8079  -2
  -2  -6  12 316.830 26.8079   1
   1   6   7 334.708 17.2844  -2
  -1  -6  12 334.708 17.2844   1
   0   6   8 1137.43 28.5343  -2
   0  -6  12 1137.43 28.5343   1
   1  -6  12 6.58118 6.14722   1
  -2   6   9 206.036 24.4354  -2
   2  -6  12 206.036 24.4354   1
  -3   6  10 4.48611 24.9435  -2
   3  -6  12 4.48611 24.9435   1
   4  -6  12 306.229 25.9333   1
  -5   6  11 18.1802 21.3939  -2
   5  -6  12 18.1802 21.3939   1
   7   5   4 367.043 27.7718  -2
  -7  -5  12 367.043 27.7718   1
   6   5   5 41.9064 18.9632  -2
  -6  -5  12 41.9064 18.9632   1
  -5  -5  12 -4.2862 8.19942   1
   4   5   6 102.264 15.8394  -2
  -4  -5  12 102.264 15.8394   1
   3   5   7 539.047 19.3417  -2
  -3  -5  12 539.047 19.3417   1
   2   5   7 39.0256 20.6417  -2
  -2  -5  12 39.0256 20.6417   1
   1   5   8 2150.41 43.5562  -2
  -1  -5  12 2150.41 43.5562   1
   0  -5  12 105.082 9.12739   1
  -1   5   9 784.129 23.5412  -2
   1  -5  12 784.129 23.5412   1
  -2   5  10 211.293 26.7376  -2
   2  -5  12 211.293 26.7376   1
   3  -5  12 15.4116 11.7936   1
  -4   5  11 18.2859 19.8184  -2
   4  -5  12 18.2859 19.8184   1
   5  -5  12 218.370 23.4553   1
  -8  -4  12 6.27041 10.3715   1
   7   4   5 14.3336 13.7345  -2
  -7  -4  12 14.3336 13.7345   1
  -6  -4  12 163.057 15.8185   1
   5   4   6 73.3377 18.0486  -2
  -5  -4  12 73.3377 18.0486   1
   4   4   7 294.011 14.6837  -2
  -4  -4  12 294.011 14.6837   1
   3   4   7 131.399 20.9731  -2
  -3  -4  12 131.399 20.9731   1
   2   4   8 885.528 22.5655  -2
  -2  -4  12 885.528 22.5655   1
   1   4   9 51.2622 22.7578  -2
  -1  -4  12 51.2622 22.7578   1
   0   4   9 508.952 19.3074  -2
   0  -4  12 508.952 19.3074   1
  -1   4  10 221.385 22.6111  -2
   1  -4  12 221.385 22.6111   1
   2  -4  12 580.569 30.6893   1
  -3   4  11 137.462 23.8621  -2
   3  -4  12 137.462 23.8621   1
  -4   4  12 38.1012 26.3762  -2
   4  -4  12 38.1012 26.3762   1
  -5   4  12 38.0807 29.1902  -2
   5  -4  12 38.0807 29.1902   1
   5   3   7 431.152 24.7881  -2
  -5  -3  12 431.152 24.7881   1
  -4  -3  12 49.5539 11.1621   1
   3   3   8 344.118 22.7075  -2
  -3  -3  12 344.118 22.7075   1
   2   3   9 42.4116 20.1270  -2
  -2  -3  12 42.4116 20.1270   1
   1   3   9 634.399 32.8732  -2
  -1  -3  12 634.399 32.8732   1
   0   3  10 58.5794 14.9823  -2
   0  -3  12 58.5794 14.9823   1
   1  -3  12 9.89276 9.49869   1
  -2   3  11 4.67542 19.9743  -2
   2  -3  12 4.67542 19.9743   1
  -3   3  12 770.344 39.1635  -2
   3  -3  12 770.344 39.1635   1
   4  -3  12 34.2397 15.6629   1
  -5   3  13 219.604 25.9797  -2
   5  -3  12 219.604 25.9797   1
   6   2   7 77.2845 15.0990  -2
  -6  -2  12 77.2845 15.0990   1
  -5  -2  12 4.85623 8.97039   1
   4   2   8 432.099 25.3312  -2
  -4  -2  12 432.099 25.3312   1
   3   2   9 208.511 21.5609  -2
  -3  -2  12 208.511 21.5609   1
   2   2   9 48.2915 22.9783  -2
  -2  -2  12 48.2915 22.9783   1
   1   2  10 197.485 19.4450  -2
  -1  -2  12 197.485 19.4450   1
   0   2  11 973.606 41.8427  -2
   0  -2  12 973.606 41.8427   1
  -1   2  11 232.684 22.3701  -2
   1  -2  12 232.684 22.3701   1
  -2   2  12 -1.8379 17.6814  -2
   2  -2  12 -1.8379 17.6814   1
   3  -2  12 27.7152 7.34498   1
  -4   2  13 320.151 26.9686  -2
   4  -2  12 320.151 26.9686   1
   7   1   7 232.160 19.3337  -2
  -7  -1  12 232.160 19.3337   1
  -6  -1  12 86.5228 12.9452   1
   5   1   8 645.071 31.6261  -2
  -5  -1  12 645.071 31.6261   1
   4   1   9 145.514 19.5491  -2
  -4  -1  12 145.514 19.5491   1
  -3  -1  12 116.299 15.1719   1
   2   1  10 104.324 19.0970  -2
  -2  -1  12 104.324 19.0970   1
   1   1  11 391.887 27.6680  -2
  -1  -1  12 391.887 27.6680   1
   0   1  11 112.064 22.5210  -2
   0  -1  12 112.064 22.5210   1
  -1   1  12 1167.30 44.6018  -2
   1  -1  12 1167.30 44.6018   1
   2  -1  12 167.672 12.5669   1
  -3   1  13 239.635 24.0915  -2
   3  -1  12 239.635 24.0915   1
  -4   1  14 99.7908 25.8552  -2
   4  -1  12 99.7908 25.8552   1
   5  -1  12 5.50356 9.35024   1
   8   0   7 322.029 23.6136  -2
  -8   0  12 322.029 23.6136   1
   7   0   8 180.963 23.2834  -2
  -7   0  12 180.963 23.2834   1
   6   0   8 379.181 26.6844  -2
  -6   0  12 379.181 26.6844   1
   5   0   9 240.327 21.1069  -2
  -5   0  12 240.327 21.1069   1
  -4   0  12 746.409 33.2333   1
   3   0  10 310.458 22.6716  -2
  -3   0  12 310.458 22.6716   1
   2   0  11 941.675 39.6304  -2
  -2   0  12 941.675 39.6304   1
   1   0  11 52.0293 22.4651  -2
  -1   0  12 52.0293 22.4651   1
   0   0  12 209.543 13.6810  -2
   0   0  12 209.543 13.6810   1
   1   0  12 38.1571 8.39815   1
  -2   0  13 501.661 21.7008  -2
   2   0  12 501.661 21.7008   1
  -3   0  14 13.2802 13.8532  -2
   3   0  12 13.2802 13.8532   1
   4   0  12 448.465 19.4569   1
   8  -1   8 106.241 22.2430  -2
  -8   1  12 106.241 22.2430   1
   7  -1   8 151.392 26.0713  -2
  -7   1  12 151.392 26.0713   1
   6  -1   9 21.3644 10.1828  -2
  -6   1  12 21.3644 10.1828   1
  -5   1  12 22.1842 10.6402   1
   4  -1  10 294.379 25.7009  -2
  -4   1  12 294.379 25.7009   1
   3  -1  11 261.410 23.9028  -2
  -3   1  12 261.410 23.9028   1
  -2   1  12 154.930 11.5506   1
   1  -1  12 1150.28 30.6438  -2
  -1   1  12 1150.28 30.6438   1
   0  -1  13 132.536 24.8739  -2
   0   1  12 132.536 24.8739   1
  -1  -1  13 76.8575 14.8168  -2
   1   1  12 76.8575 14.8168   1
  -2  -1  14 361.121 18.9463  -2
   2   1  12 361.121 18.9463   1
   3   1  12 79.0601 10.6060   1
  -4  -1  15 34.6658 22.2448  -2
   4   1  12 34.6658 22.2448   1
  -8   2  12 49.9785 14.0120   1
   7  -2   9 96.4958 20.0310  -2
  -7   2  12 96.4958 20.0310   1
   6  -2  10 339.788 29.1298  -2
  -6   2  12 339.788 29.1298   1
   5  -2  10 250.009 24.0791  -2
  -5   2  12 250.009 24.0791   1
   4  -2  11 578.162 29.8309  -2
  -4   2  12 578.162 29.8309   1
  -3   2  12 141.271 11.4208   1
   2  -2  12 -7.6177 11.8426  -2
  -2   2  12 -7.6177 11.8426   1
   1  -2  13 219.722 17.1488  -2
  -1   2  12 219.722 17.1488   1
   0  -2  13 1256.33 49.4222  -2
   0   2  12 1256.33 49.4222   1
  -1  -2  14 116.690 12.3521  -2
   1   2  12 116.690 12.3521   1
  -2  -2  15 757.993 40.4403  -2
   2   2  12 757.993 40.4403   1
  -3  -2  15 24.2370 15.8658  -2
   3   2  12 24.2370 15.8658   1
   6  -3  10 140.764 27.0180  -2
  -6   3  12 140.764 27.0180   1
   5  -3  11 209.243 14.0797  -2
  -5   3  12 209.243 14.0797   1
   4  -3  12 51.1049 24.5401  -2
  -4   3  12 51.1049 24.5401   1
   3  -3  12 705.597 25.0333  -2
  -3   3  12 705.597 25.0333   1
   2  -3  13 44.2443 14.2906  -2
  -2   3  12 44.2443 14.2906   1
  -1   3  12 219.016 14.1960   1
   0  -3  14 354.928 18.1961  -2
   0   3  12 354.928 18.1961   1
  -1  -3  15 252.988 28.4873  -2
   1   3  12 252.988 28.4873   1
  -2  -3  15 88.5038 24.3612  -2
   2   3  12 88.5038 24.3612   1
   6  -4  11 210.390 23.7547  -2
  -6   4  12 210.390 23.7547   1
   5  -4  12 32.4035 24.3324  -2
  -5   4  12 32.4035 24.3324   1
   4  -4  12 80.2278 15.3966  -2
  -4   4  12 80.2278 15.3966   1
   3  -4  13 206.959 16.5423  -2
  -3   4  12 206.959 16.5423   1
  -2   4  12 324.917 16.6729   1
   1  -4  14 24.2557 14.0471  -2
  -1   4  12 24.2557 14.0471   1
   0  -4  15 459.031 23.1843  -2
   0   4  12 459.031 23.1843   1
  -1  -4  15 66.7463 24.4413  -2
   1   4  12 66.7463 24.4413   1
   4  -5  13 314.255 16.9778  -2
  -4   5  12 314.255 16.9778   1
  -3   5  12 23.6433 8.78767   1
   2  -5  14 185.467 17.8432  -2
  -2   5  12 185.467 17.8432   1
   1  -5  15 324.960 28.2394  -2
  -1   5  12 324.960 28.2394   1
   0   5  12 68.0436 15.0067   1
  -4   6  12 312.856 23.9805   1
   3  -6  14 83.3994 23.5428  -2
  -3   6  12 83.3994 23.5428   1
  -1 -10  13 6.22602 10.2665   1
   0  10   6 230.043 24.9071  -2
   0 -10  13 230.043 24.9071   1
   2 -10  13 290.719 17.2996   1
   3   9   5 426.570 25.9505  -2
  -3  -9  13 426.570 25.9505   1
  -2  -9  13 63.1561 13.2332   1
   1   9   6 309.238 26.4755  -2
  -1  -9  13 309.238 26.4755   1
   0   9   7 2.51694 20.3012  -2
   0  -9  13 2.51694 20.3012   1
   1  -9  13 19.5994 7.99636   1
  -2   9   8 34.6465 13.9731  -2
   2  -9  13 34.6465 13.9731   1
   4   8   5 12.7180 14.6705  -2
  -4  -8  13 12.7180 14.6705   1
  -3  -8  13 128.939 15.4098   1
   2   8   6 612.134 32.8137  -2
  -2  -8  13 612.134 32.8137   1
   1   8   7 42.8189 18.3206  -2
  -1  -8  13 42.8189 18.3206   1
   0  -8  13 255.387 14.7920   1
  -1   8   8 76.1172 14.7496  -2
   1  -8  13 76.1172 14.7496   1
  -2   8   9 500.296 23.8980  -2
   2  -8  13 500.296 23.8980   1
   3  -8  13 -11.639 11.1483   1
   5   7   5 130.895 22.4509  -2
  -5  -7  13 130.895 22.4509   1
   4   7   6 199.674 23.5562  -2
  -4  -7  13 199.674 23.5562   1
  -3  -7  13 245.116 19.6396   1
   2   7   7 184.284 17.1337  -2
  -2  -7  13 184.284 17.1337   1
   1   7   8 571.409 35.2489  -2
  -1  -7  13 571.409 35.2489   1
   0   7   8 64.9036 14.4693  -2
   0  -7  13 64.9036 14.4693   1
  -1   7   9 230.263 16.9927  -2
   1  -7  13 230.263 16.9927   1
   2  -7  13 60.6578 9.50011   1
  -3   7  10 586.553 35.2775  -2
   3  -7  13 586.553 35.2775   1
   6   6   5 -10.769 19.2971  -2
  -6  -6  13 -10.769 19.2971   1
   5   6   6 115.765 20.4440  -2
  -5  -6  13 115.765 20.4440   1
  -4  -6  13 13.2193 9.64109   1
   3   6   7 255.702 19.1464  -2
  -3  -6  13 255.702 19.1464   1
   2   6   8 413.167 31.0339  -2
  -2  -6  13 413.167 31.0339   1
   1   6   8 85.3438 14.4046  -2
  -1  -6  13 85.3438 14.4046   1
   0   6   9 379.114 16.9197  -2
   0  -6  13 379.114 16.9197   1
   1  -6  13 14.5737 6.92444   1
  -2   6  10 36.4011 22.4685  -2
   2  -6  13 36.4011 22.4685   1
  -3   6  11 55.1651 28.3974  -2
   3  -6  13 55.1651 28.3974   1
  -4   6  11 704.335 43.3775  -2
   4  -6  13 704.335 43.3775   1
   7   5   5 267.289 26.6777  -2
  -7  -5  13 267.289 26.6777   1
   6   5   6 172.891 21.9792  -2
  -6  -5  13 172.891 21.9792   1
  -5  -5  13 28.4382 10.2930   1
   4   5   7 168.363 19.0394  -2
  -4  -5  13 168.363 19.0394   1
   3   5   8 111.431 21.0169  -2
  -3  -5  13 111.431 21.0169   1
   2   5   8 234.801 25.4932  -2
  -2  -5  13 234.801 25.4932   1
   1   5   9 39.0919 9.60978  -2
  -1  -5  13 39.0919 9.60978   1
   0  -5  13 207.468 12.0518   1
  -1   5  10 301.860 26.4740  -2
   1  -5  13 301.860 26.4740   1
  -2   5  11 34.2912 24.9225  -2
   2  -5  13 34.2912 24.9225   1
   3  -5  13 2.49781 12.3485   1
  -4   5  12 296.009 26.1850  -2
   4  -5  13 296.009 26.1850   1
   4   4   8 251.625 24.0138  -2
  -4  -4  13 251.625 24.0138   1
  -3  -4  13 37.6436 11.9753   1
   2   4   9 289.206 21.6449  -2
  -2  -4  13 289.206 21.6449   1
   1   4  10 195.934 26.7752  -2
  -1  -4  13 195.934 26.7752   1
   0   4  10 42.4542 22.7138  -2
   0  -4  13 42.4542 22.7138   1
  -1   4  11 80.9231 21.9813  -2
   1  -4  13 80.9231 21.9813   1
   2  -4  13 507.451 29.7744   1
  -3   4  12 203.260 27.0973  -2
   3  -4  13 203.260 27.0973   1
   5   3   8 138.800 18.8589  -2
  -5  -3  13 138.800 18.8589   1
  -4  -3  13 25.7333 10.5836   1
   3   3   9 123.426 19.2901  -2
  -3  -3  13 123.426 19.2901   1
   2   3  10 181.917 26.0638  -2
  -2  -3  13 181.917 26.0638   1
   1   3  10 966.160 42.2546  -2
  -1  -3  13 966.160 42.2546   1
   0   3  11 19.0465 17.9479  -2
   0  -3  13 19.0465 17.9479   1
   1  -3  13 29.1549 11.2984   1
  -2   3  12 -1.9540 19.8157  -2
   2  -3  13 -1.9540 19.8157   1
  -3   3  13 577.196 36.0597  -2
   3  -3  13 577.196 36.0597   1
   4  -3  13 33.9138 15.6884   1
   6   2   8 465.743 26.2791  -2
  -6  -2  13 465.743 26.2791   1
  -5  -2  13 3.36124 10.2556   1
   4   2   9 63.7964 19.4272  -2
  -4  -2  13 63.7964 19.4272   1
   3   2  10 556.080 31.4183  -2
  -3  -2  13 556.080 31.4183   1
   2   2  10 121.947 23.8154  -2
  -2  -2  13 121.947 23.8154   1
   1   2  11 83.8087 15.8527  -2
  -1  -2  13 83.8087 15.8527   1
   0   2  12 1408.24 53.5732  -2
   0  -2  13 1408.24 53.5732   1
  -1   2  12 271.057 27.4019  -2
   1  -2  13 271.057 27.4019   1
  -2   2  13 115.297 22.4602  -2
   2  -2  13 115.297 22.4602   1
   3  -2  13 93.4439 17.6354   1
   7   1   8 13.9294 14.4438  -2
  -7  -1  13 13.9294 14.4438   1
  -6  -1  13 -6.7285 8.55696   1
   5   1   9 322.140 26.3757  -2
  -5  -1  13 322.140 26.3757   1
   4   1  10 289.825 25.0706  -2
  -4  -1  13 289.825 25.0706   1
  -3  -1  13 163.187 18.0143   1
   2   1  11 191.663 19.9727  -2
  -2  -1  13 191.663 19.9727   1
   1   1  12 17.2041 22.8516  -2
  -1  -1  13 17.2041 22.8516   1
   0   1  12 98.6891 24.1966  -2
   0  -1  13 98.6891 24.1966   1
  -1   1  13 609.301 33.5585  -2
   1  -1  13 609.301 33.5585   1
   2  -1  13 4.01700 7.18965   1
  -3   1  14 265.322 28.4804  -2
   3  -1  13 265.322 28.4804   1
   7   0   9 193.492 26.0947  -2
  -7   0  13 193.492 26.0947   1
   6   0   9 302.901 27.1627  -2
  -6   0  13 302.901 27.1627   1
   5   0  10 251.011 21.1336  -2
  -5   0  13 251.011 21.1336   1
  -4   0  13 157.482 18.7195   1
   3   0  11 186.693 23.4766  -2
  -3   0  13 186.693 23.4766   1
   2   0  12 587.433 33.6097  -2
  -2   0  13 587.433 33.6097   1
   1   0  12 100.526 23.2817  -2
  -1   0  13 100.526 23.2817   1
   0   0  13 24.5154 7.58436  -2
   0   0  13 24.5154 7.58436   1
   1   0  13 233.749 15.2651   1
  -2   0  14 68.2633 25.1061  -2
   2   0  13 68.2633 25.1061   1
   7  -1   9 553.930 34.4008  -2
  -7   1  13 553.930 34.4008   1
   6  -1  10 138.946 17.2500  -2
  -6   1  13 138.946 17.2500   1
   5  -1  11 176.685 27.6100  -2
  -5   1  13 176.685 27.6100   1
   4  -1  11 105.752 23.8976  -2
  -4   1  13 105.752 23.8976   1
   3  -1  12 260.458 25.8744  -2
  -3   1  13 260.458 25.8744   1
  -2   1  13 13.7779 7.66228   1
   1  -1  13 569.962 32.1917  -2
  -1   1  13 569.962 32.1917   1
   0  -1  14 174.155 27.4782  -2
   0   1  13 174.155 27.4782   1
  -1  -1  14 123.759 17.5395  -2
   1   1  13 123.759 17.5395   1
  -2  -1  15 92.5966 14.6704  -2
   2   1  13 92.5966 14.6704   1
   5  -2  11 219.751 24.7543  -2
  -5   2  13 219.751 24.7543   1
   4  -2  12 394.029 28.6404  -2
  -4   2  13 394.029 28.6404   1
  -3   2  13 16.0928 7.46246   1
   2  -2  13 122.179 20.1845  -2
  -2   2  13 122.179 20.1845   1
   1  -2  14 104.660 16.7709  -2
  -1   2  13 104.660 16.7709   1
   0  -2  14 300.520 30.3691  -2
   0   2  13 300.520 30.3691   1
  -1  -2  15 110.100 13.5968  -2
   1   2  13 110.100 13.5968   1
   5  -3  12 171.457 21.8779  -2
  -5   3  13 171.457 21.8779   1
  -4   3  13 0.81666 9.97696   1
   3  -3  13 611.436 36.2840  -2
  -3   3  13 611.436 36.2840   1
   2  -3  14 122.895 16.7460  -2
  -2   3  13 122.895 16.7460   1
  -1   3  13 65.6988 10.3022   1
   0  -3  15 128.665 22.0255  -2
   0   3  13 128.665 22.0255   1
   3  -4  14 343.096 26.0203  -2
  -3   4  13 343.096 26.0203   1
  -2   4  13 145.981 13.3357   1
  -2  -9  14 94.2422 16.5931   1
   1   9   7 214.902 24.9536  -2
  -1  -9  14 214.902 24.9536   1
   0   9   8 27.4238 19.9720  -2
   0  -9  14 27.4238 19.9720   1
   1  -9  14 16.3638 8.41660   1
  -3  -8  14 136.913 16.5037   1
   2   8   7 88.2208 23.8187  -2
  -2  -8  14 88.2208 23.8187   1
   1   8   8 59.4255 17.8188  -2
  -1  -8  14 59.4255 17.8188   1
   0  -8  14 312.238 16.1989   1
  -1   8   9 54.7719 15.2773  -2
   1  -8  14 54.7719 15.2773   1
  -2   8  10 174.348 24.5594  -2
   2  -8  14 174.348 24.5594   1
   3  -8  14 136.085 16.6558   1
   4   7   7 259.993 26.8273  -2
  -4  -7  14 259.993 26.8273   1
  -3  -7  14 43.9776 11.9243   1
   2   7   8 83.1329 15.7979  -2
  -2  -7  14 83.1329 15.7979   1
  -1  -7  14 8.41893 7.05553   1
   0   7   9 273.838 18.0026  -2
   0  -7  14 273.838 18.0026   1
  -1   7  10 86.2492 15.4470  -2
   1  -7  14 86.2492 15.4470   1
   2  -7  14 81.7122 10.5239   1
  -4  -6  14 12.5318 9.74307   1
   2   6   9 492.260 33.4591  -2
  -2  -6  14 492.260 33.4591   1
   1   6   9 143.031 26.3150  -2
  -1  -6  14 143.031 26.3150   1
   0   6  10 177.491 23.3139  -2
   0  -6  14 177.491 23.3139   1
   1  -6  14 10.7315 12.6876   1
  -2   6  11 11.5227 22.3087  -2
   2  -6  14 11.5227 22.3087   1
   3   5   9 284.847 27.4543  -2
  -3  -5  14 284.847 27.4543   1
   2   5   9 213.018 27.9136  -2
  -2  -5  14 213.018 27.9136   1
   1   5  10 49.0656 18.8798  -2
  -1  -5  14 49.0656 18.8798   1
   0  -5  14 55.2806 14.3170   1
  -1   5  11 292.391 29.6958  -2
   1  -5  14 292.391 29.6958   1
  -2   5  12 171.298 28.1950  -2
   2  -5  14 171.298 28.1950   1
   4   4   9 336.762 27.6627  -2
  -4  -4  14 336.762 27.6627   1
  -3  -4  14 35.7205 12.4954   1
   2   4  10 36.0043 16.7180  -2
  -2  -4  14 36.0043 16.7180   1
   1   4  11 105.161 27.8538  -2
  -1  -4  14 105.161 27.8538   1
   0   4  11 147.256 25.2648  -2
   0  -4  14 147.256 25.2648   1
  -1   4  12 17.4013 20.6954  -2
   1  -4  14 17.4013 20.6954   1
   2  -4  14 106.143 16.5557   1
   5   3   9 25.7481 17.8310  -2
  -5  -3  14 25.7481 17.8310   1
  -4  -3  14 16.6252 11.6551   1
   3   3  10 94.6123 20.1259  -2
  -3  -3  14 94.6123 20.1259   1
   2   3  11 551.207 35.7297  -2
  -2  -3  14 551.207 35.7297   1
   1   3  11 609.477 36.7732  -2
  -1  -3  14 609.477 36.7732   1
   0   3  12 316.587 26.8309  -2
   0  -3  14 316.587 26.8309   1
   1  -3  14 83.5983 15.4352   1
  -2   3  13 112.727 25.6294  -2
   2  -3  14 112.727 25.6294   1
   6   2   9 380.959 25.3796  -2
  -6  -2  14 380.959 25.3796   1
  -5  -2  14 116.684 16.5375   1
   4   2  10 75.1827 21.4340  -2
  -4  -2  14 75.1827 21.4340   1
   3   2  11 371.050 29.1328  -2
  -3  -2  14 371.050 29.1328   1
  -2  -2  14 17.2022 11.8717   1
   1   2  12 193.382 22.3164  -2
  -1  -2  14 193.382 22.3164   1
   0   2  13 441.890 34.4639  -2
   0  -2  14 441.890 34.4639   1
  -1   2  13 86.1400 26.4126  -2
   1  -2  14 86.1400 26.4126   1
  -6  -1  14 42.0145 13.1701   1
   5   1  10 278.333 27.1555  -2
  -5  -1  14 278.333 27.1555   1
   4   1  11 161.370 24.1387  -2
  -4  -1  14 161.370 24.1387   1
  -3  -1  14 394.300 27.4454   1
   2   1  12 249.683 25.3218  -2
  -2  -1  14 249.683 25.3218   1
   1   1  13 120.977 26.6958  -2
  -1  -1  14 120.977 26.6958   1
   0   1  13 223.362 29.1604  -2
   0  -1  14 223.362 29.1604   1
  -1   1  14 12.4240 20.9682  -2
   1  -1  14 12.4240 20.9682   1
   6   0  10 54.9059 20.6294  -2
  -6   0  14 54.9059 20.6294   1
   5   0  11 139.170 21.8512  -2
  -5   0  14 139.170 21.8512   1
  -4   0  14 30.6110 13.6848   1
   3   0  12 -7.9293 20.1701  -2
  -3   0  14 -7.9293 20.1701   1
   2   0  13 95.5692 23.7324  -2
  -2   0  14 95.5692 23.7324   1
   1   0  13 834.278 42.8890  -2
  -1   0  14 834.278 42.8890   1
   0   0  14 254.416 16.7750  -2
   0   0  14 254.416 16.7750   1
   1   0  14 120.897 17.6706   1
   4  -1  12 134.322 25.6515  -2
  -4   1  14 134.322 25.6515   1
   3  -1  13 180.863 25.1600  -2
  -3   1  14 180.863 25.1600   1
  -2   1  14 34.1285 9.32874   1
   1  -1  14 -3.8699 19.4710  -2
  -1   1  14 -3.8699 19.4710   1
   0   1  14 132.722 17.1839   1
  -3   2  14 64.8100 10.7653   1
  -4   3  14 67.5647 14.5102   1
   0  -8  15 116.093 11.3633   1
  -1  -7  15 169.664 19.3321   1
   0   7  10 187.358 28.4676  -2
   0  -7  15 187.358 28.4676   1
   2   6  10 286.728 30.4206  -2
  -2  -6  15 286.728 30.4206   1
   1   6  10 148.530 27.9613  -2
  -1  -6  15 148.530 27.9613   1
   0   6  11 441.330 31.3457  -2
   0  -6  15 441.330 31.3457   1
   1  -6  15 15.5163 14.6966   1
   3   5  10 65.6024 24.7550  -2
  -3  -5  15 65.6024 24.7550   1
   2   5  10 131.135 28.9687  -2
  -2  -5  15 131.135 28.9687   1
   1   5  11 350.424 27.3352  -2
  -1  -5  15 350.424 27.3352   1
   0  -5  15 29.9294 14.1664   1
   4   4  10 595.555 33.4304  -2
  -4  -4  15 595.555 33.4304   1
  -3  -4  15 317.039 25.0996   1
   2   4  11 307.084 24.9634  -2
  -2  -4  15 307.084 24.9634   1
   1   4  12 38.1773 27.5802  -2
  -1  -4  15 38.1773 27.5802   1
   0   4  12 433.881 34.7890  -2
   0  -4  15 433.881 34.7890   1
   5   3  10 36.5747 20.7761  -2
  -5  -3  15 36.5747 20.7761   1
  -4  -3  15 98.3136 16.8424   1
   3   3  11 312.481 26.1112  -2
  -3  -3  15 312.481 26.1112   1
   2   3  12 113.235 27.9320  -2
  -2  -3  15 113.235 27.9320   1
   1   3  12 398.076 34.3483  -2
  -1  -3  15 398.076 34.3483   1
  -5  -2  15 55.7162 14.4313   1
   4   2  11 156.807 24.6110  -2
  -4  -2  15 156.807 24.6110   1
   3   2  12 60.0576 25.6202  -2
  -3  -2  15 60.0576 25.6202   1
   2   2  12 599.741 37.9151  -2
  -2  -2  15 599.741 37.9151   1
   1   2  13 114.826 18.9128  -2
  -1  -2  15 114.826 18.9128   1
  -3  -1  15 184.902 20.4485   1
   0   0   0    0.00    0.00   0
;
_shelx_hkl_checksum              72431
loop_
_space_group_symop_operation_xyz
'x, y, z'
'-x, -y, -z'
loop_
_atom_site_label
_atom_site_type_symbol
_atom_site_fract_x
_atom_site_fract_y
_atom_site_fract_z
_atom_site_U_iso_or_equiv
_atom_site_adp_type
_atom_site_occupancy
_atom_site_site_symmetry_order
_atom_site_calc_flag
_atom_site_refinement_flags_posn
_atom_site_refinement_flags_adp
_atom_site_refinement_flags_occupancy
Co1 Co 0.34827(13) 0.83123(10) 0.12654(9) 0.0069(3) Uani 1 1 d . . .
Co2 Co 0.5000 0.5000 0.0000 0.0068(3) Uani 1 2 d S . P
Co3 Co 0.0000 1.0000 0.0000 0.0064(3) Uani 1 2 d S . P
N1 N 0.2209(8) 0.9187(7) -0.0149(6) 0.0092(13) Uani 1 1 d . . .
N2 N 0.3187(8) 0.9634(7) -0.0770(6) 0.0088(13) Uani 1 1 d . . .
N3 N 0.4104(9) 0.9994(7) -0.1446(7) 0.0158(15) Uani 1 1 d . . .
N4 N 0.4011(9) 0.6772(7) -0.0290(6) 0.0098(13) Uani 1 1 d . U .
N5 N 0.3038(9) 0.6535(7) -0.1301(7) 0.0128(14) Uani 1 1 d . . .
N6 N 0.2137(10) 0.6316(8) -0.2312(7) 0.0176(15) Uani 1 1 d . U .
N7 N 0.1845(9) 1.2063(7) 0.1190(7) 0.0143(14) Uani 1 1 d . . .
N8 N 0.2171(9) 1.3137(7) 0.0897(6) 0.0128(14) Uani 1 1 d . . .
N9 N 0.2523(9) 1.4215(7) 0.0612(8) 0.0176(15) Uani 1 1 d . . .
O1 O 0.4982(7) 0.7840(6) 0.2705(5) 0.0127(11) Uani 1 1 d . . .
O2 O 0.6357(8) 0.6263(6) 0.1793(6) 0.0168(13) Uani 1 1 d . . .
O3 O 0.7275(7) 1.0329(6) 0.7333(5) 0.0092(11) Uani 1 1 d . . .
O4 O 1.0045(7) 1.0539(6) 0.8296(5) 0.0110(11) Uani 1 1 d . . .
O5 O 0.1220(7) 0.6652(6) 0.1282(6) 0.0160(12) Uani 1 1 d D . .
H5C H 0.035(5) 0.647(9) 0.061(5) 0.024 Uiso 1 1 d D U .
H5B H 0.155(12) 0.587(6) 0.116(9) 0.024 Uiso 1 1 d D U .
C1 C 0.6214(9) 0.7270(8) 0.2668(7) 0.0061(14) Uani 1 1 d . U .
C2 C 0.7703(9) 0.7820(8) 0.3865(7) 0.0068(14) Uani 1 1 d . . .
C3 C 0.7641(9) 0.8781(8) 0.4996(7) 0.0065(14) Uani 1 1 d . . .
H3A H 0.6693 0.9202 0.5011 0.008 Uiso 1 1 calc R U .
C4 C 0.8941(10) 0.9146(8) 0.6117(7) 0.0070(14) Uani 1 1 d . . .
C5 C 1.0345(10) 0.8560(8) 0.6085(8) 0.0119(15) Uani 1 1 d . . .
H5A H 1.1237 0.8791 0.6841 0.014 Uiso 1 1 calc R U .
C6 C 1.0436(10) 0.7626(8) 0.4931(8) 0.0099(15) Uani 1 1 d . . .
C7 C 0.9146(10) 0.7258(8) 0.3816(8) 0.0112(15) Uani 1 1 d . . .
H7A H 0.9240 0.6636 0.3034 0.013 Uiso 1 1 calc R U .
N10 N 1.1850(8) 0.6935(7) 0.4919(6) 0.0091(13) Uani 1 1 d . . .
C9 C 1.3435(10) 0.7565(8) 0.5746(7) 0.0098(15) Uani 1 1 d . . .
H9A H 1.3705 0.8530 0.6293 0.012 Uiso 1 1 calc R U .
C10 C 1.4672(10) 0.6806(8) 0.5798(7) 0.0090(14) Uani 1 1 d . . .
H10A H 1.5764 0.7242 0.6415 0.011 Uiso 1 1 calc R U .
C11 C 1.4353(10) 0.5430(8) 0.4975(7) 0.0081(14) Uani 1 1 d . . .
C12 C 1.2718(10) 0.4823(8) 0.4094(7) 0.0111(15) Uani 1 1 d . . .
H12A H 1.2463 0.3888 0.3493 0.013 Uiso 1 1 calc R U .
C13 C 1.1488(10) 0.5569(8) 0.4095(7) 0.0111(15) Uani 1 1 d . U .
H13A H 1.0367 0.5131 0.3514 0.013 Uiso 1 1 calc R U .
C14 C 0.8742(10) 1.0078(8) 0.7367(7) 0.0085(14) Uani 1 1 d . . .
loop_
_atom_site_aniso_label
_atom_site_aniso_U_11
_atom_site_aniso_U_22
_atom_site_aniso_U_33
_atom_site_aniso_U_23
_atom_site_aniso_U_13
_atom_site_aniso_U_12
Co1 0.0076(5) 0.0075(5) 0.0052(5) -0.0002(4) 0.0004(4) 0.0045(4)
Co2 0.0085(7) 0.0063(6) 0.0042(6) -0.0014(5) -0.0005(5) 0.0039(5)
Co3 0.0070(7) 0.0070(6) 0.0059(7) 0.0019(5) 0.0007(5) 0.0036(5)
N1 0.011(3) 0.010(3) 0.007(3) 0.003(2) -0.001(2) 0.005(2)
N2 0.013(3) 0.008(3) 0.006(3) -0.001(2) 0.000(3) 0.006(2)
N3 0.012(3) 0.015(3) 0.019(4) 0.005(3) 0.006(3) 0.000(3)
N4 0.014(3) 0.011(3) 0.003(3) -0.001(2) -0.002(2) 0.007(2)
N5 0.019(3) 0.005(3) 0.015(4) 0.002(3) 0.006(3) 0.006(3)
N6 0.023(3) 0.015(3) 0.008(3) 0.001(2) -0.008(3) 0.005(3)
N7 0.014(3) 0.009(3) 0.016(3) 0.004(3) -0.002(3) 0.000(2)
N8 0.013(3) 0.015(3) 0.010(3) 0.000(3) 0.001(3) 0.007(3)
N9 0.016(3) 0.006(3) 0.036(4) 0.010(3) 0.015(3) 0.003(3)
O1 0.015(3) 0.019(3) 0.005(3) 0.001(2) -0.001(2) 0.012(2)
O2 0.019(3) 0.014(3) 0.012(3) -0.005(2) -0.007(2) 0.010(2)
O3 0.010(3) 0.011(2) 0.009(3) 0.000(2) 0.003(2) 0.008(2)
O4 0.011(3) 0.009(3) 0.010(3) -0.001(2) 0.003(2) 0.002(2)
O5 0.012(3) 0.014(3) 0.024(3) 0.007(2) 0.006(2) 0.005(2)
C1 0.009(3) 0.008(3) 0.002(3) 0.002(2) -0.001(2) 0.004(2)
C2 0.007(3) 0.008(3) 0.004(3) 0.003(3) -0.002(3) 0.000(3)
C3 0.005(3) 0.007(3) 0.011(4) 0.006(3) 0.002(3) 0.004(3)
C4 0.009(3) 0.004(3) 0.006(3) 0.000(3) 0.004(3) 0.002(3)
C5 0.010(4) 0.013(4) 0.010(4) 0.004(3) -0.006(3) 0.003(3)
C6 0.010(4) 0.006(3) 0.013(4) 0.000(3) -0.001(3) 0.006(3)
C7 0.011(4) 0.011(3) 0.014(4) 0.004(3) 0.003(3) 0.007(3)
N10 0.008(3) 0.010(3) 0.008(3) -0.001(2) 0.001(2) 0.005(2)
C9 0.009(4) 0.007(3) 0.011(4) -0.003(3) 0.000(3) 0.005(3)
C10 0.005(3) 0.016(4) 0.006(3) 0.002(3) 0.002(3) 0.005(3)
C11 0.008(3) 0.012(4) 0.007(3) 0.003(3) 0.002(3) 0.005(3)
C12 0.011(4) 0.010(3) 0.009(4) -0.002(3) 0.001(3) 0.003(3)
C13 0.012(3) 0.008(3) 0.010(3) -0.005(3) 0.000(3) 0.004(3)
C14 0.011(3) 0.008(3) 0.007(4) 0.004(3) 0.002(3) 0.002(3)
loop_
_atom_type_symbol
_atom_type_description
_atom_type_scat_dispersion_real
_atom_type_scat_dispersion_imag
_atom_type_scat_source
C C 0.0033 0.0016 'International Tables Vol C Tables 4.2.6.8 and 6.1.1.4'
H H 0.0000 0.0000 'International Tables Vol C Tables 4.2.6.8 and 6.1.1.4'
N N 0.0061 0.0033 'International Tables Vol C Tables 4.2.6.8 and 6.1.1.4'
O O 0.0106 0.0060 'International Tables Vol C Tables 4.2.6.8 and 6.1.1.4'
Co Co 0.3494 0.9721 'International Tables Vol C Tables 4.2.6.8 and 6.1.1.4'
loop_
_geom_angle_atom_site_label_1
_geom_angle_atom_site_label_2
_geom_angle_atom_site_label_3
_geom_angle
_geom_angle_site_symmetry_1
_geom_angle_site_symmetry_3
O3 Co1 O1 88.1(2) 2_676 .
O3 Co1 O5 86.2(2) 2_676 .
O1 Co1 O5 89.8(2) . .
O3 Co1 N4 174.4(2) 2_676 .
O1 Co1 N4 94.9(2) . .
O5 Co1 N4 89.1(2) . .
O3 Co1 N3 91.4(2) 2_676 2_675
O1 Co1 N3 84.8(3) . 2_675
O5 Co1 N3 174.2(3) . 2_675
N4 Co1 N3 93.5(3) . 2_675
O3 Co1 N1 88.3(2) 2_676 .
O1 Co1 N1 170.3(2) . .
O5 Co1 N1 99.0(2) . .
N4 Co1 N1 89.4(2) . .
N3 Co1 N1 86.2(3) 2_675 .
O2 Co2 O2 180.0(3) . 2_665
O2 Co2 N4 89.9(2) . .
O2 Co2 N4 90.1(2) 2_665 .
O2 Co2 N4 90.1(2) . 2_665
O2 Co2 N4 89.9(2) 2_665 2_665
N4 Co2 N4 180.0 . 2_665
O2 Co2 N9 94.4(3) . 1_545
O2 Co2 N9 85.6(3) 2_665 1_545
N4 Co2 N9 86.9(3) . 1_545
N4 Co2 N9 93.1(3) 2_665 1_545
O2 Co2 N9 85.6(3) . 2_675
O2 Co2 N9 94.4(3) 2_665 2_675
N4 Co2 N9 93.1(3) . 2_675
N4 Co2 N9 86.9(3) 2_665 2_675
N9 Co2 N9 180.0(4) 1_545 2_675
O4 Co3 O4 180.0(3) 2_676 1_454
O4 Co3 N1 92.1(2) 2_676 2_575
O4 Co3 N1 87.9(2) 1_454 2_575
O4 Co3 N1 87.9(2) 2_676 .
O4 Co3 N1 92.1(2) 1_454 .
N1 Co3 N1 180.0 2_575 .
O4 Co3 N7 93.8(2) 2_676 2_575
O4 Co3 N7 86.2(2) 1_454 2_575
N1 Co3 N7 87.7(3) 2_575 2_575
N1 Co3 N7 92.3(3) . 2_575
O4 Co3 N7 86.2(2) 2_676 .
O4 Co3 N7 93.8(2) 1_454 .
N1 Co3 N7 92.3(3) 2_575 .
N1 Co3 N7 87.7(3) . .
N7 Co3 N7 180.0(4) 2_575 .
N2 N1 Co3 117.4(5) . .
N2 N1 Co1 112.7(5) . .
Co3 N1 Co1 125.4(3) . .
N3 N2 N1 175.8(7) . .
N2 N3 Co1 137.7(6) . 2_675
N5 N4 Co1 113.3(5) . .
N5 N4 Co2 116.4(5) . .
Co1 N4 Co2 122.1(3) . .
N6 N5 N4 177.5(9) . .
N8 N7 Co3 125.5(6) . .
N9 N8 N7 179.0(8) . .
N8 N9 Co2 122.9(6) . 1_565
C1 O1 Co1 130.0(5) . .
C1 O2 Co2 138.4(5) . .
C14 O3 Co1 128.2(5) . 2_676
C14 O4 Co3 122.8(5) . 1_656
O2 C1 O1 128.4(7) . .
O2 C1 C2 114.9(6) . .
O1 C1 C2 116.6(6) . .
C3 C2 C7 119.6(7) . .
C3 C2 C1 122.8(7) . .
C7 C2 C1 117.5(7) . .
C2 C3 C4 121.4(7) . .
C5 C4 C3 119.3(7) . .
C5 C4 C14 120.4(7) . .
C3 C4 C14 120.1(7) . .
C4 C5 C6 119.2(7) . .
C7 C6 C5 121.7(7) . .
C7 C6 N10 119.0(7) . .
C5 C6 N10 119.1(7) . .
C6 C7 C2 118.7(8) . .
C9 N10 C13 120.1(6) . .
C9 N10 C6 121.9(6) . .
C13 N10 C6 117.9(6) . .
N10 C9 C10 120.0(7) . .
C11 C10 C9 121.3(7) . .
C10 C11 C12 117.4(7) . .
C10 C11 C11 122.6(8) . 2_866
C12 C11 C11 120.0(9) . 2_866
C13 C12 C11 120.3(7) . .
N10 C13 C12 120.9(7) . .
O4 C14 O3 127.6(7) . .
O4 C14 C4 117.4(7) . .
O3 C14 C4 115.0(7) . .
loop_
_geom_bond_atom_site_label_1
_geom_bond_atom_site_label_2
_geom_bond_distance
_geom_bond_site_symmetry_2
Co1 O3 2.046(5) 2_676
Co1 O1 2.066(5) .
Co1 O5 2.146(6) .
Co1 N4 2.158(6) .
Co1 N3 2.184(7) 2_675
Co1 N1 2.210(6) .
Co2 O2 2.027(6) .
Co2 O2 2.027(6) 2_665
Co2 N4 2.176(6) .
Co2 N4 2.176(6) 2_665
Co2 N9 2.217(7) 1_545
Co2 N9 2.217(7) 2_675
Co3 O4 2.088(6) 2_676
Co3 O4 2.088(6) 1_454
Co3 N1 2.121(6) 2_575
Co3 N1 2.121(6) .
Co3 N7 2.173(7) 2_575
Co3 N7 2.173(7) .
N1 N2 1.196(10) .
N2 N3 1.182(10) .
N3 Co1 2.184(7) 2_675
N4 N5 1.194(10) .
N5 N6 1.171(10) .
N7 N8 1.179(10) .
N8 N9 1.179(10) .
N9 Co2 2.217(7) 1_565
O1 C1 1.249(9) .
O2 C1 1.243(10) .
O3 C14 1.253(9) .
O3 Co1 2.046(5) 2_676
O4 C14 1.248(9) .
O4 Co3 2.088(6) 1_656
C1 C2 1.520(9) .
C2 C3 1.380(11) .
C2 C7 1.399(11) .
C3 C4 1.396(11) .
C4 C5 1.384(11) .
C4 C14 1.507(10) .
C5 C6 1.395(12) .
C6 C7 1.386(11) .
C6 N10 1.458(9) .
N10 C9 1.347(10) .
N10 C13 1.366(10) .
C9 C10 1.384(10) .
C10 C11 1.378(11) .
C11 C12 1.400(11) .
C11 C11 1.497(14) 2_866
C12 C13 1.367(11) .
