#------------------------------------------------------------------------------
#$Date: 2019-11-24 21:09:48 +0200 (Sun, 24 Nov 2019) $
#$Revision: 239424 $
#$URL: file:///home/coder/svn-repositories/cod/cif/4/51/66/4516647.cif $
#------------------------------------------------------------------------------
#
# This file is available in the Crystallography Open Database (COD),
# http://www.crystallography.net/
#
# All data on this site have been placed in the public domain by the
# contributors.
#
data_4516647
loop_
_publ_author_name
'Benmansour, Samia'
'Abherv\'e, Alexandre'
'G\'omez-Claramunt, Patricia'
'Vall\'es-Garc\'ia, Cristina'
'G\'omez-Garc\'ia, Carlos J'
_publ_section_title
;
 Nanosheets of Two-Dimensional Magnetic and Conducting Fe(II)/Fe(III)
 Mixed-Valence Metal-Organic Frameworks.
;
_journal_issue                   31
_journal_name_full               'ACS applied materials &amp; interfaces'
_journal_page_first              26210
_journal_page_last               26218
_journal_paper_doi               10.1021/acsami.7b08322
_journal_volume                  9
_journal_year                    2017
_chemical_formula_sum            'C54 H24 Br6 Fe2 N6 O26'
_chemical_formula_weight         1763.95
_space_group_crystal_system      trigonal
_space_group_IT_number           162
_space_group_name_Hall           '-P 3 2'
_space_group_name_H-M_alt        'P -3 1 m'
_atom_sites_solution_hydrogens   geom
_audit_creation_method           SHELXL-2014/7
_cell_angle_alpha                90
_cell_angle_beta                 90
_cell_angle_gamma                120
_cell_formula_units_Z            1
_cell_length_a                   13.7841(3)
_cell_length_b                   13.7841(3)
_cell_length_c                   9.2424(3)
_cell_measurement_reflns_used    2161
_cell_measurement_temperature    120(2)
_cell_measurement_theta_max      24.9561
_cell_measurement_theta_min      3.4064
_cell_volume                     1520.80(7)
_computing_data_collection
;
CrysAlisPro, Agilent Technologies,
Version 1.171.35.19 (release 27-10-2011 CrysAlis171 .NET)
(compiled Oct 27 2011,15:02:11)
;
_computing_structure_refinement  'SHELXL-2014/7 (Sheldrick, 2014)'
_diffrn_ambient_temperature      120(2)
_diffrn_measured_fraction_theta_full 0.996
_diffrn_measured_fraction_theta_max 0.996
_diffrn_measurement_device_type
'SuperNova, Single source at offset), Sapphire3'
_diffrn_measurement_method       '\w scans'
_diffrn_radiation_type           MoK\a
_diffrn_radiation_wavelength     0.71073
_diffrn_reflns_av_R_equivalents  0.0336
_diffrn_reflns_av_unetI/netI     0.0223
_diffrn_reflns_Laue_measured_fraction_full 0.996
_diffrn_reflns_Laue_measured_fraction_max 0.996
_diffrn_reflns_limit_h_max       14
_diffrn_reflns_limit_h_min       -15
_diffrn_reflns_limit_k_max       12
_diffrn_reflns_limit_k_min       -16
_diffrn_reflns_limit_l_max       10
_diffrn_reflns_limit_l_min       -10
_diffrn_reflns_number            6760
_diffrn_reflns_point_group_measured_fraction_full 0.996
_diffrn_reflns_point_group_measured_fraction_max 0.996
_diffrn_reflns_theta_full        25.000
_diffrn_reflns_theta_max         25.010
_diffrn_reflns_theta_min         3.413
_diffrn_source                   'SuperNova (Mo) X-ray Source'
_exptl_absorpt_coefficient_mu    4.509
_exptl_absorpt_correction_T_max  0.7431
_exptl_absorpt_correction_T_min  0.6368
_exptl_absorpt_correction_type   multi-scan
_exptl_absorpt_process_details
;
CrysAlisPro, Agilent Technologies,
Version 1.171.35.19 (release 27-10-2011 CrysAlis171 .NET)
(compiled Oct 27 2011,15:02:11)
Empirical absorption correction using spherical harmonics,
 implemented in SCALE3 ABSPACK scaling algorithm.
;
_exptl_crystal_colour            Black
_exptl_crystal_density_diffrn    1.926
_exptl_crystal_description       Hexagonal_prism
_exptl_crystal_F_000             860
_exptl_crystal_size_max          0.110
_exptl_crystal_size_mid          0.080
_exptl_crystal_size_min          0.070
_refine_diff_density_max         0.958
_refine_diff_density_min         -0.800
_refine_diff_density_rms         0.124
_refine_ls_extinction_method     none
_refine_ls_goodness_of_fit_ref   1.071
_refine_ls_hydrogen_treatment    constr
_refine_ls_matrix_type           full
_refine_ls_number_parameters     81
_refine_ls_number_reflns         971
_refine_ls_number_restraints     12
_refine_ls_restrained_S_all      1.063
_refine_ls_R_factor_all          0.0555
_refine_ls_R_factor_gt           0.0481
_refine_ls_shift/su_max          0.012
_refine_ls_shift/su_mean         0.000
_refine_ls_structure_factor_coef Fsqd
_refine_ls_weighting_details
'w=1/[\s^2^(Fo^2^)+(0.0736P)^2^+7.4163P] where P=(Fo^2^+2Fc^2^)/3'
_refine_ls_weighting_scheme      calc
_refine_ls_wR_factor_gt          0.1378
_refine_ls_wR_factor_ref         0.1433
_reflns_Friedel_coverage         0.000
_reflns_number_gt                840
_reflns_number_total             971
_reflns_threshold_expression     'I > 2\s(I)'
_cod_data_source_file            am7b08322_si_002.cif
_cod_data_source_block           shelx_SBML141_crys28a
_cod_original_cell_volume        1520.80(8)
_cod_database_code               4516647
_shelx_shelxl_version_number     2014/7
_shelx_space_group_comment
;
The symmetry employed for this shelxl refinement is uniquely defined
by the following loop, which should always be used as a source of
symmetry information in preference to the above space-group names.
They are only intended as comments.
;
_shelx_estimated_absorpt_t_min   0.637
_shelx_estimated_absorpt_t_max   0.743
_shelx_res_file
;

    shelx.res created by SHELXL-2014/7


TITL SIR92 run in space group P -3 1 m
CELL  0.71073  13.7841  13.7841   9.2424   90.000   90.000  120.000
ZERR     1.00   0.0003   0.0003   0.0003    0.000    0.000    0.000
LATT   1
SYMM  - Y,   X - Y,   Z
SYMM  - X + Y, - X,   Z
SYMM  - Y, - X, - Z
SYMM    X,   X - Y, - Z
SYMM  - X + Y,   Y, - Z
SFAC  C    H    N    O    FE   BR
UNIT  54 24 6 26 2 6
MERG   2
ISOR 0.005 O1W O1W'
FMAP   2
PLAN   25
SIZE     0.070   0.080   0.110
ACTA 50
BOND   $H
CONF
L.S.  40
TEMP  -153.00
WGHT    0.073600    7.416300
FVAR       2.57737
FE1   5    0.666667    0.333333    0.000000    10.16667    0.00979    0.00979 =
         0.02680    0.00000    0.00000    0.00489
O2    4    0.802361    0.341986    0.109225    11.00000    0.01550    0.01329 =
         0.02448    0.00410   -0.00161    0.00429
C2    1    0.898091    0.411396    0.061134    11.00000    0.01823    0.00891 =
         0.01862   -0.00093    0.00281    0.00556
C1    1    1.000000    0.425316    0.109888    10.50000    0.01531    0.01107 =
         0.01743    0.00531    0.00000    0.00766
BR1   6    1.000000    0.326487    0.249667    10.50000    0.02849    0.02781 =
         0.03198    0.00712    0.00000    0.01424
N11   3    1.117622    0.558811    0.500000    10.50000    0.02509    0.02496 =
         0.02502   -0.00199    0.00000    0.01255
C12   1    1.059994    0.468340    0.586116    11.00000    0.02673    0.02626 =
         0.02109   -0.00770   -0.00047    0.01237
C13   1    1.118014    0.432812    0.677754    11.00000    0.02938    0.03489 =
         0.02932   -0.00773   -0.00407    0.02077
AFIX  43
H13   2    1.197589    0.471823    0.678458    11.00000   -1.20000
AFIX   0
C14   1    1.059431    0.342298    0.765258    11.00000    0.03939    0.03808 =
         0.03096   -0.00390   -0.00412    0.02585
AFIX  43
H14   2    1.098683    0.318638    0.827125    11.00000   -1.20000
AFIX   0
PART1
O1W   4    1.333333    0.666667   -0.543123    10.08334    0.14490    0.14490 =
         0.14493    0.00000    0.00000    0.07245
PART2
O1W'  4    1.333333    0.666667    0.468342    10.08334    0.03265    0.03265 =
         0.03012    0.00000    0.00000    0.01633
PART0
O2W   4    1.060192    0.120384    0.500000    10.50000    0.25328    0.33368 =
         0.30558    0.00000    0.01392    0.16684
O3W   4    1.051642    0.103284    1.000000    10.50000    0.22480    0.20649 =
         0.51738    0.00000   -0.02226    0.10324
HKLF    4

REM  SIR92 run in space group P -3 1 m
REM R1 =  0.0481 for     840 Fo > 4sig(Fo)  and  0.0555 for all     971 data
REM     81 parameters refined using     12 restraints

END

WGHT      0.0660      6.8423

REM Highest difference peak  0.958,  deepest hole -0.800,  1-sigma level  0.124
Q1    1   1.0000  0.0000  1.1161  10.16667  0.05    0.57
Q2    1   0.9053  0.4527  0.0000  10.50000  0.05    0.51
Q3    1   0.9508  0.4075  0.0818  11.00000  0.05    0.47
Q4    1   1.0723  0.4425  0.6321  11.00000  0.05    0.43
Q5    1   1.0000  0.3236  0.7976  10.50000  0.05    0.39
Q6    1   1.0852  0.4999  0.5402  11.00000  0.05    0.39
Q7    1   1.1191  0.3815  0.5885  11.00000  0.05    0.39
Q8    1   1.0000  0.0000  0.3513  10.16667  0.05    0.36
Q9    1   0.9753  0.2534  0.1831  11.00000  0.05    0.35
Q10   1   1.0000  0.4447  0.5808  10.50000  0.05    0.33
Q11   1   0.9184  0.2707  0.2735  11.00000  0.05    0.32
Q12   1   1.0613  0.2557  0.5898  11.00000  0.05    0.31
Q13   1   1.0000  0.3440  0.3730  10.50000  0.05    0.30
Q14   1   1.2206  0.6103  0.5000  10.50000  0.05    0.28
Q15   1   1.0527  0.0527  0.3786  10.50000  0.05    0.28
Q16   1   1.0490  0.4090  0.3144  11.00000  0.05    0.27
Q17   1   1.1278  0.2232  0.5598  11.00000  0.05    0.24
Q18   1   1.0775  0.3077  0.2131  11.00000  0.05    0.23
Q19   1   1.0000  0.0810  0.4062  10.50000  0.05    0.23
Q20   1   1.0000  0.1999  1.0071  10.50000  0.05    0.19
Q21   1   1.0000  0.3368  0.9157  10.50000  0.05    0.19
Q22   1   1.0000  0.2892  0.0774  10.50000  0.05    0.18
Q23   1   1.0000  0.5433  0.6254  10.50000  0.05    0.17
Q24   1   1.2413  0.5332  0.6491  11.00000  0.05    0.17
Q25   1   1.1727  0.5863  0.5000  10.50000  0.05    0.17
;
_shelx_res_checksum              60631
_shelx_hkl_file
;
   0   0 -10 3443.90 630.524   2
   0   0  -9 8422.57 899.905   2
   0   0  -8 63478.5 2253.09   2
   0   0  -7 144.155 173.463   2
   0   0  -6 94193.8 2365.94   2
   0   0  -5 11909.6 787.799   2
   0   0  -4 136693. 2318.14   2
   0   0  -4 133518. 2281.24   3
   0   0  -3 97.3753 83.8074   3
   0   0  -3 251.603 136.148   2
   0   0  -2 10112.9 455.746   3
   0   0  -2 9469.68 432.496   2
   0   0   2 9778.11 430.085   4
   0   0   2 10017.6 434.216   2
   0   0   2 10191.6 462.380   3
   0   0   3 274.052 114.773   4
   0   0   3 79.8200 88.9417   2
   0   0   3 323.052 141.366   3
   0   0   4 131476. 2140.14   4
   0   0   4 132892. 2373.00   3
   0   0   4 130651. 2156.84   2
   0   0   5 12402.0 820.578   3
   0   0   6 94717.4 2445.08   3
   0   0   7 165.257 202.181   3
   0   0   8 62638.8 2335.66   3
   0   0   9 7942.79 913.471   3
   0   0  10 2832.81 640.266   3
  -1   0 -10 1528.06 521.946   2
   1  -1 -10 1246.09 434.099   2
   1  -1  -9 530.768 312.846   2
   0   1  -9 611.550 291.895   2
  -1   0  -9 1343.02 423.273   2
   1  -1  -8-49.9601 226.159   2
   0   1  -8 187.329 200.856   2
  -1   0  -8 378.857 301.480   2
   0   1  -7 352.873 190.064   2
   1  -1  -7 440.580 196.557   2
  -1   0  -7 114.271 183.037   2
   0   1  -6 61.2552 171.965   2
   1  -1  -6-31.4579 147.065   2
  -1   0  -6 134.135 179.823   2
  -1   0  -5 2217.30 379.537   2
   0   1  -5 1812.25 303.039   2
   1  -1  -5 1694.61 276.738   3
   1  -1  -5 1838.90 345.829   2
  -1   0  -5 1557.23 266.273   3
  -1   0  -4 3811.05 387.860   3
   1  -1  -4 4241.24 409.268   3
  -1   0  -4 3358.07 397.207   2
   0   1  -4 3482.04 417.613   3
   1  -1  -4 3331.55 378.117   2
   0   1  -4 3304.95 367.241   2
   1  -1  -3 1663.00 228.036   3
  -1   0  -3 1632.63 257.874   2
   1  -1  -3 1518.85 241.244   4
   0   1  -3 1710.18 224.480   2
   0   1  -3 1538.43 248.708   3
   1  -1  -3 1343.58 221.851   2
  -1   0  -3 1784.97 235.382   3
   0   1  -2 6569.68 343.085   2
   0   1  -2 7094.49 417.154   3
  -1   0  -2 7210.13 378.489   3
   1  -1  -2 6428.41 358.947   3
  -1   0  -2 7354.91 354.115   4
  -1   0  -2 6857.98 412.522   2
   1  -1  -2 7215.48 405.077   4
   0   1   2 7135.65 338.633   3
  -1   0   2 7051.50 422.004   3
  -1   0   2 6636.13 303.698   2
   0   1   2 6663.11 362.096   4
   1  -1   2 6750.70 404.338   3
   1  -1   2 6821.94 391.693   2
   1  -1   3 1610.86 226.357   2
   0   1   3 1776.50 225.967   3
  -1   0   3 1624.42 255.033   3
   0   1   3 1172.15 189.316   4
   1  -1   3 1260.43 229.204   3
  -1   0   3 1613.92 234.842   4
   0   1   4 3581.84 384.084   3
  -1   0   4 3614.88 420.767   3
   1  -1   4 3712.57 371.497   4
   1  -1   4 3643.29 414.439   3
   0   1   4 3623.37 359.350   4
  -1   0   4 3981.23 400.876   4
   1  -1   4 3923.24 395.394   2
   0   1   5 1589.86 309.595   3
  -1   0   5 1840.85 354.512   3
   1  -1   5 1760.96 338.775   3
  -1   0   6-10.1971 179.079   3
   0   1   6 5.88039 208.845   3
   1  -1   6-42.1539 173.732   3
  -1   0   7 14.7906 190.098   3
   0   1   7 693.546 280.538   3
   1  -1   7 616.690 313.615   3
  -1   0   8 132.841 318.389   3
   1  -1   8-130.696 265.614   3
  -1   0   9 867.323 384.208   3
   1  -1   9 101.393 240.344   3
   0   1   9 349.549 241.803   3
  -1   0  10 1333.75 458.825   3
   1  -1  10 1123.47 404.255   3
   0   1  10 1052.42 399.040   3
  -1   1 -10 1977.31 478.532   2
   1   0 -10 1086.86 365.767   2
   0  -1 -10 1495.06 402.453   2
   1   0  -9 286.517 292.544   2
  -1   1  -9 740.073 332.964   2
   0  -1  -9 513.012 318.962   2
  -1   1  -8-58.7874 245.424   2
   1   0  -8 670.711 272.304   2
   0  -1  -8 241.342 197.879   2
   0  -1  -7 618.607 329.471   2
   1   0  -7 455.843 165.621   2
  -1   1  -7 670.620 297.029   2
   1   0  -6-154.697 170.673   2
  -1   1  -6 34.0509 168.956   2
   0  -1  -6 160.385 181.698   2
   1   0  -5 2359.18 341.605   2
   0  -1  -5 1607.62 289.078   3
   0  -1  -5 1422.75 285.346   2
  -1   1  -5 1744.60 323.438   2
   1   0  -4 3778.18 364.983   2
   1   0  -4 3586.05 382.653   3
   0  -1  -4 3758.86 367.494   3
  -1   1  -4 3998.96 405.278   3
   0  -1  -4 3481.91 409.277   2
  -1   1  -4 3924.67 421.161   2
   0  -1  -4 3576.56 392.066   4
   0  -1  -3 1574.21 205.969   3
   1   0  -3 1697.28 241.289   3
   0  -1  -3 1661.67 235.286   4
  -1   1  -3 1335.53 228.356   3
   1   0  -3 1613.34 218.189   2
   0  -1  -3 1662.28 248.482   2
  -1   1  -3 1892.96 266.933   2
   0  -1  -2 6514.92 374.727   4
   1   0  -2 6684.04 399.104   3
  -1   1  -2 7284.53 418.589   3
   1   0  -2 6758.35 311.404   2
  -1   1  -2 6829.50 397.985   2
   0  -1  -2 6968.11 339.821   3
   1   0   2 6954.16 376.592   3
  -1   1   2 6762.37 373.540   3
  -1   1   2 6567.95 380.824   4
   0  -1   2 6345.54 404.533   3
   1   0   2 6980.07 412.744   2
   1   0   2 6370.39 326.535   4
   0  -1   2 6584.82 342.158   2
  -1   1   3 1202.84 203.027   4
   1   0   3 1432.71 204.333   4
   1   0   3 1837.38 251.476   3
   0  -1   3 1287.79 225.141   3
   0  -1   3 1338.25 199.628   2
  -1   1   3 1606.68 234.544   3
   1   0   3 1610.15 240.349   2
   1   0   4 3859.50 407.783   2
  -1   1   4 3665.36 384.411   4
  -1   1   4 3280.71 391.352   3
   1   0   4 3636.48 360.980   4
   0  -1   4 3798.03 441.814   3
   1   0   4 4284.07 433.392   3
   0  -1   4 3967.87 384.659   2
   0  -1   5 2265.75 384.129   3
   1   0   5 1363.48 299.658   3
   0  -1   5 1420.22 268.054   2
  -1   1   5 1517.98 306.750   3
   1   0   6-241.122 193.686   3
  -1   1   6-216.801 230.632   3
   0  -1   7 872.020 332.613   3
   1   0   7 553.193 302.177   3
  -1   1   7 102.240 212.428   3
   0  -1   8 375.266 311.330   3
   1   0   8 109.426 219.130   3
  -1   1   8 234.179 271.039   3
   0  -1   9 309.250 263.740   3
   1   0   9 862.925 336.887   3
  -1   1   9 507.168 303.335   3
   0  -1  10 1248.06 496.807   3
  -1   1  10 968.249 431.182   3
   1  -2 -10 4307.86 693.213   2
  -2   1 -10 3574.52 659.206   2
  -2   1  -9 33490.5 1826.93   2
   1   1  -9 34196.2 1588.55   2
   1  -2  -9 33162.9 1739.46   2
  -2   1  -8 1251.16 417.427   2
   1   1  -8 1064.03 324.049   2
   1  -2  -8 1720.00 441.379   2
   1   1  -7 19771.0 1072.79   2
  -2   1  -7 21762.4 1306.34   2
   1  -2  -7 20405.2 1227.51   2
   1   1  -6 37764.4 1364.50   2
   1  -2  -6 35018.7 1513.97   2
  -2   1  -6 37389.7 1611.90   2
  -2   1  -5 56588.5 1795.05   2
   1   1  -5 55997.5 1483.42   2
   1  -2  -5 57815.6 1763.88   4
   1  -2  -5 59272.0 1549.78   3
   1  -2  -5 59348.6 1769.96   2
   1  -2  -4 2254.48 282.024   3
   1  -2  -4 2420.54 339.007   4
   1   1  -4 2346.32 283.708   2
   1   1  -4 2195.77 318.736   3
  -2   1  -4 1897.63 315.016   2
   1  -2  -4 2267.77 335.133   2
  -2   1  -4 2275.19 319.416   3
  -2   1  -3 30406.8 997.371   3
  -2   1  -3 30671.5 1066.25   2
   1  -2  -3 31303.5 873.551   3
   1   1  -3 30458.5 804.778   2
   1   1  -3 30589.2 1040.14   3
   1  -2  -3 32335.1 1038.09   4
   1  -2  -2 549364. 2886.62   3
   1   1  -2 555215. 3814.29   3
  -2   1  -2 562943. 3924.59   2
   1  -2  -2 554656. 3691.38   4
   1  -2  -1 163464. 1645.30   4
   1   1  -1 162339. 1691.41   3
   1   1  -1 165133. 1655.32   1
  -2   1  -1 162201. 1738.83   2
   1   1   1 2015.33 157.807   4
  -2   1   1 2092.51 175.246   4
   1  -2   1 1943.29 156.696   1
   1  -2   1 2290.14 211.312   3
   1  -2   2 99363.7 1678.79   3
  -2   1   2 101228. 1513.56   4
   1   1   2 100488. 1345.74   4
  -2   1   2 95059.5 1597.83   3
  -2   1   3 69669.6 1464.82   4
   1   1   3 71169.1 1358.20   4
   1  -2   3 71987.9 1461.24   2
   1   1   3 69935.4 1322.82   3
   1  -2   3 69822.3 1646.11   3
  -2   1   3 66385.8 1524.52   3
  -2   1   4 28253.3 1058.80   4
   1  -2   4 28753.2 1194.12   3
   1  -2   4 28737.9 1030.13   2
   1   1   4 27093.0 955.466   4
   1   1   4 27132.0 977.444   3
  -2   1   4 26570.8 1125.32   3
   1  -2   5 53669.4 1810.66   3
  -2   1   5 54788.2 1737.72   3
   1   1   5 52941.6 1551.71   3
   1  -2   5 52902.4 1528.44   2
   1   1   6 66240.9 1944.58   3
   1  -2   6 67607.2 2213.17   3
  -2   1   6 64376.0 2055.29   3
   1  -2   7 69350.5 2388.76   3
  -2   1   7 68866.9 2320.05   3
   1   1   7 70763.5 2155.69   3
   1   1   8 251.856 243.155   3
  -2   1   8 125.669 253.485   3
   1  -2   8 93.9385 241.517   3
  -2   1   9 10947.5 1081.23   3
   1  -2   9 10520.6 1094.47   3
   1  -2  10 17882.8 1477.89   3
  -2   1  10 18983.2 1468.83   3
   2  -3 -10 71.0547 263.492   2
  -3   1 -10 726.952 399.715   2
   2  -3  -9 481.087 270.440   2
  -3   1  -9-71.6386 246.919   2
  -3   1  -8-318.271 291.695   2
   2  -3  -8-52.4248 233.625   2
   2  -3  -7 45.0178 202.903   2
  -3   1  -7-149.342 219.916   2
   2  -3  -6 8.56864 155.343   2
   2  -3  -6 111.668 173.715   4
  -3   1  -6 115.437 193.239   2
   2  -3  -5 2052.73 372.906   4
  -3   1  -5 1973.29 380.876   2
   2  -3  -5 2029.63 299.565   3
   2  -3  -4 8553.56 541.727   3
  -3   1  -4 9113.22 617.991   3
  -3   1  -4 8512.00 684.989   2
   2  -3  -4 8830.73 668.643   4
  -3   1  -3 2355.18 301.695   3
   1   2  -3 2447.02 315.573   3
   2  -3  -3 2169.59 302.501   4
   2  -3  -3 2095.87 246.060   3
  -3   1  -3 1799.19 291.897   2
  -3   1  -2 89685.5 1704.22   2
   1   2  -2 89073.2 1530.78   1
   2  -3  -2 88786.8 1617.68   4
   1   2  -2 89417.3 1623.68   3
   2  -3  -1 2003.10 221.276   4
  -3   1  -1 2171.87 238.790   2
   1   2  -1 1756.66 195.521   3
   2  -3   0 2110.13 210.529   4
   1   2   0 2173.25 169.235   3
  -3   1   0 2354.58 172.720   1
  -3   1   0 2354.91 127.785   4
  -3   1   1 5160.02 293.025   4
   1   2   1 5357.19 318.390   4
   2  -3   1 5334.97 247.291   1
  -3   1   2 4609.52 343.865   4
  -3   1   2 4525.21 390.832   3
   1   2   2 4838.24 337.202   4
  -3   1   3 3793.11 362.579   4
   1   2   3 3301.15 314.450   4
  -3   1   3 4137.17 427.068   3
   2  -3   3 3948.49 388.982   2
   2  -3   3 4145.45 450.804   3
   1   2   4 152.045 102.938   4
  -3   1   4 418.381 201.277   3
   2  -3   4 103.937 143.623   3
   2  -3   4 105.678 112.962   2
   2  -3   5 2610.28 432.451   3
  -3   1   5 3039.39 468.779   3
   1   2   5 2715.62 356.479   3
   1   2   6 330.954 212.402   3
   2  -3   6 393.065 261.753   3
  -3   1   6 210.471 186.411   3
  -3   1   7 1215.30 369.156   3
   2  -3   7 1591.20 400.638   3
   1   2   7 1256.36 297.776   3
   2  -3   8 3946.32 671.975   3
  -3   1   8 2670.86 559.833   3
  -3   1   9-360.317 351.718   3
  -3   1  10 1404.15 509.505   3
   2  -2 -10-17.7607 246.646   2
  -2   0 -10 345.858 381.506   2
  -2   0  -9 3042.28 598.531   2
   2  -2  -9 2697.88 490.318   2
  -2   0  -8 2257.34 517.337   2
   2  -2  -8 2758.57 505.712   2
   2  -2  -7 1545.13 361.918   2
  -2   0  -7 1162.34 359.978   2
   2  -2  -6 2928.68 433.861   2
  -2   0  -6 4356.33 596.663   2
   2  -2  -5 3624.55 447.834   2
   2  -2  -5 3373.37 387.480   3
  -2   0  -5 4322.86 530.006   2
  -2   0  -5 3978.08 429.722   3
   2  -2  -4 7936.60 610.793   4
  -2   0  -4 8719.26 668.580   2
  -2   0  -4 8220.91 553.488   3
   2  -2  -4 9281.41 582.050   3
   0   2  -4 8619.01 644.214   3
   2  -2  -3 2673.50 327.215   4
   0   2  -3 2428.02 313.035   3
   2  -2  -3 2564.63 277.975   3
  -2   0  -3 2517.27 280.993   3
  -2   0  -3 2885.70 348.783   2
   0   2  -2 41169.9 940.913   1
  -2   0  -2 41515.5 785.520   4
   2  -2  -2 40894.4 1030.70   4
  -2   0  -2 40583.5 1102.59   2
   0   2  -2 41218.7 1060.68   3
   0   2  -1 7548.68 351.842   1
  -2   0  -1 6924.48 372.547   2
   0   2  -1 6408.01 344.867   3
   2  -2  -1 6241.50 334.698   4
  -2   0  -1 7054.47 214.331   4
  -2   0   0 68138.5 929.452   1
   0   2   0 69467.2 744.293   3
  -2   0   0 70252.7 829.706   2
   0   2   1 6540.59 333.490   4
  -2   0   1 6591.13 378.393   3
   2  -2   2 39657.6 1026.92   2
   0   2   2 39590.3 942.601   4
  -2   0   2 39837.6 1085.14   3
   0   2   2 41812.7 699.985   3
   0   2   3 3197.62 321.620   4
   0   2   3 2877.30 261.148   3
  -2   0   3 3164.14 381.784   3
   2  -2   3 2621.16 319.744   2
  -2   0   4 8121.64 574.858   4
   0   2   4 8279.68 554.489   4
  -2   0   4 9119.40 690.472   3
   2  -2   4 9311.31 622.713   2
   2  -2   4 8456.17 654.251   3
   0   2   4 8945.77 544.168   3
   2  -2   5 3743.41 483.937   3
  -2   0   5 3349.94 469.283   3
   0   2   5 4254.55 437.123   3
   0   2   6 3583.04 459.432   3
   2  -2   6 4170.77 555.794   3
  -2   0   6 3121.81 490.556   3
   0   2   7 1238.82 308.216   3
   2  -2   7 1837.61 432.197   3
  -2   0   7 637.382 309.007   3
  -2   0   8 2317.63 523.295   3
   2  -2   8 2948.81 578.709   3
   0   2   8 2198.03 448.470   3
  -2   0   9 2923.57 613.227   3
   0   2   9 2320.71 500.117   3
  -2   0  10 224.730 381.078   3
   0   2  10 156.876 295.117   3
   2  -1 -10 19285.5 1295.46   2
  -1  -1 -10 19053.2 1451.51   2
  -1  -1  -9 10370.7 1058.57   2
   2  -1  -9 10026.0 916.205   2
  -1  -1  -8 286.994 259.307   2
   2  -1  -8 549.134 210.597   2
  -1  -1  -7 67497.2 2313.91   2
  -1   2  -7 66713.5 2144.01   2
   2  -1  -7 69060.1 2036.32   2
   2  -1  -6 63693.2 1803.08   2
  -1  -1  -6 66288.5 2176.65   2
  -1   2  -6 65148.7 1966.13   2
  -1   2  -5 56127.6 1656.20   2
  -1  -1  -5 52073.0 1751.51   2
  -1  -1  -5 52620.6 1471.29   3
   2  -1  -5 55289.3 1519.70   2
  -1  -1  -4 27161.1 1157.39   2
   2  -1  -4 27049.5 950.092   2
   2  -1  -4 26963.8 1035.16   3
  -1  -1  -4 27472.4 950.324   3
  -1  -1  -4 26790.3 1014.88   4
  -1   2  -4 28740.6 1125.63   3
   2  -1  -3 73902.3 1514.89   3
  -1  -1  -3 70966.8 1325.22   3
  -1  -1  -3 72602.0 1430.80   4
   2  -1  -3 70082.7 1289.08   2
  -1  -1  -3 68223.1 1630.46   2
  -1   2  -3 68930.7 1569.21   3
  -1  -1  -2 99509.9 1390.39   4
  -1  -1  -2 100847. 1257.90   3
  -1   2  -2 101516. 1642.63   3
  -1  -1  -2 99008.5 1694.24   2
   2  -1  -2 99815.0 1549.20   3
  -1  -1  -1 2007.96 163.031   4
   2  -1  -1 2197.84 179.791   4
  -1   2  -1 1912.95 150.420   1
  -1   2  -1 2088.06 194.583   3
  -1  -1   1 165316. 1741.23   3
  -1   2   1 165106. 1645.36   4
   2  -1   1 167756. 1723.67   2
  -1  -1   1 167388. 1733.63   1
  -1  -1   2 562031. 2680.37   2
  -1   2   2 543753. 3561.79   4
   2  -1   2 554340. 3799.04   2
  -1   2   2 547442. 2982.53   3
  -1  -1   2 543964. 3947.50   3
  -1   2   3 30811.0 887.259   3
  -1  -1   3 31012.6 1106.83   3
  -1  -1   3 30410.6 787.461   2
   2  -1   3 32159.4 1051.33   2
   2  -1   3 30037.4 833.273   4
  -1   2   3 28273.3 939.530   4
  -1  -1   4 2465.01 376.892   3
   2  -1   4 1980.26 302.593   2
   2  -1   4 1694.35 244.431   4
  -1  -1   4 2401.56 267.575   2
  -1   2   4 1963.11 287.492   4
  -1   2   4 2226.53 294.794   3
   2  -1   5 57058.7 1746.76   3
  -1  -1   5 55962.2 1419.24   2
  -1  -1   5 59306.1 1895.13   3
   2  -1   5 57404.8 1486.32   4
  -1   2   5 57356.7 1623.10   3
  -1   2   6 38646.6 1506.86   3
   2  -1   6 38044.8 1567.72   3
  -1  -1   6 35791.5 1630.96   3
   2  -1   7 18701.9 1202.29   3
  -1   2   7 17684.4 1094.04   3
  -1  -1   7 17811.1 1237.97   3
  -1  -1   8 1215.45 409.099   3
  -1   2   8 1368.34 386.077   3
  -1  -1   9 33132.2 1905.07   3
  -1   2   9 34074.9 1759.06   3
  -1   2  10 4359.76 675.171   3
  -1  -1  10 6194.64 910.818   3
   2   0 -10 175.173 214.755   2
   0  -2 -10 204.811 307.026   2
   2   0  -9 2572.54 443.349   2
   0  -2  -9 1697.65 486.292   2
  -2   2  -8 1859.81 436.200   2
   2   0  -8 2186.67 413.090   2
   0  -2  -8 2119.27 503.806   2
   0  -2  -7 683.935 311.471   2
   2   0  -7 725.337 234.431   2
  -2   2  -7 983.262 318.974   2
  -2   2  -6 4007.54 548.020   2
   2   0  -6 4463.37 470.611   2
   0  -2  -6 4037.28 540.369   2
   0  -2  -5 4164.15 412.699   3
   0  -2  -5 3990.27 475.766   4
  -2   2  -5 3327.65 449.765   2
   0  -2  -5 3769.15 490.543   2
   2   0  -5 3862.86 401.960   2
   2   0  -4 8552.28 488.945   2
  -2   2  -4 9017.32 638.016   3
   2   0  -4 8427.08 608.257   3
   0  -2  -4 8771.19 672.933   2
   0  -2  -4 8331.57 603.766   4
  -2   2  -4 8809.94 640.749   2
   0  -2  -4 8779.67 527.341   3
   0  -2  -3 3130.07 266.126   3
   2   0  -3 2684.39 225.936   2
   2   0  -3 3324.94 355.491   3
  -2   2  -3 2761.66 327.816   3
   0  -2  -3 2597.60 307.771   4
   2   0  -2 41092.3 1055.53   3
   0  -2  -2 40272.3 698.948   3
   2   0  -2 41467.5 603.043   2
  -2   2  -2 41338.1 1062.35   3
   0  -2  -2 40280.2 986.701   4
   2   0  -1 6632.92 335.517   1
   0  -2  -1 6272.55 336.314   4
   0  -2   0 69581.3 751.726   3
   2   0   0 68258.5 817.905   2
   2   0   1 6902.56 364.253   2
   0  -2   1 6494.88 342.984   1
   2   0   1 6793.87 206.995   4
   0  -2   1 6770.71 360.463   3
  -2   2   1 6825.31 340.006   4
   2   0   2 40988.3 763.611   4
  -2   2   2 39877.3 978.474   4
   0  -2   2 39356.0 1085.53   3
   2   0   2 42611.0 1084.07   2
  -2   2   2 43010.3 971.487   3
  -2   2   3 2460.37 297.399   3
   2   0   3 2772.50 330.834   2
   0  -2   3 3389.39 388.274   3
   2   0   3 3365.45 280.523   4
  -2   2   3 2705.79 295.482   4
   0  -2   3 2693.16 274.219   2
   0  -2   4 8294.38 536.029   2
  -2   2   4 9571.62 642.397   3
  -2   2   4 8814.59 597.142   4
   0  -2   4 8764.70 676.747   3
   2   0   4 7621.39 590.459   2
   2   0   4 8048.59 494.940   4
   0  -2   5 3057.11 470.690   3
  -2   2   5 3361.29 430.613   3
   2   0   5 4001.97 390.873   4
   0  -2   5 3371.16 378.701   2
   0  -2   6 4664.02 626.496   3
  -2   2   6 3313.61 473.227   3
   0  -2   7 918.442 350.904   3
  -2   2   7 1112.14 349.588   3
  -2   2   8 1274.14 316.295   3
   0  -2   8 1688.75 486.707   3
   0  -2   9 2995.30 620.840   3
  -2   2   9 2469.61 538.315   3
   0  -2  10 477.193 374.942   3
  -2   2  10-133.587 280.736   3
   1  -3 -10 672.151 340.960   2
  -3   2  -9 805.469 425.332   2
   1  -3  -9 195.780 262.603   2
  -3   2  -8 387.933 313.736   2
   1  -3  -8 297.934 258.425   2
   2   1  -7 347.947 189.207   2
  -3   2  -7 271.652 242.108   2
   1  -3  -7-34.1150 233.754   2
  -3   2  -6-48.9889 163.391   2
   1  -3  -6-329.290 259.959   4
   1  -3  -6-43.2880 202.921   2
   2   1  -6 81.3519 123.349   2
   1  -3  -5 2170.77 295.206   3
   1  -3  -5 2181.65 388.118   4
   1  -3  -5 1990.02 370.509   2
   2   1  -5 2430.20 305.525   2
  -3   2  -5 1570.69 347.812   2
  -3   2  -4 9168.28 689.028   2
   1  -3  -4 8258.63 639.598   4
  -3   2  -4 9138.51 658.951   3
   1  -3  -4 10023.5 542.432   3
  -3   2  -3 1832.77 301.529   2
  -3   2  -3 2198.68 297.152   3
   1  -3  -3 2206.84 302.387   4
   2   1  -3 2009.66 284.059   3
   1  -3  -3 2388.71 227.758   3
   2   1  -2 88166.3 1627.10   3
   2   1  -2 90534.8 1564.75   1
   1  -3  -2 86147.3 1583.19   4
   2   1  -1 2106.11 224.119   1
   1  -3  -1 1744.20 214.452   4
   2   1  -1 2028.26 231.419   3
  -3   2   0 2224.63 152.309   4
   1  -3   0 2289.60 231.273   4
   1  -3   1 5593.29 323.919   1
   2   1   1 5352.93 270.070   4
   1  -3   1 5560.91 356.148   3
  -3   2   1 4899.95 293.998   4
   1  -3   2 4640.31 401.400   3
  -3   2   2 4884.51 358.500   4
  -3   2   2 4654.25 390.485   3
   2   1   2 4791.29 289.834   4
   2   1   3 3598.77 304.878   4
  -3   2   3 4365.05 385.941   4
  -3   2   3 3755.63 387.270   3
   1  -3   3 3677.10 421.205   3
   1  -3   3 3574.67 336.755   2
  -3   2   4-103.332 148.483   3
   1  -3   4 10.2516 152.045   3
   1  -3   4 45.2638 106.741   2
   2   1   4 244.921 141.427   4
   2   1   5 2550.09 343.119   4
   1  -3   5 3076.33 467.290   3
  -3   2   5 2531.41 410.823   3
   1  -3   6 491.255 268.928   3
  -3   2   6 339.217 219.747   3
  -3   2   7 837.634 301.253   3
   1  -3   7 1432.34 433.742   3
  -3   2   8 3117.56 563.266   3
   1  -3   8 1735.35 489.061   3
  -3   2   9-55.7013 265.683   3
   1  -3   9 626.391 455.826   3
  -3   2  10 434.768 312.540   3
   1  -3  10 814.164 428.770   3
   2  -4 -10 7977.83 941.618   2
  -4   2  -9 10055.2 1078.39   2
   2  -4  -9 10138.4 1034.24   2
   2  -4  -8 6306.51 772.519   2
  -4   2  -8 8377.78 926.538   2
   2  -4  -7 34917.4 1707.11   4
   2  -4  -7 33034.3 1621.17   2
  -4   2  -7 31800.3 1677.55   2
   2  -4  -6 29406.8 1464.61   4
   2  -4  -6 30637.8 1466.10   2
  -4   2  -6 29703.6 1520.33   2
   2  -4  -5 3964.08 514.946   4
  -4   2  -5 4227.10 552.861   2
   2  -4  -5 3973.05 390.842   3
   2  -4  -4 1496.54 228.974   3
  -4   2  -4 1511.49 309.303   2
   2  -4  -4 1244.69 292.706   4
  -4   2  -3 218384. 3152.04   2
   2   2  -3 219233. 2990.90   3
   2  -4  -3 215309. 3017.63   4
   2   2  -3 220591. 2819.57   1
   2   2  -2 365703. 3361.54   1
   2   2  -2 368870. 3490.55   3
   2  -4  -2 360600. 3519.18   4
   2   2  -1 38109.3 989.951   3
   2  -4  -1 38634.1 1053.39   4
   2  -4   0 26843.9 851.784   4
  -4   2   0 26974.4 509.001   4
  -4   2   1 93592.3 1309.50   4
   2   2   2 22952.3 716.780   4
  -4   2   2 21503.3 911.955   3
  -4   2   2 20573.0 746.345   4
  -4   2   3 98822.5 1829.07   4
   2   2   3 99072.0 1668.15   4
  -4   2   3 101311. 2129.77   3
   2  -4   3 98739.0 2174.67   3
   2  -4   4 5123.75 487.015   2
   2   2   4 5906.73 456.188   4
  -4   2   4 6243.14 599.605   3
   2  -4   4 5880.04 601.379   3
  -4   2   5 102939. 2586.22   3
   2  -4   5 103785. 2648.76   3
  -4   2   6 33345.2 1597.47   3
   2  -4   6 32182.0 1618.45   3
   2  -4   7 2309.87 532.224   3
  -4   2   7 2383.53 500.211   3
   2  -4   8 1185.97 357.922   3
  -4   2   8 325.758 232.826   3
   2  -4   9 18107.0 1446.42   3
  -4   2   9 18221.9 1400.54   3
  -4   2  10 7401.18 933.315   3
   3  -5 -10 314.920 300.282   2
   3  -5  -9 205.188 261.339   2
  -5   2  -9 384.473 319.873   2
   3  -5  -8 0.82722 211.928   2
  -5   2  -8-115.345 245.564   2
   3  -5  -7 1163.54 334.986   2
  -5   2  -7 191.337 279.875   2
   3  -5  -7 531.871 300.551   4
  -5   2  -6 463.570 260.090   2
   3  -5  -6 309.860 256.903   4
  -5   2  -5 4299.58 573.889   2
   3  -5  -5 3536.19 489.477   4
   3  -5  -4 54003.6 1768.93   4
  -5   2  -4 56049.8 1882.59   2
   2   3  -3 4528.80 455.595   3
  -5   2  -3 3991.62 470.074   2
   3  -5  -3 4344.37 467.451   4
   2   3  -2 24588.8 942.818   1
   3  -5  -2 23126.1 974.303   4
   2   3  -2 23781.9 934.037   3
   3  -5  -1 19177.1 821.152   4
  -5   2  -1 19901.2 543.274   1
   2   3  -1 20525.3 765.622   3
  -5   2   0 15653.8 409.696   4
   3  -5   0 15123.4 704.960   4
  -5   2   1 14334.2 536.535   4
  -5   2   2 4124.78 354.902   4
   2   3   2 3937.31 349.838   4
   3  -5   2 3537.26 283.215   1
   2   3   3-59.5937 97.6587   4
  -5   2   3 23.7420 142.508   3
  -5   2   3 215.030 127.450   4
   2   3   4 5395.85 463.246   4
  -5   2   4 5320.41 576.894   3
  -5   2   5 1745.62 384.564   3
  -5   2   6 2046.54 437.911   3
  -5   2   7 286.330 216.013   3
  -5   2   8 5032.31 760.944   3
  -5   2   9-246.805 262.245   3
  -5   2  10 230.760 303.295   3
  -4   1 -10-112.504 349.011   2
   3  -4 -10 508.639 329.235   2
   3  -4  -9 675.353 328.147   2
  -4   1  -9 862.012 454.390   2
  -4   1  -8 463.661 361.473   2
   3  -4  -8 1086.10 345.670   2
   3  -4  -7 1257.20 353.693   2
  -4   1  -7 1598.71 397.200   2
   3  -4  -6 3209.19 532.681   4
  -4   1  -6 2603.81 485.206   2
   3  -4  -5 8234.42 738.601   4
  -4   1  -5 8966.37 814.453   2
   3  -4  -5 8056.39 589.368   3
  -4   1  -4 5241.75 480.753   3
   3  -4  -4 5050.62 531.582   4
  -4   1  -4 5749.44 604.294   2
  -4   1  -3 23094.0 1070.32   2
   1   3  -3 22869.1 896.863   1
   1   3  -3 23346.4 994.706   3
   3  -4  -3 22980.5 1003.29   4
   1   3  -2 385.568 114.622   3
   1   3  -2 440.005 133.628   1
  -4   1  -2 557.013 166.764   2
   3  -4  -2 516.367 166.355   4
  -4   1  -1 1575.91 221.258   2
   3  -4  -1 1796.17 247.965   4
   1   3  -1 1994.95 228.275   3
   1   3   0 4486.13 264.833   3
  -4   1   0 4221.26 286.666   1
  -4   1   0 4350.18 201.943   4
   3  -4   0 4516.33 337.163   4
  -4   1   1 1112.37 157.133   4
   1   3   1 1112.37 174.609   4
  -4   1   2 6067.14 407.506   4
   1   3   2 6684.93 429.867   4
  -4   1   2 5282.29 472.577   3
   1   3   3 3633.98 349.718   4
  -4   1   3 4058.34 437.613   3
  -4   1   3 3782.06 372.960   4
   1   3   4 3788.03 389.612   4
  -4   1   4 3777.47 493.846   3
  -4   1   5 2315.22 432.420   3
  -4   1   6 2278.63 473.362   3
  -4   1   7 9406.06 949.136   3
  -4   1   8 577.035 335.432   3
  -4   1   9 954.701 384.915   3
  -4   1  10-129.282 307.585   3
   3  -3 -10 10677.0 990.120   2
  -3   0 -10 9904.56 1122.38   2
  -3   0  -9 5309.06 810.273   2
   3  -3  -9 3839.50 589.990   2
  -3   0  -8 61865.4 2481.74   2
   3  -3  -8 63055.8 2158.65   2
   3  -3  -7 3314.23 510.219   2
  -3   0  -7 3611.09 607.492   2
  -3   0  -6 42543.2 1819.22   2
   3  -3  -6 40968.8 1553.34   2
   3  -3  -5 18653.7 1065.87   4
  -3   0  -5 18064.4 1115.52   2
  -3   0  -4 219174. 2885.38   3
   3  -3  -4 225088. 2881.44   3
   3  -3  -4 223152. 3308.64   4
  -3   0  -4 227736. 3550.89   2
  -3   0  -3 7340.22 582.942   2
   3  -3  -3 7576.06 563.118   4
  -3   0  -3 7550.47 421.032   4
   0   3  -3 8015.69 568.908   3
   0   3  -3 8406.33 520.783   1
  -3   0  -2 179993. 2523.39   2
   3  -3  -2 186095. 2350.13   4
  -3   0  -2 183746. 1578.97   4
   0   3  -2 183163. 2393.61   3
   0   3  -2 185003. 2198.56   1
  -3   0  -1 9727.43 268.125   4
   0   3  -1 9359.41 452.970   3
  -3   0  -1 9566.00 490.541   2
   3  -3  -1 9602.60 464.915   4
   3  -3   0 361178. 2440.65   4
  -3   0   0 368910. 2306.78   2
   0   3   0 365341. 2092.06   3
  -3   0   0 362000. 2664.50   1
  -3   0   1 9844.33 534.683   3
   0   3   1 9034.76 470.841   4
   0   3   2 186961. 2234.07   4
  -3   0   2 183530. 2538.33   3
   3  -3   3 8258.04 567.735   2
  -3   0   3 7757.25 595.528   3
   0   3   3 7791.01 514.570   4
   0   3   3 7943.31 376.304   3
  -3   0   4 222660. 3512.14   3
   0   3   4 226964. 2497.35   3
   0   3   4 226256. 2948.92   4
  -3   0   5 17301.3 1089.46   3
   0   3   5 18889.1 852.118   3
   0   3   6 42252.9 1425.47   3
  -3   0   6 42272.8 1828.42   3
   0   3   7 3868.96 495.698   3
  -3   0   7 3185.68 558.285   3
   0   3   8 61089.2 2050.99   3
  -3   0   8 59095.2 2448.44   3
   0   3   9 4748.60 635.810   3
  -3   0   9 4354.02 710.008   3
  -3   0  10 10663.9 1196.96   3
  -2  -1 -10 718.434 405.546   2
   3  -2 -10 1040.74 349.443   2
  -2  -1  -9 292.095 267.552   2
   3  -2  -9-141.152 228.285   2
  -2  -1  -8 2081.20 507.790   2
   3  -2  -8 1975.24 408.544   2
  -2  -1  -7 1540.51 402.153   2
   3  -2  -7 1090.44 309.054   2
   3  -2  -6 550.023 198.016   2
  -2  -1  -6 192.770 240.942   2
   3  -2  -5 3199.53 384.294   2
  -2  -1  -5 2369.60 325.373   3
  -2  -1  -5 2414.75 351.464   4
  -2  -1  -5 3576.72 511.066   2
  -2  -1  -4 314.695 174.132   4
  -2  -1  -4 112.938 104.539   3
   3  -2  -4 354.446 152.655   3
  -2  -1  -4 170.169 153.687   2
  -1   3  -3 4006.83 424.298   3
  -2  -1  -3 3903.35 428.740   2
  -2  -1  -3 3711.17 312.545   3
   3  -2  -3 3819.21 379.865   3
  -2  -1  -3 4011.88 342.623   4
   3  -2  -3 3459.20 370.273   4
  -2  -1  -2 4030.88 287.357   4
   3  -2  -2 4584.57 360.293   4
  -1   3  -2 4923.61 391.911   3
  -2  -1  -2 4375.17 393.269   2
  -1   3  -2 4738.93 322.678   1
  -2  -1  -1 5413.65 368.230   2
   3  -2  -1 4958.33 304.119   4
  -2  -1  -1 5185.07 261.961   4
  -1   3  -1 5238.99 337.492   3
   3  -2   0 2374.18 154.530   4
  -1   3   0 2382.98 174.422   3
  -2  -1   1 2102.43 231.830   1
  -1   3   1 2012.03 219.447   4
  -2  -1   1 1727.67 216.999   3
  -2  -1   2 86846.2 1711.59   3
  -1   3   2 87462.4 1530.36   4
   3  -2   2 88091.0 1647.54   2
  -2  -1   2 85410.1 846.687   2
  -1   3   2 89275.2 1030.56   3
  -1   3   3 2097.30 216.995   3
  -2  -1   3 2168.46 329.118   3
  -1   3   3 1968.34 281.078   4
   3  -2   3 2304.80 308.453   2
  -2  -1   3 2208.51 186.859   2
  -1   3   4 9226.54 613.779   4
  -2  -1   4 9579.09 477.186   2
   3  -2   4 9826.74 673.356   2
  -1   3   4 8732.78 529.858   3
  -2  -1   4 9260.93 725.990   3
  -2  -1   5 2226.80 288.326   2
   3  -2   5 1591.47 253.379   4
  -2  -1   5 1973.58 398.993   3
  -1   3   5 2011.28 301.902   3
  -2  -1   6 97.3449 190.036   3
  -1   3   6 229.100 206.783   3
  -2  -1   7 180.575 214.093   3
  -1   3   7 280.897 213.359   3
  -1   3   8 363.586 257.968   3
  -2  -1   8 1.34346 233.548   3
  -1   3   9 364.792 290.247   3
  -2  -1   9 214.009 333.338   3
  -2  -1  10 276.791 348.769   3
  -1   3  10-138.527 308.802   3
  -1  -2 -10 965.573 393.844   2
   3  -1 -10 1204.06 346.388   2
  -1  -2  -9 482.541 285.240   2
   3  -1  -9-146.195 216.925   2
  -1  -2  -8 2437.93 517.830   2
   3  -1  -8 2416.10 406.072   2
  -1  -2  -7 975.014 341.660   2
   3  -1  -7 1432.57 300.897   2
  -1  -2  -6 259.863 187.614   4
   3  -1  -6 525.697 182.887   2
  -1  -2  -6 87.1411 200.600   2
  -1  -2  -5 2620.02 389.696   4
  -1  -2  -5 2646.02 319.804   3
  -1  -2  -5 2626.83 474.947   2
   3  -1  -5 2635.65 326.306   2
  -1  -2  -4 273.842 122.970   3
   3  -1  -4 51.0842 117.051   3
  -1  -2  -4 96.3103 136.654   2
  -1  -2  -4 308.817 153.722   4
   3  -1  -4 215.371 110.118   2
  -1  -2  -3 3590.43 276.417   3
  -2   3  -3 3816.05 397.506   3
   3  -1  -3 3713.19 375.027   3
   3  -1  -3 3772.65 273.120   2
  -1  -2  -3 3751.61 351.134   4
  -2   3  -2 4588.89 275.029   1
  -1  -2  -2 4444.93 240.637   3
  -1  -2  -2 4665.27 346.812   4
  -2   3  -2 4542.76 383.235   3
  -1  -2  -1 5312.78 320.257   4
  -1  -2   0 2219.47 173.623   3
  -2   3   0 2343.56 215.889   4
   3  -1   0 2293.16 186.198   2
   3  -1   0 2288.73 172.101   1
   3  -1   1 2082.88 236.661   2
  -1  -2   1 1830.89 217.727   1
  -1  -2   1 1831.65 219.634   3
  -2   3   1 1428.17 183.223   4
  -1  -2   2 89463.2 1713.52   3
  -2   3   2 89802.9 1553.05   4
   3  -1   2 87660.1 1638.72   2
  -2   3   2 89252.6 1321.54   3
   3  -1   2 89582.7 1014.06   4
  -1  -2   3 2181.56 222.045   2
  -1  -2   3 2035.56 306.490   3
   3  -1   3 2182.11 310.909   2
  -2   3   3 2444.54 306.188   4
  -2   3   3 2653.06 277.003   3
   3  -1   3 2257.06 221.533   4
  -2   3   4 8979.05 584.302   3
   3  -1   4 8782.40 502.778   4
  -1  -2   4 9089.61 514.894   2
  -1  -2   4 9125.15 702.700   3
  -1  -2   5 2005.95 284.347   2
  -2   3   5 2115.42 338.351   3
  -1  -2   5 2699.53 441.841   3
   3  -1   5 1961.05 276.258   4
  -2   3   6 130.449 218.716   3
  -1  -2   6 257.748 285.424   3
  -1  -2   6-156.264 140.769   2
  -1  -2   7 539.258 316.173   3
  -2   3   7 298.845 236.256   3
  -2   3   8 48.2092 230.348   3
  -1  -2   8-38.3001 250.560   3
  -1  -2   9-357.801 364.434   3
  -2   3   9 215.642 225.129   3
  -1  -2  10-219.354 319.967   3
  -2   3  10 299.237 254.140   3
   0  -3 -10 8931.95 1030.71   2
   0  -3  -9 5613.19 798.566   2
   3   0  -9 5288.57 607.085   2
   3   0  -8 62693.6 1871.52   2
   0  -3  -8 59450.4 2382.92   2
   3   0  -7 3823.44 445.234   2
   0  -3  -7 3410.17 539.965   4
   0  -3  -7 3049.02 568.587   2
   0  -3  -6 38282.4 1743.13   2
   3   0  -6 41949.9 1282.69   2
   0  -3  -6 42267.3 1661.59   4
   0  -3  -6 41101.0 1284.69   3
   3   0  -5 18960.8 769.053   2
   0  -3  -5 17595.3 991.455   4
   0  -3  -5 18940.2 1108.43   2
   0  -3  -5 18420.7 794.652   3
   3   0  -4 224214. 2176.74   2
   0  -3  -4 222196. 2403.30   3
   0  -3  -4 221988. 3159.20   4
   3   0  -3 7941.55 566.035   3
   0  -3  -3 6922.51 529.341   4
   0  -3  -3 7737.47 363.674   3
   3   0  -3 7524.70 306.265   2
  -3   3  -3 7202.45 547.760   3
   3   0  -2 182115. 2454.72   3
   0  -3  -2 180922. 2290.49   4
   0  -3  -1 9662.65 493.226   4
   3   0  -1 9627.85 461.612   1
   0  -3   0 359675. 2129.23   3
  -3   3   0 363581. 2469.95   4
   3   0   0 368696. 2355.58   2
   0  -3   1 9312.56 478.648   1
  -3   3   1 9369.56 446.720   4
   3   0   1 10047.9 494.442   2
   0  -3   1 9525.01 477.925   3
   0  -3   2 180781. 2487.80   3
  -3   3   2 177646. 2225.75   3
   3   0   2 182636. 1527.56   4
   3   0   2 185537. 2459.19   2
   0  -3   2 182100. 2291.72   1
  -3   3   2 183148. 2245.89   4
   0  -3   3 7896.73 611.569   3
   3   0   3 7003.99 542.889   2
  -3   3   3 8130.29 536.698   3
  -3   3   3 8274.34 545.873   4
   3   0   3 7431.76 401.096   4
  -3   3   4 217943. 3093.29   3
   0  -3   4 220846. 2749.22   2
   0  -3   4 217163. 3486.73   3
   3   0   4 222573. 2517.38   4
   3   0   5 18087.6 815.795   4
  -3   3   5 18431.5 998.936   3
   0  -3   5 17323.6 1093.36   3
   0  -3   5 17412.2 843.749   2
  -3   3   6 40518.7 1586.76   3
   0  -3   6 42108.3 1834.89   3
   0  -3   7 2828.52 540.597   3
  -3   3   7 3218.10 507.183   3
  -3   3   8 61199.1 2274.12   3
   0  -3   8 60976.5 2514.74   3
   0  -3   9 4852.33 777.995   3
  -3   3   9 5650.00 730.444   3
   0  -3  10 10654.8 1196.38   3
  -3   3  10 11421.0 1102.89   3
   1  -4 -10 1294.34 485.087   2
   1  -4  -9 996.944 401.616   2
   1  -4  -8 362.996 262.118   2
   1  -4  -7 1420.85 392.205   4
   1  -4  -7 801.386 305.117   2
   1  -4  -6 1892.08 417.995   2
   1  -4  -6 3244.63 513.296   4
   1  -4  -6 2952.58 351.953   3
   1  -4  -5 8412.93 724.179   4
   1  -4  -5 8753.74 523.843   3
   1  -4  -4 5192.13 357.576   3
   1  -4  -4 4639.36 511.198   4
   1  -4  -3 23729.1 1001.81   4
   3   1  -3 23656.1 1005.00   3
   1  -4  -3 23266.9 599.380   3
   3   1  -3 24486.3 953.922   1
   1  -4  -2 571.217 167.964   4
   3   1  -2 600.545 159.395   1
   3   1  -2 358.286 144.052   3
   1  -4  -1 1544.34 241.530   4
   3   1  -1 1702.17 212.722   1
  -4   3   0 4511.97 263.631   4
   1  -4   0 4237.79 359.942   4
  -4   3   1 903.574 145.133   4
   1  -4   1 972.837 180.430   3
   1  -4   2 6234.76 437.890   1
  -4   3   2 6364.88 429.384   4
   1  -4   2 5524.15 464.535   3
   3   1   2 5907.13 323.612   4
  -4   3   3 3839.40 410.239   3
   3   1   3 3306.09 292.509   4
  -4   3   3 4556.31 410.552   4
   1  -4   3 3438.01 414.967   3
   1  -4   4 3603.07 390.562   2
   1  -4   4 4445.50 522.745   3
   3   1   4 4378.87 371.798   4
  -4   3   4 3856.78 468.405   3
  -4   3   5 2484.46 406.462   3
   3   1   5 2785.75 347.618   4
   1  -4   5 2843.26 488.245   3
   1  -4   6 2561.80 509.928   3
  -4   3   6 1989.31 409.252   3
  -4   3   7 10724.5 948.114   3
   1  -4   7 10356.8 999.980   3
   1  -4   8 174.423 347.272   3
  -4   3   8 536.588 257.605   3
   1  -4   9 1374.86 486.299   3
  -4   3   9 1432.70 486.793   3
   1  -4  10 1822.12 571.496   3
  -4   3  10 879.166 427.410   3
   2  -5 -10 313.225 340.632   2
   2  -5  -9-1008.42 391.466   2
   2  -5  -8 69.7049 220.354   2
   2  -5  -8-12.8925 239.098   4
   2  -5  -7 1345.64 353.519   4
   2  -5  -7 1055.65 363.154   2
   2  -5  -6 131.742 203.530   4
   2  -5  -6 130.925 157.557   3
   2  -5  -5 3999.69 363.016   3
   2  -5  -5 3800.98 519.447   4
   2  -5  -4 57680.4 1795.64   4
   3   2  -3 4020.19 432.165   3
   2  -5  -3 4512.86 472.622   4
   2  -5  -2 23171.1 982.052   4
   3   2  -2 23553.1 919.097   1
   3   2  -2 24098.6 965.332   3
   2  -5  -1 19035.0 821.937   4
   2  -5   0 15326.1 738.093   4
  -5   3   0 14347.6 458.149   4
  -5   3   1 14049.1 547.486   4
   3   2   2 3526.06 302.542   4
   2  -5   2 3643.64 335.368   1
  -5   3   2 2983.96 306.584   4
   2  -5   3-141.297 174.797   3
  -5   3   3 39.0827 139.934   4
  -5   3   3-150.133 131.204   3
   3   2   3 197.477 115.940   4
   3   2   4 5528.85 439.504   4
   2  -5   4 6370.04 646.022   3
  -5   3   4 4836.34 546.031   3
  -5   3   5 2778.00 458.108   3
   2  -5   5 2176.59 427.705   3
  -5   3   6 2470.56 480.225   3
   2  -5   6 2081.47 459.412   3
   2  -5   7-324.418 289.002   3
  -5   3   7 474.886 286.805   3
   2  -5   8 4760.39 768.090   3
  -5   3   8 4552.40 703.859   3
  -5   3   9 1000.22 434.942   3
   2  -5   9-11.5410 321.961   3
  -5   3  10 439.708 390.057   3
   3  -6 -10 6053.50 851.347   2
   3  -6  -9 901.339 400.409   2
   3  -6  -8 20968.4 1501.56   2
   3  -6  -8 22594.6 1520.69   4
   3  -6  -7 1196.81 400.156   4
   3  -6  -6 56422.2 2114.54   4
   3  -6  -5 70.0628 174.856   4
   3  -6  -4 351694. 4637.96   4
   3  -6  -3 22613.3 1112.31   4
   3  -6  -2 5086.39 497.449   4
   3   3  -2 4940.09 450.632   3
   3  -6  -1 25529.6 1032.57   4
   3  -6   0 189018. 2803.16   4
  -6   3   0 193054. 1633.80   4
  -6   3   1 9388.27 457.760   4
   3  -6   2 58341.3 1301.73   1
   3   3   2 59366.2 1342.85   4
  -6   3   2 57302.9 1318.81   4
  -6   3   3 3196.70 362.082   4
   3   3   3 2215.87 278.834   4
  -6   3   3 2050.84 363.980   3
   3   3   4 154183. 2326.23   4
  -6   3   4 145298. 3107.50   3
  -6   3   5 22616.9 1308.46   3
  -6   3   6 3601.11 567.715   3
  -6   3   7 547.377 322.163   3
  -6   3   8 59784.2 2541.63   3
  -6   3   9-627.271 432.708   3
  -6   3  10 18922.4 1532.08   3
   4  -7  -9-108.692 315.389   2
   4  -7  -9-298.092 276.462   4
   4  -7  -8 477.193 324.376   4
   4  -7  -7-163.668 289.947   4
   4  -7  -6 8335.71 879.815   4
   4  -7  -5 226.103 255.486   4
   4  -7  -4 9878.04 827.277   4
   4  -7  -3 5093.63 566.353   4
   4  -7  -2 19370.9 1019.13   4
   3   4  -2 19478.4 909.443   3
  -7   3  -1 1113.99 155.831   1
   4  -7  -1 1135.31 264.859   4
   4  -7   0 116.261 148.037   4
  -7   3   0 1.62294 47.4306   4
   4  -7   1-96.1033 145.273   4
  -7   3   1-6.79041 104.945   4
   4  -7   2 2535.37 294.014   1
  -7   3   2 1869.54 247.930   4
  -7   3   3 542.967 290.477   3
   3   4   3 235.334 106.540   4
  -7   3   4 311.273 211.646   3
  -7   3   5 167.049 275.189   3
  -7   3   6 10441.4 1015.29   3
  -7   3   7 577.594 344.592   3
  -7   3   8 178.187 319.124   3
  -7   3   9 499.066 379.694   3
   4  -6 -10 1317.41 456.684   2
  -6   2  -9 588.063 374.865   2
   4  -6  -9 1136.52 421.589   2
  -6   2  -8 83.9261 310.367   2
   4  -6  -8 60.3909 265.974   4
   4  -6  -8-15.0258 234.991   2
   4  -6  -7-143.833 270.329   4
  -6   2  -7 117.129 217.506   2
   4  -6  -6 92.6115 222.373   4
  -6   2  -6 498.811 299.706   2
  -6   2  -5 545.021 282.146   2
   4  -6  -5 495.909 286.450   4
  -6   2  -4 462.915 261.064   2
   4  -6  -4 158.696 204.144   4
  -6   2  -3 4001.37 512.317   2
   4  -6  -3 3909.41 483.114   4
   2   4  -2 33725.2 1134.61   3
   4  -6  -2 30538.3 1175.43   4
   2   4  -1 2431.97 279.007   3
   4  -6  -1 2875.74 358.793   4
  -6   2  -1 2688.09 243.201   1
   4  -6   0 8257.18 565.479   4
  -6   2   0 8740.91 328.386   4
  -6   2   1 997.898 165.251   4
   4  -6   1 826.150 228.342   4
  -6   2   2 32210.9 998.460   4
   4  -6   2 33178.0 845.396   1
   2   4   2 33650.8 1092.36   4
  -6   2   3 171.908 176.771   3
  -6   2   3 83.8467 119.961   4
   2   4   3 16.3926 107.762   4
  -6   2   4 7788.71 748.393   3
  -6   2   5 9815.68 896.440   3
  -6   2   6 5001.33 725.189   3
  -6   2   7 1020.78 367.385   3
  -6   2   8 121.960 303.696   3
  -6   2   9 393.020 355.751   3
  -6   2  10 44.6385 307.496   3
   4  -5 -10 7901.50 887.314   2
  -5   1 -10 8488.80 1079.29   2
   4  -5  -9 14441.9 1164.48   2
  -5   1  -9 17580.6 1448.61   2
  -5   1  -8 5951.94 843.638   2
   4  -5  -8 5963.96 726.381   2
   4  -5  -7 20628.1 1388.28   4
  -5   1  -7 19386.9 1378.80   2
   4  -5  -7 16853.7 1200.54   2
  -5   1  -6 28252.9 1566.23   2
   4  -5  -6 31042.5 1575.58   4
  -5   1  -5 70584.9 2297.04   2
   4  -5  -5 73432.5 2218.19   4
  -5   1  -4 6186.80 653.997   2
   4  -5  -4 6156.01 639.194   4
  -5   1  -3 1531.00 325.226   2
   1   4  -3 1336.44 275.248   3
   4  -5  -3 1584.97 301.307   4
  -5   1  -2 74275.1 1791.06   2
   1   4  -2 81179.9 1725.23   3
   4  -5  -2 74671.7 1734.61   4
  -5   1  -1 157055. 2269.45   2
   4  -5  -1 156689. 2304.98   4
   1   4  -1 160417. 2080.52   3
   4  -5   0 5951.27 422.238   4
  -5   1   0 5974.81 392.269   1
   1   4   0 5916.26 331.066   3
   4  -5   1 127994. 1953.71   4
   1   4   2 86082.5 1725.83   4
  -5   1   2 84586.4 1582.21   4
  -5   1   2 84225.8 2012.63   3
  -5   1   3 125756. 2659.48   3
  -5   1   3 133191. 2221.18   4
   1   4   3 138371. 2237.08   4
  -5   1   4 2201.65 410.392   3
  -5   1   5 16317.6 1127.94   3
  -5   1   6 55818.7 2194.63   3
  -5   1   7 61887.4 2457.71   3
  -5   1   8 9641.55 1032.61   3
  -5   1   9 5050.13 817.072   3
  -5   1  10 3259.07 675.563   3
  -4   0 -10 322.377 327.475   2
   4  -4 -10 411.466 330.403   2
  -4   0  -9-251.066 297.772   2
   4  -4  -9 22.0078 229.047   2
   4  -4  -8-88.5121 208.007   2
  -4   0  -8 250.637 253.629   2
   4  -4  -7 715.086 297.711   2
  -4   0  -7 342.099 323.891   2
  -4   0  -6 7740.32 843.517   2
   4  -4  -6 6834.42 742.215   4
   4  -4  -5 43.4706 156.153   4
  -4   0  -5-125.230 198.564   2
  -4   0  -4 1340.45 253.072   3
   4  -4  -4 2164.29 368.828   4
  -4   0  -4 1753.06 368.820   2
  -4   0  -3 5345.19 345.121   4
   0   4  -3 5444.64 497.665   3
   0   4  -3 4821.39 424.783   1
   4  -4  -3 5253.38 495.920   4
  -4   0  -3 5672.01 554.141   2
   0   4  -2 16198.0 755.905   3
  -4   0  -2 16153.8 808.462   2
  -4   0  -2 16034.7 450.681   4
   4  -4  -2 15406.2 740.855   4
  -4   0  -1 30.6769 75.8094   2
   4  -4  -1 125.220 107.656   4
   0   4  -1 137.136 104.177   3
  -4   0  -1 75.3391 53.7217   4
  -4   0   0 11230.7 546.043   1
   0   4   0 11877.6 423.538   3
  -4   0   0 11725.7 477.995   2
   4  -4   0 11318.2 508.933   4
  -4   0   1 95.1176 79.7303   1
   0   4   1 25.2089 82.2506   4
   4  -4   1 43.2771 63.7504   4
   0   4   2 15695.2 723.810   4
  -4   0   2 15070.8 810.767   3
   4  -4   3 4342.32 455.234   2
  -4   0   3 4910.55 518.369   3
   0   4   3 5647.93 465.696   4
   0   4   4 1783.84 213.380   3
  -4   0   4 1979.22 370.970   3
  -4   0   5-65.4024 163.695   3
   0   4   5 50.7800 113.464   3
  -4   0   6 7218.38 821.005   3
   0   4   6 7744.66 576.914   3
  -4   0   7 577.899 321.795   3
   0   4   7 342.919 231.410   3
  -4   0   8 375.860 289.210   3
  -4   0   9 365.707 313.329   3
  -4   0  10 540.632 435.010   3
  -3  -1 -10 206.066 342.578   2
   4  -3 -10 409.915 297.696   2
  -3  -1  -9 1030.78 415.844   2
   4  -3  -9 1567.42 390.243   2
   4  -3  -8 1057.18 302.153   2
  -3  -1  -8 767.871 404.669   2
  -3  -1  -7 10719.9 1028.38   2
   4  -3  -7 9241.71 758.526   2
   4  -3  -6 2090.39 350.024   2
  -3  -1  -6 2024.34 430.494   2
  -3  -1  -5 2665.67 359.592   3
  -3  -1  -5 3364.38 406.029   4
  -3  -1  -5 2444.50 437.025   2
  -1   4  -4 4001.38 385.923   1
  -3  -1  -4 4064.31 389.645   4
   4  -3  -4 3932.59 476.963   4
  -3  -1  -4 3259.82 347.868   3
  -3  -1  -4 3442.65 494.966   2
   4  -3  -3 3832.85 416.445   4
  -1   4  -3 3643.71 398.817   3
  -3  -1  -3 4058.48 486.387   2
  -1   4  -3 3343.24 329.625   1
  -3  -1  -3 3262.42 298.477   4
  -3  -1  -2 6153.53 339.744   4
  -1   4  -2 6252.15 463.206   3
  -1   4  -2 6071.18 397.562   1
   4  -3  -2 5420.39 420.585   4
  -3  -1  -2 5419.91 460.651   2
  -3  -1  -1 1026.46 187.432   2
  -1   4  -1 1002.95 175.730   3
   4  -3  -1 1074.57 167.228   4
  -3  -1  -1 1017.66 138.783   4
   4  -3   0 3971.57 249.749   4
  -3  -1   0 4172.07 290.062   2
  -1   4   0 4679.02 268.035   3
  -3  -1   1 1837.28 260.865   3
   4  -3   1 1457.24 148.358   4
  -1   4   1 2360.24 266.478   4
  -3  -1   1 2174.46 268.633   1
   4  -3   2 372.599 118.985   2
  -3  -1   2 309.296 149.298   3
  -1   4   2 379.408 68.2900   3
  -1   4   2 450.260 155.789   4
  -1   4   3 22695.8 609.894   3
  -3  -1   3 23109.0 1063.71   3
   4  -3   3 23440.9 999.751   2
  -3  -1   3 21840.8 479.632   2
  -1   4   3 23810.6 937.711   4
  -3  -1   4 6581.30 647.011   3
  -1   4   4 5576.21 397.826   3
  -3  -1   5 7200.17 745.874   3
  -1   4   5 7825.48 550.252   3
  -3  -1   6 2676.53 527.316   3
  -1   4   6 2698.44 370.167   3
  -3  -1   7 2020.54 490.120   3
  -1   4   7 1866.14 364.731   3
  -3  -1   8 118.445 269.553   3
  -1   4   8 1125.74 313.995   3
  -1   4   9 1098.24 379.992   3
  -3  -1   9 785.268 452.477   3
  -1   4  10 615.638 335.759   3
  -3  -1  10 240.255 357.739   3
  -2  -2 -10 6662.18 937.867   2
   4  -2  -9 17342.6 1088.26   2
  -2  -2  -9 16882.5 1390.25   2
   4  -2  -8 400.172 228.240   2
  -2  -2  -8 656.931 387.918   2
  -2  -2  -7 1941.51 490.597   2
   4  -2  -7 1952.13 368.925   2
  -2  -2  -6 33787.9 1659.50   2
  -2  -2  -6 33976.4 1433.92   4
   4  -2  -6 33620.5 1256.68   2
  -2  -2  -5 102737. 2252.58   4
  -2  -2  -5 102149. 1929.69   3
  -2  -2  -5 101815. 2653.56   2
   4  -2  -5 99541.9 1936.67   2
  -2  -2  -4 5697.62 419.516   3
  -2  -2  -4 6381.49 630.591   2
  -2  -2  -4 5969.78 497.938   4
  -2   4  -3 100313. 2055.72   3
  -2   4  -3 100845. 1587.19   1
  -2  -2  -3 100460. 2207.49   2
  -2  -2  -3 99482.9 1474.66   3
  -2  -2  -3 97660.7 1740.77   4
   4  -2  -2 21305.4 784.411   4
  -2   4  -2 22151.2 671.091   1
  -2  -2  -2 21882.0 727.814   4
  -2   4  -2 21524.4 859.356   3
   4  -2  -1 92210.3 1350.22   4
  -2  -2  -1 95073.8 1430.80   4
  -2   4  -1 91662.1 1530.83   3
  -2  -2   0 28042.3 732.325   3
   4  -2   0 27531.8 581.010   1
   4  -2   0 26653.6 515.745   4
   4  -2   1 38668.8 1013.84   2
  -2   4   1 40048.3 1045.81   4
  -2  -2   1 38402.1 1029.48   3
  -2  -2   1 38834.6 1091.47   1
  -2  -2   2 368812. 3709.15   3
  -2   4   2 372582. 2489.70   3
  -2   4   2 371878. 3383.42   4
   4  -2   2 367494. 3600.62   2
  -2  -2   3 220130. 3275.28   3
  -2  -2   3 219890. 1925.34   2
  -2   4   3 218247. 2828.19   4
   4  -2   3 219152. 3030.43   2
   4  -2   3 219133. 2013.85   4
  -2   4   3 216298. 2223.94   3
  -2  -2   4 1152.22 309.509   3
   4  -2   4 952.991 179.233   4
  -2   4   4 1283.80 219.541   3
  -2  -2   4 926.448 163.646   2
  -2  -2   5 3988.47 355.954   2
   4  -2   5 4117.69 378.542   4
  -2   4   5 4696.97 452.549   3
  -2  -2   5 4995.58 629.893   3
  -2   4   6 27620.4 1187.38   3
  -2  -2   6 28820.8 1560.93   3
  -2  -2   6 28492.5 1015.03   2
  -2  -2   7 32820.8 1761.03   3
  -2   4   7 34779.2 1459.62   3
  -2  -2   8 8763.60 996.751   3
  -2   4   8 6084.72 676.604   3
  -2  -2   9 8591.17 1035.45   3
  -2   4   9 9834.77 912.148   3
  -2  -2  10 8145.09 1061.59   3
  -2   4  10 6833.97 796.109   3
  -1  -3 -10 201.675 358.034   2
  -1  -3  -9 790.835 390.753   2
   4  -1  -9 1708.44 367.906   2
   4  -1  -8 652.809 221.975   2
  -1  -3  -8 1346.88 431.783   2
   4  -1  -7 10215.6 697.646   2
  -1  -3  -7 8489.76 909.715   2
  -1  -3  -7 10809.6 923.006   4
  -1  -3  -6 2136.64 409.269   4
  -1  -3  -6 2276.40 306.560   3
   4  -1  -6 1943.70 294.034   2
  -1  -3  -6 2164.26 458.980   2
   4  -1  -5 3254.92 326.354   2
  -1  -3  -5 2920.82 325.783   3
  -1  -3  -5 2583.55 445.152   2
  -1  -3  -5 2209.86 371.773   4
   4  -1  -4 4257.08 308.293   2
  -1  -3  -4 3535.39 429.654   4
  -1  -3  -4 3439.58 299.392   3
  -1  -3  -3 3585.27 241.833   3
  -3   4  -3 3950.40 288.388   1
  -1  -3  -3 3621.52 372.267   4
  -3   4  -3 3438.84 390.127   3
   4  -1  -3 3760.11 232.549   2
  -3   4  -2 5909.19 298.147   1
  -1  -3  -2 6350.54 441.283   4
  -3   4  -2 5950.77 465.895   3
  -1  -3  -2 5968.88 230.719   3
   4  -1  -1 973.579 111.866   2
   4  -1  -1 779.531 147.491   1
  -1  -3  -1 958.964 176.061   4
  -1  -3  -1 875.290 91.1152   3
   4  -1   0 4364.80 293.514   2
  -3   4   0 4547.05 332.875   4
  -1  -3   0 4566.12 279.043   3
  -1  -3   1 1780.89 263.120   1
  -1  -3   1 1918.01 240.586   3
  -3   4   1 1594.34 214.484   4
   4  -1   1 1770.52 225.126   2
   4  -1   2 735.408 188.237   2
  -1  -3   2 627.972 185.235   3
   4  -1   2 439.044 70.1778   4
  -3   4   2 640.660 165.261   4
  -1  -3   2 462.803 183.499   1
  -3   4   3 22969.7 840.893   3
  -1  -3   3 24374.4 1086.96   3
   4  -1   3 23058.5 641.074   4
   4  -1   3 22997.8 1002.36   2
  -3   4   3 22094.0 935.838   4
  -1  -3   4 5668.49 419.135   2
  -1  -3   4 5220.28 563.222   3
   4  -1   4 4838.93 366.095   4
  -3   4   4 6306.24 508.910   3
  -3   4   5 8393.09 638.716   3
  -1  -3   5 7844.04 535.421   2
  -1  -3   5 8035.67 790.993   3
   4  -1   5 8457.94 530.002   4
  -1  -3   6 2566.22 354.432   2
  -1  -3   6 2471.36 477.511   3
  -3   4   6 2668.20 408.732   3
  -1  -3   7 1466.96 437.148   3
  -3   4   7 1294.79 344.461   3
  -1  -3   8 945.156 420.152   3
  -3   4   8 423.406 257.414   3
  -3   4   9 805.549 344.191   3
  -1  -3   9 752.368 352.703   3
  -1  -3  10 828.896 504.432   3
  -3   4  10 133.297 234.890   3
   0  -4 -10 801.407 411.452   2
   0  -4  -9-92.1332 287.621   2
   0  -4  -8 90.7760 258.962   2
   0  -4  -8 640.617 320.949   4
   0  -4  -7 324.435 286.686   2
   0  -4  -7 324.892 252.609   4
   4   0  -7 374.585 152.820   2
   0  -4  -6 7472.79 728.233   4
   0  -4  -6 7432.32 793.854   2
   4   0  -6 7260.75 488.865   2
   0  -4  -6 6036.71 473.341   3
   4   0  -5-39.7596 89.4727   2
   0  -4  -5 233.267 108.587   3
   0  -4  -5 216.361 198.638   4
   0  -4  -4 2053.11 214.217   3
   0  -4  -4 1924.59 332.149   4
   4   0  -3 5244.84 495.454   3
   0  -4  -3 5085.06 479.331   4
   0  -4  -3 4676.12 235.704   3
  -4   4  -3 5376.97 502.977   3
  -4   4  -2 14679.2 359.886   1
   0  -4  -2 15819.5 751.527   4
   4   0  -2 15398.2 702.570   1
   4   0  -1 59.8931 71.1600   1
   0  -4  -1 151.709 131.303   4
   0  -4   0 11501.7 618.823   4
   4   0   0 11701.1 479.262   2
  -4   4   0 11557.3 505.329   4
   0  -4   0 11944.3 440.300   3
   0  -4   1-9.16553 87.2229   3
  -4   4   1 66.4642 80.6228   4
   4   0   1 56.3857 98.0350   2
   4   0   2 15912.9 440.731   4
   0  -4   2 15944.0 770.260   1
   0  -4   2 16158.0 793.755   3
   4   0   2 16292.7 777.564   2
  -4   4   2 15595.9 708.263   4
   4   0   3 5427.71 326.660   4
   0  -4   3 4917.67 502.693   3
  -4   4   3 5334.48 464.248   4
  -4   4   3 5197.57 462.275   3
   4   0   3 5051.21 499.571   2
  -4   4   4 1505.69 295.267   3
   0  -4   4 1584.82 251.668   2
   0  -4   4 1659.50 358.100   3
   4   0   4 1903.19 242.501   4
   0  -4   5 260.531 144.858   2
   0  -4   5 61.7457 182.962   3
   4   0   5-56.6800 117.773   4
  -4   4   5-46.8176 174.419   3
  -4   4   6 6207.19 655.746   3
   0  -4   6 7517.66 826.522   3
   0  -4   7 166.799 232.323   3
  -4   4   7 490.542 219.520   3
  -4   4   8 200.063 223.012   3
   0  -4   8 741.731 381.968   3
  -4   4   9-543.896 384.190   3
   0  -4   9-37.0568 283.654   3
  -4   4  10 465.782 259.659   3
   0  -4  10 831.012 457.800   3
   1  -5 -10 9176.89 1060.52   2
   1  -5  -9 16325.8 1377.75   2
   1  -5  -8 4752.11 702.864   4
   1  -5  -8 6202.82 853.252   2
   1  -5  -7 17949.9 1314.66   2
   1  -5  -7 18271.7 1247.79   4
   1  -5  -6 28969.9 974.259   3
   1  -5  -6 28539.1 1456.76   4
   1  -5  -5 71476.5 1388.57   3
   1  -5  -5 76133.5 2182.67   4
   1  -5  -4 5883.05 613.972   4
   1  -5  -3 1045.11 253.167   4
   4   1  -2 76653.5 1689.41   1
   1  -5  -2 73471.4 1771.99   4
   1  -5  -1 162124. 2473.26   4
   1  -5   0 6291.24 495.586   4
  -5   4   0 6000.94 356.269   4
  -5   4   1 132380. 1805.19   4
   1  -5   1 133475. 1979.33   3
  -5   4   2 83533.1 1636.61   4
   1  -5   2 80066.5 1726.17   1
   4   1   2 82935.9 1236.80   4
   1  -5   2 84699.0 1880.71   3
  -5   4   3 131261. 2495.55   3
   4   1   3 133944. 1731.69   4
  -5   4   3 136981. 2280.74   4
   1  -5   3 130201. 2602.32   3
   4   1   4 2141.03 259.726   4
   1  -5   4 1585.45 360.914   3
  -5   4   4 1969.82 348.756   3
  -5   4   5 15683.0 1001.48   3
   4   1   5 17187.9 770.123   4
   1  -5   5 18242.3 1190.25   3
  -5   4   6 57675.1 2036.70   3
   1  -5   6 55171.8 2209.07   3
  -5   4   7 57310.7 2192.00   3
   1  -5   7 62651.5 2487.69   3
  -5   4   8 8560.03 921.766   3
   1  -5   8 10299.4 1078.51   3
  -5   4   9 6269.40 815.242   3
   1  -5   9 3929.79 736.175   3
   1  -5  10 4594.75 843.216   3
  -5   4  10 5101.84 802.374   3
   2  -6 -10 1552.57 510.253   2
   2  -6  -9 1072.13 414.355   2
   2  -6  -9 1112.07 436.927   4
   2  -6  -8-479.467 326.598   4
   2  -6  -8-24.3275 319.043   2
   2  -6  -7 205.194 261.254   4
   2  -6  -6 704.353 293.506   4
   2  -6  -5 251.489 215.136   4
   2  -6  -4 81.7150 152.423   4
   2  -6  -3 3727.70 475.484   4
   2  -6  -2 31251.0 1230.51   4
   2  -6  -1 2391.61 335.623   4
  -6   4   0 8337.71 399.153   4
   2  -6   0 8323.01 611.994   4
  -6   4   1 725.894 150.398   4
  -6   4   2 32231.0 1022.71   4
   2  -6   2 31144.0 1074.15   1
   2  -6   3 228.536 179.226   3
  -6   4   3 314.047 205.574   3
   4   2   3 212.294 117.514   4
  -6   4   4 8609.70 758.295   3
   4   2   4 9484.06 557.279   4
   2  -6   4 9526.71 804.563   3
  -6   4   5 9966.83 861.098   3
   2  -6   5 8622.61 837.192   3
   2  -6   6 4495.44 677.656   3
  -6   4   6 4643.21 652.647   3
   2  -6   7 949.025 385.404   3
  -6   4   7 1242.67 364.157   3
  -6   4   8 124.615 259.415   3
   2  -6   8-121.627 256.178   3
  -6   4   9 22.8251 251.035   3
   2  -6   9 450.734 397.859   3
  -6   4  10-160.223 270.962   3
   3  -7  -9 68.3558 282.124   4
   3  -7  -9-212.684 310.551   2
   3  -7  -8 23.7390 257.428   2
   3  -7  -8-475.948 356.846   4
   3  -7  -7 230.885 264.703   4
   3  -7  -6 9018.64 903.055   4
   3  -7  -5-91.7131 212.351   4
   3  -7  -4 8661.75 774.288   4
   3  -7  -3 5111.44 577.073   4
   3  -7  -2 22061.9 1088.21   4
  -7   4  -2 15641.3 330.845   1
   3  -7  -1 997.629 237.406   4
  -7   4   0 115.558 69.6667   4
   3  -7   0 183.152 168.948   4
  -7   4   1 171.594 97.2324   4
   3  -7   1 15.5667 123.763   4
   3  -7   2 2344.15 302.873   1
  -7   4   2 2544.45 294.077   4
  -7   4   3 364.980 204.843   3
   4   3   3 400.124 158.792   4
   4   3   4 317.694 159.540   4
  -7   4   4-60.6915 164.430   3
  -7   4   5 204.957 243.408   3
  -7   4   6 11407.2 1031.59   3
  -7   4   7 556.586 345.142   3
  -7   4   8-192.561 334.948   3
  -7   4   9 111.940 291.892   3
   4  -8  -9 19453.4 1511.82   2
   4  -8  -9 17875.6 1517.80   4
   4  -8  -8 2636.03 597.816   4
   4  -8  -7 3589.96 682.850   4
   4  -8  -6 78537.8 2660.73   4
   4  -8  -5 80243.5 2546.27   4
   4  -8  -4 978.125 325.643   4
   4  -8  -3 23992.4 1254.49   4
  -8   4  -2 39931.6 727.977   1
   4  -8  -2 42708.0 1588.62   4
   4  -8  -1 55431.2 1749.79   4
   4  -8   0 22365.3 1120.28   4
  -8   4   0 22877.2 613.924   4
   4  -8   1 62502.2 1887.40   4
  -8   4   1 62621.3 1255.27   4
  -8   4   2 29684.7 988.985   4
   4  -8   2 27323.5 1018.56   1
   4  -8   3 143805. 2404.92   1
  -8   4   3 143372. 3232.26   3
  -8   4   4 1865.92 428.967   3
  -8   4   5 29501.7 1625.55   3
  -8   4   6 25697.3 1575.69   3
  -8   4   7 22702.0 1584.46   3
  -8   4   8 2187.79 584.376   3
  -8   4   9 9552.23 1125.97   3
   5  -9  -9-257.107 394.387   4
   5  -9  -9 64.4874 274.756   2
   5  -9  -8 1419.32 511.825   4
   5  -9  -7 2393.05 604.221   4
   5  -9  -6 6962.87 863.338   4
   5  -9  -5 364.178 299.402   4
   5  -9  -4 3915.11 606.123   4
   5  -9  -3 9103.00 836.594   4
  -9   4  -3 9382.54 420.098   1
   5  -9  -2 102.650 174.516   4
  -9   4  -2 209.538 85.7143   1
   5  -9  -1 5565.29 609.284   4
  -9   4   0-144.866 93.5581   4
   5  -9   0 228.057 192.478   4
   5  -9   1 3318.14 473.692   4
  -9   4   1 3214.15 292.429   4
  -9   4   2 1893.24 263.425   4
   5  -9   2 1741.08 274.217   1
   5  -9   2 1936.65 408.926   4
  -9   4   3-296.828 288.980   3
   5  -9   3 393.274 168.940   1
  -9   4   4 1757.11 427.631   3
  -9   4   5 1771.96 470.613   3
  -9   4   6 625.760 362.931   3
  -9   4   7 304.442 300.883   3
  -9   4   8 227.891 403.930   3
  -9   4   9 1227.17 541.933   3
   5  -8  -9 1659.40 560.279   4
   5  -8  -9 2867.44 623.864   2
   5  -8  -8 883.635 378.790   4
   5  -8  -7 1738.04 487.267   4
   5  -8  -6 332.581 296.792   4
   5  -8  -5 11324.4 967.063   4
   5  -8  -4 7903.61 787.258   4
   5  -8  -3 2070.73 395.643   4
   5  -8  -2 2264.16 378.274   4
  -8   3  -2 1794.17 218.818   1
  -8   3  -1 1758.36 210.791   1
   5  -8  -1 1524.10 313.460   4
  -8   3   0 10608.0 387.261   4
   5  -8   0 11455.1 776.362   4
  -8   3   1 1445.36 196.647   4
   5  -8   1 1197.72 273.979   4
  -8   3   2 330.261 138.142   4
   5  -8   2 461.074 140.997   1
  -8   3   3 8335.64 809.198   3
  -8   3   4 2764.46 512.861   3
  -8   3   5 2173.78 476.170   3
  -8   3   6 4880.77 748.505   3
  -8   3   7-102.707 300.153   3
  -8   3   8 3320.94 682.638   3
  -8   3   9 578.011 366.033   3
  -7   2  -9 1975.72 517.449   2
   5  -7  -9 2909.30 622.219   2
   5  -7  -8 353.832 368.317   4
  -7   2  -8-124.908 365.245   2
  -7   2  -7 29086.8 1761.41   2
   5  -7  -7 27949.2 1682.70   4
   5  -7  -6 11420.1 1002.83   4
  -7   2  -6 11559.3 1057.96   2
  -7   2  -5 24237.0 1447.67   2
   5  -7  -5 23416.3 1337.92   4
   5  -7  -4 12056.7 917.972   4
  -7   2  -4 11919.7 946.767   2
  -7   2  -3 66903.9 2050.00   2
   5  -7  -3 69224.8 1994.12   4
   5  -7  -2 71886.1 1940.35   4
   2   5  -2 76964.4 1742.08   3
   2   5  -1 31800.3 1038.39   3
   5  -7  -1 30224.3 1192.63   4
  -7   2  -1 30696.5 914.113   1
   5  -7   0 242.368 168.769   4
  -7   2   0 97.7784 58.9071   4
   5  -7   1 151252. 2560.33   4
  -7   2   1 153087. 1878.10   4
   5  -7   2 44840.9 988.443   1
  -7   2   2 41920.8 1150.37   4
  -7   2   3 45166.5 1785.83   3
  -7   2   4 674.133 269.994   3
  -7   2   5 65600.4 2380.11   3
  -7   2   6 21757.8 1464.71   3
  -7   2   7 5667.42 821.727   3
  -7   2   8-344.206 381.844   3
  -7   2   9 19740.5 1605.91   3
  -6   1 -10 507.991 416.426   2
   5  -6 -10 109.907 243.391   2
  -6   1  -9 396.638 336.397   2
   5  -6  -9 477.138 306.114   2
  -6   1  -8 2078.82 570.396   2
   5  -6  -8 2976.67 537.622   2
   5  -6  -7 3890.90 647.055   4
  -6   1  -7 5337.28 778.671   2
  -6   1  -6 230.302 238.560   2
   5  -6  -6 185.541 277.006   4
   5  -6  -5 201.434 204.525   4
  -6   1  -5 170.264 193.453   2
  -6   1  -4 1086.59 341.573   2
   5  -6  -4 516.136 230.320   4
  -6   1  -3 9649.26 753.115   2
   5  -6  -3 11178.0 780.835   4
   1   5  -2 254.166 122.805   3
   5  -6  -2 23.2077 152.364   4
  -6   1  -2 139.389 168.006   2
  -6   1  -1 1929.64 244.313   1
   1   5  -1 2122.48 259.791   3
  -6   1  -1 2244.52 300.141   2
   5  -6  -1 1724.35 278.734   4
   1   5   0 5175.42 331.031   3
  -6   1   0 5646.71 430.535   1
   5  -6   0 5128.58 446.982   4
   5  -6   1 6828.91 498.848   4
  -6   1   2 688.447 251.608   3
   1   5   2 931.893 229.603   4
  -6   1   2 758.387 157.287   4
  -6   1   3 1253.93 245.478   4
  -6   1   3 1330.85 326.840   3
  -6   1   4 565.820 292.779   3
  -6   1   5 2544.27 532.245   3
  -6   1   6 555.612 331.168   3
  -6   1   7 604.768 353.677   3
  -6   1   8 650.860 422.053   3
  -6   1   9 4780.65 866.770   3
  -6   1  10 458.915 364.406   3
  -5   0 -10 818.633 409.683   2
   5  -5  -9-98.1701 242.379   2
  -5   0  -9 118.833 319.349   2
  -5   0  -8 389.835 343.727   2
   5  -5  -8 379.072 264.989   2
   5  -5  -7 601.537 272.582   2
  -5   0  -7 558.199 277.566   2
   5  -5  -6 542.425 265.867   4
  -5   0  -6 469.117 307.286   2
   5  -5  -5 2656.20 442.127   4
  -5   0  -5 2131.41 437.388   2
   5  -5  -4 26383.1 1244.34   4
  -5   0  -4 25684.6 1306.64   2
  -5   0  -3 7051.57 631.675   2
   5  -5  -3 7373.67 609.763   4
   0   5  -3 8370.71 583.670   1
  -5   0  -3 7830.11 392.987   4
   5  -5  -2 485.691 180.503   4
   0   5  -2 489.108 179.435   3
  -5   0  -2 346.047 81.1469   4
  -5   0  -2 406.437 201.391   2
   5  -5  -1 27.1858 102.823   4
  -5   0  -1 44.8745 99.2513   2
  -5   0  -1 63.9340 48.0749   4
   0   5  -1 21.4872 89.2652   3
   0   5   0 37938.4 825.715   3
  -5   0   0 38213.1 966.483   2
  -5   0   0 36723.3 1093.78   1
   5  -5   0 37498.1 1020.09   4
   5  -5   1-26.5547 90.0691   4
  -5   0   1 15.9383 88.1385   1
  -5   0   2 422.538 208.870   3
   0   5   2 102.744 134.949   4
  -5   0   3 7257.52 659.924   3
  -5   0   4 26846.3 1355.50   3
  -5   0   5 3322.94 559.343   3
  -5   0   6 548.726 305.958   3
  -5   0   7-11.2775 232.286   3
  -5   0   8 339.326 293.342   3
  -5   0   9-7.49872 334.409   3
  -5   0  10 1565.25 543.463   3
  -4  -1 -10 2797.93 675.492   2
  -4  -1  -9 6479.70 911.649   2
   5  -4  -9 5531.16 676.093   2
  -4  -1  -8 8911.81 997.402   2
   5  -4  -8 8567.98 780.305   2
  -4  -1  -7 56553.7 2347.12   2
   5  -4  -7 58548.1 1894.14   2
  -4  -1  -6 53834.7 2196.69   2
  -4  -1  -5 16296.2 1118.20   2
  -4  -1  -5 17433.8 856.806   4
   5  -4  -5 17174.6 1065.32   4
  -4  -1  -4 1995.12 269.499   4
  -4  -1  -4 1786.71 276.680   3
   5  -4  -4 1558.92 329.624   4
  -4  -1  -4 2125.06 408.210   2
  -4  -1  -3 131573. 2662.10   2
   5  -4  -3 135735. 2453.68   4
  -4  -1  -3 133477. 1819.88   4
  -1   5  -3 136505. 2480.16   3
  -1   5  -3 139665. 2198.30   1
  -1   5  -2 83531.0 1752.19   3
  -4  -1  -2 81525.2 1238.88   4
   5  -4  -2 80547.6 1712.01   4
  -4  -1  -2 79342.9 1857.74   2
  -1   5  -1 134343. 1938.43   3
  -4  -1  -1 134998. 1565.72   4
  -4  -1  -1 131717. 2090.80   2
   5  -4  -1 133863. 1902.07   4
  -1   5   0 6657.55 354.608   3
  -4  -1   0 5956.68 453.574   1
   5  -4   0 6099.96 360.917   4
  -4  -1   0 5875.30 371.554   2
  -1   5   1 155984. 1182.70   3
  -4  -1   1 158596. 1428.93   2
  -4  -1   1 159951. 2472.63   3
  -1   5   1 159807. 2396.33   4
   5  -4   1 157506. 1702.31   4
  -4  -1   1 156251. 2405.08   1
  -1   5   2 80114.1 1720.70   4
  -4  -1   2 77145.6 1866.52   3
  -1   5   3 1163.47 121.118   3
  -4  -1   3 1191.35 281.606   3
  -4  -1   4 6702.32 697.474   3
  -1   5   4 6181.81 360.985   3
  -4  -1   5 75671.2 2444.63   3
  -1   5   5 75639.4 1509.31   3
  -4  -1   6 29788.0 1633.28   3
  -1   5   6 29785.6 1109.46   3
  -4  -1   7 19543.4 1411.42   3
  -1   5   7 20806.8 1028.30   3
  -1   5   8 6411.78 642.518   3
  -4  -1   8 5280.67 820.935   3
  -4  -1   9 17279.1 1478.89   3
  -1   5   9 17166.2 1087.71   3
  -4  -1  10 9125.50 1167.17   3
  -3  -2 -10 722.136 422.662   2
   5  -3  -9-90.2053 211.464   2
  -3  -2  -9-202.856 269.713   2
  -3  -2  -8 5533.60 818.941   2
   5  -3  -8 4077.33 518.357   2
  -3  -2  -7 89.6608 235.609   2
   5  -3  -7 310.590 181.791   2
   5  -3  -6 2054.66 322.727   2
  -3  -2  -6 2355.62 503.212   2
  -3  -2  -6 2240.71 404.879   4
  -3  -2  -5 2415.10 313.215   3
  -3  -2  -5 2141.58 362.079   4
  -3  -2  -5 2028.80 428.234   2
  -2   5  -4 5095.98 435.051   1
  -3  -2  -4 4762.19 392.848   3
  -3  -2  -4 5494.68 612.712   2
  -3  -2  -4 5125.23 468.668   4
  -2   5  -3-97.9992 150.253   3
  -3  -2  -3 77.1327 145.123   2
   5  -3  -3 86.4758 133.970   4
  -2   5  -3-35.7822 100.335   1
  -3  -2  -3-60.4521 97.0083   4
  -3  -2  -2 3277.76 296.841   4
  -3  -2  -2 3735.45 424.968   2
   5  -3  -2 3743.42 360.299   4
  -2   5  -2 3904.16 402.489   3
  -3  -2  -1 14482.4 597.741   4
   5  -3  -1 14552.9 581.658   4
  -2   5  -1 14929.0 660.788   3
   5  -3   0 16172.3 461.127   1
   5  -3   0 15720.1 482.641   4
  -3  -2   0 15553.0 652.865   3
  -2   5   0 15693.3 568.433   3
  -3  -2   1 20932.0 844.729   3
  -2   5   1 18458.6 803.624   4
  -3  -2   1 19136.7 848.497   1
   5  -3   1 18722.9 426.254   4
   5  -3   2 22918.8 942.459   2
  -3  -2   2 22615.9 988.111   3
  -3  -2   2 22591.5 992.512   1
  -2   5   2 23400.2 588.832   3
  -2   5   2 24417.0 938.698   4
  -2   5   3 4691.21 306.417   3
  -3  -2   3 4027.27 483.731   3
  -3  -2   3 4003.47 229.597   2
  -2   5   4 55338.1 1234.82   3
  -3  -2   4 56904.9 1935.86   3
  -3  -2   4 55123.1 995.646   2
  -2   5   5 3594.87 375.189   3
   5  -3   5 3775.54 360.660   4
  -3  -2   5 3528.85 567.734   3
  -3  -2   5 3470.52 296.956   2
  -2   5   6 59.3283 155.615   3
  -3  -2   6 237.516 276.398   3
  -2   5   7 926.630 264.723   3
  -3  -2   7 1095.23 403.724   3
  -3  -2   8-188.784 327.704   3
  -2   5   8-80.9576 196.028   3
  -3  -2   9 388.370 444.190   3
  -2   5   9 496.611 304.693   3
  -3  -2  10 224.091 347.330   3
  -2  -3 -10 257.308 362.517   2
  -2  -3  -9 727.948 383.296   2
  -2  -3  -8 3880.20 658.869   2
   5  -2  -8 4777.10 532.124   2
  -2  -3  -7 91.8587 331.135   2
  -2  -3  -7 149.323 201.661   4
   5  -2  -7 121.160 151.632   2
  -2  -3  -6 2347.19 505.587   2
  -2  -3  -6 2261.07 303.857   3
   5  -2  -6 1712.71 286.525   2
  -2  -3  -6 1448.47 326.262   4
   5  -2  -5 2341.99 285.423   2
  -2  -3  -5 2705.68 396.415   4
  -2  -3  -5 2124.80 449.059   2
  -3   5  -5 2090.68 295.434   1
  -2  -3  -5 2645.27 311.899   3
  -2  -3  -4 4954.33 474.569   4
  -2  -3  -4 5809.05 389.700   3
  -2  -3  -4 5463.84 617.017   2
  -3   5  -4 5000.87 399.030   1
  -2  -3  -3 25.9920 60.3402   3
  -2  -3  -3 130.603 137.666   4
  -3   5  -3 282.730 194.130   3
  -3   5  -3 77.8607 78.8365   1
  -3   5  -2 3600.47 386.511   3
  -2  -3  -2 3542.72 344.160   4
   5  -2  -1 14970.5 589.863   1
  -2  -3  -1 13979.8 643.202   4
   5  -2   0 15706.0 613.985   2
  -2  -3   0 15469.6 589.446   3
   5  -2   0 15024.9 522.043   1
  -2  -3   1 19776.9 790.016   3
   5  -2   1 17945.6 743.785   2
  -2  -3   1 19016.1 851.436   1
  -3   5   1 18920.5 788.814   4
  -2  -3   2 23262.5 999.456   1
  -2  -3   2 23435.3 1002.12   3
   5  -2   2 23369.7 946.779   2
  -3   5   2 23770.6 934.948   4
  -3   5   3 4690.92 365.298   3
  -2  -3   3 3959.26 472.292   3
   5  -2   3 4628.45 263.763   4
  -3   5   4 57282.2 1400.87   3
  -2  -3   4 58403.7 1213.20   2
   5  -2   4 57564.0 1174.06   4
  -2  -3   4 60550.3 1957.85   3
  -2  -3   5 3570.05 338.799   2
   5  -2   5 3488.19 338.192   4
  -2  -3   5 4145.24 588.861   3
  -3   5   5 3824.91 420.051   3
  -2  -3   6 353.561 150.003   2
  -3   5   6 380.321 204.404   3
  -2  -3   6 60.4084 222.349   3
  -2  -3   7 617.408 292.442   3
  -3   5   7 1006.06 281.983   3
  -2  -3   8 14.4750 244.780   3
  -3   5   8 101.246 217.367   3
  -2  -3   9 241.156 305.831   3
  -3   5   9 189.105 250.977   3
  -2  -3  10 462.255 342.435   3
  -3   5  10-104.296 289.230   3
  -1  -4 -10 4312.12 777.378   2
  -1  -4  -9 7604.62 965.032   2
  -1  -4  -8 7783.23 939.265   2
   5  -1  -8 8423.14 633.999   2
  -1  -4  -8 9824.04 934.999   4
  -1  -4  -7 55827.8 2350.14   2
   5  -1  -7 58911.0 1487.54   2
  -1  -4  -7 59998.2 2189.18   4
   5  -1  -6 56535.5 1291.02   2
  -1  -4  -6 54193.3 1911.07   4
  -1  -4  -6 54445.2 1349.99   3
  -1  -4  -6 56906.1 2216.46   2
   5  -1  -5 17142.0 616.255   2
  -1  -4  -5 17152.3 1153.87   2
  -1  -4  -5 16242.1 993.391   4
  -1  -4  -5 16169.9 674.384   3
  -4   5  -4 1949.37 247.131   1
  -1  -4  -4 1857.01 198.998   3
   5  -1  -4 1963.60 176.145   2
  -1  -4  -4 1612.86 299.905   4
  -1  -4  -3 128798. 1228.81   3
  -1  -4  -3 128158. 2331.42   4
  -4   5  -3 131890. 1570.76   1
   5  -1  -2 86012.5 1681.13   1
  -1  -4  -2 82972.6 1737.81   4
  -1  -4  -1 128967. 1161.90   3
   5  -1  -1 135164. 1376.04   2
  -1  -4  -1 134461. 2162.83   4
   5  -1  -1 135539. 1916.59   1
  -1  -4   0 6557.71 364.997   3
   5  -1   0 6212.94 378.121   2
  -4   5   0 6517.39 440.263   4
  -1  -4   1 162518. 2220.98   3
   5  -1   1 164647. 2240.46   2
  -4   5   1 160999. 2204.40   4
  -1  -4   1 159229. 2497.68   1
  -4   5   2 78347.2 1649.19   4
  -1  -4   2 74304.5 1761.45   3
  -1  -4   2 75388.5 1794.35   1
   5  -1   2 77867.3 1748.19   2
   5  -1   3 1107.29 139.839   4
  -1  -4   3 1106.00 248.499   3
  -4   5   3 1573.51 240.302   3
  -1  -4   4 6167.33 648.281   3
  -1  -4   4 6291.40 452.586   2
  -4   5   4 5906.27 523.180   3
   5  -1   4 6084.11 381.556   4
  -1  -4   5 72395.4 2350.42   3
   5  -1   5 75334.3 1499.41   4
  -4   5   5 74734.1 1946.78   3
  -1  -4   5 71422.0 1605.55   2
  -1  -4   6 28610.0 1603.61   3
  -4   5   6 27032.4 1274.49   3
  -4   5   7 19371.5 1151.15   3
  -1  -4   7 19615.9 1412.41   3
  -4   5   8 4539.10 641.362   3
  -1  -4   8 6753.21 900.155   3
  -4   5   9 17441.3 1236.07   3
  -1  -4   9 17513.1 1517.81   3
  -1  -4  10 8259.97 1099.40   3
  -4   5  10 10387.6 1007.33   3
   0  -5 -10 528.457 407.819   2
   0  -5  -9-207.702 327.787   2
   0  -5  -8-194.483 300.148   2
   0  -5  -8-231.664 272.258   4
   0  -5  -7 182.490 224.354   4
   0  -5  -7 220.155 326.576   2
   0  -5  -6 423.334 252.370   4
   0  -5  -6 47.9138 115.979   3
   0  -5  -5 3433.23 508.300   4
   0  -5  -5 3668.10 304.042   3
   0  -5  -4 24081.1 596.037   3
   0  -5  -4 27024.5 1234.53   4
   0  -5  -3 8022.48 629.539   4
  -5   5  -3 6892.02 306.553   1
   5   0  -2 333.679 154.890   1
   0  -5  -2 635.005 211.182   4
   0  -5  -1 303.500 167.617   4
   5   0  -1 11.5023 79.3080   1
  -5   5   0 38952.1 1026.74   4
   5   0   0 39120.8 971.054   2
   0  -5   0 36741.9 1231.98   4
   0  -5   0 37358.8 857.382   3
   0  -5   1 150.473 114.268   3
   5   0   1 30.9229 83.4715   2
  -5   5   1 46.4204 88.0418   4
   0  -5   2 401.068 191.859   3
   0  -5   2 265.423 156.505   1
   5   0   2 382.005 160.033   2
  -5   5   2 230.949 125.208   4
   0  -5   3 7712.88 664.974   3
  -5   5   3 7757.56 599.656   3
   5   0   3 7547.90 363.121   4
   5   0   4 25978.5 795.384   4
  -5   5   4 27587.5 1180.06   3
   0  -5   4 27620.4 1348.73   3
   0  -5   5 3381.82 545.351   3
   5   0   5 3246.67 324.012   4
  -5   5   5 3313.67 477.745   3
   0  -5   6 799.738 354.698   3
  -5   5   6 387.442 236.264   3
   0  -5   7 411.141 267.447   3
  -5   5   7 327.076 226.345   3
   0  -5   8 365.013 352.528   3
  -5   5   8 78.2236 241.608   3
   0  -5   9 72.9105 299.532   3
  -5   5   9 496.900 311.966   3
  -5   5  10-312.364 323.736   3
   0  -5  10 875.965 465.527   3
   1  -6 -10 1238.37 509.225   2
   1  -6  -9 398.466 294.020   2
   1  -6  -9-280.722 364.751   4
   1  -6  -8 2267.82 572.144   4
   1  -6  -8 2225.64 575.053   2
   1  -6  -7 5527.77 743.239   4
   1  -6  -7 4987.88 758.916   2
   1  -6  -6 136.929 213.595   4
   1  -6  -6 391.667 145.367   3
   1  -6  -5 75.7899 168.592   4
   1  -6  -4 636.304 244.169   4
   1  -6  -3 10030.2 757.875   4
  -6   5  -3 7547.24 248.796   1
   1  -6  -2 200.933 161.992   4
   1  -6  -1 1941.85 324.707   4
   1  -6   0 4942.66 489.120   4
  -6   5   0 4706.15 348.852   4
  -6   5   1 7172.79 456.510   4
   1  -6   1 7769.33 519.673   3
  -6   5   2 534.159 158.711   4
   1  -6   2 485.961 204.044   1
   1  -6   2 983.069 262.158   3
   1  -6   3 1859.29 369.332   3
   1  -6   3 1348.04 276.480   1
   5   1   3 1334.32 184.702   4
   1  -6   4 412.216 235.165   3
   5   1   4 553.441 153.301   4
  -6   5   4 458.593 208.091   3
   1  -6   5 3271.82 579.841   3
   5   1   5 2529.21 303.525   4
  -6   5   5 3109.06 487.236   3
  -6   5   6 607.683 292.475   3
   1  -6   6 706.704 337.103   3
   1  -6   7 163.911 253.015   3
  -6   5   7 622.824 282.991   3
   1  -6   8 534.294 405.594   3
  -6   5   8 1061.94 392.304   3
  -6   5   9 6796.59 879.183   3
   1  -6   9 6730.75 942.597   3
   1  -6  10 649.802 423.401   3
  -6   5  10 477.463 310.675   3
   2  -7  -9 3116.49 684.907   2
   2  -7  -9 2233.66 538.827   4
   2  -7  -8 135.474 375.179   2
   2  -7  -8 717.970 347.534   4
   2  -7  -7 26500.7 1596.03   4
   2  -7  -6 10471.7 950.669   4
   2  -7  -5 24252.2 1366.09   4
   2  -7  -4 11952.3 909.259   4
   2  -7  -3 67913.1 2037.12   4
   2  -7  -2 73759.9 2035.72   4
   2  -7  -1 31488.9 1278.01   4
  -7   5   0 140.367 94.7470   4
   2  -7   0 81.6901 139.130   4
  -7   5   1 149305. 2079.74   4
  -7   5   2 43511.5 1231.91   4
   2  -7   2 42020.0 1383.80   1
   2  -7   3 46067.7 1502.83   1
   5   2   3 48282.6 1160.11   4
   2  -7   3 46168.2 1659.90   3
   2  -7   4 644.806 289.761   3
  -7   5   4 444.076 237.560   3
   5   2   4 620.627 159.323   4
  -7   5   5 65372.2 2269.87   3
   5   2   5 67579.9 1517.54   4
   2  -7   5 69966.6 2406.44   3
  -7   5   6 19671.3 1330.14   3
   2  -7   6 19214.1 1384.02   3
  -7   5   7 6545.37 820.198   3
   2  -7   7 5263.20 776.920   3
   2  -7   8 39.4631 277.030   3
  -7   5   8-9.71914 261.457   3
  -7   5   9 25022.5 1667.65   3
   3  -8  -9 2391.40 610.418   4
   3  -8  -9 3446.24 707.480   2
   3  -8  -8 1721.27 521.587   4
   3  -8  -7 1594.83 443.119   4
   3  -8  -6 323.814 230.243   4
   3  -8  -5 11427.8 975.151   4
   3  -8  -4 5890.56 714.107   4
   3  -8  -3 2542.21 443.711   4
   3  -8  -2 1893.33 383.369   4
   3  -8  -1 2275.54 387.941   4
   3  -8   0 10799.0 802.942   4
  -8   5   0 11020.6 494.610   4
  -8   5   1 1327.51 213.562   4
   3  -8   1 1586.07 325.101   4
  -8   5   2 477.745 171.383   4
   3  -8   2 507.735 192.763   1
   3  -8   3 9952.97 706.692   1
   5   3   4 2516.34 301.800   4
  -8   5   4 3045.96 543.986   3
  -8   5   5 1865.33 424.559   3
  -8   5   6 4369.84 684.282   3
  -8   5   7 221.756 276.313   3
  -8   5   8 3433.82 661.953   3
  -8   5   9 1519.67 521.362   3
   4  -9  -9-783.451 454.123   2
   4  -9  -9 443.050 320.465   4
   4  -9  -8 868.393 396.949   4
   4  -9  -7 2449.66 536.801   4
   4  -9  -6 8232.47 917.055   4
   4  -9  -5-34.6036 215.189   4
   4  -9  -4 2794.96 530.280   4
   4  -9  -3 9436.28 852.003   4
   4  -9  -2 326.116 244.614   4
   4  -9  -1 5336.76 594.068   4
  -9   5   0 27.8237 71.1325   4
   4  -9   0-90.2574 189.757   4
   4  -9   1 3486.58 493.950   4
  -9   5   1 3113.93 303.120   4
   4  -9   2 2235.44 330.271   1
  -9   5   2 1352.47 231.893   4
   4  -9   3 74.1622 140.427   1
  -9   5   4 2177.80 476.565   3
  -9   5   5 1608.69 443.709   3
  -9   5   6 1167.71 410.155   3
  -9   5   7 603.480 409.247   3
  -9   5   8 327.922 377.874   3
  -9   5   9 1333.14 409.408   3
   5 -10  -8 446.806 393.926   4
   5 -10  -7 26615.5 1723.55   4
   5 -10  -6 37007.8 1960.78   4
   5 -10  -5 3335.57 611.160   4
   5 -10  -4 651.238 322.499   4
   5 -10  -3 61244.2 2203.48   4
   5 -10  -2 1335.08 353.014   4
   5 -10  -1 28591.2 1428.14   4
   5 -10   0 4471.99 586.771   4
 -10   5   0 2980.11 241.958   4
   5 -10   1 72298.1 2265.26   4
 -10   5   1 69646.7 1358.19   4
   5 -10   2 43723.8 1768.51   4
 -10   5   2 38172.0 1132.70   4
   5 -10   2 40365.8 1379.85   1
   5 -10   3 13886.0 824.173   1
 -10   5   4 4265.38 688.218   3
 -10   5   5 31472.7 1801.51   3
 -10   5   6 11396.2 1168.61   3
 -10   5   7 14196.2 1287.55   3
 -10   5   8 2326.66 619.846   3
   6 -11  -8 2982.17 670.266   4
   6 -11  -7-69.6042 286.676   4
   6 -11  -6 1108.29 399.789   4
   6 -11  -5 8284.58 941.531   4
   6 -11  -4 4883.14 718.666   4
   6 -11  -3 3597.76 604.555   4
   6 -11  -2 1414.86 450.813   4
   6 -11  -1 1579.65 374.870   4
   6 -11   0 1471.36 387.024   4
 -11   5   0 991.486 136.727   4
 -11   5   1 80.6394 109.280   4
   6 -11   1 152.516 208.421   4
   6 -11   2 739.069 292.283   4
   6 -11   2 247.013 172.917   1
   6 -11   3 2346.72 351.001   1
   6 -11   3 2720.70 515.370   4
 -11   5   4 12231.1 1163.20   3
 -11   5   5 163.486 294.121   3
 -11   5   6 1602.52 520.631   3
 -11   5   7 246.823 366.802   3
 -11   5   8 2895.60 740.998   3
   6 -10  -8-3.97944 297.280   4
   6 -10  -7 1106.75 473.598   4
   6 -10  -6 1818.17 459.445   4
   6 -10  -5-61.2265 244.062   4
   6 -10  -4 2255.45 520.151   4
   6 -10  -3 2305.32 454.198   4
 -10   4  -3 2101.21 232.074   1
   6 -10  -2 141.046 174.126   4
   6 -10  -1 5758.76 649.486   4
 -10   4   0 78.8494 51.8478   4
   6 -10   0 161.174 178.170   4
 -10   4   1 1244.45 181.369   4
   6 -10   1 1381.79 330.704   4
   6 -10   2 11304.1 681.869   1
   6 -10   2 11899.6 912.688   4
 -10   4   2 10857.0 604.820   4
 -10   4   3 6738.44 799.076   3
 -10   4   4 1344.10 452.398   3
 -10   4   5 920.205 411.909   3
 -10   4   6 1600.95 458.166   3
 -10   4   7 1936.30 517.959   3
 -10   4   8 671.847 370.077   3
   6  -9  -9 550.740 295.893   4
   6  -9  -8 25204.6 1724.62   4
   6  -9  -7 7652.98 941.010   4
   6  -9  -6 20128.1 1406.64   4
   6  -9  -5 5368.41 725.027   4
   6  -9  -4 61853.6 2219.13   4
   6  -9  -3 9691.67 863.892   4
   6  -9  -2 32482.8 1455.54   4
  -9   3  -2 31092.5 935.509   1
  -9   3  -1 191.164 122.394   1
   6  -9  -1 280.047 187.934   4
   6  -9   0 111979. 2486.59   4
  -9   3   0 109359. 1247.07   4
  -9   3   1 7114.30 424.924   4
   6  -9   1 6618.03 623.062   4
   6  -9   2 16294.4 998.685   4
  -9   3   2 14997.2 705.389   4
   6  -9   2 15591.4 686.752   1
  -9   3   3 5855.96 750.016   3
  -9   3   4 57011.7 2274.76   3
  -9   3   5 7655.97 874.392   3
  -9   3   6 19620.6 1493.95   3
  -9   3   7 2378.12 620.893   3
  -9   3   8 15566.2 1447.39   3
  -9   3   9 398.248 390.688   3
  -8   2  -9 2140.16 576.350   2
   6  -8  -9 2255.44 660.179   4
   6  -8  -9 3003.55 608.654   2
  -8   2  -8 1091.54 481.082   2
   6  -8  -8 352.699 291.772   4
   6  -8  -7 3127.78 627.565   4
  -8   2  -7 2172.61 551.782   2
  -8   2  -6 1923.26 511.490   2
   6  -8  -6 1732.03 474.018   4
   6  -8  -5 3252.30 546.348   4
  -8   2  -5 3638.83 595.335   2
   6  -8  -4 35.6993 182.522   4
  -8   2  -4 310.360 257.649   2
  -8   2  -3 91.7805 211.977   2
   6  -8  -3-23.1853 199.114   4
   6  -8  -2 3522.42 467.972   4
   2   6  -1 11432.8 644.443   3
   6  -8  -1 10182.4 731.587   4
  -8   2  -1 10383.0 589.932   1
   6  -8   0 31207.4 1239.77   4
  -8   2   0 32652.8 691.749   4
  -8   2   1 227.342 106.925   4
   6  -8   1 16.6096 129.318   4
  -8   2   2 457.397 148.812   4
   6  -8   2 739.471 140.528   1
   6  -8   2 326.794 187.730   4
  -8   2   3 2811.26 496.959   3
  -8   2   4 12469.8 1044.88   3
  -8   2   5-138.394 317.094   3
  -8   2   6 608.952 382.739   3
  -8   2   7 7866.06 1002.27   3
  -8   2   8 2835.82 645.434   3
  -8   2   9-728.175 499.644   3
   6  -7  -9 2440.14 550.294   2
  -7   1  -9 1236.92 455.861   2
  -7   1  -8 198.437 304.096   2
   6  -7  -8 834.911 392.301   4
   6  -7  -7 32.2801 238.178   4
  -7   1  -7-2.41855 249.152   2
   6  -7  -6 4880.83 685.326   4
  -7   1  -6 4149.98 677.074   2
  -7   1  -5 226.188 263.559   2
   6  -7  -5 78.6622 215.619   4
  -7   1  -4 788.970 288.860   2
   6  -7  -4 465.306 244.260   4
   6  -7  -3 1708.72 369.945   4
  -7   1  -3 982.122 282.572   2
  -7   1  -2 12227.1 811.034   2
   1   6  -2 13175.0 736.054   3
   6  -7  -2 11070.0 775.368   4
  -7   1  -1 945.359 83.2996   4
  -7   1  -1 1149.52 255.137   2
   1   6  -1 1218.65 217.420   3
   6  -7  -1 1358.81 276.124   4
  -7   1  -1 1048.91 201.719   1
  -7   1  -1 782.637 82.5551   4
   1   6   0 1878.26 223.373   3
   6  -7   0 1715.87 306.917   4
  -7   1   0 1848.62 287.230   1
   6  -7   1 15029.6 774.242   4
  -7   1   2 10104.5 820.016   3
  -7   1   2 8628.77 533.964   4
   6  -7   2 9036.21 622.924   4
  -7   1   3 1706.04 383.923   3
  -7   1   4 1064.55 354.082   3
  -7   1   5 2228.95 499.038   3
  -7   1   6 3677.21 653.895   3
  -7   1   7 2136.74 578.953   3
  -7   1   8 363.590 396.921   3
  -7   1   9-89.2554 365.239   3
   6  -6  -9 3551.26 622.988   2
  -6   0  -9 3917.53 735.292   2
  -6   0  -8 44756.5 2294.80   2
   6  -6  -8 43623.7 1863.14   2
  -6   0  -7 3027.50 608.509   2
   6  -6  -7 3796.32 643.726   4
  -6   0  -6 22555.4 1476.87   2
   6  -6  -6 23059.5 1411.26   4
   6  -6  -5 1117.11 346.023   4
  -6   0  -5 742.225 329.135   2
  -6   0  -4 83289.1 2450.30   2
   6  -6  -4 81223.7 2252.09   4
  -6   0  -3 3605.68 477.993   2
   6  -6  -3 3339.21 457.177   4
  -6   0  -3 3357.49 240.263   4
  -6   0  -2 72380.1 1898.33   2
   0   6  -2 70317.2 1691.67   3
   6  -6  -2 71288.7 1801.72   4
  -6   0  -2 68618.4 918.815   4
   0   6  -1 28121.5 929.160   3
  -6   0  -1 29129.5 1069.27   2
   6  -6  -1 27510.4 1034.12   4
  -6   0  -1 26129.9 617.633   4
  -6   0   0 134232. 1971.69   2
   0   6   0 137239. 1689.16   3
   6  -6   0 134558. 2120.77   4
  -6   0   0 133395. 2299.24   1
  -6   0   1 28002.9 1106.36   1
   0   6   1 26367.1 511.113   3
   6  -6   1 28246.2 936.048   4
  -6   0   2 71544.8 2036.14   3
   6  -6   2 70300.7 1513.87   4
  -6   0   3 2957.89 491.508   3
  -6   0   4 84673.3 2514.48   3
  -6   0   5 1058.62 352.420   3
  -6   0   6 22744.0 1527.43   3
  -6   0   7 2416.76 561.429   3
  -6   0   8 43749.9 2291.42   3
  -6   0   9 3773.48 737.147   3
  -5  -1 -10 268.371 357.444   2
   6  -5  -9 4702.46 653.642   2
  -5  -1  -9 6168.16 910.182   2
   6  -5  -8 972.155 299.948   2
  -5  -1  -8 166.839 351.098   2
   6  -5  -7 368.315 198.388   2
  -5  -1  -7 446.052 289.779   2
   6  -5  -6 1009.48 375.850   4
  -5  -1  -6 619.112 341.606   2
   6  -5  -5 3124.63 512.032   4
  -5  -1  -5 2551.80 334.947   4
  -5  -1  -5 3185.51 556.229   2
   6  -5  -4 627.227 259.120   4
  -5  -1  -4 249.272 106.909   4
  -5  -1  -4 325.838 240.205   2
   6  -5  -3 1560.93 314.311   4
  -5  -1  -3 1379.06 195.237   4
  -5  -1  -3 1270.22 285.002   2
  -5  -1  -2 593.731 122.392   4
  -1   6  -2 552.182 159.527   3
   6  -5  -2 463.294 162.506   4
  -5  -1  -2 650.029 204.182   2
  -1   6  -1 7770.67 489.270   3
  -5  -1  -1 7037.72 519.346   2
   6  -5  -1 7181.07 491.701   4
  -5  -1  -1 7270.46 392.228   4
  -1   6   0 5844.60 353.678   3
  -5  -1   0 5977.40 418.330   2
   6  -5   0 5761.07 392.802   4
  -5  -1   0 4807.68 455.425   1
  -5  -1   1 1940.05 309.810   3
  -1   6   1 2089.38 154.247   3
  -5  -1   1 2122.03 191.219   2
  -5  -1   1 1906.21 299.027   1
   6  -5   1 1883.37 217.980   4
   6  -5   2 104.208 87.2690   4
  -5  -1   2 147.532 160.001   3
  -5  -1   3 10331.4 823.883   3
  -5  -1   4 872.492 266.692   3
  -1   6   5 237.678 117.186   3
  -5  -1   5 20.1648 242.831   3
  -5  -1   6 103.431 230.993   3
  -1   6   6 451.577 169.327   3
  -5  -1   7 6872.91 897.709   3
  -1   6   7 5638.54 499.082   3
  -5  -1   8 2791.81 641.031   3
  -5  -1   9 615.481 460.302   3
  -5  -1  10-155.375 405.145   3
  -4  -2 -10 994.184 484.755   2
  -4  -2  -9 760.170 407.366   2
   6  -4  -8 67.2425 186.591   2
  -4  -2  -8 589.625 359.147   2
   6  -4  -7 890.316 250.812   2
  -4  -2  -7 1281.74 422.140   2
  -4  -2  -6 4625.05 519.389   4
  -4  -2  -6 4744.12 679.711   2
  -4  -2  -5 11497.9 973.085   2
  -4  -2  -5 9738.07 682.234   4
  -4  -2  -5 10214.6 628.333   3
  -4  -2  -4 9381.04 599.037   4
   6  -4  -4 8578.59 704.061   4
  -2   6  -4 8568.66 578.866   1
  -4  -2  -4 9085.97 806.442   2
  -4  -2  -3 50.9283 143.524   2
   6  -4  -3 126.899 124.670   4
  -4  -2  -3 180.461 97.7333   4
  -2   6  -2 33252.0 1170.26   3
  -4  -2  -2 33583.0 1281.06   2
   6  -4  -2 32788.5 1104.36   4
  -4  -2  -2 32002.3 930.810   4
  -2   6  -1 737.466 168.675   3
  -4  -2  -1 848.194 200.957   2
  -4  -2  -1 916.001 168.766   4
   6  -4  -1 947.406 194.190   4
   6  -4   0 9064.20 354.627   1
   6  -4   0 8322.68 408.600   4
  -2   6   0 8534.46 448.118   3
  -4  -2   1 2610.11 340.522   1
   6  -4   1 2353.10 196.988   4
  -2   6   1 2379.21 331.252   4
  -4  -2   1 2325.74 324.426   3
   6  -4   2 31451.1 1179.81   2
  -4  -2   2 30454.5 1229.42   3
  -4  -2   2 28262.8 1197.81   1
   6  -4   2 29830.5 689.169   4
  -2   6   3 3672.69 241.184   3
  -4  -2   3 4063.76 507.250   3
  -4  -2   4 390.092 84.1214   2
  -4  -2   4 492.524 281.126   3
  -2   6   4 262.859 113.744   3
  -2   6   5 203.294 101.950   3
  -4  -2   5 347.891 257.214   3
  -2   6   6 925.700 232.171   3
  -4  -2   6 777.481 359.914   3
  -2   6   7 1385.96 318.079   3
  -4  -2   7 155.096 235.815   3
  -4  -2   8-225.397 291.517   3
  -2   6   8 161.000 163.424   3
  -4  -2   9 862.753 509.726   3
  -4  -2  10 2016.14 635.447   3
  -3  -3 -10 18357.8 1571.98   2
  -3  -3  -9 31.5221 325.873   2
   6  -3  -8 58745.5 1750.56   2
  -3  -3  -8 55562.1 2521.89   2
  -3  -3  -7 303.481 193.544   4
  -3  -3  -7-71.0549 249.019   2
   6  -3  -7 694.196 229.844   2
  -3  -3  -6 3787.51 409.207   3
  -3  -3  -6 3730.37 629.957   2
   6  -3  -6 3028.37 367.076   2
  -3  -3  -6 2902.77 453.984   4
  -3  -3  -5 21021.7 838.739   3
  -3  -3  -5 20451.6 1059.61   4
  -3  -3  -5 22516.3 1350.29   2
  -3  -3  -4 151819. 2570.89   4
  -3  -3  -4 151288. 3244.22   2
  -3   6  -4 154990. 2255.67   1
  -3  -3  -4 153266. 2040.64   3
  -3  -3  -3 2678.44 336.063   4
  -3  -3  -3 2737.96 422.452   2
  -3  -3  -2 57575.0 1375.09   4
  -3   6  -2 61255.2 1577.73   3
   6  -3  -1 9447.05 483.417   4
  -3  -3  -1 9681.31 564.640   4
  -3   6  -1 9388.26 568.265   3
  -3  -3   0 189156. 2354.41   3
   6  -3   0 195539. 1689.71   4
   6  -3   0 193839. 1847.81   1
  -3  -3   1 27157.5 1024.53   3
  -3   6   1 25611.4 990.113   4
  -3  -3   1 26434.1 1083.20   1
   6  -3   1 25808.2 969.660   2
  -3  -3   2 4868.23 503.525   1
  -3  -3   2 4353.66 464.651   3
   6  -3   2 5063.12 475.716   2
  -3  -3   3 23185.6 1155.25   3
  -3   6   3 23382.3 750.929   3
   6  -3   3 21737.8 548.108   4
  -3  -3   4 353664. 4980.32   3
  -3   6   4 349642. 3209.06   3
  -3  -3   4 350938. 2671.84   2
   6  -3   4 352511. 2758.71   4
   6  -3   5 115.259 125.930   4
  -3   6   5 95.1645 134.051   3
  -3  -3   5 104.490 198.363   3
  -3  -3   5 114.902 77.0663   2
  -3   6   6 51684.9 1531.76   3
   6  -3   6 51366.1 1339.83   4
  -3  -3   6 51796.8 2179.69   3
  -3  -3   6 50397.1 1217.84   2
  -3   6   7 537.113 233.518   3
  -3  -3   7 1239.98 426.691   3
  -3  -3   8 23235.8 1682.07   3
  -3   6   8 21880.4 1188.56   3
  -3   6   9 1397.62 389.611   3
  -3  -3   9 827.069 446.849   3
  -3  -3  10 5770.66 938.483   3
  -2  -4 -10 689.600 435.593   2
  -2  -4  -9 308.604 341.506   2
  -2  -4  -8-683.277 386.996   2
  -2  -4  -8-398.228 304.437   4
  -2  -4  -7 1323.07 456.188   2
   6  -2  -7 1161.95 228.880   2
  -2  -4  -7 840.279 342.424   4
  -2  -4  -6 5345.31 437.333   3
   6  -2  -6 4421.97 374.425   2
  -2  -4  -6 6191.54 785.904   2
  -2  -4  -6 5020.48 610.221   4
  -2  -4  -5 8933.66 499.924   3
   6  -2  -5 9276.39 469.165   2
  -2  -4  -5 10212.2 926.865   2
  -2  -4  -5 10200.8 778.149   4
  -4   6  -5 8716.34 549.003   1
  -2  -4  -4 8561.42 420.319   3
  -4   6  -4 9005.51 509.712   1
  -2  -4  -4 8630.23 678.740   4
  -2  -4  -3 214.083 80.6768   3
  -2  -4  -3-51.9445 133.710   4
  -2  -4  -2 31730.7 1105.13   4
   6  -2  -2 33537.0 1079.33   1
  -4   6  -2 34282.8 1208.24   3
  -2  -4  -1 756.141 195.885   4
   6  -2  -1 682.741 157.374   1
  -2  -4  -1 1013.23 146.985   3
   6  -2  -1 736.257 136.012   2
  -2  -4   0 8190.68 464.259   3
   6  -2   0 8538.02 484.524   2
  -2  -4   1 2952.65 375.919   1
  -2  -4   1 2767.03 332.138   3
   6  -2   1 2826.91 328.315   2
  -4   6   1 2769.27 329.289   4
  -2  -4   2 31578.6 1210.30   3
   6  -2   2 30852.1 1134.21   2
  -4   6   2 32549.7 1124.01   4
  -2  -4   2 30454.4 1240.80   1
  -4   6   3 3848.12 374.736   3
   6  -2   3 3460.24 197.317   4
  -2  -4   3 3605.67 462.023   3
   6  -2   4 170.274 72.9603   4
  -2  -4   4-2.61256 218.577   3
  -4   6   4 380.744 155.799   3
  -2  -4   5 211.325 256.356   3
   6  -2   5 332.725 151.693   4
  -4   6   5 335.982 183.748   3
  -2  -4   5 337.909 134.244   2
   6  -2   6 473.859 151.652   4
  -2  -4   6 499.678 303.429   3
  -4   6   6 1083.80 297.291   3
  -2  -4   6 654.575 202.377   2
  -4   6   7 484.100 241.016   3
  -2  -4   7 123.585 300.319   3
  -2  -4   8-358.760 279.478   3
  -4   6   8-124.344 212.957   3
  -4   6   9 1081.29 371.954   3
  -2  -4   9 1033.60 417.771   3
  -2  -4  10 1142.84 541.497   3
  -1  -5 -10-398.885 482.190   2
  -1  -5  -9 4997.17 828.313   2
  -1  -5  -8-229.401 361.652   2
  -1  -5  -8 462.033 301.792   4
  -1  -5  -7 135.460 263.964   2
  -1  -5  -7 177.037 226.017   4
   6  -1  -6 661.433 132.152   2
  -1  -5  -6 356.884 276.013   2
  -1  -5  -6 482.738 122.409   3
  -1  -5  -6 777.692 325.329   4
   6  -1  -5 2308.03 175.290   2
  -1  -5  -5 2114.54 377.956   4
  -1  -5  -5 2917.78 255.979   3
  -5   6  -5 2479.37 280.491   1
  -1  -5  -4 349.995 79.6043   3
  -1  -5  -4 295.620 183.421   4
  -5   6  -4 359.665 110.686   1
  -1  -5  -3 969.632 283.999   4
   6  -1  -2 598.332 80.1801   2
  -1  -5  -2 985.934 232.480   4
   6  -1  -2 742.523 194.525   1
  -1  -5  -1 7571.92 308.804   3
   6  -1  -1 7145.08 363.956   2
  -1  -5  -1 7621.86 590.825   4
   6  -1  -1 7969.57 507.588   1
  -1  -5   0 5378.56 353.948   3
  -5   6   0 5353.20 435.593   4
   6  -1   0 5847.54 400.505   2
   6  -1   1 2145.72 280.184   2
  -1  -5   1 2080.75 286.723   3
  -5   6   1 2094.89 291.618   4
  -1  -5   2 235.466 185.270   1
   6  -1   2-108.583 166.681   2
  -1  -5   2 155.211 136.389   3
  -5   6   2 96.2416 118.373   4
  -1  -5   3 10925.3 797.094   3
  -1  -5   3 11005.8 800.106   1
  -5   6   3 10682.8 684.519   3
   6  -1   3 9798.01 339.880   4
   6  -1   4 1027.08 154.536   4
  -5   6   4 769.518 232.043   3
  -1  -5   4 1035.43 301.321   3
  -5   6   5 14.8578 143.305   3
  -1  -5   5 118.131 141.182   2
  -1  -5   5 344.597 289.572   3
   6  -1   5 104.766 94.1075   4
  -1  -5   6-161.459 315.196   3
  -5   6   6 234.842 197.821   3
   6  -1   6 27.7065 120.422   4
  -1  -5   7 6587.56 863.668   3
  -5   6   7 6016.31 674.212   3
  -5   6   8 3031.10 514.101   3
  -1  -5   8 3302.69 707.685   3
  -1  -5   9 378.437 332.027   3
  -5   6   9 335.051 250.618   3
  -1  -5  10 965.512 517.877   3
   0  -6  -9 3124.15 705.737   2
   0  -6  -9 3043.90 623.638   4
   0  -6  -8 45686.3 2083.88   4
   0  -6  -8 43467.7 2233.79   2
   0  -6  -7 2570.25 550.921   2
   0  -6  -7 2323.54 512.946   4
   0  -6  -6 23773.9 1360.06   4
   0  -6  -5 477.744 263.154   4
  -6   6  -5 958.553 167.558   1
   0  -6  -5 1073.06 145.754   3
  -6   6  -4 79277.2 1180.41   1
   0  -6  -4 87828.0 2323.84   4
   0  -6  -3 3879.30 478.794   4
   0  -6  -2 68367.1 1867.07   4
   0  -6  -1 28301.9 1178.50   4
  -6   6   0 134072. 2068.16   4
   0  -6   0 138676. 2609.02   4
   0  -6   0 139495. 1794.77   3
   6   0   1 29137.7 1037.84   2
  -6   6   1 28392.1 985.579   4
   0  -6   1 28269.9 999.324   3
  -6   6   2 70187.8 1648.11   4
   0  -6   2 67458.0 1863.91   1
   6   0   2 69398.3 1759.12   2
   0  -6   2 68890.3 1796.19   3
   0  -6   3 4162.14 518.134   1
   0  -6   3 3212.39 442.261   3
   6   0   3 3422.40 235.260   4
  -6   6   4 82942.6 2185.02   3
   6   0   4 86092.1 1356.60   4
   0  -6   4 83735.6 2420.89   3
   6   0   5 972.412 172.297   4
  -6   6   5 956.059 290.913   3
   0  -6   5 1277.96 366.669   3
  -6   6   6 25845.1 1356.39   3
   6   0   6 23845.1 907.851   4
   0  -6   6 24116.3 1537.56   3
  -6   6   7 2275.01 467.900   3
   0  -6   7 2482.72 554.683   3
  -6   6   8 43402.5 1967.53   3
   0  -6   8 45909.3 2334.38   3
   0  -6   9 3085.72 696.777   3
  -6   6   9 4439.11 697.566   3
   1  -7  -9 1750.41 598.889   2
   1  -7  -9 1946.07 577.821   4
   1  -7  -8 889.327 439.061   2
   1  -7  -8 984.668 390.420   4
   1  -7  -7-213.130 239.036   4
   1  -7  -6 4023.61 614.352   4
  -7   6  -5 516.361 111.498   1
   1  -7  -5 655.764 316.811   4
  -7   6  -4 404.086 82.2962   1
   1  -7  -4 448.612 229.085   4
   1  -7  -3 721.836 270.828   4
   1  -7  -2 13179.3 869.469   4
   1  -7  -1 1100.37 320.348   4
  -7   6   0 1834.75 244.990   4
   1  -7   0 1691.79 339.254   4
  -7   6   1 14889.5 701.724   4
   1  -7   1 15081.8 751.127   3
  -7   6   2 9865.01 613.489   4
   1  -7   2 9195.01 707.103   1
   1  -7   2 10212.2 727.129   3
   1  -7   3 1999.10 396.133   3
   1  -7   3 2039.21 380.492   1
   1  -7   4 961.509 310.261   3
   6   1   4 1136.33 187.732   4
  -7   6   4 1098.64 307.539   3
   1  -7   5 2352.86 480.750   3
   6   1   5 1324.74 234.650   4
  -7   6   5 1391.96 410.083   3
   1  -7   6 3917.99 655.932   3
  -7   6   6 3838.82 582.429   3
   1  -7   7 1619.40 454.173   3
  -7   6   7 2148.55 451.098   3
   1  -7   8 123.911 370.530   3
  -7   6   8 487.031 349.894   3
   1  -7   9 202.844 299.326   3
  -7   6   9-159.155 365.543   3
   2  -8  -9 2352.09 635.168   2
   2  -8  -9 2384.35 567.011   4
   2  -8  -8-520.210 417.763   2
   2  -8  -8 119.990 343.183   4
   2  -8  -7 3079.51 637.500   4
   2  -8  -6 1996.97 493.889   4
   2  -8  -5 2040.62 499.612   4
   2  -8  -4 213.499 237.781   4
   2  -8  -3 64.8612 186.648   4
   2  -8  -2 3836.91 503.368   4
   2  -8  -1 9953.92 790.414   4
   2  -8   0 31683.3 1404.38   4
  -8   6   0 30938.9 937.150   4
  -8   6   1 193.394 114.941   4
   2  -8   1 410.711 215.987   4
   2  -8   2 503.392 189.019   1
   2  -8   3 2393.09 398.684   1
  -8   6   4 12728.0 994.004   3
   6   2   4 11782.5 602.390   4
   2  -8   4 12495.9 986.327   3
   2  -8   5 348.930 319.788   3
   6   2   5 83.1251 107.326   4
  -8   6   5 140.794 255.883   3
   2  -8   6-163.411 252.601   3
  -8   6   6 607.030 329.549   3
   2  -8   7 7854.77 958.643   3
  -8   6   7 8023.15 917.695   3
  -8   6   8 1882.14 476.436   3
   2  -8   8 2534.39 628.784   3
  -8   6   9 43.7158 309.073   3
   3  -9  -9 386.510 319.156   2
   3  -9  -9 316.663 292.306   4
   3  -9  -8 25514.6 1720.61   4
   3  -9  -7 7229.11 925.258   4
   3  -9  -6 18105.2 1347.18   4
   3  -9  -5 5283.24 709.478   4
   3  -9  -4 62708.9 2236.94   4
   3  -9  -3 11754.6 953.998   4
   3  -9  -2 32264.7 1501.01   4
   3  -9  -1 39.2511 184.847   4
   3  -9   0 115317. 2773.67   4
  -9   6   0 112095. 1707.94   4
  -9   6   1 7134.19 470.392   4
   3  -9   1 6835.35 719.301   4
   3  -9   2 15892.4 930.304   1
   3  -9   3 5644.59 576.146   1
  -9   6   4 59172.2 2224.03   3
  -9   6   5 6539.83 790.105   3
  -9   6   6 19664.9 1405.05   3
  -9   6   7 1638.63 465.697   3
  -9   6   8 15713.9 1380.15   3
  -9   6   9 902.926 385.350   3
   4 -10  -8-69.3847 353.407   4
   4 -10  -7 2615.58 620.236   4
   4 -10  -6 1256.47 410.071   4
   4 -10  -5-224.456 274.470   4
   4 -10  -4 1860.02 454.585   4
   4 -10  -3 1701.61 391.666   4
   4 -10  -2 86.1476 211.167   4
   4 -10  -1 4902.55 609.210   4
 -10   6   0 0.12774 102.982   4
   4 -10   0 331.916 270.304   4
   4 -10   1 1579.38 361.790   4
 -10   6   1 1845.63 249.438   4
   4 -10   2 11292.2 925.177   4
   4 -10   2 9731.52 743.283   1
   4 -10   3 7584.73 669.425   1
 -10   6   4 1270.51 464.769   3
 -10   6   5 124.527 296.904   3
 -10   6   6 1939.94 536.835   3
 -10   6   7 2527.12 587.507   3
 -10   6   8 1734.20 539.848   3
   5 -11  -8 3942.73 752.215   4
   5 -11  -7-358.305 436.931   4
   5 -11  -6 1463.89 462.921   4
   5 -11  -5 8482.49 943.706   4
   5 -11  -4 3836.94 642.989   4
   5 -11  -3 2470.86 492.154   4
   5 -11  -2 1365.54 384.291   4
   5 -11  -1 862.349 253.219   4
   5 -11   0 1627.07 372.615   4
 -11   6   0 1016.80 158.599   4
 -11   6   1-56.3504 105.442   4
   5 -11   1-105.613 200.632   4
   5 -11   2 89.0761 154.728   1
   5 -11   2 471.175 273.350   4
   5 -11   3 2625.83 408.566   1
 -11   6   4 13944.8 1216.31   3
 -11   6   5-304.464 297.727   3
 -11   6   6 1677.97 510.949   3
 -11   6   7-426.662 327.583   3
 -11   6   8 4100.96 806.094   3
   6 -12  -7 3210.77 694.713   4
   6 -12  -6 4631.82 768.082   4
   6 -12  -5 505.712 395.784   4
   6 -12  -4 34409.8 1853.54   4
   6 -12  -3 90.9707 286.948   4
   6 -12  -2 10391.1 990.296   4
   6 -12  -1 5404.31 715.118   4
   6 -12   0 59421.7 2196.97   4
   6 -12   1 4774.19 643.223   4
   6 -12   2 1781.58 314.345   1
   6 -12   2 2998.34 545.156   4
   6 -12   3 3921.83 644.218   4
   6 -12   3 3315.19 443.276   1
 -12   6   4 72574.5 2836.59   3
 -12   6   5 4842.31 761.867   3
 -12   6   6 6372.44 932.638   3
 -12   6   7-155.253 382.486   3
   7 -13  -6 2883.03 674.154   4
   7 -13  -5 724.561 376.278   4
   7 -13  -4 743.480 408.764   4
   7 -13  -3 137.379 283.826   4
   7 -13  -2 2207.85 497.067   4
   7 -13  -1 674.562 300.788   4
   7 -13   0 545.535 301.939   4
   7 -13   1 14.4632 222.336   4
   7 -13   2 9115.84 727.205   1
   7 -13   2 7995.51 861.547   4
   7 -13   3-20.0084 235.855   4
   7 -13   4 639.836 356.078   4
 -13   6   4 326.198 317.874   3
 -13   6   5-186.442 306.068   3
 -13   6   6 2899.43 680.422   3
   7 -12  -7 821.973 437.301   4
   7 -12  -6 250.399 306.013   4
   7 -12  -5 1267.67 420.060   4
   7 -12  -4 179.721 265.493   4
   7 -12  -3 1863.63 460.078   4
   7 -12  -2 3213.92 587.623   4
   7 -12  -1 4948.04 683.626   4
   7 -12   0 4473.87 631.472   4
   7 -12   1 8240.73 828.715   4
   7 -12   2 1986.03 332.415   1
   7 -12   2 1552.34 417.540   4
   7 -12   3 2407.30 353.226   1
   7 -12   3 2024.88 471.632   4
   7 -12   4 1289.07 425.576   4
 -12   5   4 890.753 408.497   3
 -12   5   5 6478.64 921.173   3
 -12   5   6 1008.93 417.436   3
 -12   5   7 120.418 326.951   3
   7 -11  -8 2389.04 627.863   4
   7 -11  -7 5114.33 827.984   4
   7 -11  -6 16172.6 1347.52   4
   7 -11  -5 36404.1 1907.44   4
   7 -11  -4 1623.98 436.975   4
   7 -11  -3 28764.3 1561.40   4
 -11   4  -3 29452.4 901.315   1
   7 -11  -2 30506.9 1547.73   4
   7 -11  -1 58227.5 2075.75   4
 -11   4   0 4835.30 253.229   4
   7 -11   0 4966.99 615.180   4
   7 -11   1 11548.1 914.885   4
 -11   4   1 11263.3 521.697   4
   7 -11   2 43549.9 1783.74   4
   7 -11   2 45207.1 1305.37   1
 -11   4   2 44119.3 1179.13   4
 -11   4   3 85967.0 2931.34   3
   7 -11   3 83547.0 2492.59   4
 -11   4   4 41.6626 258.885   3
 -11   4   5 6917.34 920.037   3
 -11   4   6 11647.9 1225.16   3
 -11   4   7 12889.3 1300.31   3
 -11   4   8 737.382 556.152   3
   7 -10  -8 1673.26 551.827   4
   7 -10  -7 899.297 410.770   4
   7 -10  -6 2087.62 530.015   4
   7 -10  -5 248.313 263.452   4
   7 -10  -4 1999.91 480.687   4
 -10   3  -3 252.797 125.303   1
   7 -10  -3 194.840 223.934   4
   7 -10  -2 17092.0 1091.61   4
 -10   3  -2 15698.0 737.542   1
   7 -10  -1 160.835 168.153   4
 -10   3   0 11.9665 51.4641   4
   7 -10   0 479.265 235.766   4
 -10   3   1-79.8525 118.488   4
   7 -10   1 361.020 197.099   4
   7 -10   2 7560.31 474.478   1
   7 -10   2 7359.29 692.044   4
 -10   3   2 6057.09 443.125   4
 -10   3   3 3339.10 590.828   3
   7 -10   3 3632.19 520.782   4
 -10   3   4-228.618 302.197   3
 -10   3   5 2781.43 567.243   3
 -10   3   6 3585.86 683.912   3
 -10   3   7 1179.75 459.275   3
 -10   3   8 547.235 435.869   3
  -9   2  -8 452.951 317.634   2
   7  -9  -8 187.401 314.507   4
  -9   2  -7 4617.16 755.714   2
   7  -9  -7 6566.05 884.186   4
  -9   2  -6 965.032 459.084   2
   7  -9  -6 987.207 365.154   4
  -9   2  -5 2213.76 525.143   2
   7  -9  -5 1939.50 440.770   4
  -9   2  -4 630.440 290.253   2
   7  -9  -4 466.587 274.797   4
   7  -9  -3 6879.60 722.244   4
   7  -9  -2 1041.20 286.808   4
  -9   2  -2 1233.25 235.788   1
  -9   2  -1 276.828 144.541   1
   7  -9  -1 265.568 186.401   4
   2   7  -1 628.289 198.650   3
  -9   2   0 86.7282 59.0045   4
   7  -9   0-107.364 169.765   4
  -9   2   1 7943.33 452.519   4
   7  -9   1 7662.24 662.094   4
  -9   2   2 5553.10 433.628   4
   7  -9   2 5114.50 542.886   4
   7  -9   2 5353.05 334.679   1
   7  -9   3-4.79843 177.408   4
  -9   2   3 235.320 219.908   3
  -9   2   4 149.473 267.969   3
  -9   2   5 1814.02 482.772   3
  -9   2   6 411.608 262.392   3
  -9   2   7 77.2371 341.199   3
  -9   2   8 345.555 318.834   3
  -8   1  -9 27744.0 1940.98   2
   7  -8  -9 26575.2 1627.41   2
  -8   1  -8 400.891 312.469   2
   7  -8  -8-575.992 385.445   4
  -8   1  -7 11883.4 1189.01   2
   7  -8  -7 11849.1 1126.37   4
  -8   1  -6 11218.1 1085.23   2
   7  -8  -6 11081.3 1038.80   4
  -8   1  -5 33657.1 1750.58   2
   7  -8  -5 35909.4 1717.52   4
  -8   1  -4 24162.7 1392.45   2
   7  -8  -4 22640.3 1272.16   4
  -8   1  -3 39631.3 1653.50   2
   7  -8  -3 42643.8 1679.43   4
  -8   1  -2 43910.7 1601.16   2
   7  -8  -2 47329.8 1624.66   4
  -8   1  -1 122286. 2387.26   2
   1   7  -1 124336. 2060.44   3
   7  -8  -1 123216. 2491.02   4
  -8   1  -1 121915. 2248.28   1
  -8   1   0 251.299 143.574   1
  -8   1   0 735.856 123.900   4
   7  -8   0 680.477 191.267   4
   1   7   0 624.397 148.591   3
  -8   1   1 6701.48 425.184   4
   7  -8   1 7544.00 581.298   4
  -8   1   2 61460.2 2128.53   3
  -8   1   2 59895.2 1423.27   4
   7  -8   2 59921.9 1644.26   4
  -8   1   3 74523.9 2424.77   3
  -8   1   4 3579.87 593.492   3
  -8   1   5 25268.2 1598.59   3
  -8   1   6 10451.3 1122.83   3
  -8   1   7 46334.2 2340.71   3
  -8   1   8 1481.83 600.925   3
  -8   1   9 4078.88 788.334   3
   7  -7  -9 321.146 237.668   2
  -7   0  -9 112.175 377.500   2
  -7   0  -8 492.369 377.965   2
   7  -7  -7 3756.58 688.832   4
  -7   0  -7 2497.06 598.497   2
   7  -7  -6-101.354 217.809   4
  -7   0  -6 281.863 274.027   2
   7  -7  -5 2719.09 495.623   4
  -7   0  -5 3246.18 565.619   2
   7  -7  -4 489.423 255.717   4
  -7   0  -4 1265.84 376.280   2
   7  -7  -3 1450.46 335.154   4
  -7   0  -3 832.544 125.116   4
  -7   0  -3 825.938 255.130   2
   0   7  -2 11614.1 693.845   3
  -7   0  -2 10781.5 779.055   2
   7  -7  -2 11219.2 770.325   4
  -7   0  -2 10739.2 361.711   4
   0   7  -1 8876.69 548.240   3
  -7   0  -1 8379.21 611.172   2
   7  -7  -1 7664.82 586.096   4
  -7   0  -1 8770.98 621.540   1
  -7   0  -1 8954.91 383.662   4
  -7   0   0 295.640 176.820   1
   7  -7   0 301.238 164.578   4
  -7   0   0 252.566 144.200   2
   0   7   0 218.520 110.774   3
  -7   0   1 8854.34 676.834   1
   7  -7   1 9085.98 583.068   4
  -7   0   2 11378.0 888.624   3
   7  -7   2 11408.8 652.379   4
  -7   0   3 648.537 283.027   3
  -7   0   4 716.028 314.831   3
  -7   0   5 3011.46 554.755   3
  -7   0   6-14.8025 249.195   3
  -7   0   7 1983.67 572.187   3
  -7   0   8 34.7946 294.330   3
  -7   0   9 95.0755 320.771   3
  -6  -1  -9 175.541 391.300   2
   7  -6  -8 477.770 274.073   2
  -6  -1  -8 298.194 327.879   2
  -6  -1  -7 1435.08 462.040   2
   7  -6  -6 3289.50 564.687   4
  -6  -1  -6 3932.88 664.780   2
   7  -6  -5 1245.90 364.678   4
  -6  -1  -5 1376.45 254.448   4
  -6  -1  -5 2365.10 503.425   2
  -6  -1  -4 891.644 195.351   4
   7  -6  -4 641.730 231.551   4
  -6  -1  -4 731.024 282.373   2
   7  -6  -3 1925.90 343.257   4
  -6  -1  -3 2421.28 250.682   4
  -6  -1  -3 2367.12 405.318   2
  -1   7  -2 9317.97 641.313   3
  -6  -1  -2 9451.97 722.848   2
  -6  -1  -2 9918.86 458.757   4
   7  -6  -2 10593.3 700.945   4
   7  -6  -1 14920.9 755.442   4
  -1   7  -1 14935.2 709.702   3
  -6  -1  -1 15098.1 813.920   2
  -6  -1  -1 14796.4 583.617   4
  -6  -1   0 1562.76 279.930   1
  -1   7   0 1893.83 219.596   3
   7  -6   0 1758.41 239.253   4
  -6  -1   0 1446.85 223.834   2
  -6  -1   1 1025.65 282.472   3
  -6  -1   1 1239.71 177.749   2
  -1   7   1 902.729 113.719   3
   7  -6   1 566.700 151.067   4
  -6  -1   1 1253.31 294.048   1
  -6  -1   2 11190.5 842.249   3
   7  -6   2 12189.9 588.945   4
  -6  -1   3 1108.92 344.431   3
  -6  -1   4 816.629 301.646   3
  -6  -1   5 350.658 282.251   3
  -6  -1   6 3176.88 598.079   3
  -6  -1   7-35.6111 287.651   3
  -6  -1   8 1137.22 477.979   3
  -6  -1   9 1443.28 546.088   3
  -5  -2  -9 21327.3 1681.42   2
   7  -5  -8-167.478 201.727   2
  -5  -2  -8 176.598 293.669   2
   7  -5  -7 5146.25 559.411   2
  -5  -2  -7 3967.18 714.724   2
  -5  -2  -6 19467.2 1391.26   2
  -5  -2  -6 19201.3 1016.86   4
  -5  -2  -5 66539.1 2413.90   2
   7  -5  -5 66851.3 2196.98   4
  -5  -2  -5 65579.6 1700.56   4
  -5  -2  -4 508.548 246.127   2
   7  -5  -4 847.254 277.956   4
  -5  -2  -4 824.358 193.575   4
  -5  -2  -3 45073.9 1714.09   2
   7  -5  -3 46459.8 1545.16   4
  -5  -2  -3 45789.0 1193.21   4
  -2   7  -2 43225.2 1348.90   3
  -5  -2  -2 42107.1 1084.32   4
   7  -5  -2 43275.0 1325.69   4
  -5  -2  -2 41989.9 1499.02   2
  -2   7  -1 152911. 2323.48   3
   7  -5  -1 152320. 2217.65   4
  -5  -2  -1 154899. 2592.99   2
  -5  -2  -1 149061. 2116.81   4
  -5  -2   0 222.687 133.724   2
  -5  -2   0 252.295 163.326   1
  -2   7   0 126.536 95.5752   3
   7  -5   0 268.977 95.5476   4
  -5  -2   1 30095.1 1205.35   3
  -5  -2   1 31668.4 855.012   2
   7  -5   1 29774.4 759.842   4
  -5  -2   1 30439.3 1253.08   1
  -2   7   1 31773.8 729.337   3
  -5  -2   2 70137.4 2007.16   1
  -5  -2   2 69337.1 1952.87   3
  -5  -2   2 67291.1 913.770   2
   7  -5   2 72752.3 1173.71   4
  -2   7   2 66867.5 789.889   3
  -5  -2   3 66177.7 2078.26   3
  -2   7   4 10546.2 393.636   3
  -5  -2   4 11160.5 949.875   3
  -5  -2   5 23114.0 1440.65   3
  -2   7   5 22522.1 715.924   3
  -5  -2   6 11178.4 1061.47   3
  -2   7   6 11427.7 595.674   3
  -5  -2   7 27060.0 1757.31   3
  -2   7   7 27403.3 1052.37   3
  -5  -2   8 254.706 296.054   3
  -5  -2   9 3387.26 711.853   3
  -4  -3  -9 200.502 316.642   2
  -4  -3  -8 819.050 436.124   2
   7  -4  -7 378.720 162.274   2
  -4  -3  -7 417.580 218.312   4
  -4  -3  -7 99.6277 266.704   2
  -4  -3  -6 9892.66 998.577   2
  -4  -3  -6 10405.2 821.388   4
  -4  -3  -5-56.6161 232.770   2
  -4  -3  -5 218.534 138.719   4
  -4  -3  -5 131.921 119.081   3
  -4  -3  -4 473.649 275.259   2
  -4  -3  -4 153.246 146.653   4
  -4  -3  -3 599.466 247.521   2
  -4  -3  -3 313.512 156.742   4
  -4  -3  -2 2767.87 409.271   2
   7  -4  -2 1925.49 288.886   4
  -3   7  -2 2450.60 337.467   3
  -4  -3  -2 2438.64 292.497   4
   7  -4  -1 26.7974 95.9013   4
  -4  -3  -1-77.7375 125.841   4
  -3   7  -1 304.567 136.601   3
  -3   7   0 60.2863 81.5998   3
   7  -4   0 152.835 84.8666   1
   7  -4   0 25.4643 77.9317   4
  -4  -3   0 155.014 135.106   3
   7  -4   1 1217.53 241.300   2
   7  -4   1 862.180 114.945   4
  -4  -3   1 924.519 249.069   1
  -4  -3   1 1226.27 250.998   3
  -4  -3   2 18599.0 1051.81   1
  -4  -3   2 20114.3 1034.50   3
   7  -4   2 16659.8 405.464   4
  -4  -3   3 5887.20 631.314   3
  -3   7   3 5175.94 326.397   3
  -4  -3   4 8574.35 820.087   3
  -3   7   4 7937.23 451.399   3
  -4  -3   4 7489.46 341.342   2
   7  -4   4 8890.42 434.491   4
  -4  -3   5-11.7683 61.0289   2
   7  -4   5-9.04884 102.418   4
  -3   7   5-34.7065 102.040   3
  -3   7   6 8783.38 594.610   3
   7  -4   6 7326.89 511.005   4
  -4  -3   6 7483.28 873.466   3
  -4  -3   7 39.2379 270.972   3
  -3   7   7-23.3107 162.316   3
  -4  -3   8 51.3919 262.597   3
  -4  -3   9 274.499 354.223   3
  -3  -4  -9 345.447 373.768   2
  -3  -4  -8 102.097 211.096   4
  -3  -4  -8 169.342 370.971   2
  -3  -4  -7 488.672 328.707   2
  -3  -4  -7 217.073 230.352   4
   7  -3  -7 180.023 162.238   2
  -3  -4  -6 10302.0 588.972   3
   7  -3  -6 10267.0 575.053   2
  -3  -4  -6 10520.8 846.211   4
  -3  -4  -6 10955.7 1056.72   2
  -3  -4  -5-95.3938 233.139   2
  -4   7  -5 100.539 109.878   1
  -3  -4  -5 325.474 208.499   4
  -3  -4  -5 158.009 105.677   3
  -3  -4  -4 247.378 104.273   3
  -3  -4  -4 34.9491 228.758   2
  -3  -4  -4 202.248 188.418   4
  -3  -4  -3 343.950 169.055   4
  -3  -4  -2 2486.67 331.227   4
   7  -3  -1 170.673 118.211   1
  -3  -4  -1-53.9107 110.140   4
  -3  -4  -1 73.1066 70.9923   3
   7  -3   0 69.1868 98.1606   2
  -3  -4   0 37.2053 99.4459   3
   7  -3   1 929.367 202.649   2
  -3  -4   1 1090.46 267.739   1
  -3  -4   1 899.593 213.880   3
  -3  -4   2 21191.4 1053.62   3
  -3  -4   2 18657.0 1037.52   1
  -4   7   3 4535.71 380.319   3
  -3  -4   3 5403.31 607.364   1
  -3  -4   3 4922.85 570.922   3
  -3  -4   4 7714.35 760.759   3
  -4   7   4 8261.81 543.914   3
   7  -3   4 8746.03 385.125   4
  -3  -4   5 146.624 125.547   2
  -3  -4   5 86.3765 239.344   3
   7  -3   5-5.24660 89.0945   4
  -4   7   5 213.807 164.862   3
  -3  -4   6 8973.23 950.739   3
  -4   7   6 8685.68 659.651   3
  -3  -4   6 7913.48 491.187   2
   7  -3   6 7374.59 485.394   4
  -3  -4   7 336.499 253.386   3
  -4   7   7 572.609 246.296   3
  -3  -4   8 281.350 306.353   3
  -4   7   8 659.315 305.203   3
  -3  -4   9-326.242 388.593   3
  -2  -5  -9 22846.5 1726.90   2
  -2  -5  -9 21637.7 1442.71   4
  -2  -5  -8 77.4887 297.285   2
  -2  -5  -8 135.287 235.434   4
  -2  -5  -7 6620.10 915.223   2
  -2  -5  -7 5292.16 674.348   4
   7  -2  -6 18695.6 619.807   2
  -2  -5  -6 18674.7 1383.49   2
  -2  -5  -6 19175.5 1163.79   4
  -2  -5  -5 65991.8 1180.94   3
   7  -2  -5 61358.3 965.168   2
  -2  -5  -5 69394.8 2077.86   4
  -5   7  -5 66305.1 1425.13   1
   7  -2  -4 534.740 82.3737   2
  -2  -5  -4 709.927 112.792   3
  -2  -5  -4 728.253 265.204   4
  -2  -5  -3 45505.1 1514.66   4
  -2  -5  -3 41104.4 638.165   3
   7  -2  -2 43089.7 832.694   2
  -2  -5  -2 39250.9 680.594   3
  -2  -5  -2 42485.8 1402.26   4
   7  -2  -2 43368.0 1296.02   1
  -2  -5  -1 160702. 1724.19   3
   7  -2  -1 150363. 1873.73   2
  -2  -5  -1 153630. 2671.68   4
   7  -2  -1 156923. 2233.10   1
  -2  -5   0 146.053 89.3028   3
   7  -2   0 146.731 127.484   2
  -2  -5   1 31255.4 1115.87   3
   7  -2   1 31170.1 1103.93   2
  -2  -5   1 30851.7 1296.00   1
  -2  -5   2 72832.2 1909.77   3
  -2  -5   2 70541.8 2026.18   1
  -2  -5   3 66239.1 2009.89   3
  -2  -5   3 66833.7 2057.51   1
  -2  -5   4 11027.9 908.616   3
  -5   7   4 11807.1 728.059   3
   7  -2   4 11472.0 415.709   4
  -2  -5   5 26000.1 1491.35   3
  -2  -5   5 22799.1 879.116   2
  -5   7   5 22151.6 1052.40   3
   7  -2   5 21890.4 714.009   4
  -2  -5   6 10780.9 1059.63   3
  -5   7   6 10950.6 793.967   3
  -2  -5   6 10399.1 610.433   2
  -2  -5   7 29127.9 1798.63   3
  -5   7   7 27186.4 1319.13   3
  -2  -5   8-198.485 274.522   3
  -5   7   8-369.556 279.360   3
  -2  -5   9 1819.42 563.390   3
  -1  -6  -9 348.498 383.172   2
  -1  -6  -9-466.554 404.631   4
  -1  -6  -8 994.834 418.151   2
  -1  -6  -8 625.860 267.924   4
  -1  -6  -7 1869.78 535.667   2
  -1  -6  -7 1720.43 439.645   4
  -1  -6  -6 4128.51 611.592   4
  -6   7  -5 1698.54 233.809   1
  -1  -6  -5 1473.04 410.180   4
  -1  -6  -5 1192.64 131.233   3
  -1  -6  -4 594.203 243.120   4
  -1  -6  -3 2377.29 382.831   4
  -1  -6  -2 10017.6 732.550   4
  -1  -6  -1 15502.4 901.131   4
   7  -1  -1 14078.6 555.996   2
  -1  -6  -1 14523.1 458.587   3
   7  -1   0 1690.85 247.589   2
  -1  -6   0 1406.61 203.919   3
  -1  -6   0 1411.25 278.959   4
   7  -1   1 1009.69 207.889   2
  -1  -6   1 1045.18 223.023   3
  -6   7   1 1027.43 217.480   4
  -1  -6   2 12121.7 790.755   3
  -1  -6   2 12059.7 852.727   1
  -1  -6   3 1210.42 332.726   1
  -1  -6   3 924.869 294.446   3
  -1  -6   4 704.712 307.533   3
   7  -1   4 625.776 116.202   4
  -6   7   4 433.562 206.755   3
  -1  -6   5 435.888 251.406   3
   7  -1   5 404.384 118.132   4
  -6   7   5 646.346 248.641   3
  -1  -6   6 3272.38 601.620   3
  -6   7   6 4026.49 551.355   3
  -1  -6   7-63.8321 259.026   3
  -6   7   7-49.8434 187.403   3
  -1  -6   8 1234.82 451.314   3
  -6   7   8 225.487 250.437   3
  -1  -6   9 1303.32 545.630   3
  -6   7   9 2752.96 551.978   3
   0  -7  -9 1226.90 463.331   2
   0  -7  -9 114.187 317.343   4
   0  -7  -8 214.780 325.185   2
   0  -7  -8-90.4205 275.359   4
   0  -7  -7 2614.51 595.771   2
   0  -7  -7 1760.53 477.725   4
   0  -7  -6-212.088 240.043   4
  -7   7  -5 2332.54 225.658   1
   0  -7  -5 2763.63 476.662   4
   0  -7  -4 1419.92 406.598   4
   0  -7  -3 386.269 199.672   4
   0  -7  -2 9457.76 753.504   4
   0  -7  -1 7836.75 683.390   4
   0  -7   0 352.678 132.410   3
   0  -7   0 167.413 188.140   4
  -7   7   0 187.231 134.452   4
  -7   7   1 8297.03 567.270   4
   0  -7   1 8979.12 594.134   3
   0  -7   2 10551.0 808.249   1
   0  -7   2 11462.6 773.440   3
   0  -7   3 923.042 282.650   1
   0  -7   3 712.280 260.107   3
   0  -7   4 560.338 245.447   3
   7   0   4 624.797 132.885   4
  -7   7   4 958.310 304.100   3
   0  -7   5 2725.32 535.170   3
   7   0   5 2772.86 278.524   4
  -7   7   5 2645.56 447.140   3
   0  -7   6 314.733 307.524   3
  -7   7   6-238.203 215.778   3
   0  -7   7 3016.53 657.560   3
  -7   7   7 2742.69 515.877   3
  -7   7   8 575.532 325.376   3
   0  -7   8 265.306 304.922   3
   0  -7   9 393.626 446.207   3
  -7   7   9 137.472 315.842   3
   1  -8  -9 26347.4 1752.39   4
   1  -8  -9 26134.7 1864.01   2
   1  -8  -8-89.2595 293.689   4
   1  -8  -8 212.055 359.152   2
   1  -8  -7 12760.4 1153.59   4
   1  -8  -6 9394.32 947.573   4
   1  -8  -5 37589.7 1783.98   4
   1  -8  -4 22662.1 1320.61   4
   1  -8  -3 41187.4 1719.93   4
   1  -8  -2 45461.1 1731.40   4
   1  -8  -1 126192. 2845.44   4
   1  -8   0 440.544 231.937   4
  -8   7   0 771.787 170.673   4
  -8   7   1 7705.46 541.138   4
   1  -8   2 59589.5 1896.34   1
   1  -8   2 63627.4 1825.85   3
   1  -8   3 76402.3 2245.95   3
   1  -8   3 72407.7 2166.27   1
   1  -8   4 3123.48 541.821   3
  -8   7   4 3463.74 518.484   3
  -8   7   5 24658.7 1397.13   3
   1  -8   5 25879.3 1535.12   3
  -8   7   6 11505.2 1001.81   3
   1  -8   6 9801.40 1003.48   3
  -8   7   7 41721.5 1978.08   3
   1  -8   7 44414.3 2237.14   3
   1  -8   8 249.385 348.609   3
  -8   7   8 138.443 315.565   3
   1  -8   9 2180.77 655.975   3
  -8   7   9 3943.04 694.809   3
   2  -9  -8 586.637 381.373   4
   2  -9  -7 4994.83 757.116   4
   2  -9  -6 1465.27 421.186   4
   2  -9  -5 2402.70 503.174   4
   2  -9  -4 308.531 279.417   4
   2  -9  -3 5600.50 679.677   4
   2  -9  -2 758.707 285.617   4
   2  -9  -1 490.766 246.579   4
   2  -9   0 41.3945 184.821   4
  -9   7   0 53.9497 102.720   4
  -9   7   1 8194.21 543.796   4
   2  -9   1 9055.22 832.299   4
   2  -9   2 6039.30 629.583   1
   2  -9   3 378.296 242.857   1
  -9   7   4 378.035 241.264   3
  -9   7   5 2106.64 480.737   3
   2  -9   5 1892.36 464.538   3
  -9   7   6-376.880 302.895   3
   2  -9   6 284.914 242.858   3
  -9   7   7 336.247 286.636   3
   2  -9   7 43.8123 269.119   3
  -9   7   8 549.989 387.746   3
   3 -10  -8 978.017 479.013   4
   3 -10  -7 1341.20 493.114   4
   3 -10  -6 1125.42 430.599   4
   3 -10  -5 314.108 237.434   4
   3 -10  -4 1923.63 461.604   4
   3 -10  -3 114.979 217.714   4
   3 -10  -2 15869.9 1135.54   4
   3 -10  -1 141.277 194.036   4
   3 -10   0-138.661 211.989   4
 -10   7   0-62.4436 129.541   4
 -10   7   1 59.8968 135.295   4
   3 -10   1 211.662 252.760   4
   3 -10   2 7867.52 734.516   1
   3 -10   3 3668.62 523.051   1
 -10   7   4 599.316 325.225   3
 -10   7   5 2658.13 548.319   3
 -10   7   6 3184.84 623.882   3
 -10   7   7 415.292 329.718   3
 -10   7   8-340.843 328.478   3
   4 -11  -8 2637.29 638.170   4
   4 -11  -7 4198.36 730.007   4
   4 -11  -6 16982.3 1356.95   4
   4 -11  -5 39064.6 1980.51   4
   4 -11  -4 464.662 304.108   4
   4 -11  -3 28749.9 1592.39   4
   4 -11  -2 28085.2 1533.36   4
   4 -11  -1 62553.8 2254.41   4
 -11   7   0 5264.12 377.856   4
   4 -11   0 5643.30 693.850   4
 -11   7   1 11248.9 600.636   4
   4 -11   1 12727.8 1050.60   4
   4 -11   2 43423.0 1916.98   4
   4 -11   2 46026.4 1711.19   1
   4 -11   3 79492.8 2253.93   1
 -11   7   4 542.192 340.638   3
 -11   7   5 6224.91 824.689   3
 -11   7   6 12656.5 1205.33   3
 -11   7   7 13453.5 1267.49   3
 -11   7   8 1091.89 474.315   3
   5 -12  -7 1018.82 452.240   4
   5 -12  -6-31.1456 312.778   4
   5 -12  -5 1558.60 491.705   4
   5 -12  -4 936.095 369.574   4
   5 -12  -3 1528.66 444.000   4
   5 -12  -2 2322.46 509.300   4
   5 -12  -1 5887.44 732.383   4
   5 -12   0 5712.18 741.202   4
   5 -12   1 8141.67 868.727   4
   5 -12   2 1882.02 388.179   1
   5 -12   2 2605.15 545.349   4
   5 -12   3 2099.55 422.449   1
   5 -12   3 1876.94 470.521   4
 -12   7   4 1327.40 450.119   3
 -12   7   5 7516.54 962.206   3
 -12   7   6 1621.68 520.268   3
 -12   7   7-309.314 369.658   3
   6 -13  -6 2947.83 689.057   4
   6 -13  -5 911.180 432.529   4
   6 -13  -4 695.412 344.290   4
   6 -13  -3 7.37519 241.552   4
   6 -13  -2 2000.56 515.253   4
   6 -13  -1 602.990 325.198   4
   6 -13   0 354.984 241.456   4
   6 -13   1-95.7369 256.127   4
   6 -13   2 7755.64 706.567   1
   6 -13   2 9651.09 991.613   4
   6 -13   3 210.227 187.265   1
   6 -13   3 300.445 328.362   4
   6 -13   4 577.970 350.585   4
 -13   7   4 758.363 395.313   3
 -13   7   5-30.2952 338.764   3
 -13   7   6 1950.84 630.012   3
   7 -14  -5 12950.3 1243.80   4
   7 -14  -4 2522.90 597.896   4
   7 -14  -3 9067.50 1027.05   4
   7 -14  -2 20667.2 1469.46   4
   7 -14  -1 56532.6 2339.45   4
   7 -14   0-47.1647 269.380   4
   7 -14   1 9089.46 953.072   4
   7 -14   2 20145.2 1434.73   4
   7 -14   3 13671.4 1193.31   4
   7 -14   4 7184.01 889.118   4
 -14   7   4 7160.37 981.288   3
 -14   7   5 18313.4 1568.17   3
   7 -14   5 21803.9 1520.59   4
   8 -15  -4 126.152 335.764   4
   8 -15  -3 2084.57 572.362   4
   8 -15  -2 27.2418 265.048   4
   8 -15  -1 729.083 405.441   4
   8 -15   0 3558.51 668.204   4
   8 -15   1 2994.08 605.995   4
   8 -15   2 1218.68 424.478   4
   8 -15   3 1404.72 426.167   4
   8 -15   4-264.194 334.280   4
 -15   7   4 113.803 450.048   3
   8 -14  -5 938.727 469.260   4
   8 -14  -4 3289.28 613.312   4
   8 -14  -3 300.601 361.098   4
   8 -14  -2 881.533 387.090   4
   8 -14  -1 9560.23 973.795   4
   8 -14   0 4851.46 716.903   4
   8 -14   1 2165.31 504.055   4
   8 -14   2 2038.01 512.071   4
 -14   6   3-186.467 294.468   3
   8 -14   3-530.014 360.927   4
   8 -14   4 960.042 420.413   4
 -14   6   4 1897.22 539.836   3
 -14   6   5 1787.78 572.162   3
   8 -14   5 1449.00 432.284   4
   8 -13  -6 6127.83 926.515   4
   8 -13  -5 5800.92 859.625   4
   8 -13  -4 310.101 329.149   4
   8 -13  -3 37533.2 1897.96   4
   8 -13  -2 17608.3 1285.19   4
   8 -13  -1 7320.31 808.161   4
   8 -13   0 1245.03 404.336   4
   8 -13   1 25608.0 1474.22   4
   8 -13   2 8409.00 862.571   4
 -13   5   3 9576.98 1091.42   3
   8 -13   3 7867.32 855.647   4
   8 -13   4-212.476 289.120   4
 -13   5   4 314.298 310.749   3
 -13   5   5 25541.2 1834.15   3
   8 -13   5 27135.2 1598.20   4
 -13   5   6 8432.98 1107.22   3
   8 -12  -7 2970.43 664.851   4
   8 -12  -6-11.0793 366.991   4
   8 -12  -5 117.310 267.607   4
   8 -12  -4 3349.92 610.037   4
   8 -12  -3 10771.3 995.315   4
   8 -12  -2 368.387 209.664   4
   8 -12  -1-47.4528 199.611   4
   8 -12   0 132.775 266.224   4
   8 -12   1 3817.30 564.733   4
   8 -12   2-153.223 127.819   1
   8 -12   2-292.368 239.108   4
 -12   4   3 1499.55 472.001   3
   8 -12   3 791.667 284.109   4
   8 -12   4 634.219 305.982   4
 -12   4   4 84.4714 275.093   3
 -12   4   5 4408.72 787.865   3
 -12   4   6-147.590 421.900   3
 -12   4   7-442.212 302.874   3
   8 -11  -7 169.585 293.925   4
   8 -11  -6 76.8354 287.893   4
   8 -11  -5 443.391 268.817   4
   8 -11  -4 3107.55 579.145   4
   8 -11  -3 2328.63 494.945   4
 -11   3  -3 2074.99 303.464   1
 -11   3  -2 2337.72 323.255   1
   8 -11  -2 1537.25 387.799   4
   8 -11  -1 6642.32 712.267   4
   8 -11   0 5888.17 651.685   4
   8 -11   1 4285.14 546.492   4
   8 -11   2 581.182 161.101   1
   8 -11   2 760.387 284.123   4
   8 -11   3 3104.18 508.601   4
 -11   3   3 3841.03 668.840   3
 -11   3   4 5483.09 816.717   3
   8 -11   4 6466.58 723.433   4
 -11   3   5 130.306 313.733   3
 -11   3   6-228.580 282.212   3
 -11   3   7 934.333 437.416   3
   8 -10  -8 1591.82 550.668   4
 -10   2  -7 23243.5 1691.99   2
   8 -10  -7 20052.5 1524.14   4
   8 -10  -6 9393.42 988.781   4
 -10   2  -6 7958.44 957.431   2
 -10   2  -5 14638.6 1204.72   2
   8 -10  -5 13278.0 1129.58   4
   8 -10  -4 451.593 225.489   4
   8 -10  -3 49579.0 1935.34   4
   8 -10  -2 26901.4 1358.96   4
 -10   2  -2 25330.2 1058.02   1
 -10   2  -1 6815.93 575.352   1
   2   8  -1 6387.07 502.192   3
   8 -10  -1 5759.76 618.474   4
   8 -10   0 453.697 246.134   4
 -10   2   0 253.967 87.8309   4
 -10   2   1 72073.7 1357.31   4
   8 -10   1 70553.0 2001.13   4
   8 -10   2 31924.9 769.650   1
 -10   2   2 33009.9 1048.45   4
   8 -10   2 30904.6 1342.96   4
 -10   2   3 12052.0 1094.31   3
   8 -10   3 12488.5 891.952   4
 -10   2   4 1487.56 438.377   3
 -10   2   5 39131.2 2073.21   3
 -10   2   6 8996.80 1055.06   3
 -10   2   7 14698.3 1401.33   3
 -10   2   8 704.101 446.008   3
  -9   1  -8 2221.01 590.284   2
   8  -9  -8 1978.27 575.479   4
  -9   1  -7 935.981 419.437   2
   8  -9  -7 1392.44 464.326   4
   8  -9  -6-79.6131 268.324   4
  -9   1  -6 322.341 354.308   2
  -9   1  -5 10784.1 1047.89   2
   8  -9  -5 10764.6 1012.05   4
   8  -9  -4 1413.90 392.715   4
  -9   1  -4 1484.95 411.054   2
  -9   1  -3 1060.16 318.466   2
   8  -9  -3 639.866 262.721   4
  -9   1  -2 179.595 201.689   1
  -9   1  -2 218.319 170.245   2
   8  -9  -2 9.21306 192.867   4
  -9   1  -1 436.447 156.518   1
  -9   1  -1 500.776 69.7379   4
   8  -9  -1 632.390 236.232   4
  -9   1  -1 804.917 91.0459   4
   1   8  -1 763.365 189.217   3
  -9   1   0 13351.3 850.028   1
   1   8   0 11809.7 564.352   3
  -9   1   0 12201.2 485.133   4
   8  -9   0 12702.6 819.049   4
   8  -9   1 18000.0 934.291   4
  -9   1   1 17458.6 691.422   4
  -9   1   2 7126.82 798.522   3
  -9   1   2 6489.32 481.467   4
   8  -9   2 6681.42 597.350   4
   8  -9   3-32.4950 146.464   4
  -9   1   3 289.392 267.646   3
  -9   1   4 522.183 287.393   3
  -9   1   5 1931.56 528.672   3
  -9   1   6 4154.72 719.112   3
  -9   1   7 2734.15 633.432   3
  -9   1   8 364.208 324.213   3
  -8   0  -9 3320.80 710.663   2
  -8   0  -8 4630.49 811.775   2
   8  -8  -7 625.712 375.234   4
  -8   0  -7 773.904 419.439   2
  -8   0  -6 959.616 407.760   2
   8  -8  -6 424.335 331.778   4
   8  -8  -5 41.2772 250.857   4
  -8   0  -5 311.240 283.739   2
  -8   0  -4 2793.68 504.892   2
   8  -8  -4 2013.24 411.606   4
  -8   0  -3 105.628 55.0212   4
  -8   0  -3 45.8215 168.859   2
   8  -8  -3 47.3319 186.831   4
  -8   0  -2 267.651 220.742   2
   8  -8  -2 410.500 207.396   4
  -8   0  -2 198.709 63.8012   4
  -8   0  -1 697.608 257.413   1
  -8   0  -1 529.566 201.129   2
   8  -8  -1 770.686 245.720   4
   0   8  -1 936.023 212.863   3
  -8   0  -1 676.961 125.116   4
  -8   0   0 43111.5 1277.25   2
   0   8   0 45063.3 1061.54   3
   8  -8   0 43296.4 1378.93   4
  -8   0   0 44724.5 1538.24   1
  -8   0   1 562.380 238.521   1
   8  -8   1 533.451 181.713   4
   8  -8   2 407.246 170.799   4
  -8   0   2 321.940 271.051   3
  -8   0   3-137.688 216.475   3
   8  -8   3-165.404 162.460   4
  -8   0   4 3082.87 578.942   3
  -8   0   5 202.612 303.073   3
  -8   0   6 805.670 472.618   3
  -8   0   7 535.701 389.282   3
  -8   0   8 5155.79 872.160   3
  -8   0   9 2128.58 580.786   3
  -7  -1  -9 2924.58 699.282   2
  -7  -1  -8 717.596 362.609   2
  -7  -1  -7 46306.6 2299.95   2
  -7  -1  -6 11443.2 1116.06   2
   8  -7  -6 11540.6 1045.48   4
  -7  -1  -5 24608.9 1504.61   2
  -7  -1  -5 26162.5 952.278   4
   8  -7  -5 25205.7 1417.90   4
  -7  -1  -4 2795.32 288.065   4
   8  -7  -4 3227.17 496.554   4
  -7  -1  -4 2832.54 520.632   2
  -7  -1  -3 75450.7 2268.95   2
   8  -7  -3 75335.2 2119.67   4
  -7  -1  -3 74719.5 1308.46   4
  -7  -1  -2 61607.9 1137.85   4
  -7  -1  -2 61657.6 1886.89   2
   8  -7  -2 63104.1 1792.43   4
  -1   8  -1 6875.55 507.743   3
  -7  -1  -1 7077.60 575.206   2
  -7  -1  -1 6925.48 420.363   4
   8  -7  -1 7262.90 567.881   4
  -1   8   0 567.824 141.742   3
   8  -7   0 276.605 144.826   4
  -7  -1   0 574.541 187.165   2
  -7  -1   0 697.701 199.530   1
  -7  -1   1 123066. 2669.05   1
  -7  -1   1 123675. 1704.35   2
  -1   8   1 120040. 1301.44   3
  -7  -1   1 127822. 2845.89   3
   8  -7   1 124629. 2019.93   4
  -7  -1   2 46887.8 1803.21   3
   8  -7   2 44811.5 1186.62   4
  -7  -1   3 38858.8 1753.11   3
   8  -7   3 41107.5 1193.99   4
  -7  -1   4 23349.3 1421.18   3
  -7  -1   5 40747.6 1984.64   3
  -7  -1   6 9363.43 1040.16   3
  -7  -1   7 11004.0 1160.73   3
  -7  -1   8-314.184 345.828   3
  -7  -1   9 28311.8 2006.82   3
  -6  -2  -9-418.524 381.182   2
  -6  -2  -8 2152.15 568.209   2
  -6  -2  -7 7864.77 969.051   2
  -6  -2  -6 157.663 162.032   4
  -6  -2  -6 923.870 404.411   2
   8  -6  -5 114.702 187.337   4
  -6  -2  -5-148.716 148.125   4
  -6  -2  -5-20.4553 217.144   2
  -6  -2  -4 12594.0 671.478   4
  -6  -2  -4 11969.6 1006.43   2
   8  -6  -4 12750.1 931.502   4
   8  -6  -3 1978.10 330.300   4
  -6  -2  -3 2049.76 267.554   4
  -6  -2  -3 2043.69 399.552   2
  -6  -2  -2 658.261 230.673   2
   8  -6  -2 319.046 185.099   4
  -6  -2  -2 723.346 168.587   4
  -6  -2  -1 12.8178 119.153   2
  -2   8  -1 59.9998 146.940   3
   8  -6  -1 91.4672 101.515   4
  -6  -2  -1 170.956 109.754   4
  -2   8   0 33799.3 971.696   3
   8  -6   0 31899.1 708.822   1
  -6  -2   0 33088.1 1106.71   2
   8  -6   0 32447.9 983.842   4
  -6  -2   0 34007.1 1365.75   1
  -2   8   1 11665.7 459.146   3
  -6  -2   1 10769.0 784.971   3
  -6  -2   1 11648.1 541.905   2
   8  -6   1 11588.1 532.179   4
  -6  -2   1 11528.6 823.654   1
  -6  -2   2 4164.32 237.119   2
   8  -6   2 4203.56 317.834   4
  -6  -2   2 4639.79 544.198   3
  -6  -2   2 4036.23 524.195   1
  -6  -2   3 358.939 250.381   3
   8  -6   3 75.0431 90.7938   4
  -6  -2   4-12.9149 200.497   3
  -6  -2   5 2193.41 504.891   3
  -6  -2   6 1513.95 425.304   3
  -6  -2   7 3187.65 663.935   3
  -6  -2   8 998.943 427.602   3
  -6  -2   9 2970.57 663.256   3
  -5  -3  -9 10.2126 321.188   2
  -5  -3  -8 3141.85 682.085   2
   8  -5  -7-373.764 183.772   2
  -5  -3  -7 17.3771 246.261   2
  -5  -3  -7 136.959 226.513   4
  -5  -3  -6 5037.81 569.584   4
  -5  -3  -6 3600.51 680.243   2
  -5  -3  -5 1892.57 505.042   2
  -5  -3  -5 1987.34 300.308   3
  -5  -3  -5 1665.26 304.339   4
  -5  -3  -4 2848.86 511.568   2
  -5  -3  -4 2699.88 353.207   4
   8  -5  -3 10241.5 741.920   4
  -5  -3  -3 10066.6 847.312   2
  -5  -3  -3 9900.63 616.333   4
   8  -5  -2 342.369 180.577   4
  -5  -3  -2 342.772 139.380   4
  -5  -3  -2 588.629 245.516   2
  -3   8  -1 1192.03 234.799   3
  -5  -3  -1 1714.81 305.096   2
   8  -5  -1 1593.07 241.485   4
  -5  -3  -1 1614.36 258.855   4
  -5  -3   0 10236.8 689.976   3
   8  -5   0 11162.0 514.091   4
   8  -5   0 11372.8 457.446   1
  -3   8   0 11384.2 594.958   3
  -3   8   1 1890.88 223.231   3
   8  -5   1 1730.09 174.060   4
  -5  -3   1 2051.87 340.637   3
  -5  -3   1 1723.60 322.021   1
  -5  -3   2 2158.04 397.919   1
   8  -5   2 1899.77 173.683   4
  -5  -3   2 2576.29 417.376   3
  -3   8   3 2254.52 192.416   3
   8  -5   3 2336.43 200.637   4
  -5  -3   3 2571.50 425.513   3
  -3   8   4 6709.20 358.656   3
  -5  -3   4 6985.70 782.365   3
  -3   8   5 10913.8 508.294   3
  -5  -3   5 11413.0 1034.53   3
   8  -5   5 10087.0 511.505   4
  -5  -3   6 69.4808 291.836   3
  -3   8   6 350.836 148.797   3
  -5  -3   7 2308.71 574.883   3
  -5  -3   8 1701.05 522.116   3
  -5  -3   9 1700.20 593.086   3
  -4  -4  -9 5654.91 900.690   2
  -4  -4  -8 2425.14 461.105   4
  -4  -4  -8 2552.01 633.275   2
  -4  -4  -7 24998.3 1691.80   2
  -4  -4  -7 22845.3 1296.00   4
  -4  -4  -6 24935.5 1622.09   2
  -4  -4  -6 25902.5 1284.25   4
   8  -4  -6 25797.3 963.863   2
  -4  -4  -5 30663.3 1677.11   2
  -4  -4  -5 30822.3 1336.04   4
  -4  -4  -5 30310.1 951.801   3
  -4  -4  -4 2357.07 471.173   2
  -4  -4  -4 1945.57 332.679   4
  -4  -4  -4 2408.38 262.334   3
  -4  -4  -3 143020. 2550.33   4
  -4  -4  -3 143613. 3173.35   2
  -4  -4  -2 29534.2 1125.47   4
  -4  -4  -1 63774.0 1459.15   3
  -4  -4  -1 65104.6 1675.47   4
   8  -4  -1 66535.9 1379.14   1
  -4   8  -1 66138.3 1653.53   3
   8  -4   0 20980.7 896.555   2
  -4  -4   0 21903.2 924.842   3
  -4  -4   1 58880.6 1675.30   3
  -4  -4   1 57144.6 1861.38   1
  -4  -4   2 40779.7 1521.28   3
  -4  -4   2 43207.6 1676.58   1
  -4  -4   3 25591.1 1335.28   3
  -4   8   3 27077.1 862.787   3
  -4  -4   3 26065.8 1360.97   1
  -4  -4   4 692.137 129.517   2
  -4  -4   4 847.479 328.378   3
  -4   8   4 730.957 171.314   3
   8  -4   4 915.784 128.187   4
  -4  -4   5 82798.8 2729.03   3
  -4   8   5 80129.2 1656.25   3
  -4  -4   5 77237.7 1255.51   2
   8  -4   5 81434.9 1341.63   4
  -4   8   6 76416.4 1752.38   3
  -4  -4   6 76514.4 2779.33   3
  -4   8   7 2734.17 396.070   3
  -4  -4   7 2671.10 609.834   3
  -4  -4   8 2280.78 559.782   3
  -4  -4   9 21663.4 1762.15   3
  -3  -5  -9 822.604 402.918   4
  -3  -5  -9 328.959 307.338   2
  -3  -5  -8 3898.36 750.943   2
  -3  -5  -8 3322.84 565.591   4
  -3  -5  -7 15.9792 294.613   2
  -3  -5  -7 270.115 221.451   4
  -3  -5  -6 4197.48 699.659   2
  -3  -5  -6 4496.58 603.554   4
   8  -3  -5 1736.37 194.006   2
  -3  -5  -5 1863.70 431.447   2
  -3  -5  -5 1433.90 192.806   3
  -3  -5  -5 2123.55 409.574   4
  -3  -5  -4 2667.73 229.246   3
  -3  -5  -4 2592.06 415.050   4
  -3  -5  -3 9297.00 701.681   4
  -3  -5  -2 111.635 161.626   4
  -3  -5  -2 275.059 98.7871   3
   8  -3  -1 1544.84 226.085   2
   8  -3  -1 1296.04 224.010   1
  -3  -5  -1 1356.42 202.092   3
  -3  -5  -1 1471.13 295.737   4
  -3  -5   0 10824.4 618.318   3
   8  -3   0 10784.4 622.276   2
  -3  -5   1 2085.23 382.591   1
  -3  -5   1 1935.47 313.524   3
   8  -3   1 1782.40 308.688   2
  -3  -5   2 2503.16 436.240   1
  -3  -5   2 2227.43 383.379   3
  -3  -5   3 1576.06 354.108   1
  -3  -5   3 2438.59 430.127   3
  -5   8   4 7517.94 552.207   3
  -3  -5   4 6554.75 735.536   3
  -3  -5   5 10832.9 998.099   3
  -3  -5   5 10823.1 567.380   2
  -5   8   5 11185.1 709.281   3
   8  -3   5 10328.3 447.146   4
  -3  -5   6 120.445 307.997   3
  -5   8   6 58.6302 157.962   3
  -3  -5   7 2016.62 560.796   3
  -5   8   7 2476.34 398.083   3
  -3  -5   8 2022.47 606.279   3
  -3  -5   9 2483.23 648.291   3
  -2  -6  -9 149.858 362.197   2
  -2  -6  -9 129.226 312.867   4
  -2  -6  -8 3624.78 777.015   2
  -2  -6  -8 1814.09 454.693   4
  -2  -6  -7 8140.87 1006.34   2
  -2  -6  -7 7863.40 854.559   4
  -2  -6  -6 102.977 235.582   2
  -2  -6  -6 94.8140 188.248   4
  -2  -6  -5-26.7859 219.613   4
  -2  -6  -4 11243.7 853.552   4
   8  -2  -3 1534.38 116.572   2
  -2  -6  -3 2230.03 389.302   4
  -2  -6  -2 332.085 66.4941   3
  -2  -6  -2 456.447 220.800   4
   8  -2  -2 363.594 97.3813   2
  -2  -6  -1 118.194 83.6979   3
   8  -2  -1 64.0541 125.478   1
   8  -2  -1 194.581 91.1567   2
  -2  -6  -1 159.910 140.188   4
  -2  -6   0 32713.9 1021.46   3
   8  -2   0 32823.6 1053.64   2
  -2  -6   0 30936.6 1321.16   4
  -2  -6   1 11943.2 717.842   3
  -2  -6   1 11310.4 847.920   1
   8  -2   1 10593.5 660.958   2
  -2  -6   2 3485.60 449.630   3
  -2  -6   2 3725.79 526.906   1
  -2  -6   3-86.7780 202.076   3
  -2  -6   3 349.818 211.727   1
  -2  -6   4-83.3912 186.505   3
   8  -2   4 136.709 38.8412   4
  -6   8   4 331.964 195.004   3
  -2  -6   5 2896.03 538.645   3
  -6   8   5 2536.01 409.321   3
  -2  -6   6 1010.02 398.639   3
  -6   8   6 1826.76 379.701   3
  -2  -6   7 1964.01 530.927   3
  -6   8   7 2952.85 470.836   3
  -2  -6   8 457.565 315.021   3
  -6   8   8 447.593 235.450   3
  -2  -6   9 2371.95 669.999   3
  -1  -7  -9 2412.75 627.570   2
  -1  -7  -9 3252.07 626.288   4
  -1  -7  -8 499.505 365.832   2
  -1  -7  -8 197.421 317.470   4
  -1  -7  -7 44044.0 1999.14   4
  -1  -7  -7 45135.8 2297.93   2
  -1  -7  -6 11809.7 996.984   4
  -1  -7  -5 24635.8 1407.33   4
  -1  -7  -4 2522.67 452.522   4
  -1  -7  -3 73639.4 2182.96   4
  -1  -7  -2 60165.7 1908.28   4
   8  -1  -1 8102.09 451.889   2
  -1  -7  -1 7644.68 701.736   4
  -1  -7  -1 7694.56 353.576   3
   8  -1   0 411.932 149.167   2
  -1  -7   0 619.561 155.115   3
  -1  -7   0 607.305 256.277   4
  -1  -7   1 125099. 2287.82   3
   8  -1   1 124446. 2277.73   2
  -1  -7   2 49070.7 1627.95   3
  -1  -7   2 43659.2 1712.58   1
  -1  -7   3 42230.2 1686.11   3
  -1  -7   3 42723.3 1755.36   1
  -1  -7   4 20432.9 1265.91   3
  -7   8   4 22016.8 1149.49   3
  -7   8   5 38208.4 1549.37   3
  -1  -7   5 38075.8 1855.18   3
  -7   8   6 11032.7 885.400   3
  -1  -7   6 10544.0 1045.45   3
  -7   8   7 11627.1 948.225   3
  -1  -7   7 13056.9 1236.41   3
  -1  -7   8 287.538 374.512   3
  -7   8   8 298.911 293.339   3
  -1  -7   9 29120.7 2008.34   3
   0  -8  -9 2359.41 659.539   2
   0  -8  -9 3193.97 655.604   4
   0  -8  -8 3678.87 752.496   2
   0  -8  -8 4158.65 706.446   4
   0  -8  -7-288.087 322.348   4
   0  -8  -6 860.311 423.227   4
   0  -8  -5 101.649 201.515   4
   0  -8  -4 2450.36 498.141   4
   0  -8  -3-45.8517 180.961   4
   0  -8  -2 233.144 248.170   4
   0  -8  -1 256.699 178.481   4
   0  -8   0 42404.5 1707.39   4
   0  -8   1 788.949 212.140   3
   0  -8   2 219.879 219.015   3
   0  -8   2 672.225 272.800   1
   0  -8   3 86.1537 180.681   3
   0  -8   3-143.663 225.230   1
   0  -8   4 2303.47 441.154   3
  -8   8   4 2788.07 465.195   3
   0  -8   5-55.2479 226.200   3
  -8   8   5-56.9639 189.311   3
   0  -8   6 422.587 362.657   3
  -8   8   6 421.693 302.564   3
   0  -8   7 183.339 303.636   3
  -8   8   7 367.425 264.559   3
   0  -8   8 5907.02 933.906   3
  -8   8   8 4570.50 675.674   3
   0  -8   9 3642.19 722.055   3
  -8   8   9 2713.17 586.404   3
   1  -9  -8 2138.61 611.684   2
   1  -9  -8 2577.86 609.834   4
   1  -9  -7 1199.46 427.623   4
   1  -9  -6 274.782 267.912   4
   1  -9  -5 12072.6 1049.43   4
   1  -9  -4 1547.71 405.077   4
   1  -9  -3 1272.43 348.021   4
   1  -9  -2-59.9346 201.640   4
   1  -9  -1 388.357 232.489   4
   1  -9   0 12984.5 994.557   4
   1  -9   1 15613.9 1121.49   4
   1  -9   2 6795.11 695.019   1
   1  -9   2 6956.18 633.023   3
   1  -9   3 141.648 277.999   3
   1  -9   3 151.409 189.453   1
  -9   8   4 1225.55 392.354   3
   1  -9   4 922.597 301.719   3
   1  -9   5 1906.20 482.343   3
  -9   8   5 1467.04 379.667   3
   1  -9   6 3818.35 644.927   3
  -9   8   6 4788.67 669.098   3
   1  -9   7 3752.96 704.406   3
  -9   8   7 1927.44 473.092   3
   1  -9   8 786.144 364.485   3
  -9   8   8 815.406 413.305   3
   2 -10  -8 952.476 502.366   4
   2 -10  -7 21175.8 1533.23   4
   2 -10  -6 10023.9 1034.84   4
   2 -10  -5 14638.6 1194.88   4
   2 -10  -4 182.453 265.427   4
   2 -10  -3 48053.4 2023.50   4
   2 -10  -2 25872.3 1444.58   4
   2 -10  -1 5726.07 690.992   4
   2 -10   0 522.604 297.320   4
   2 -10   1 71045.2 2405.84   4
   2 -10   2 32250.7 1512.58   1
   2 -10   3 12210.8 954.946   1
 -10   8   4 2272.13 492.191   3
   2 -10   4 1396.46 372.577   1
 -10   8   5 39763.0 1950.24   3
 -10   8   6 7783.03 896.182   3
 -10   8   7 14960.3 1299.91   3
 -10   8   8 275.083 349.045   3
   3 -11  -7-315.343 335.782   4
   3 -11  -6 121.892 291.844   4
   3 -11  -5 497.430 337.651   4
   3 -11  -4 2895.02 592.523   4
   3 -11  -3 2382.41 537.253   4
   3 -11  -2 1924.26 432.485   4
   3 -11  -1 7970.18 822.592   4
   3 -11   0 5448.82 690.777   4
   3 -11   1 5163.42 706.013   4
   3 -11   2 798.638 297.800   1
   3 -11   2 1692.09 458.201   4
   3 -11   3 2112.74 422.246   1
 -11   8   4 7460.57 877.977   3
   3 -11   4 6920.40 736.505   1
 -11   8   5 430.744 399.185   3
 -11   8   6 741.498 347.561   3
 -11   8   7-131.220 339.750   3
   4 -12  -7 3116.56 672.318   4
   4 -12  -6 282.130 348.419   4
   4 -12  -5-0.99739 337.463   4
   4 -12  -4 3972.33 675.514   4
   4 -12  -3 11586.0 1089.68   4
   4 -12  -2 469.765 302.942   4
   4 -12  -1 42.5045 245.967   4
   4 -12   0 384.400 361.960   4
   4 -12   1 4321.71 687.222   4
   4 -12   2 28.6182 204.444   1
   4 -12   2 288.377 241.128   4
   4 -12   3 749.012 297.216   1
   4 -12   3 1434.65 427.657   4
 -12   8   4 466.689 347.677   3
 -12   8   5 5967.41 858.964   3
 -12   8   6 643.300 413.635   3
 -12   8   7-319.082 324.616   3
   5 -13  -6 6174.50 889.891   4
   5 -13  -5 5469.52 828.560   4
   5 -13  -4 113.969 264.682   4
   5 -13  -3 33255.7 1842.63   4
   5 -13  -2 17947.9 1353.99   4
   5 -13  -1 7812.95 884.355   4
   5 -13   0 287.700 322.186   4
   5 -13   1 27287.4 1654.16   4
   5 -13   2 8054.66 768.958   1
   5 -13   2 8603.00 943.971   4
   5 -13   3 7392.88 738.140   1
   5 -13   3 9300.44 1009.55   4
 -13   8   4 596.655 408.736   3
 -13   8   5 26246.7 1790.14   3
 -13   8   6 8642.76 1139.49   3
   6 -14  -5 530.127 332.789   4
   6 -14  -4 3613.76 718.523   4
   6 -14  -3-99.0678 262.779   4
   6 -14  -2 553.703 335.286   4
   6 -14  -1 9771.28 1014.11   4
   6 -14   0 4723.79 734.198   4
   6 -14   1 2419.97 536.556   4
   6 -14   2 2383.60 440.938   1
   6 -14   2 2379.37 558.531   4
   6 -14   3-261.706 377.466   4
 -14   8   4 162.812 297.033   3
   6 -14   4 1451.02 485.029   4
 -14   8   5 1663.08 576.604   3
   7 -15  -4 956.307 466.469   4
   7 -15  -3 1601.86 539.035   4
   7 -15  -2 69.0398 288.079   4
   7 -15  -1 694.990 367.348   4
   7 -15   0 4389.64 705.560   4
   7 -15   1 2900.18 620.019   4
   7 -15   2 890.229 452.330   4
   7 -15   3 735.357 407.181   4
   7 -15   4-392.175 407.799   4
 -15   8   4 72.4998 375.973   3
   8 -16  -2 9428.07 1061.34   4
   8 -16  -1 2092.54 548.230   4
   8 -16   0 416.874 348.308   4
   8 -16   1 17569.2 1377.38   4
   8 -16   2 6962.63 908.961   4
   9 -16  -2 5022.51 788.355   4
   9 -16  -1 4290.69 734.102   4
   9 -16   0 2196.82 536.330   4
   9 -16   1 1063.98 414.904   4
   9 -16   2 2166.22 518.270   4
   9 -15  -4 23404.8 1635.56   4
   9 -15  -3 2357.72 565.486   4
   9 -15  -2 5738.31 798.280   4
   9 -15  -1 5824.83 817.531   4
   9 -15   0 28760.3 1685.80   4
   9 -15   1 6753.40 826.146   4
   9 -15   2 4098.48 691.047   4
 -15   6   3 1893.49 545.492   3
   9 -15   3 2846.28 576.315   4
   9 -15   4 10545.6 1074.49   4
 -15   6   4 12663.7 1317.50   3
   9 -14  -5 2732.70 705.460   4
   9 -14  -4 2781.87 602.236   4
   9 -14  -3 549.265 298.991   4
   9 -14  -2 621.293 345.436   4
   9 -14  -1 1030.51 337.646   4
   9 -14   0 2774.71 535.160   4
   9 -14   1 1563.03 419.380   4
   9 -14   2 338.528 264.401   4
 -14   5   3 9580.94 1144.78   3
   9 -14   3 7176.32 840.822   4
   9 -14   4 5234.33 727.471   4
 -14   5   4 7117.20 968.981   3
 -14   5   5 35.9954 362.481   3
   9 -14   5 358.524 350.913   4
   9 -13  -6 1539.75 517.772   4
   9 -13  -5-164.250 296.847   4
   9 -13  -4 311.564 314.520   4
   9 -13  -3 789.920 331.731   4
   9 -13  -2 5390.67 743.533   4
   9 -13  -1 4641.91 670.046   4
   9 -13   0 119.890 220.343   4
   9 -13   1 3528.66 583.981   4
   9 -13   2 2749.13 523.290   4
 -13   4   3 357.798 403.219   3
   9 -13   3-51.6895 233.129   4
   9 -13   4 143.208 231.038   4
 -13   4   4 398.436 298.812   3
 -13   4   5-23.1119 381.029   3
   9 -13   5 726.756 346.562   4
 -13   4   6 4712.45 869.311   3
   9 -12  -7 932.075 461.051   4
   9 -12  -6 9120.65 1053.38   4
   9 -12  -5 942.746 382.064   4
   9 -12  -4 44246.4 2049.33   4
   9 -12  -3 15575.4 1184.47   4
 -12   3  -2 8412.09 619.974   1
   9 -12  -2 8231.23 834.895   4
   9 -12  -1 2923.35 511.363   4
   9 -12   0 40054.5 1713.75   4
   9 -12   1 1649.75 383.829   4
   9 -12   2 23083.2 1275.84   4
   9 -12   3 221.360 240.971   4
 -12   3   3 565.961 475.405   3
 -12   3   4 34285.5 1989.06   3
   9 -12   4 32420.1 1586.34   4
 -12   3   5 2288.04 593.211   3
   9 -12   5 2734.58 539.446   4
 -12   3   6 3995.73 797.024   3
 -12   3   7 4433.75 840.492   3
   9 -11  -7 754.898 395.148   4
   9 -11  -6 348.164 395.508   4
   9 -11  -5 7609.77 878.697   4
   9 -11  -4 1069.49 416.332   4
 -11   2  -3 1411.68 291.113   1
   9 -11  -3 1162.69 362.664   4
 -11   2  -2 312.143 178.155   1
   9 -11  -2 387.811 247.093   4
 -11   2  -1 9305.68 703.164   1
   9 -11  -1 9544.13 824.065   4
   9 -11   0 4599.64 569.588   4
   9 -11   1 5305.87 598.569   4
 -11   2   2 995.794 379.730   3
   9 -11   2 1584.20 334.038   4
   9 -11   3 2037.75 395.213   4
 -11   2   3 3162.27 634.551   3
 -11   2   4 3042.30 616.068   3
   9 -11   4 2345.25 428.262   4
 -11   2   5-317.471 314.623   3
 -11   2   6 966.732 507.049   3
 -11   2   7 6797.76 1008.02   3
 -10   1  -8-354.492 334.791   2
   9 -10  -8 618.529 408.260   4
 -10   1  -7 304.663 313.744   2
   9 -10  -7 754.864 423.929   4
 -10   1  -6 3062.29 657.099   2
   9 -10  -6 2166.34 550.746   4
 -10   1  -5 1323.21 429.692   2
   9 -10  -5 1149.69 382.740   4
 -10   1  -4 789.961 314.769   2
   9 -10  -4 377.727 249.365   4
 -10   1  -3 610.156 272.135   2
   9 -10  -3 599.744 320.172   4
   9 -10  -2 13505.9 968.571   4
 -10   1  -2 14796.9 885.150   1
 -10   1  -1 4968.96 536.773   1
 -10   1  -1 4152.61 182.334   4
 -10   1  -1 4138.04 189.189   4
   9 -10  -1 5222.16 582.840   4
   1   9  -1 5255.62 449.172   3
 -10   1   0 1280.82 302.921   1
 -10   1   0 830.423 136.378   4
   9 -10   0 1484.66 345.557   4
 -10   1   1 298.434 139.928   4
   9 -10   1 467.410 233.624   4
 -10   1   2 1830.32 452.110   3
   9 -10   2 1370.44 305.982   4
   9 -10   3 936.241 276.372   4
 -10   1   3 388.810 271.874   3
 -10   1   4 355.033 303.729   3
   9 -10   4 11.1337 163.193   4
 -10   1   5 2229.35 577.188   3
 -10   1   6 1352.49 518.510   3
 -10   1   7 2174.11 607.916   3
 -10   1   8 103.133 432.139   3
  -9   0  -8 28124.5 1924.47   2
   9  -9  -8 30186.0 1915.97   4
   9  -9  -7 1097.32 453.684   4
  -9   0  -7 1120.96 485.812   2
   9  -9  -6 4599.58 685.656   4
  -9   0  -6 4271.44 721.323   2
   9  -9  -5 2669.23 522.605   4
  -9   0  -5 2338.53 510.734   2
  -9   0  -4 48620.0 2058.83   2
   9  -9  -4 46737.1 1946.86   4
  -9   0  -3 526.215 242.595   2
   9  -9  -3 865.727 341.406   4
  -9   0  -2 13927.2 951.930   2
   9  -9  -2 15344.6 981.558   4
  -9   0  -2 13423.7 373.485   4
  -9   0  -1 6431.71 586.554   2
   0   9  -1 6881.44 505.115   3
   9  -9  -1 6728.09 617.209   4
  -9   0  -1 6446.52 351.755   4
  -9   0  -1 6772.60 634.693   1
   0   9   0 154292. 2004.86   3
   9  -9   0 153345. 2715.46   4
  -9   0   0 156531. 3046.70   1
  -9   0   1 7039.32 681.263   1
   9  -9   1 6600.48 562.652   4
  -9   0   2 14480.9 1107.40   3
   9  -9   2 14790.6 819.897   4
   9  -9   3 1153.65 270.806   4
  -9   0   3 1467.45 418.197   3
  -9   0   4 48343.6 2189.14   3
   9  -9   4 45435.9 1502.29   4
  -9   0   5 2410.14 584.953   3
  -9   0   6 6723.89 957.563   3
  -9   0   7 1485.05 493.297   3
  -9   0   8 32435.5 2134.02   3
  -8  -1  -8 1066.44 479.535   2
   9  -8  -7 3111.55 636.869   4
  -8  -1  -7 3010.59 669.391   2
   9  -8  -6 3921.44 654.376   4
  -8  -1  -6 4200.57 706.544   2
   9  -8  -5 2404.87 501.749   4
  -8  -1  -5 1293.18 445.212   2
  -8  -1  -4 863.487 163.120   4
   9  -8  -4 1383.87 367.678   4
  -8  -1  -4 363.337 276.548   2
  -8  -1  -3 86.7037 81.0580   4
  -8  -1  -3 59.9720 190.533   2
   9  -8  -3 231.014 243.916   4
  -8  -1  -2 6848.72 672.840   2
   9  -8  -2 6912.84 624.571   4
  -8  -1  -2 6971.49 397.070   4
  -1   9  -1 18391.0 822.792   3
  -8  -1  -1 18110.0 970.962   2
   9  -8  -1 19218.0 978.684   4
  -8  -1  -1 18469.9 711.963   4
  -8  -1  -1 18291.3 1033.09   1
  -1   9   0 12641.9 576.002   3
  -8  -1   0 12477.3 702.723   2
   9  -8   0 12282.3 722.293   4
  -8  -1   0 12649.5 897.571   1
  -8  -1   1 905.381 320.876   3
  -8  -1   1 643.684 159.736   2
  -8  -1   1 991.310 311.591   1
   9  -8   1 770.910 207.978   4
  -1   9   1 901.314 127.421   3
   9  -8   2 361.302 161.850   4
  -8  -1   2 434.128 241.606   3
  -8  -1   3 848.619 326.013   3
   9  -8   3 1031.02 229.665   4
  -8  -1   4 1800.03 480.020   3
   9  -8   4 1251.23 251.110   4
  -8  -1   5 11254.5 1107.80   3
  -8  -1   6-219.107 407.557   3
  -8  -1   7 1904.87 596.726   3
  -8  -1   8 2576.17 678.939   3
  -7  -2  -8-260.771 432.219   2
  -7  -2  -7 369.773 301.692   2
  -7  -2  -6 192.314 147.083   4
  -7  -2  -6 293.377 316.334   2
   9  -7  -5 1732.14 416.907   4
  -7  -2  -5 2684.56 353.349   4
  -7  -2  -5 1689.75 467.066   2
   9  -7  -4 271.645 206.478   4
  -7  -2  -4 355.046 159.821   4
  -7  -2  -4 340.652 272.157   2
   9  -7  -3 432.226 253.226   4
  -7  -2  -3 188.523 125.603   4
  -7  -2  -3 51.4075 235.045   2
  -7  -2  -2 4863.79 392.924   4
   9  -7  -2 4878.30 513.603   4
  -7  -2  -2 4251.13 533.885   2
  -2   9  -1 7894.86 563.026   3
  -7  -2  -1 8877.74 693.283   2
   9  -7  -1 8191.87 592.786   4
  -7  -2  -1 7775.54 525.062   4
  -2   9   0 0.74428 108.399   3
   9  -7   0-62.2263 53.0174   1
  -7  -2   0 173.402 185.478   1
   9  -7   0 24.4978 97.5740   4
  -7  -2   0-48.1156 111.329   2
  -7  -2   1 342.148 235.981   1
  -2   9   1 381.290 108.794   3
   9  -7   1 268.731 120.117   4
  -7  -2   1 206.290 124.421   2
  -7  -2   1 119.001 191.509   3
  -7  -2   2 783.485 113.645   2
  -7  -2   2 957.250 316.682   1
   9  -7   2 1066.88 195.106   4
  -7  -2   2 1139.41 317.590   3
   9  -7   3 6578.73 434.938   4
  -7  -2   3 6786.29 756.697   3
  -7  -2   4 113.951 206.333   3
   9  -7   4 103.871 131.549   4
  -7  -2   5 1954.68 505.555   3
  -7  -2   6 1113.94 416.564   3
  -7  -2   7 5593.61 846.819   3
  -7  -2   8 802.544 430.697   3
  -6  -3  -9 690.583 496.244   2
  -6  -3  -8 14558.1 1384.00   2
  -6  -3  -7 1708.67 368.313   4
  -6  -3  -7 2009.11 531.269   2
  -6  -3  -6 22016.2 1543.44   2
  -6  -3  -6 21394.9 1078.29   4
  -6  -3  -5 6681.96 574.895   4
  -6  -3  -5 6497.68 824.728   2
   9  -6  -4 59591.4 1979.53   4
  -6  -3  -4 58552.1 2217.85   2
  -6  -3  -4 59485.4 1574.81   4
  -6  -3  -3 6195.02 697.266   2
   9  -6  -3 6350.06 609.040   4
  -6  -3  -3 6156.97 502.496   4
   9  -6  -2 16146.3 858.738   4
  -6  -3  -2 17014.0 1049.33   2
  -6  -3  -2 14457.7 730.005   4
  -3   9  -1 7097.26 527.751   3
   9  -6  -1 7921.74 543.678   4
  -6  -3  -1 7423.20 638.155   2
  -6  -3  -1 7869.01 565.569   4
  -3   9   0 116643. 1945.73   3
  -6  -3   0 114979. 2449.34   3
   9  -6   0 117106. 1806.83   4
  -6  -3   0 113826. 2180.95   2
  -6  -3   0 117848. 2727.36   1
   9  -6   0 110382. 1420.82   1
  -6  -3   1 302.938 215.863   1
  -6  -3   1 145.437 106.827   2
   9  -6   1 389.947 116.432   4
  -3   9   1 254.771 92.8500   3
  -6  -3   1 480.729 200.827   3
  -6  -3   2 31143.6 1509.73   1
  -6  -3   2 33635.3 1504.09   3
  -6  -3   2 32245.1 820.611   2
   9  -6   2 31514.8 737.931   4
  -3   9   2 30408.8 699.773   3
  -6  -3   3 9837.48 885.219   3
   9  -6   3 8972.50 398.727   4
  -6  -3   4 64412.5 2366.97   3
   9  -6   4 61684.3 1188.87   4
  -6  -3   5 5332.05 755.542   3
  -6  -3   6 16995.1 1376.94   3
  -6  -3   7 8378.24 1037.41   3
  -6  -3   8 26609.3 1860.54   3
  -6  -3   9-118.826 341.310   3
  -5  -4  -9 624.136 486.329   2
  -5  -4  -8 535.803 291.804   4
  -5  -4  -8 274.892 352.061   2
  -5  -4  -7 576.482 283.538   4
  -5  -4  -7 394.738 325.124   2
  -5  -4  -6 1260.22 441.935   2
  -5  -4  -6 1590.62 340.160   4
  -5  -4  -5 608.804 289.024   2
  -5  -4  -5 1787.39 357.809   4
  -5  -4  -4 3353.36 573.923   2
  -5  -4  -4 2597.04 373.265   4
  -5  -4  -3 435.078 316.369   2
  -5  -4  -3-98.7364 124.119   4
  -5  -4  -2 1985.69 394.019   2
  -5  -4  -2 2262.81 333.380   4
   9  -5  -1 3523.01 346.929   4
  -4   9  -1 3323.10 388.715   3
   9  -5  -1 3312.58 329.556   1
  -5  -4  -1 3384.25 407.261   4
  -5  -4  -1 3497.64 389.703   3
  -4   9   0 41.3566 93.6691   3
   9  -5   0 28.6286 74.7243   4
  -5  -4   0-67.0359 139.967   3
   9  -5   1 4679.30 244.240   4
  -5  -4   1 4839.19 588.696   1
  -5  -4   1 5098.34 534.109   3
  -5  -4   2 394.580 243.839   3
  -5  -4   2 140.704 187.525   1
  -5  -4   3 9127.12 838.987   3
  -4   9   3 9850.59 482.878   3
  -5  -4   3 10905.7 942.970   1
  -5  -4   4 2476.17 196.653   2
   9  -5   4 2509.00 187.129   4
   9  -5   4 2516.56 192.691   4
  -5  -4   4 2659.18 512.886   3
  -4   9   4 2779.14 260.293   3
  -4   9   5 522.822 150.167   3
  -5  -4   5 764.036 358.036   3
  -5  -4   6 7950.78 952.953   3
  -5  -4   7 2496.74 589.761   3
  -5  -4   8 942.871 495.658   3
  -5  -4   9 728.858 537.558   3
  -4  -5  -9 1406.14 433.645   4
  -4  -5  -9 994.122 502.609   2
  -4  -5  -8 977.409 379.359   4
  -4  -5  -8 459.293 374.936   2
  -4  -5  -7 155.877 280.675   2
  -4  -5  -7-9.68838 190.770   4
  -4  -5  -6 1699.78 503.241   2
  -4  -5  -6 1693.19 391.677   4
  -4  -5  -5 1629.80 416.684   2
  -4  -5  -5 1496.71 346.649   4
  -4  -5  -4 2432.81 243.960   3
  -4  -5  -4 1962.87 387.655   2
  -4  -5  -4 2782.84 434.845   4
  -4  -5  -3-282.348 198.164   4
  -4  -5  -2 2193.38 354.967   4
  -4  -5  -2 1691.36 228.336   3
   9  -4  -1 3492.22 363.245   2
   9  -4  -1 3537.59 351.516   1
  -4  -5  -1 3280.43 335.800   3
  -4  -5  -1 3633.20 441.016   4
   9  -4   0 38.9996 124.780   2
  -4  -5   0-195.587 141.084   3
  -4  -5   1 5545.18 552.733   3
  -4  -5   1 5943.53 661.043   1
  -4  -5   2-260.873 256.062   1
  -4  -5   2 281.775 176.818   3
  -4  -5   3 9516.57 857.432   3
  -4  -5   3 11144.9 931.773   1
  -4  -5   4 3175.51 564.189   3
  -5   9   4 2943.24 332.169   3
  -4  -5   5 702.319 335.319   3
  -5   9   5 157.896 128.315   3
  -5   9   6 7743.04 588.904   3
  -4  -5   6 7706.67 914.303   3
  -4  -5   7 2828.26 642.030   3
  -4  -5   8 1559.11 510.240   3
  -4  -5   9-264.928 333.653   3
  -3  -6  -9 1625.74 571.849   2
  -3  -6  -9 661.576 327.888   4
  -3  -6  -8 15295.6 1221.30   4
  -3  -6  -8 15943.4 1446.15   2
  -3  -6  -7 1135.15 470.536   2
  -3  -6  -7 2486.92 489.175   4
  -3  -6  -6 19107.3 1241.35   4
  -3  -6  -6 19168.2 1458.56   2
  -3  -6  -5 7021.76 716.115   4
  -3  -6  -5 7633.92 898.452   2
  -3  -6  -4 48120.3 722.324   3
   9  -3  -4 48066.1 752.255   2
  -3  -6  -4 57277.8 1907.90   4
   9  -3  -3 5691.33 313.955   2
  -3  -6  -3 5020.27 262.939   3
  -3  -6  -3 5924.18 610.207   4
  -3  -6  -2 14650.7 524.214   3
   9  -3  -2 15003.3 594.106   2
  -3  -6  -2 15597.7 950.309   4
  -3  -6  -1 6972.78 447.160   3
   9  -3  -1 7334.19 481.921   2
  -3  -6  -1 7026.32 650.704   4
   9  -3  -1 8276.21 545.135   1
  -3  -6   0 113250. 2084.58   3
   9  -3   0 113238. 2039.01   2
  -3  -6   0 111098. 2571.29   4
  -3  -6   1 342.938 248.270   1
  -3  -6   1 78.8315 125.940   3
  -3  -6   2 31549.5 1375.60   3
  -3  -6   2 30626.7 1510.25   1
  -3  -6   3 10216.9 851.560   3
  -3  -6   3 9080.14 854.106   1
  -3  -6   4 65178.3 2300.65   3
  -6   9   4 65250.0 1737.37   3
  -6   9   5 5757.74 554.386   3
  -3  -6   5 5361.16 744.061   3
  -3  -6   6 17345.5 1373.07   3
  -6   9   6 17966.3 990.757   3
  -3  -6   7 6306.01 883.763   3
  -3  -6   8 24220.8 1783.19   3
  -3  -6   9 68.0922 381.033   3
  -2  -7  -8 368.349 385.003   2
  -2  -7  -8 354.152 304.670   4
  -2  -7  -7 89.6401 325.640   2
  -2  -7  -7 135.990 265.240   4
  -2  -7  -6 522.165 354.990   2
  -2  -7  -6 307.705 280.501   4
  -2  -7  -5 2032.28 422.965   4
  -2  -7  -4 237.585 225.999   4
  -2  -7  -3-115.917 200.561   4
   9  -2  -2 4605.34 294.731   2
  -2  -7  -2 5793.55 611.495   4
  -2  -7  -1 7942.25 413.694   3
   9  -2  -1 7858.48 475.298   2
  -2  -7  -1 8498.43 752.686   4
   9  -2   0 43.6880 100.210   2
  -2  -7   0-8.15240 97.4079   3
  -2  -7   0 45.6425 169.207   4
  -2  -7   1 424.374 208.619   3
  -2  -7   1 493.421 280.423   1
  -2  -7   2 888.105 261.687   3
  -2  -7   2 1169.13 314.447   1
  -2  -7   3 6422.77 726.816   1
  -2  -7   3 6629.33 681.371   3
  -2  -7   4 204.069 236.117   3
  -7   9   4 33.9812 149.508   3
  -2  -7   5 2254.46 503.158   3
  -7   9   5 2049.40 394.451   3
  -2  -7   6 1334.17 417.948   3
  -7   9   6 1751.80 385.211   3
  -2  -7   7 4799.94 801.721   3
  -7   9   7 5706.56 656.237   3
  -2  -7   8 211.193 420.297   3
  -1  -8  -8 629.966 414.367   2
  -1  -8  -8 554.364 453.097   4
  -1  -8  -7 2694.90 636.864   2
  -1  -8  -7 2437.71 535.341   4
  -1  -8  -6 4177.90 654.182   4
  -1  -8  -5 1370.99 361.179   4
  -1  -8  -4 875.117 333.978   4
  -1  -8  -3 22.5122 170.997   4
  -1  -8  -2 7116.06 724.023   4
  -1  -8  -1 17598.2 1130.26   4
  -1  -8   0 11893.2 945.042   4
  -1  -8   0 13006.2 639.715   3
  -1  -8   1 909.400 208.597   3
  -1  -8   2 46.0285 163.044   3
  -1  -8   2 267.462 211.962   1
  -1  -8   3 820.427 306.505   3
  -1  -8   3 1333.74 364.577   1
  -8   9   4 1344.51 306.387   3
  -1  -8   4 1009.13 320.978   3
  -8   9   5 12809.4 951.408   3
  -1  -8   5 12309.5 1098.48   3
  -1  -8   6 241.602 264.714   3
  -8   9   6 63.3209 208.201   3
  -1  -8   7 1472.44 479.240   3
  -8   9   7 2187.25 467.203   3
  -1  -8   8 1872.10 574.941   3
   0  -9  -8 28347.5 1763.93   4
   0  -9  -8 27017.8 1942.86   2
   0  -9  -7 1088.33 372.298   4
   0  -9  -6 4824.10 748.521   4
   0  -9  -5 2383.48 505.533   4
   0  -9  -4 45737.0 1967.37   4
   0  -9  -3 951.540 320.497   4
   0  -9  -2 13696.0 1018.10   4
   0  -9  -1 6155.30 712.843   4
   0  -9   0 156132. 3453.06   4
   0  -9   1 6236.82 724.041   4
   0  -9   1 6453.21 547.971   3
   0  -9   2 15205.8 1090.96   1
   0  -9   2 13681.8 898.038   3
   0  -9   3 1238.59 343.789   3
   0  -9   3 1307.40 373.857   1
   0  -9   4 44404.8 1958.03   1
  -9   9   4 45983.0 1899.83   3
   0  -9   4 43735.5 1926.22   3
   0  -9   5 1927.52 460.198   3
  -9   9   5 1860.21 416.629   3
   0  -9   6 4912.23 780.081   3
  -9   9   6 4704.20 657.421   3
   0  -9   7 1226.39 501.091   3
  -9   9   7 857.921 356.131   3
  -9   9   8 30061.4 1702.47   3
   0  -9   8 29018.4 1957.65   3
   1 -10  -8-93.1626 299.388   4
   1 -10  -7 338.808 386.697   4
   1 -10  -6 3928.96 690.556   4
   1 -10  -5 1350.83 413.284   4
   1 -10  -4 769.639 339.333   4
   1 -10  -3 550.311 329.444   4
   1 -10  -2 13282.4 1064.14   4
   1 -10  -1 6917.33 778.758   4
   1 -10   0 1471.80 427.062   4
   1 -10   1 539.326 307.870   4
   1 -10   2 1613.33 417.016   1
   1 -10   3 1147.76 362.029   1
   1 -10   3 616.955 273.282   3
 -10   9   4-21.9056 248.901   3
   1 -10   4 140.691 293.953   3
   1 -10   4 119.473 209.277   1
   1 -10   5 2852.07 572.560   3
 -10   9   5 1803.70 452.509   3
   1 -10   6 632.929 248.285   3
 -10   9   6 936.892 366.839   3
   1 -10   7 1585.00 492.760   3
 -10   9   7 2434.01 552.950   3
   1 -10   8 1383.07 549.385   3
 -10   9   8 0.54420 324.021   3
   2 -11  -7 1588.31 534.592   4
   2 -11  -6-326.426 338.966   4
   2 -11  -5 7267.10 891.279   4
   2 -11  -4 1716.89 467.757   4
   2 -11  -3 1293.18 410.213   4
   2 -11  -2 378.974 292.281   4
   2 -11  -1 9855.91 922.809   4
   2 -11   0 5233.69 715.604   4
   2 -11   1 5150.68 705.684   4
   2 -11   2 2124.47 450.197   1
   2 -11   2 1676.80 438.364   4
   2 -11   3 3157.69 549.401   1
 -11   9   4 1559.56 432.274   3
   2 -11   4 3134.52 548.743   1
 -11   9   5 536.666 361.533   3
 -11   9   6 485.320 371.162   3
 -11   9   7 4162.45 736.560   3
   3 -12  -7 1381.43 463.636   4
   3 -12  -6 7978.45 995.300   4
   3 -12  -5 1475.30 481.760   4
   3 -12  -4 44028.0 2137.77   4
   3 -12  -3 15247.0 1247.36   4
   3 -12  -2 9338.12 955.349   4
   3 -12  -1 3383.87 615.697   4
   3 -12   0 39072.5 1923.51   4
   3 -12   1 2128.25 513.766   4
   3 -12   2 25712.0 1584.13   4
   3 -12   2 22917.3 1363.02   1
   3 -12   3-154.268 239.795   1
   3 -12   4 33249.1 1668.17   1
 -12   9   4 34836.1 1915.94   3
 -12   9   5 2321.19 597.217   3
 -12   9   6 1975.38 549.755   3
 -12   9   7 2693.16 641.622   3
   4 -13  -6 344.306 326.950   4
   4 -13  -5 168.991 351.029   4
   4 -13  -4 1205.16 443.511   4
   4 -13  -3 382.922 417.422   4
   4 -13  -2 5757.06 786.949   4
   4 -13  -1 3658.56 662.231   4
   4 -13   0 366.978 297.386   4
   4 -13   1 4117.97 696.016   4
   4 -13   2 2822.49 516.286   1
   4 -13   2 2562.54 573.516   4
   4 -13   3 671.565 320.090   1
   4 -13   3-143.005 303.119   4
 -13   9   4 605.393 435.818   3
   4 -13   4 67.9488 223.608   1
 -13   9   5 156.985 353.140   3
 -13   9   6 6175.39 928.801   3
   5 -14  -5 2725.62 663.038   4
   5 -14  -4 2331.28 591.560   4
   5 -14  -3 1411.79 433.538   4
   5 -14  -2 1455.81 477.123   4
   5 -14  -1 494.390 316.962   4
   5 -14   0 4474.18 745.788   4
   5 -14   1 1135.07 438.209   4
   5 -14   2 5.39695 215.044   1
   5 -14   2 20.4975 285.092   4
   5 -14   3 8542.82 1007.73   4
   5 -14   3 8653.20 853.817   1
 -14   9   4 5654.55 871.987   3
   5 -14   4 5857.74 863.760   4
 -14   9   5 489.435 451.223   3
   6 -15  -4 25180.0 1747.92   4
   6 -15  -3 1532.65 546.085   4
   6 -15  -2 5321.65 814.683   4
   6 -15  -1 4274.70 738.953   4
   6 -15   0 29338.1 1767.11   4
   6 -15   1 7343.66 806.148   1
   6 -15   1 9414.56 1033.93   4
   6 -15   2 5338.83 803.643   4
   6 -15   3 1831.96 517.707   4
 -15   9   4 13604.0 1352.54   3
   6 -15   4 11855.0 1237.41   4
   7 -16  -2 4659.02 786.922   4
   7 -16  -1 3809.85 705.173   4
   7 -16   0 2666.48 611.228   4
   7 -16   1 989.775 441.615   4
   7 -16   2 2158.87 548.482   4
  10 -16  -1 847.559 416.570   4
  10 -16   0 283.874 279.620   4
  10 -16   1 1238.39 362.295   4
  10 -15  -4 707.120 384.477   4
  10 -15  -3 7405.20 921.493   4
  10 -15  -2-327.506 389.549   4
  10 -15  -1-371.956 288.222   4
  10 -15   0 1248.06 402.283   4
  10 -15   1 4883.82 693.851   4
  10 -15   2-331.891 284.986   4
  10 -15   3 1341.31 432.999   4
 -15   5   3-138.960 363.755   3
  10 -15   4 246.625 310.337   4
 -15   5   4 182.687 391.358   3
  10 -14  -5 19490.8 1504.83   4
  10 -14  -4 2411.23 611.364   4
  10 -14  -3 2441.75 568.877   4
  10 -14  -2 16507.9 1253.25   4
  10 -14  -1 28386.8 1598.16   4
  10 -14   0 77.7279 240.953   4
  10 -14   1 12611.9 1051.98   4
  10 -14   2 11199.9 956.837   4
 -14   4   3 24395.9 1747.69   3
  10 -14   3 22180.6 1369.58   4
  10 -14   4 793.350 324.391   4
 -14   4   4 705.234 388.505   3
 -14   4   5 1905.25 587.359   3
  10 -14   5 1475.29 408.558   4
  10 -13  -6 3319.49 642.278   4
  10 -13  -5 280.584 298.758   4
  10 -13  -4 469.817 329.110   4
  10 -13  -3 2777.06 573.160   4
  10 -13  -2 6051.42 745.982   4
  10 -13  -1 906.710 326.806   4
  10 -13   0 210.046 210.968   4
  10 -13   1 4392.13 610.100   4
 -13   3   2 1680.86 562.059   3
  10 -13   2 813.317 315.613   4
  10 -13   3 3685.92 568.651   4
 -13   3   3 3759.04 720.735   3
  10 -13   4 494.400 265.209   4
 -13   3   4 56.8678 319.068   3
 -13   3   5-251.665 400.745   3
  10 -13   5-68.9397 232.296   4
 -13   3   6 1622.94 529.857   3
  10 -12  -6 328.432 303.531   4
  10 -12  -5 907.045 455.547   4
  10 -12  -4 4105.42 674.251   4
  10 -12  -3 5862.22 750.609   4
 -12   2  -3 4135.33 474.623   1
  10 -12  -2 1742.84 451.806   4
 -12   2  -2 1720.79 321.539   1
 -12   2  -1 1960.80 352.690   1
  10 -12  -1 1542.01 343.734   4
  10 -12   0 1556.14 362.192   4
  10 -12   1 193.217 221.977   4
 -12   2   2 567.942 356.806   3
  10 -12   2-193.542 209.810   4
  10 -12   3 1951.20 395.463   4
 -12   2   3 2063.12 534.812   3
  10 -12   4 84.2804 184.694   4
 -12   2   4 705.953 328.512   3
 -12   2   5 7093.97 979.580   3
  10 -12   5 5959.50 700.820   4
 -12   2   6 2891.89 676.707   3
 -11   1  -7 7871.11 1008.26   2
  10 -11  -7 8952.59 1071.14   4
 -11   1  -6 9977.28 1113.25   2
  10 -11  -6 9676.84 1047.62   4
 -11   1  -5 48389.3 2239.84   2
  10 -11  -5 48157.0 2180.40   4
 -11   1  -4-212.220 310.687   2
  10 -11  -4 199.744 313.655   4
 -11   1  -3 2761.85 414.853   1
  10 -11  -3 2597.30 503.675   4
  10 -11  -2 40722.9 1730.35   4
 -11   1  -2 40411.7 1522.47   1
  10 -11  -1 40156.3 1646.41   4
 -11   1  -1 41309.5 1573.65   1
  10 -11   0 3825.32 517.719   4
 -11   1   0 2943.52 464.908   1
  10 -11   1 37217.0 1471.05   4
 -11   1   2 9498.92 990.217   3
  10 -11   2 8751.74 728.094   4
 -11   1   3 20609.5 1469.20   3
  10 -11   3 16622.9 983.420   4
 -11   1   4 923.608 451.440   3
  10 -11   4 777.893 281.852   4
 -11   1   5 6547.97 953.673   3
  10 -11   5 4368.74 550.887   4
 -11   1   6 12773.9 1291.11   3
 -11   1   7 30050.9 2043.65   3
  10 -10  -7 2252.54 586.705   4
 -10   0  -7 3069.50 663.865   2
  10 -10  -6 4343.05 688.620   4
 -10   0  -6 4809.47 744.086   2
 -10   0  -5 334.374 349.445   2
  10 -10  -5 248.773 288.770   4
 -10   0  -4 662.045 339.452   2
  10 -10  -4 530.908 245.458   4
 -10   0  -3-217.378 235.724   2
  10 -10  -3 55.7003 204.806   4
 -10   0  -2 4255.14 536.533   1
 -10   0  -2 4548.16 570.903   2
  10 -10  -2 3849.46 547.336   4
 -10   0  -1 763.824 261.104   1
 -10   0  -1 473.574 249.852   2
  10 -10  -1 647.010 236.841   4
 -10   0  -1 299.682 97.4861   4
 -10   0   0 2061.00 412.528   1
  10 -10   0 1782.13 366.859   4
 -10   0   1 425.978 302.474   3
  10 -10   1 224.440 180.422   4
  10 -10   2 4587.57 497.122   4
 -10   0   2 3892.62 639.234   3
  10 -10   3 241.287 170.473   4
 -10   0   3 278.964 274.085   3
 -10   0   4 130.425 322.098   3
  10 -10   4 389.650 236.949   4
 -10   0   5 693.001 385.861   3
  10 -10   5 751.754 255.704   4
 -10   0   6 5078.68 861.904   3
 -10   0   7 2052.69 685.427   3
  -9  -1  -8 63.1446 398.277   2
  10  -9  -7 2523.35 592.629   4
  -9  -1  -7 2655.27 677.844   2
  10  -9  -6 1296.82 465.924   4
  -9  -1  -6 460.188 273.152   2
  10  -9  -5 2156.56 488.272   4
  -9  -1  -5 2852.47 600.948   2
  10  -9  -4-148.841 237.178   4
  -9  -1  -4-407.716 284.073   2
  10  -9  -3 573.254 244.543   4
  -9  -1  -3 1368.81 386.701   2
  10  -9  -2 1313.73 327.121   4
  -9  -1  -2 1314.77 334.422   2
  -9  -1  -2 1442.74 181.587   4
  -9  -1  -1 324.091 246.072   1
  -9  -1  -1 441.064 224.963   2
  10  -9  -1 322.910 186.087   4
  -1  10  -1 269.038 151.368   3
  -9  -1  -1 194.716 132.419   4
  -9  -1   0 1095.84 321.030   1
  -9  -1   0 1193.03 230.603   2
  10  -9   0 1116.38 268.598   4
  -1  10   0 938.121 187.840   3
  -1  10   1 4748.91 275.444   3
  10  -9   1 5663.79 496.523   4
  -9  -1   1 5628.03 675.429   1
  -9  -1   1 6056.74 716.580   3
  -9  -1   2 14804.2 1124.83   3
  10  -9   2 13198.4 729.360   4
  10  -9   3 825.994 225.082   4
  -9  -1   3 934.021 393.622   3
  -9  -1   4-72.3019 309.802   3
  10  -9   4 398.171 176.105   4
  -9  -1   5 1197.61 479.391   3
  10  -9   5 1747.32 319.454   4
  -9  -1   6 2572.68 606.223   3
  -9  -1   7 254.531 328.701   3
  -9  -1   8 727.464 520.894   3
  -8  -2  -8 124.173 342.255   2
  -8  -2  -7 15607.1 1416.07   2
  10  -8  -6 9942.14 977.885   4
  -8  -2  -6 9286.14 1061.65   2
  -8  -2  -5 41258.1 2029.12   2
  10  -8  -5 40352.6 1847.20   4
  10  -8  -4 1748.49 416.082   4
  -8  -2  -4 1316.15 210.664   4
  -8  -2  -4 1908.07 460.668   2
  -8  -2  -3 12998.2 1016.75   2
  10  -8  -3 13655.3 938.631   4
  -8  -2  -3 13118.7 624.036   4
  -8  -2  -2 33849.8 1503.89   2
  10  -8  -2 32234.8 1327.55   4
  -8  -2  -2 32660.8 997.563   4
  -2  10  -1 70982.7 1683.71   3
  -8  -2  -1 74774.9 2028.61   2
  10  -8  -1 74375.8 1856.99   4
  -8  -2  -1 72016.3 1595.02   4
  -8  -2  -1 74315.7 2219.54   1
  -8  -2   0 562.810 276.258   3
  -2  10   0 443.904 143.352   3
  10  -8   0 356.772 188.266   4
  -8  -2   0 224.220 159.313   2
  -8  -2   0 474.056 267.827   1
  10  -8   0 136.966 75.8007   1
  -2  10   1 5770.25 333.497   3
  -8  -2   1 6375.51 452.967   2
  -8  -2   1 6530.02 707.867   3
  10  -8   1 6103.71 460.546   4
  -8  -2   1 5977.18 674.464   1
  -8  -2   2 26636.0 1462.87   3
  -8  -2   2 27615.4 1499.10   1
  10  -8   2 26860.2 909.119   4
  -8  -2   3 51626.3 2138.13   3
  10  -8   3 47102.1 1171.17   4
  -8  -2   4 299.844 273.152   3
  10  -8   4 41.3932 118.847   4
  -8  -2   5 15111.5 1286.67   3
  -8  -2   6 10230.7 1123.16   3
  -8  -2   7 20998.4 1667.68   3
  -8  -2   8 276.128 348.840   3
  -7  -3  -8 239.506 416.195   2
  -7  -3  -7 932.172 437.296   2
  -7  -3  -6 3280.99 445.955   4
  -7  -3  -6 3646.89 688.062   2
  -7  -3  -5 2362.53 349.395   4
  -7  -3  -5 3413.59 644.468   2
  10  -7  -4 208.616 242.053   4
  -7  -3  -4 169.661 139.472   4
  -7  -3  -4 305.518 231.600   2
  10  -7  -3 3178.58 452.331   4
  -7  -3  -3 2983.87 348.690   4
  -7  -3  -3 4160.21 602.649   2
  -7  -3  -2 7328.06 721.466   2
  10  -7  -2 7425.43 614.522   4
  -7  -3  -2 6541.97 516.673   4
  -7  -3  -1 32.1484 217.316   2
  -3  10  -1-41.1752 145.559   3
  10  -7  -1 158.810 122.650   4
  -7  -3  -1 293.317 180.654   4
  -7  -3   0 243.991 167.922   2
  -3  10   0 99.8829 118.296   3
  10  -7   0 169.440 87.8924   1
  -7  -3   0 131.608 223.821   1
  10  -7   0 132.878 128.009   4
  -7  -3   0 319.657 223.176   3
  -7  -3   1-28.0124 198.974   1
  -3  10   1 178.828 101.196   3
  10  -7   1 169.078 117.595   4
  -7  -3   1 184.551 218.085   3
  -7  -3   1 233.628 172.852   2
  -3  10   2 14148.4 437.435   3
  -7  -3   2 16408.5 1149.39   1
  -7  -3   2 15312.3 1078.54   3
  -7  -3   2 15825.4 576.099   2
  10  -7   2 15538.2 569.091   4
  -7  -3   3-13.6236 204.471   3
  10  -7   3 252.225 85.5234   4
  -7  -3   4 1390.20 433.395   3
  10  -7   4 1594.81 198.469   4
  -7  -3   5-23.3045 258.035   3
  -7  -3   6 713.031 401.896   3
  -7  -3   7 1394.70 541.408   3
  -7  -3   8 1334.60 518.577   3
  -6  -4  -8 540.100 428.738   2
  -6  -4  -7 1831.97 395.401   4
  -6  -4  -7 1773.64 544.368   2
  -6  -4  -6 1600.10 360.120   4
  -6  -4  -6 2663.29 617.556   2
  -6  -4  -5 236.549 317.270   2
  -6  -4  -5 119.606 203.409   4
  -6  -4  -4 1301.63 402.796   2
  -6  -4  -4 905.536 256.805   4
  -6  -4  -3 6463.02 735.991   2
  -6  -4  -3 7743.90 620.483   4
  10  -6  -2 10824.7 707.673   4
  -6  -4  -2 14358.3 1003.51   2
  -6  -4  -2 11227.6 730.820   4
  10  -6  -1 1815.58 243.303   1
  -6  -4  -1 2061.68 392.378   2
  10  -6  -1 1503.00 248.398   4
  -6  -4  -1 1125.26 255.448   4
  -6  -4  -1 1177.88 279.383   3
  -6  -4   0 394.766 227.861   1
  -4  10   0 213.680 148.337   3
  -6  -4   0 70.1494 173.900   2
  10  -6   0 112.292 82.0896   4
  -6  -4   0 335.909 205.025   3
  -6  -4   1 5641.65 614.816   3
  10  -6   1 5892.69 324.393   4
  -6  -4   1 5244.74 652.870   1
  -4  10   1 5854.13 425.167   3
  -6  -4   2 258.109 259.493   1
  -4  10   2 199.040 100.707   3
  10  -6   2 93.7030 47.9487   4
  -6  -4   2 116.944 178.782   3
  -6  -4   3 2111.77 455.076   3
  -4  10   3 1910.23 198.340   3
  -6  -4   4 1729.20 444.968   3
  -6  -4   5 481.451 275.440   3
  -6  -4   6 886.286 404.253   3
  -6  -4   7 2418.10 579.526   3
  -6  -4   8 3.88385 325.121   3
  -5  -5  -8 2662.48 507.282   4
  -5  -5  -8 1475.79 555.648   2
  -5  -5  -7 15438.3 1399.06   2
  -5  -5  -7 14623.4 1042.73   4
  -5  -5  -6 9781.17 1075.17   2
  -5  -5  -6 11051.7 884.176   4
  -5  -5  -5 29941.2 1769.04   2
  -5  -5  -5 32878.1 1416.02   4
  -5  -5  -4 4220.37 653.677   2
  -5  -5  -4 3896.10 492.324   4
  -5  -5  -3 13905.5 1083.53   2
  -5  -5  -3 13018.3 849.746   4
  -5  -5  -2 42354.9 1233.41   3
  -5  -5  -2 39624.3 1442.95   4
  -5  -5  -1 75255.0 1755.33   3
  -5  -5  -1 73144.5 1989.29   4
  10  -5  -1 71750.1 1517.22   1
  -5  10   0 3093.95 371.554   3
  -5  -5   0 2630.02 385.294   3
  -5  -5   1 26810.6 1239.09   3
  -5  -5   1 28722.7 1486.74   1
  -5  -5   2 1147.46 329.031   1
  -5  -5   2 1146.37 293.969   3
  -5  -5   3 66761.1 2294.71   3
  -5  -5   3 63480.7 2341.46   1
  -5  -5   4 294.959 232.335   3
  -5  10   4 675.147 169.427   3
  -5  -5   5 3023.31 589.593   3
  -5  -5   6 39559.9 2087.10   3
  -5  -5   7 25966.1 1783.69   3
  -5  -5   8 392.844 432.096   3
  -4  -6  -8 1647.30 629.649   2
  -4  -6  -8 539.252 341.087   4
  -4  -6  -7 2156.76 555.740   2
  -4  -6  -7 2227.06 496.365   4
  -4  -6  -6 1939.82 551.434   2
  -4  -6  -6 2297.61 437.135   4
  -4  -6  -5 330.730 279.583   2
  -4  -6  -5 401.709 245.452   4
  -4  -6  -4 771.908 264.546   4
  10  -4  -3 6351.09 390.560   2
  -4  -6  -3 6626.17 381.770   3
  -4  -6  -3 6357.28 646.700   4
  10  -4  -2 10330.9 556.919   2
  -4  -6  -2 10798.7 542.007   3
  -4  -6  -2 12543.5 868.858   4
  10  -4  -1 1444.46 242.784   2
  10  -4  -1 1340.23 229.442   1
  -4  -6  -1 1710.96 251.858   3
  -4  -6  -1 1797.66 349.692   4
  -4  -6   0 80.7272 155.865   3
  -4  -6   0 160.207 181.124   4
  -4  -6   1 6456.50 597.956   3
  -4  -6   1 6711.05 747.120   1
  -4  -6   2-47.9066 191.209   1
  -4  -6   2-35.9425 206.294   3
  -4  -6   3 2061.72 455.372   3
  -4  -6   3 2262.92 481.366   1
  -4  -6   4 1845.46 451.458   3
  -6  10   4 1943.14 303.549   3
  -4  -6   5 582.419 279.583   3
  -6  10   5 184.831 146.064   3
  -4  -6   6 1492.71 458.113   3
  -4  -6   7 1287.52 485.874   3
  -4  -6   8-20.6446 404.627   3
  -3  -7  -8 179.749 318.682   2
  -3  -7  -8-223.759 294.031   4
  -3  -7  -7-254.105 351.804   2
  -3  -7  -7 326.473 237.906   4
  -3  -7  -6 3200.01 628.579   2
  -3  -7  -6 3355.23 528.401   4
  -3  -7  -5 2277.12 455.252   4
  -3  -7  -4 553.522 267.715   4
  -3  -7  -3 2911.96 491.294   4
  -3  -7  -2 6684.31 342.458   3
  10  -3  -2 7144.32 418.043   2
  -3  -7  -2 7360.68 696.812   4
  -3  -7  -1 106.104 92.7736   3
  10  -3  -1 122.668 104.047   2
  -3  -7  -1 208.827 205.067   4
  -3  -7   0 187.534 164.978   3
  10  -3   0 66.2184 119.021   2
  -3  -7   0-176.922 200.840   4
  -3  -7   1 252.761 203.499   1
  -3  -7   1-50.8360 167.695   3
  -3  -7   2 15189.5 978.498   3
  -3  -7   2 17836.8 1221.50   1
  -3  -7   3 610.659 252.752   1
  -3  -7   3 306.662 257.623   3
  -3  -7   4 2228.44 497.940   3
  -7  10   4 1489.83 317.588   3
  -3  -7   5 545.366 334.587   3
  -7  10   5 761.557 231.146   3
  -3  -7   6 1400.08 433.396   3
  -7  10   6 1306.40 311.333   3
  -3  -7   7 529.927 348.939   3
  -3  -7   8 1774.16 676.552   3
  -2  -8  -8 762.203 483.763   2
  -2  -8  -8 408.668 294.383   4
  -2  -8  -7 15171.8 1416.57   2
  -2  -8  -7 16603.0 1261.60   4
  -2  -8  -6 9331.20 934.246   4
  -2  -8  -5 37946.6 1787.67   4
  -2  -8  -4 2275.23 451.853   4
  -2  -8  -3 13869.8 1012.80   4
  -2  -8  -2 30969.8 1488.19   4
  10  -2  -1 72587.4 1469.55   2
  -2  -8  -1 72236.0 2282.99   4
  -2  -8  -1 70294.4 1238.79   3
  10  -2   0 245.063 108.412   2
  -2  -8   0 262.384 159.867   3
  -2  -8   0 266.224 216.727   4
  -2  -8   1 6520.74 569.211   3
  -2  -8   1 7569.66 795.094   1
  -2  -8   2 26015.2 1275.01   3
  -2  -8   2 25729.2 1466.07   1
  -2  -8   3 49446.8 1918.43   3
  -2  -8   3 51082.3 2123.96   1
  -8  10   4 235.719 196.662   3
  -2  -8   4-51.9942 229.834   3
  -2  -8   4 22.3930 292.392   1
  -2  -8   5 15597.7 1247.15   3
  -8  10   5 13942.4 985.971   3
  -8  10   6 9210.92 813.010   3
  -2  -8   6 9117.82 1029.58   3
  -2  -8   7 21405.6 1619.42   3
  -2  -8   8 188.915 314.718   3
  -1  -9  -8-196.110 409.511   2
  -1  -9  -8 537.356 409.888   4
  -1  -9  -7 1761.52 490.626   4
  -1  -9  -6 1266.30 486.040   4
  -1  -9  -5 1669.47 450.539   4
  -1  -9  -4 394.218 304.456   4
  -1  -9  -3 871.950 307.689   4
  -1  -9  -2 1030.52 322.225   4
  -1  -9  -1 580.689 300.311   4
  -1  -9   0 1378.94 257.118   3
  -1  -9   0 634.521 323.862   4
  -1  -9   1 5004.74 658.355   1
  -1  -9   1 6467.45 748.116   4
  -1  -9   1 5153.01 502.528   3
  -1  -9   2 13330.0 1075.28   1
  -1  -9   2 13420.3 913.803   3
  -1  -9   3 995.801 321.906   3
  -1  -9   3 337.574 236.897   1
  -9  10   4 520.713 254.909   3
  -1  -9   4 525.615 257.295   3
  -1  -9   4 745.473 329.996   1
  -1  -9   5 1482.17 453.427   3
  -9  10   5 749.056 322.654   3
  -1  -9   6 4284.14 749.396   3
  -9  10   6 2579.32 457.860   3
  -1  -9   7 664.566 371.179   3
  -9  10   7 592.561 332.679   3
  -1  -9   8 952.275 516.554   3
   0 -10  -7 1535.25 512.858   4
   0 -10  -6 5139.44 781.471   4
   0 -10  -5 369.095 258.095   4
   0 -10  -4-90.5030 222.755   4
   0 -10  -3-60.0930 265.407   4
   0 -10  -2 5454.19 712.401   4
   0 -10  -1 368.466 291.456   4
   0 -10   0 1270.17 426.806   4
   0 -10   1 313.916 238.927   4
   0 -10   2 5874.29 628.318   3
   0 -10   2 5640.33 707.519   1
   0 -10   3 114.714 198.470   3
   0 -10   3-228.373 302.840   1
   0 -10   4-22.2409 262.888   1
   0 -10   4-88.0514 247.988   3
   0 -10   5 396.477 263.822   3
 -10  10   5 744.074 315.716   3
   0 -10   6 4177.30 748.855   3
 -10  10   6 3710.56 616.199   3
   0 -10   7 2462.08 633.157   3
 -10  10   7 1977.87 538.594   3
   1 -11  -7 8406.08 1016.67   4
   1 -11  -6 10410.3 1079.04   4
   1 -11  -5 47516.9 2200.95   4
   1 -11  -4 893.452 417.686   4
   1 -11  -3 2023.69 478.489   4
   1 -11  -2 39861.1 1906.97   4
   1 -11  -1 41025.4 1911.54   4
   1 -11   0 4175.78 669.845   4
   1 -11   1 35150.7 1811.46   4
   1 -11   2 9200.51 977.689   4
   1 -11   2 9223.14 913.504   1
   1 -11   3 19307.9 1327.62   1
   1 -11   4 554.130 294.609   1
 -11  10   5 2824.34 598.753   3
   1 -11   5 4398.51 700.090   3
 -11  10   6 12565.0 1139.73   3
   1 -11   6 13505.2 1238.68   3
 -11  10   7 31657.0 1795.38   3
   1 -11   7 31214.8 1964.05   3
   2 -12  -6 1277.14 470.624   4
   2 -12  -5 815.371 429.388   4
   2 -12  -4 3820.32 669.830   4
   2 -12  -3 4395.34 717.647   4
   2 -12  -2 2002.86 477.259   4
   2 -12  -1 1785.15 469.476   4
   2 -12   0 1708.27 445.550   4
   2 -12   1 361.209 331.268   4
   2 -12   2-140.681 249.466   1
   2 -12   2-168.627 295.786   4
   2 -12   3 2290.57 505.295   1
   2 -12   4 1066.31 398.524   1
 -12  10   5 5357.06 780.167   3
 -12  10   6 4144.60 671.259   3
   3 -13  -6 2879.09 655.904   4
   3 -13  -5 264.886 379.948   4
   3 -13  -4 1267.10 454.668   4
   3 -13  -3 3934.46 687.383   4
   3 -13  -2 6684.22 852.782   4
   3 -13  -1 309.371 350.941   4
   3 -13   0 485.780 370.045   4
   3 -13   1 4651.77 744.391   4
   3 -13   2 1789.21 431.686   1
   3 -13   2 734.863 338.074   4
   3 -13   3 2990.89 568.613   1
   3 -13   3 4398.95 746.464   4
   3 -13   4 136.101 293.150   1
 -13  10   5 154.997 355.320   3
 -13  10   6 2263.60 574.391   3
   4 -14  -5 18687.2 1525.69   4
   4 -14  -4 1640.25 563.017   4
   4 -14  -3 2641.59 621.204   4
   4 -14  -2 15924.6 1343.35   4
   4 -14  -1 31114.0 1839.36   4
   4 -14   0 658.124 328.399   4
   4 -14   1 14640.7 1276.48   4
   4 -14   1 12551.2 1072.19   1
   4 -14   2 13743.6 1275.43   4
   4 -14   2 11049.6 1004.72   1
   4 -14   3 21742.1 1589.74   4
   4 -14   3 19738.8 1326.25   1
   4 -14   4 714.852 348.020   1
 -14  10   4 941.873 431.482   3
   4 -14   4 1308.07 532.312   4
 -14  10   5 2443.51 621.063   3
   5 -15  -4 121.184 312.667   4
   5 -15  -3 5882.12 870.231   4
   5 -15  -2 205.203 318.535   4
   5 -15  -1 588.653 371.547   4
   5 -15   0 896.783 432.264   4
   5 -15   1 4076.35 636.303   1
   5 -15   1 4750.04 788.616   4
   5 -15   2 54.2993 240.287   1
   5 -15   2 17.5843 319.892   4
   5 -15   3 141.426 368.450   4
 -15  10   4 118.901 310.477   3
   5 -15   4-8.53387 371.154   4
   6 -16  -1-60.7886 376.067   4
   6 -16   0 98.5351 283.759   4
   6 -16   1 2454.17 632.157   4
  11 -16   0-27.9143 261.865   4
  11 -15  -3 1590.64 509.420   4
  11 -15  -2 868.690 334.529   4
  11 -15  -1 221.844 254.473   4
  11 -15   0 411.213 244.711   4
  11 -15   1 3111.80 534.644   4
 -15   4   2 605.789 307.378   3
  11 -15   2 1351.38 383.586   4
  11 -15   3 3017.96 544.935   4
 -15   4   3 1837.58 633.338   3
  11 -14  -4 2425.53 560.719   4
  11 -14  -3 410.729 308.451   4
  11 -14  -2 513.604 319.882   4
  11 -14  -1 210.806 241.084   4
  11 -14   0 1111.89 400.631   4
  11 -14   1 800.186 289.687   4
 -14   3   2 451.768 451.985   3
  11 -14   2 271.087 304.598   4
  11 -14   3 37.7108 238.609   4
 -14   3   3 375.581 376.696   3
  11 -14   4 2844.48 517.593   4
 -14   3   4 1181.63 522.419   3
  11 -13  -5 1688.74 509.212   4
  11 -13  -4 544.885 350.970   4
  11 -13  -3 32157.6 1734.11   4
  11 -13  -2 17968.7 1260.58   4
  11 -13  -1 6944.37 745.531   4
  11 -13   0 2803.27 491.150   4
  11 -13   1 20977.3 1236.38   4
 -13   2   2 2541.50 574.662   3
  11 -13   2 2548.54 458.970   4
  11 -13   3 6098.26 665.558   4
 -13   2   3 8666.74 1043.55   3
  11 -13   4-78.8342 211.990   4
 -13   2   4-24.4785 312.472   3
 -13   2   5 24302.4 1790.72   3
 -12   1  -6 1789.81 527.298   2
  11 -12  -6 671.866 337.810   4
  11 -12  -5 562.872 362.479   4
  11 -12  -4 3193.89 630.034   4
  11 -12  -3 6452.07 776.256   4
 -12   1  -3 6899.00 669.714   1
 -12   1  -2 1247.65 303.762   1
  11 -12  -2 1716.50 428.823   4
 -12   1  -1 294.576 179.980   1
  11 -12  -1-259.528 270.309   4
  11 -12   0 1037.02 306.607   4
  11 -12   1 4427.12 552.885   4
  11 -12   2 37.2005 169.946   4
 -12   1   2 345.135 356.598   3
  11 -12   3 6112.53 616.593   4
 -12   1   3 4799.08 748.149   3
  11 -12   4 509.728 260.257   4
 -12   1   4 241.155 310.986   3
 -12   1   5 3100.03 724.919   3
 -12   1   6 584.132 435.061   3
 -11   0  -6 1047.07 438.095   2
  11 -11  -6 150.263 276.725   4
 -11   0  -5 2585.44 549.935   2
  11 -11  -5 1566.81 430.863   4
 -11   0  -4 2366.27 513.755   2
  11 -11  -4 3673.07 589.045   4
 -11   0  -3 2972.48 502.002   1
 -11   0  -3 1974.12 460.526   2
  11 -11  -3 2853.88 509.274   4
 -11   0  -2 67.1623 193.118   2
  11 -11  -2 326.964 232.237   4
 -11   0  -2 780.877 295.763   1
 -11   0  -1 422.405 248.470   1
  11 -11  -1 448.009 284.072   4
  11 -11   0 5014.31 580.023   4
 -11   0   0 5384.13 674.481   1
 -11   0   1 347.174 328.664   3
  11 -11   1 373.718 174.783   4
  11 -11   2 271.723 195.126   4
 -11   0   2 1068.78 446.498   3
  11 -11   3 2876.49 408.896   4
 -11   0   3 2636.37 565.677   3
 -11   0   4 4432.86 780.077   3
 -11   0   5 2026.71 550.034   3
 -11   0   6 114.478 309.626   3
 -10  -1  -7 32458.9 2033.45   2
  11 -10  -7 30087.6 1834.29   4
 -10  -1  -6 12743.3 1250.16   2
  11 -10  -6 12419.4 1149.30   4
  11 -10  -5 4769.26 695.405   4
 -10  -1  -5 4683.50 762.099   2
  11 -10  -4 810.818 361.964   4
 -10  -1  -4 642.843 343.350   2
 -10  -1  -3 17220.7 1202.18   2
  11 -10  -3 16942.5 1127.89   4
 -10  -1  -2 8077.36 767.469   2
  11 -10  -2 8304.12 754.598   4
 -10  -1  -2 8923.30 821.854   1
 -10  -1  -1 35236.2 1431.72   2
  11 -10  -1 34512.7 1417.63   4
 -10  -1  -1 35666.2 1615.35   1
 -10  -1   0 3216.35 406.235   2
  11 -10   0 3025.28 415.965   4
 -10  -1   0 4114.41 603.082   1
 -10  -1   1 42729.5 1853.14   1
 -10  -1   1 45045.8 1982.88   3
  11 -10   1 38892.8 1340.49   4
 -10  -1   2 40754.8 1949.96   3
  11 -10   2 40272.7 1315.63   4
  11 -10   3 2694.06 355.143   4
 -10  -1   3 2258.33 494.381   3
 -10  -1   4 665.165 376.367   3
 -10  -1   5 48135.3 2360.79   3
 -10  -1   6 11234.2 1201.58   3
 -10  -1   7 9274.95 1218.90   3
  -9  -2  -7 4417.24 770.986   2
  11  -9  -6-100.539 284.967   4
  -9  -2  -6 600.492 366.826   2
  11  -9  -5 143.474 284.552   4
  -9  -2  -5-205.093 288.972   2
  11  -9  -4 2482.12 499.185   4
  -9  -2  -4 2429.09 519.637   2
  11  -9  -3 2053.59 407.088   4
  -9  -2  -3 3120.20 569.121   2
  11  -9  -2 1381.15 349.229   4
  -9  -2  -2 1309.01 354.979   2
  -9  -2  -2 1504.11 236.443   4
  11  -9  -1 5690.67 549.729   4
  -9  -2  -1 5754.03 471.573   4
  -9  -2  -1 5383.05 646.113   1
  -9  -2  -1 4614.44 529.863   2
  -9  -2   0 4999.62 626.479   3
  -9  -2   0 5507.82 669.862   1
  -9  -2   0 5565.97 516.448   2
  11  -9   0 5053.73 494.378   4
  -9  -2   1 8770.05 858.086   1
  -9  -2   1 9124.77 545.958   2
  -9  -2   1 9868.18 915.123   3
  11  -9   1 8840.83 587.866   4
  11  -9   2 332.832 148.842   4
  -9  -2   2 391.471 253.427   3
  11  -9   3 1254.74 240.307   4
  -9  -2   3 1195.16 408.321   3
  -9  -2   4 2410.81 581.112   3
  -9  -2   5 11038.5 1147.71   3
  -9  -2   6 19.5365 375.641   3
  -9  -2   7 1458.62 534.037   3
  -8  -3  -7 149.890 344.374   2
  -8  -3  -6 346.154 285.392   2
  -8  -3  -5-125.283 273.780   2
  -8  -3  -4 6030.90 493.546   4
  11  -8  -4 5969.09 681.907   4
  -8  -3  -4 6775.42 832.507   2
  11  -8  -3 2942.46 461.896   4
  -8  -3  -3 3153.32 357.869   4
  -8  -3  -3 3148.03 557.335   2
  11  -8  -2 1171.02 317.346   4
  -8  -3  -2 731.210 207.521   4
  -8  -3  -2 697.215 296.128   2
  -8  -3  -1 4030.66 572.698   1
  -8  -3  -1 5215.36 486.716   4
  11  -8  -1 4093.25 450.190   4
  -8  -3  -1 5245.70 593.626   2
  -3  11   0 5378.19 450.762   3
  -8  -3   0 5924.27 547.240   2
  11  -8   0 5879.25 487.706   4
  -8  -3   0 6156.84 720.289   1
  -8  -3   0 5601.63 638.887   3
  -8  -3   1 6516.71 487.394   2
  11  -8   1 6649.02 448.677   4
  -8  -3   1 6845.66 772.284   1
  -8  -3   1 7374.04 741.829   3
  -8  -3   2 2470.35 505.418   1
  -8  -3   2 1993.80 221.582   2
  11  -8   2 2233.04 249.445   4
  -8  -3   2 1634.78 396.105   3
  -8  -3   3 1827.60 443.481   3
  -8  -3   4 3264.32 624.380   3
  -8  -3   5 593.930 372.983   3
  -8  -3   6 478.099 330.186   3
  -8  -3   7 159.596 309.313   3
  -7  -4  -8 953.399 512.136   2
  -7  -4  -7 14153.4 1362.84   2
  -7  -4  -6 14638.7 1319.81   2
  -7  -4  -5 6596.29 605.593   4
  -7  -4  -5 6804.51 886.529   2
  -7  -4  -4 319.338 298.813   2
  -7  -4  -4 252.181 169.166   4
  -7  -4  -3 82547.7 2661.76   2
  -7  -4  -3 82369.3 1956.82   4
  11  -7  -2 44799.2 1484.20   4
  -7  -4  -2 42592.1 1785.83   2
  -7  -4  -2 43974.4 1431.69   4
  -7  -4  -1 11962.5 832.050   3
  11  -7  -1 10620.2 656.546   4
  -7  -4  -1 11864.8 867.499   2
  -7  -4  -1 10572.2 731.453   4
  11  -7  -1 11796.1 591.412   1
  -4  11   0 5426.93 468.853   3
  -7  -4   0 5256.50 534.187   2
  11  -7   0 5633.49 421.210   4
  -7  -4   0 5096.27 653.258   1
  -7  -4   0 5757.07 605.381   3
  -4  11   1 62101.3 1359.18   3
  -7  -4   1 65373.5 2127.09   3
  11  -7   1 62907.2 1155.89   4
  -7  -4   1 63966.1 1586.45   2
  -7  -4   1 61865.9 2261.10   1
  -7  -4   2 32197.5 1669.20   1
  -7  -4   2 31251.8 1552.57   3
  -7  -4   2 33709.0 984.386   2
  11  -7   2 28986.7 636.187   4
  -7  -4   3 32900.1 1688.24   3
  -7  -4   4 1397.13 421.331   3
  -7  -4   5 37850.4 2035.39   3
  -7  -4   6 14237.1 1328.32   3
  -7  -4   7 5248.58 878.723   3
  -7  -4   8 2325.40 615.411   3
  -6  -5  -8 1000.82 526.924   2
  -6  -5  -7-130.140 399.248   2
  -6  -5  -6 833.790 345.313   2
  -6  -5  -6 1342.38 326.381   4
  -6  -5  -5-25.5861 342.706   2
  -6  -5  -5-18.5784 183.019   4
  -6  -5  -4 14649.5 1215.16   2
  -6  -5  -4 12929.8 870.385   4
  -6  -5  -3 2199.06 478.314   2
  -6  -5  -3 2850.74 411.950   4
  -6  -5  -2 604.540 295.112   2
  -6  -5  -2 444.016 202.671   4
  -6  -5  -2 380.819 199.803   3
  -6  -5  -1 276.563 240.359   2
  11  -6  -1-93.8668 95.2073   1
  -6  -5  -1-58.1111 169.501   4
  -6  -5  -1-152.713 191.227   3
  -6  -5   0 1510.01 413.008   1
  -6  -5   0 1207.16 293.584   3
  -6  -5   0 1580.54 362.987   4
  -5  11   1 1361.14 241.411   3
  -6  -5   1 1367.21 342.397   3
  -6  -5   1 770.775 316.400   1
  -6  -5   2 2506.17 472.195   3
  -6  -5   2 1191.06 357.612   1
  -6  -5   3 2997.93 552.159   1
  -6  -5   3 3123.80 572.799   3
  -5  11   3 3224.50 313.402   3
  -6  -5   4 4737.66 701.573   3
  -6  -5   5 8053.54 938.453   3
  -6  -5   6 1737.47 524.475   3
  -6  -5   7 686.798 464.129   3
  -6  -5   8 3236.99 759.894   3
  -5  -6  -8 3062.33 712.033   2
  -5  -6  -7 123.468 437.442   2
  -5  -6  -7-210.484 241.013   4
  -5  -6  -6 646.642 329.690   2
  -5  -6  -6 1591.94 410.641   4
  -5  -6  -5-62.4793 246.075   2
  -5  -6  -5 513.776 266.257   4
  -5  -6  -4 14142.8 969.859   4
  -5  -6  -4 16067.5 1254.42   2
  -5  -6  -3 3163.79 557.709   2
  -5  -6  -3 3000.27 460.589   4
  -5  -6  -3 2647.47 294.130   3
  11  -5  -2 144.141 134.098   2
  -5  -6  -2 519.628 273.540   4
  -5  -6  -2 255.943 139.557   3
  -5  -6  -1-261.496 166.862   3
  -5  -6  -1-229.475 202.979   4
  -5  -6   0 1233.79 272.102   3
  -5  -6   0 2232.11 426.949   4
  -5  -6   1 1844.17 464.403   1
  -5  -6   1 1384.23 346.746   3
  -5  -6   2 1056.61 368.505   1
  -5  -6   2 1935.76 407.485   3
  -5  -6   3 2744.44 492.864   3
  -5  -6   3 3252.45 602.986   1
  -5  -6   4 4749.01 660.836   3
  -6  11   4 4352.90 409.114   3
  -5  -6   5 9078.80 989.365   3
  -5  -6   6 1577.28 498.677   3
  -5  -6   7 6.63047 288.108   3
  -5  -6   8 3855.50 772.218   3
  -4  -7  -8 538.296 488.989   2
  -4  -7  -8 263.265 247.956   4
  -4  -7  -7 13989.8 1115.23   4
  -4  -7  -7 14029.5 1381.75   2
  -4  -7  -6 11722.5 980.542   4
  -4  -7  -6 11275.6 1188.54   2
  -4  -7  -5 6485.12 867.619   2
  -4  -7  -5 7077.78 772.182   4
  -4  -7  -4 151.928 187.531   4
  -4  -7  -3 85584.4 2419.66   4
  -4  -7  -2 43243.8 1045.68   3
  -4  -7  -2 41662.2 1664.08   4
  -4  -7  -1 11436.7 638.060   3
  11  -4  -1 9824.33 603.714   2
  -4  -7  -1 9909.97 829.577   4
  -4  -7   0 5640.36 522.629   3
  -4  -7   0 4784.28 609.140   4
  -4  -7   1 62349.3 1879.28   3
  -4  -7   1 66209.4 2407.27   1
  -4  -7   2 31321.3 1460.84   3
  -4  -7   2 32332.1 1709.99   1
  -4  -7   3 30566.4 1549.16   3
  -4  -7   3 29118.1 1673.82   1
  -4  -7   4 370.423 245.725   3
  -7  11   4 556.287 177.585   3
  -4  -7   5 37402.8 1954.01   3
  -4  -7   6 16600.9 1383.74   3
  -4  -7   7 5223.74 852.791   3
  -4  -7   8 4060.82 752.157   3
  -3  -8  -7-103.382 347.959   2
  -3  -8  -7 767.866 300.687   4
  -3  -8  -6 1352.49 495.974   2
  -3  -8  -6 137.639 299.374   4
  -3  -8  -5 487.907 328.803   4
  -3  -8  -4 5160.57 661.751   4
  -3  -8  -3 3382.80 546.893   4
  -3  -8  -2 720.781 299.591   4
  -3  -8  -1 4815.88 372.906   3
  11  -3  -1 4450.83 395.965   2
  -3  -8  -1 5720.34 662.403   4
  -3  -8   0 6450.41 516.018   3
  -3  -8   0 5491.14 665.251   4
  -3  -8   1 6610.05 604.840   3
  -3  -8   1 7853.76 863.940   1
  -3  -8   2 2483.64 442.645   3
  -3  -8   2 2180.74 495.110   1
  -3  -8   3 1687.50 479.487   1
  -3  -8   3 1598.64 427.476   3
  -3  -8   4 2322.00 482.275   3
  -3  -8   4 3486.11 638.925   1
  -8  11   4 3816.12 513.562   3
  -3  -8   5 213.175 307.926   3
  -8  11   5 197.741 205.304   3
  -3  -8   6 384.513 381.876   3
  -3  -8   7-107.077 369.616   3
  -2  -9  -7 4398.57 851.937   2
  -2  -9  -7 5506.80 775.796   4
  -2  -9  -6 183.932 237.468   4
  -2  -9  -5 107.889 224.315   4
  -2  -9  -4 2516.29 498.064   4
  -2  -9  -3 2252.06 465.713   4
  -2  -9  -2 1172.99 361.332   4
  -2  -9  -1 5597.35 691.522   4
  -2  -9  -1 5302.47 347.978   3
  -2  -9   0 4941.94 636.836   4
  -2  -9   0 4883.33 435.924   3
  -2  -9   1 9719.42 910.680   4
  -2  -9   1 10754.4 991.802   1
  -2  -9   1 8795.75 682.674   3
  -2  -9   2 237.813 159.855   3
  -2  -9   2 66.5112 235.832   1
  -2  -9   3 859.805 310.960   3
  -2  -9   3 1021.49 368.882   1
  -9  11   4 1566.03 380.206   3
  -2  -9   4 1573.66 457.656   1
  -2  -9   4 1357.57 406.565   3
  -9  11   5 8818.76 804.173   3
  -2  -9   5 9974.31 1024.26   3
  -2  -9   6 49.6577 339.789   3
  -2  -9   7 225.925 389.557   3
  -1 -10  -7 30938.2 1873.91   4
  -1 -10  -6 12967.3 1158.58   4
  -1 -10  -5 4625.13 701.434   4
  -1 -10  -4 614.646 262.443   4
  -1 -10  -3 17844.5 1246.82   4
  -1 -10  -2 10425.4 961.431   4
  -1 -10  -1 36287.6 1766.57   4
  -1 -10   0 3510.26 582.564   4
  -1 -10   1 41306.1 1951.39   4
  -1 -10   1 43185.6 1989.34   1
  -1 -10   1 42833.3 1426.49   3
  -1 -10   2 43640.6 2039.06   1
  -1 -10   2 41426.1 1605.71   3
  -1 -10   3 2650.42 466.714   3
  -1 -10   3 2203.13 510.809   1
  -1 -10   4 344.461 315.466   3
  -1 -10   4-103.545 262.638   1
 -10  11   5 49491.9 2012.47   3
  -1 -10   5 45962.1 2142.84   3
  -1 -10   6 9358.03 1059.95   3
 -10  11   6 9437.58 904.692   3
  -1 -10   7 7945.57 1029.58   3
   0 -11  -6 519.922 368.381   4
   0 -11  -5 2509.64 539.898   4
   0 -11  -4 3043.39 591.179   4
   0 -11  -3 3504.68 636.131   4
   0 -11  -2 625.078 341.094   4
   0 -11  -1 219.152 237.905   4
   0 -11   0 5291.82 758.082   4
   0 -11   1 158.234 268.285   1
   0 -11   1-147.752 298.434   4
   0 -11   2 455.260 311.334   1
   0 -11   2 1492.12 482.611   4
   0 -11   3 2222.56 445.664   3
   0 -11   3 2375.25 513.909   1
   0 -11   4 4001.20 601.970   3
   0 -11   4 4155.00 681.677   1
   0 -11   5 1479.38 450.210   3
 -11  11   5 2163.59 522.763   3
   0 -11   6 959.305 410.384   3
 -11  11   6 311.846 367.789   3
   1 -12  -6 1429.65 525.432   4
   1 -12  -5 201.174 310.594   4
   1 -12  -4 2248.18 537.937   4
   1 -12  -3 5230.14 760.998   4
   1 -12  -2 658.159 379.231   4
   1 -12  -1-77.9308 250.374   4
   1 -12   0 1718.58 492.531   4
   1 -12   1 5048.88 735.411   1
   1 -12   1 4453.01 703.763   4
   1 -12   2-2.60949 228.220   1
   1 -12   2-329.953 333.300   4
   1 -12   3 5669.14 774.088   1
   1 -12   4-65.0843 314.634   1
 -12  11   5 3443.37 597.624   3
 -12  11   6 442.101 290.386   3
   2 -13  -5 1450.91 532.612   4
   2 -13  -4-387.705 341.239   4
   2 -13  -3 31007.7 1837.10   4
   2 -13  -2 17735.0 1372.52   4
   2 -13  -1 8360.00 958.864   4
   2 -13   0 3184.27 616.087   4
   2 -13   1 19312.9 1449.57   4
   2 -13   1 22994.6 1472.76   1
   2 -13   2 3283.17 594.196   1
   2 -13   2 4383.00 742.023   4
   2 -13   3 4175.71 663.519   1
   2 -13   3 8795.62 1024.75   4
   2 -13   4 41.1083 260.641   1
 -13  11   5 21718.5 1572.46   3
   3 -14  -4 1950.40 552.916   4
   3 -14  -3 31.3938 304.816   4
   3 -14  -2 870.387 392.587   4
   3 -14  -1 240.239 285.360   4
   3 -14   0 944.249 463.509   4
   3 -14   1 1411.58 427.191   1
   3 -14   1 82.3091 276.093   4
   3 -14   2 563.420 318.117   1
   3 -14   2 408.526 296.044   4
   3 -14   3 102.827 252.855   1
   3 -14   3-96.1920 301.360   4
   3 -14   4 4062.36 686.607   1
   3 -14   4 1835.59 582.332   4
   4 -15  -3 2473.19 594.899   4
   4 -15  -2 380.799 424.988   4
   4 -15  -1 475.345 302.265   4
   4 -15   0 1155.57 482.026   4
   4 -15   1 3987.52 701.679   1
   4 -15   1 3403.08 690.265   4
   4 -15   2 286.671 314.585   1
   4 -15   2 468.393 339.858   4
   4 -15   3 2185.93 529.719   1
   4 -15   3 1888.37 502.879   4
   5 -16   0-708.354 419.416   4
  12 -15  -2 5728.99 768.155   4
  12 -15  -1 919.139 389.800   4
  12 -15   0 22268.8 1384.05   4
  12 -15   1 162.039 269.612   4
 -15   3   2 1795.97 576.450   3
  12 -15   2 2703.07 475.673   4
  12 -14  -4 3134.21 618.665   4
  12 -14  -3 745.152 352.577   4
  12 -14  -2 529.352 270.493   4
  12 -14  -1 4660.20 637.761   4
  12 -14   0 1992.10 438.252   4
  12 -14   1 3529.07 526.649   4
  12 -14   2 562.067 325.041   4
 -14   2   2 901.275 466.039   3
 -14   2   3 5736.19 900.110   3
 -14   2   4 2353.75 630.446   3
  12 -13  -5 2397.86 573.538   4
  12 -13  -4-19.5341 388.595   4
  12 -13  -3 474.158 298.345   4
  12 -13  -2 2416.65 491.525   4
 -13   1  -2 2584.54 430.306   1
  12 -13  -1 3259.00 503.805   4
 -13   1  -1 3139.84 503.541   1
  12 -13   0 577.226 289.984   4
 -13   1   1 110.073 301.442   3
  12 -13   1 216.694 225.346   4
  12 -13   2 155.523 195.745   4
 -13   1   2 401.396 333.003   3
 -13   1   3 8296.78 1043.19   3
 -13   1   4-225.345 316.041   3
 -13   1   5 45.3946 346.892   3
 -12   0  -5 667.653 377.954   2
  12 -12  -5 62.0847 270.631   4
 -12   0  -4 24893.3 1558.86   2
  12 -12  -4 27236.7 1607.73   4
 -12   0  -4 26872.0 1372.18   1
 -12   0  -3 2593.48 496.293   2
 -12   0  -3 2197.61 417.779   1
  12 -12  -3 3886.52 614.381   4
 -12   0  -2 6579.31 701.467   1
  12 -12  -2 4860.01 640.360   4
 -12   0  -1 5688.24 675.938   1
  12 -12  -1 6593.87 698.897   4
 -12   0   0 44493.9 1851.26   1
  12 -12   0 43968.3 1655.41   4
 -12   0   1 6845.00 861.220   3
  12 -12   1 6169.03 613.860   4
  12 -12   2 6030.89 575.432   4
 -12   0   2 5959.40 830.982   3
 -12   0   3 3063.71 671.498   3
 -12   0   4 25101.1 1746.79   3
 -12   0   5 804.356 458.371   3
  12 -11  -6 432.267 405.429   4
 -11  -1  -6 1134.79 449.742   2
  12 -11  -5 4112.29 689.823   4
 -11  -1  -5 3381.24 634.896   2
  12 -11  -4 681.039 297.134   4
 -11  -1  -4-159.427 297.186   2
 -11  -1  -3 6050.91 745.720   2
 -11  -1  -3 6846.89 745.305   1
  12 -11  -3 5921.19 700.712   4
 -11  -1  -2 334.090 277.172   2
  12 -11  -2 62.9044 223.000   4
 -11  -1  -2 108.622 203.212   1
 -11  -1  -1 4247.58 618.785   1
 -11  -1  -1 4724.56 561.564   2
  12 -11  -1 5755.82 615.450   4
 -11  -1   0 2212.76 442.555   1
  12 -11   0 1731.28 358.239   4
  12 -11   1 50.0159 161.517   4
 -11  -1   1-141.133 264.322   3
 -11  -1   2 1197.86 451.925   3
 -11  -1   3 5683.01 813.348   3
 -11  -1   4 2953.33 671.941   3
 -11  -1   5 313.363 312.452   3
 -11  -1   6 1140.66 545.635   3
  12 -10  -6 4551.11 727.515   4
 -10  -2  -6 3802.26 717.057   2
  12 -10  -5 6059.14 749.092   4
 -10  -2  -5 6339.66 863.056   2
  12 -10  -4-102.003 292.195   4
 -10  -2  -4 260.265 248.283   2
  12 -10  -3 2563.59 461.246   4
 -10  -2  -3 2301.22 505.259   2
 -10  -2  -2 155.277 197.137   1
  12 -10  -2 122.093 170.111   4
 -10  -2  -2-152.315 236.335   2
  12 -10  -1 720.000 243.722   4
 -10  -2  -1 498.725 191.811   2
 -10  -2  -1 491.733 271.577   1
 -10  -2   0 1440.33 385.476   1
 -10  -2   0 1627.39 329.932   2
  12 -10   0 1881.99 334.384   4
 -10  -2   0 1635.65 300.543   4
 -10  -2   0 2481.78 511.935   3
  12 -10   1 1938.27 320.500   4
 -10  -2   1 2673.69 530.907   1
 -10  -2   1 1953.32 488.700   3
 -10  -2   2 2115.27 502.610   3
 -10  -2   3 5448.78 775.890   3
 -10  -2   4 3904.60 693.608   3
 -10  -2   5 400.668 349.191   3
 -10  -2   6-435.310 364.771   3
  -9  -3  -7 3874.60 735.099   2
  -9  -3  -6 2705.19 641.796   2
  -9  -3  -5 2486.97 558.557   2
  -9  -3  -4 35716.1 1875.03   2
  12  -9  -4 35264.7 1674.59   4
  12  -9  -3 621.720 267.327   4
  -9  -3  -3 311.008 267.303   2
  -9  -3  -2 24255.6 1355.79   2
  12  -9  -2 22805.0 1156.31   4
  -9  -3  -2 22135.9 934.561   4
  -9  -3  -1 2037.87 415.923   3
  -9  -3  -1 2007.95 469.330   1
  12  -9  -1 1869.29 334.869   4
  -9  -3  -1 1915.14 400.588   2
  -9  -3  -1 1216.84 256.209   4
  -9  -3   0 37707.9 1367.68   2
  -9  -3   0 39246.2 1724.48   3
  12  -9   0 40344.8 1283.28   4
  -9  -3   0 37031.7 1350.39   4
  -9  -3   0 39612.0 1842.85   1
  12  -9   1 2933.71 339.552   4
  -9  -3   1 2831.07 489.224   3
  -9  -3   1 4172.26 632.500   1
  -9  -3   2 8843.60 927.946   1
  -9  -3   2 8020.11 847.899   3
  -9  -3   3 15003.2 1221.46   3
  -9  -3   4 41340.5 2100.40   3
  -9  -3   5 1939.15 551.629   3
  -9  -3   6 7804.66 1051.67   3
  -9  -3   7 441.485 432.372   3
  -8  -4  -7-288.517 418.403   2
  -8  -4  -6 1059.10 431.103   2
  -8  -4  -5 5465.58 837.332   2
  -8  -4  -4 379.958 289.709   2
  12  -8  -3 1507.30 338.003   4
  -8  -4  -3 1473.21 289.880   4
  -8  -4  -3 1223.90 373.395   2
  -8  -4  -2-133.254 270.557   2
  12  -8  -2 369.476 185.615   4
  -8  -4  -2 4.58124 152.621   4
  -8  -4  -1 3117.56 480.739   2
  -8  -4  -1 3630.98 562.395   1
  12  -8  -1 3367.78 400.324   4
  -8  -4  -1 3559.57 444.945   4
  -8  -4  -1 4113.43 528.429   3
  -8  -4   0 363.441 212.095   2
  12  -8   0 376.269 137.736   4
  -8  -4   0 202.306 244.050   1
  -8  -4   0 450.614 300.640   3
  -8  -4   0 456.747 211.782   4
  -8  -4   1 110.249 277.334   1
  -8  -4   1 29.4450 206.081   3
  -8  -4   1 210.540 161.402   2
  -8  -4   2 25.7397 273.656   1
  -8  -4   2-111.985 232.284   3
  -8  -4   3 11402.2 1051.53   3
  -8  -4   4 5483.49 792.218   3
  -8  -4   5-40.2975 275.481   3
  -8  -4   6-459.218 383.311   3
  -8  -4   7 2663.26 667.185   3
  -7  -5  -7 444.581 333.858   2
  -7  -5  -6 1718.78 520.947   2
  -7  -5  -5 5797.21 835.198   2
  -7  -5  -4 1618.43 429.269   2
  -7  -5  -4 1817.80 355.757   4
  -7  -5  -3 1919.84 471.278   2
  -7  -5  -3 2875.51 425.005   4
  -7  -5  -2 1999.81 426.569   2
  -7  -5  -2 1445.29 316.464   4
  -7  -5  -2 1920.53 338.987   3
  -7  -5  -1 8750.84 707.970   3
  -7  -5  -1 9146.58 804.776   2
  -7  -5  -1 8652.50 712.159   4
  -7  -5   0 5869.98 599.639   2
  -7  -5   0 5453.12 729.980   1
  -7  -5   0 4859.66 575.929   3
  -7  -5   0 4517.22 535.977   4
  -7  -5   1 3911.14 650.962   1
  -7  -5   1 5872.91 548.680   2
  -7  -5   1 5860.24 670.629   3
  -7  -5   2 2595.48 545.142   1
  -7  -5   2 3389.28 364.601   2
  -7  -5   2 2756.43 509.787   3
  -7  -5   3 1075.58 396.335   1
  -7  -5   3 939.589 375.787   3
  -7  -5   4 403.384 369.590   3
  -7  -5   5 1420.19 440.823   3
  -7  -5   6 268.820 367.553   3
  -7  -5   7 706.640 362.363   3
  -6  -6  -7 909.824 484.881   2
  -6  -6  -6 4627.92 809.594   2
  -6  -6  -6 6710.49 698.352   4
  -6  -6  -5 4427.45 747.379   2
  -6  -6  -5 4101.31 555.928   4
  -6  -6  -4 66562.6 2601.58   2
  -6  -6  -4 70427.5 2128.89   4
  -6  -6  -3 4050.43 632.858   2
  -6  -6  -3 3171.38 474.870   4
  -6  -6  -2 1576.68 368.733   2
  -6  -6  -2 1776.00 372.061   4
  -6  -6  -2 2054.63 313.309   3
  -6  -6  -1 7102.54 594.484   3
  -6  -6  -1 5389.99 620.306   4
  -6  -6   0 62240.4 1863.79   3
  -6  -6   0 61407.5 2022.16   4
  -6  -6   0 60375.3 2320.34   1
  -6  -6   1 5047.98 588.653   3
  -6  -6   1 6221.51 789.194   1
  -6  -6   2 10833.5 923.402   3
  -6  -6   2 11684.7 1071.99   1
  -6  -6   3-60.6429 252.399   1
  -6  -6   3 99.7114 197.557   3
  -6  -6   4 36614.6 1913.03   3
  -6  -6   5 1270.56 443.465   3
  -6  -6   6 6055.30 866.947   3
  -6  -6   7 2787.83 737.930   3
  -5  -7  -7 496.533 442.686   2
  -5  -7  -7 236.162 245.286   4
  -5  -7  -6 454.109 304.969   2
  -5  -7  -6 1011.99 346.254   4
  -5  -7  -5 6627.06 903.927   2
  -5  -7  -5 6950.70 733.038   4
  -5  -7  -4 1013.29 343.021   2
  -5  -7  -4 1592.03 363.520   4
  -5  -7  -3 2195.92 442.730   4
  -5  -7  -2 1238.66 327.916   4
  -5  -7  -1 8942.81 618.558   3
  -5  -7  -1 7720.86 760.223   4
  -5  -7   0 4468.07 678.185   1
  -5  -7   0 5639.08 549.732   3
  -5  -7   0 5315.32 642.772   4
  -5  -7   1 5978.71 615.032   3
  -5  -7   1 7001.54 843.288   1
  -5  -7   2 3118.58 616.793   1
  -5  -7   2 3134.42 487.714   3
  -5  -7   3 2091.31 464.540   3
  -5  -7   3 1093.06 383.470   1
  -5  -7   4 353.787 295.785   3
  -5  -7   5 335.561 308.575   3
  -5  -7   6 303.152 338.836   3
  -5  -7   7 953.628 519.538   3
  -4  -8  -7 29.9343 356.780   2
  -4  -8  -7-172.108 300.134   4
  -4  -8  -6 903.698 426.233   2
  -4  -8  -6 660.194 374.942   4
  -4  -8  -5 4538.51 766.710   2
  -4  -8  -5 3752.10 586.398   4
  -4  -8  -4 55.8424 222.405   4
  -4  -8  -3 1690.38 410.774   4
  -4  -8  -2-199.497 272.559   4
  -4  -8  -1 4594.21 409.920   3
  -4  -8  -1 3835.99 571.277   4
  -4  -8   0 612.430 195.699   3
  -4  -8   0 642.840 321.321   4
  -4  -8   1 98.3454 272.799   1
  -4  -8   1 21.8611 160.641   3
  -4  -8   2 903.872 355.382   1
  -4  -8   2 169.900 234.596   3
  -4  -8   3 11537.1 1102.01   1
  -4  -8   3 10056.8 912.115   3
  -4  -8   4 4027.78 629.501   3
  -4  -8   5 141.906 319.191   3
  -4  -8   6 201.273 277.675   3
  -4  -8   7 1975.92 582.956   3
  -3  -9  -7 3655.27 798.624   2
  -3  -9  -7 3284.66 579.368   4
  -3  -9  -6 2458.05 615.331   2
  -3  -9  -6 3311.55 593.239   4
  -3  -9  -5 2377.37 514.705   4
  -3  -9  -4 34723.6 1745.78   4
  -3  -9  -3 11.0044 227.432   4
  -3  -9  -2 22276.6 1365.44   4
  -3  -9  -1 1613.43 437.217   4
  -3  -9   0 37148.5 1238.43   3
  -3  -9   0 40170.3 1859.91   4
  -3  -9   1 3371.26 592.579   1
  -3  -9   1 3296.80 458.860   3
  -3  -9   1 4531.39 664.205   4
  -3  -9   2 8168.31 752.451   3
  -3  -9   2 8683.66 959.543   1
  -3  -9   3 15185.0 1118.51   3
  -3  -9   3 15357.3 1289.70   1
  -3  -9   4 42785.9 1977.17   3
  -3  -9   4 46425.8 2249.00   1
  -9  12   4 45139.3 1716.23   3
  -3  -9   5 1794.00 496.302   3
  -3  -9   6 7164.90 938.084   3
  -3  -9   7 1045.11 524.086   3
  -2 -10  -6 4307.03 719.214   4
  -2 -10  -5 7003.42 856.478   4
  -2 -10  -4 343.530 285.977   4
  -2 -10  -3 2262.17 487.802   4
  -2 -10  -2 201.704 231.809   4
  -2 -10  -1 830.661 354.061   4
  -2 -10   0 2048.35 494.105   4
  -2 -10   1 2614.01 411.622   3
  -2 -10   1 1591.72 447.079   1
  -2 -10   1 1829.19 403.035   4
  -2 -10   2 1873.11 384.453   3
  -2 -10   2 1701.49 472.929   1
  -2 -10   3 4710.10 624.798   3
  -2 -10   3 4792.58 756.081   1
  -2 -10   4 4417.00 740.745   1
  -2 -10   4 4069.91 640.503   3
  -2 -10   5 566.799 368.411   3
 -10  12   5 457.910 257.616   3
  -2 -10   6 1415.00 505.796   3
  -1 -11  -6 440.654 289.390   4
  -1 -11  -5 3467.86 637.541   4
  -1 -11  -4 321.692 274.135   4
  -1 -11  -3 7042.17 865.458   4
  -1 -11  -2-98.9225 249.762   4
  -1 -11  -1 6383.89 825.380   4
  -1 -11   0 1678.14 457.902   4
  -1 -11   1 181.271 250.838   1
  -1 -11   1-242.337 303.089   4
  -1 -11   2 1235.54 269.190   3
  -1 -11   2 1650.35 473.506   1
  -1 -11   2 1073.37 400.401   4
  -1 -11   3 6397.30 742.050   3
  -1 -11   3 6797.24 894.365   1
  -1 -11   4 2490.35 541.713   3
  -1 -11   4 4361.12 730.843   1
  -1 -11   5 124.587 295.857   3
 -11  12   5 371.297 282.269   3
  -1 -11   6 1171.04 393.167   3
   0 -12  -5 407.890 363.271   4
   0 -12  -4 24176.4 1619.59   4
   0 -12  -3 2215.83 512.712   4
   0 -12  -2 5133.25 721.607   4
   0 -12  -1 7831.61 934.440   4
   0 -12   0 48073.1 2231.69   4
   0 -12   1 6081.31 822.609   1
   0 -12   1 6161.85 828.299   4
   0 -12   2 6327.29 828.687   1
   0 -12   2 7183.77 902.508   4
   0 -12   3 1766.21 583.375   1
   0 -12   4 23669.1 1639.57   1
   0 -12   4 26620.1 1530.07   3
   0 -12   5 518.197 302.630   3
 -12  12   5 55.6143 257.173   3
   1 -13  -5 3480.40 684.137   4
   1 -13  -4-161.980 348.366   4
   1 -13  -3 339.897 357.797   4
   1 -13  -2 2624.93 611.994   4
   1 -13  -1 3145.10 632.653   4
   1 -13   0-71.2878 284.055   4
   1 -13   1 133.623 324.191   1
   1 -13   1 653.805 366.851   4
   1 -13   2 404.630 331.522   1
   1 -13   2 43.0391 400.564   4
   1 -13   3 7210.02 905.568   1
   1 -13   3 10099.2 1115.55   4
   1 -13   4 311.983 383.605   1
 -13  12   5 134.582 311.888   3
   2 -14  -4 3847.39 758.007   4
   2 -14  -3 751.376 315.323   4
   2 -14  -2 141.535 382.415   4
   2 -14  -1 4676.52 764.965   4
   2 -14   0 1628.73 503.560   4
   2 -14   1 2892.12 583.202   1
   2 -14   1 4290.30 764.170   4
   2 -14   2 605.171 318.464   1
   2 -14   2 322.368 322.010   4
   2 -14   3 4516.40 726.986   1
   2 -14   3 4360.99 789.734   4
   2 -14   4 1445.61 473.432   1
   2 -14   4 2143.45 604.466   4
   3 -15  -2 5749.29 855.366   4
   3 -15  -1 273.446 355.723   4
   3 -15   0 18941.5 1498.96   4
   3 -15   1 688.164 369.878   1
   3 -15   1 89.4339 290.255   4
   3 -15   2 3148.66 672.480   4
   3 -15   2 1735.52 512.547   1
  13 -15  -1 160.453 251.991   4
  13 -15   0 924.113 340.035   4
 -15   2   1 7143.09 995.313   3
  13 -14  -3 1943.02 495.694   4
  13 -14  -2 15120.6 1151.01   4
  13 -14  -1 26212.0 1453.72   4
  13 -14   0-357.159 260.012   4
 -14   1   1 2236.70 624.162   3
 -14   1   2 9589.15 1087.49   3
 -14   1   3 22630.5 1713.83   3
  13 -13  -4 1126.84 384.546   4
  13 -13  -3 265.235 277.950   4
 -13   0  -2 5889.58 721.727   1
  13 -13  -2 4772.16 632.131   4
 -13   0  -1 2082.30 420.657   1
  13 -13  -1 2260.88 452.845   4
  13 -13   0 319.171 196.653   4
 -13   0   1 2478.10 564.623   3
 -13   0   2 6629.51 907.201   3
 -13   0   3 1787.77 606.203   3
 -13   0   4 698.419 394.614   3
 -12  -1  -5 782.810 389.406   2
  13 -12  -5 390.505 322.808   4
 -12  -1  -4 235.962 250.329   2
  13 -12  -4-175.700 272.574   4
 -12  -1  -3 6777.65 744.637   1
 -12  -1  -3 6874.23 801.153   2
  13 -12  -3 7636.43 809.516   4
 -12  -1  -2 678.340 313.528   2
  13 -12  -2 658.479 279.683   4
 -12  -1  -2 671.346 265.634   1
 -12  -1  -1-271.481 245.383   1
  13 -12  -1 280.322 212.627   4
 -12  -1   0 340.928 289.241   3
  13 -12   0 436.269 244.325   4
 -12  -1   0-134.261 241.774   1
 -12  -1   1 2786.45 607.421   3
 -12  -1   2 2399.55 516.380   3
 -12  -1   3-242.915 380.050   3
 -12  -1   4-72.1161 296.835   3
 -12  -1   5 4421.10 847.953   3
 -11  -2  -5 26841.3 1734.73   2
  13 -11  -5 23538.0 1490.64   4
  13 -11  -4 717.712 323.878   4
 -11  -2  -4-0.50085 261.355   2
  13 -11  -3 6025.90 716.229   4
 -11  -2  -3 6562.55 776.509   1
 -11  -2  -3 4725.55 673.750   2
 -11  -2  -2 2378.93 482.145   1
  13 -11  -2 2948.89 482.809   4
 -11  -2  -2 2882.93 525.525   2
 -11  -2  -1 19569.5 1119.73   2
  13 -11  -1 19977.5 1096.17   4
 -11  -2  -1 21976.7 1391.19   1
 -11  -2   0 2316.65 486.873   1
 -11  -2   0 2896.48 562.448   3
 -11  -2   1 8494.10 903.043   1
 -11  -2   1 8190.78 915.269   3
 -11  -2   2 16435.3 1296.51   3
 -11  -2   3 31594.8 1846.39   3
 -11  -2   4 534.298 446.875   3
 -11  -2   5 1460.67 575.425   3
 -10  -3  -6 2238.45 620.581   2
 -10  -3  -5 218.981 279.174   2
  13 -10  -4 609.769 326.491   4
 -10  -3  -4 227.112 261.841   2
  13 -10  -3 4096.17 595.608   4
 -10  -3  -3 4436.31 658.815   2
 -10  -3  -2 2052.22 470.213   1
  13 -10  -2 1310.51 323.739   4
 -10  -3  -2 1181.18 366.331   2
 -10  -3  -1 4481.73 617.423   3
  13 -10  -1 3542.80 467.012   4
 -10  -3  -1 3602.49 477.562   2
 -10  -3  -1 4970.28 676.880   1
 -10  -3   0 227.886 326.551   1
 -10  -3   0 828.962 358.047   3
 -10  -3   1 755.854 358.224   1
 -10  -3   1 541.410 283.047   3
 -10  -3   2 6199.84 806.821   3
 -10  -3   3 2993.08 599.011   3
 -10  -3   4 1555.58 513.733   3
 -10  -3   5 944.776 407.492   3
 -10  -3   6 2456.06 666.660   3
  -9  -4  -6 5008.05 833.610   2
  -9  -4  -5 329.797 319.973   2
  -9  -4  -4 816.338 396.056   2
  13  -9  -3-64.9516 211.521   4
  -9  -4  -3-56.1497 286.835   2
  -9  -4  -2 2790.52 490.369   3
  13  -9  -2 2490.96 413.624   4
  -9  -4  -2 2163.28 464.855   2
  -9  -4  -1 3342.12 595.248   1
  13  -9  -1 2836.42 407.773   4
  -9  -4  -1 3872.55 468.555   4
  -9  -4  -1 2514.36 432.504   2
  -9  -4  -1 2314.20 421.168   3
  -9  -4   0 300.819 199.695   2
  -9  -4   0 424.012 286.670   3
  -9  -4   0 305.719 199.170   4
  -9  -4   0 516.724 239.923   1
  -9  -4   1 3838.44 622.665   1
  -9  -4   1 3251.83 562.634   3
  -9  -4   2 6458.65 869.806   1
  -9  -4   2 5406.60 718.374   3
  -9  -4   3 1901.28 546.672   3
  -9  -4   4 1088.48 458.474   3
  -9  -4   5 1241.63 511.583   3
  -9  -4   6 694.451 371.049   3
  -8  -5  -6 6288.35 922.159   2
  -8  -5  -5 24074.9 1659.23   2
  -8  -5  -4 102.882 251.040   2
  -8  -5  -3 8586.84 904.662   2
  -8  -5  -3 8167.11 681.005   4
  -8  -5  -2 7723.73 809.677   2
  -8  -5  -2 8089.25 696.725   3
  -8  -5  -2 6703.52 608.640   4
  -8  -5  -1 29206.2 1353.89   3
  -8  -5  -1 26251.0 1362.72   2
  -8  -5  -1 26857.0 1248.54   4
  -8  -5  -1 27963.4 1633.02   1
  -8  -5   0 702.708 244.184   2
  -8  -5   0 538.107 290.199   1
  -8  -5   0 593.987 254.910   3
  -8  -5   0 339.288 185.201   4
  -8  -5   1 9141.24 962.961   1
  -8  -5   1 7772.67 803.200   3
  -8  -5   2 16380.7 1324.38   1
  -8  -5   2 17986.9 1250.71   3
  -8  -5   3 38607.3 1940.70   3
  -8  -5   4 92.3538 265.700   3
  -8  -5   5 5020.19 805.922   3
  -8  -5   6 7377.16 993.839   3
  -7  -6  -6 3138.43 656.535   2
  -7  -6  -5 963.625 443.280   2
  -7  -6  -4 416.182 384.612   2
  -7  -6  -4 752.127 268.929   4
  -7  -6  -3 481.532 379.971   2
  -7  -6  -3 61.9361 183.190   4
  -7  -6  -2 8344.89 852.501   2
  -7  -6  -2 8790.15 746.730   4
  -7  -6  -1 431.675 277.209   2
  -7  -6  -1 256.654 177.452   3
  -7  -6  -1 407.114 219.600   4
  -7  -6   0 333.135 259.436   2
  -7  -6   0-126.561 312.913   1
  -7  -6   0 63.6376 184.971   3
  -7  -6   0 232.423 183.165   4
  -7  -6   1 695.987 354.374   1
  -7  -6   1 459.296 207.304   2
  -7  -6   1 327.126 246.514   3
  -7  -6   2 2999.44 541.252   3
  -7  -6   2 2582.17 568.083   1
  -7  -6   3-202.814 353.479   1
  -7  -6   3 399.129 295.294   3
  -7  -6   4 619.615 314.352   3
  -7  -6   5-278.573 361.271   3
  -7  -6   6 2808.47 689.657   3
  -6  -7  -6 2145.68 570.350   2
  -6  -7  -5 480.912 375.158   2
  -6  -7  -5 244.852 233.298   4
  -6  -7  -4 86.1606 265.907   2
  -6  -7  -4 683.552 374.332   4
  -6  -7  -3 625.285 374.231   2
  -6  -7  -3 84.3278 200.306   4
  -6  -7  -2 7603.18 757.919   4
  -6  -7  -1 228.910 177.211   3
  -6  -7  -1 636.293 291.246   4
  -6  -7   0-351.415 301.408   1
  -6  -7   0 617.475 222.365   3
  -6  -7   0 453.468 201.131   4
  -6  -7   1 279.025 196.268   3
  -6  -7   1 618.456 360.151   1
  -6  -7   2 1681.76 433.312   1
  -6  -7   2 1620.04 388.664   3
  -6  -7   3 149.823 281.073   3
  -6  -7   3 578.541 389.098   1
  -6  -7   4 388.632 305.677   3
  -6  -7   5-323.150 320.594   3
  -6  -7   6 3071.10 637.428   3
  -5  -8  -6 7811.54 1018.90   2
  -5  -8  -6 8268.18 861.599   4
  -5  -8  -5 26322.3 1471.89   4
  -5  -8  -5 22888.5 1665.00   2
  -5  -8  -4-32.3474 260.522   2
  -5  -8  -4-76.6605 206.575   4
  -5  -8  -3 8294.22 825.142   4
  -5  -8  -2 7016.36 753.734   4
  -5  -8  -1 27874.0 1486.21   4
  -5  -8   0 185.274 304.297   1
  -5  -8   0 519.633 215.605   3
  -5  -8   0 823.272 326.247   4
  -5  -8   1 9430.57 784.470   3
  -5  -8   1 8513.14 873.638   4
  -5  -8   1 8046.62 918.807   1
  -5  -8   2 17537.6 1155.23   3
  -5  -8   2 20615.2 1501.76   1
  -5  -8   3 36003.0 1745.43   3
  -5  -8   3 34653.4 1962.77   1
  -5  -8   4 56.2126 285.117   3
  -5  -8   5 4821.60 770.605   3
  -5  -8   6 5402.69 858.036   3
  -4  -9  -6 3403.00 721.883   2
  -4  -9  -6 3947.61 645.958   4
  -4  -9  -5 136.338 367.091   2
  -4  -9  -5 814.197 359.388   4
  -4  -9  -4 818.002 377.812   4
  -4  -9  -3-32.6535 211.042   4
  -4  -9  -2 2658.00 517.453   4
  -4  -9  -1 3636.17 583.086   4
  -4  -9   0 200.473 221.851   4
  -4  -9   1 4150.79 510.585   3
  -4  -9   1 3359.59 668.342   1
  -4  -9   1 4881.31 704.718   4
  -4  -9   2 6285.14 842.900   1
  -4  -9   2 6507.31 690.950   3
  -4  -9   3 886.589 369.667   1
  -4  -9   3 995.020 298.791   3
  -4  -9   4 733.768 385.732   1
  -4  -9   4 543.205 367.790   3
  -4  -9   5 473.866 335.663   3
  -4  -9   6 819.999 398.672   3
  -3 -10  -6 1839.85 570.011   2
  -3 -10  -6 1928.29 527.192   4
  -3 -10  -5-92.0816 262.597   4
  -3 -10  -4 211.552 271.946   4
  -3 -10  -3 4715.85 701.620   4
  -3 -10  -2 1306.69 405.851   4
  -3 -10  -1 3645.27 598.302   4
  -3 -10   0 332.361 243.209   4
  -3 -10   1 325.682 267.967   1
  -3 -10   1 708.061 348.829   4
  -3 -10   2 5832.58 819.062   1
  -3 -10   2 6088.52 657.395   3
  -3 -10   3 3343.18 562.093   3
  -3 -10   3 3812.25 698.995   1
  -3 -10   4 1103.04 378.657   3
  -3 -10   4 281.257 318.518   1
  -3 -10   5 90.3674 348.158   3
  -3 -10   6 2149.13 513.201   3
  -2 -11  -5 26355.1 1667.86   4
  -2 -11  -4-324.048 266.229   4
  -2 -11  -3 5299.90 734.269   4
  -2 -11  -2 3104.01 544.920   4
  -2 -11  -1 21191.0 1454.07   4
  -2 -11   0 2706.07 564.480   4
  -2 -11   1 8349.74 949.889   1
  -2 -11   1 8618.50 956.349   4
  -2 -11   2 17716.5 1384.41   4
  -2 -11   2 18424.5 1430.97   1
  -2 -11   3 32411.2 1896.08   1
  -2 -11   3 29631.0 1519.90   3
  -2 -11   4 120.784 278.610   3
  -2 -11   4 140.154 342.115   1
  -2 -11   5 1265.42 442.283   3
  -1 -12  -5-509.248 366.500   4
  -1 -12  -4-437.276 364.197   4
  -1 -12  -3 7042.74 888.893   4
  -1 -12  -2 362.698 340.364   4
  -1 -12  -1-79.8807 283.499   4
  -1 -12   0 118.145 294.096   4
  -1 -12   1 3747.70 686.114   1
  -1 -12   1 3409.69 646.290   4
  -1 -12   2 2219.45 582.166   4
  -1 -12   2 2783.31 633.237   1
  -1 -12   3 155.009 315.873   1
  -1 -12   4 464.742 293.960   3
  -1 -12   4 332.118 312.758   1
  -1 -12   5 3020.96 576.675   3
   0 -13  -4 1202.53 471.184   4
   0 -13  -3 809.186 451.691   4
   0 -13  -2 5857.04 820.956   4
   0 -13  -1 2534.17 587.983   4
   0 -13   0 729.016 402.966   4
   0 -13   1 2023.18 519.440   1
   0 -13   1 1378.91 437.315   4
   0 -13   2 6842.98 949.860   4
   0 -13   2 7191.58 919.761   1
   0 -13   3 257.156 358.763   1
   0 -13   3-34.2595 358.816   4
   0 -13   4 649.695 295.132   1
   1 -14  -3 2332.63 599.745   4
   1 -14  -2 16697.0 1408.31   4
   1 -14  -1 26238.7 1736.89   4
   1 -14   0-245.922 338.875   4
   1 -14   1 1538.36 504.079   1
   1 -14   1 1253.01 470.011   4
   1 -14   2 8808.27 1067.61   4
   1 -14   2 8318.70 974.066   1
   1 -14   3 19398.7 1576.70   4
   1 -14   3 19725.4 1488.71   1
   2 -15  -1 181.106 378.157   4
   2 -15   0-218.142 329.018   4
   2 -15   1 7007.20 892.992   1
   2 -15   1 7714.84 963.398   4
 -14   0   0 1476.12 483.468   3
 -14   0   1 987.576 397.481   3
  14 -13  -3 20344.3 1305.60   4
 -13  -1  -2 10403.6 936.794   1
 -13  -1  -1 3774.81 607.372   1
 -13  -1   0-65.3178 255.895   1
 -13  -1   0 238.555 409.292   3
 -13  -1   1 27015.4 1723.11   3
 -13  -1   2 14460.0 1321.35   3
 -13  -1   3 2520.57 628.467   3
  14 -12  -4 1686.29 441.101   4
 -12  -2  -4 1726.01 464.798   1
 -12  -2  -4 2281.99 494.283   2
 -12  -2  -3 6064.53 761.533   1
 -12  -2  -3 3418.23 587.491   2
  14 -12  -3 4486.37 613.258   4
 -12  -2  -2 664.813 305.827   1
 -12  -2  -1 3599.99 633.709   3
 -12  -2  -1 4737.56 694.180   1
 -12  -2   0 2297.72 472.144   1
 -12  -2   0 2017.05 479.153   3
 -12  -2   1 4689.93 714.289   3
 -12  -2   2-289.960 337.886   3
 -12  -2   3 955.778 455.033   3
 -12  -2   4 3311.46 677.915   3
  14 -11  -4 3682.09 569.708   4
 -11  -3  -4 2604.90 594.739   2
  14 -11  -3-229.605 263.944   4
 -11  -3  -3 498.232 318.031   1
 -11  -3  -3-33.6595 225.834   2
 -11  -3  -2 451.178 349.322   1
 -11  -3  -2 376.237 292.003   2
 -11  -3  -1 692.514 372.821   1
 -11  -3  -1 1453.77 366.137   3
 -11  -3   0 1501.30 493.375   1
 -11  -3   0 987.049 373.319   3
 -11  -3   1 935.612 399.960   3
 -11  -3   1 135.168 274.473   1
 -11  -3   2 502.989 338.059   3
 -11  -3   3-549.210 375.333   3
 -11  -3   4 4028.43 775.167   3
 -10  -4  -5 2248.38 588.039   2
 -10  -4  -4 189.062 332.636   2
 -10  -4  -3 20684.8 1389.74   2
 -10  -4  -2 11349.5 999.022   2
 -10  -4  -2 13225.5 985.781   3
 -10  -4  -2 12125.6 1112.33   1
 -10  -4  -1 12093.6 971.333   3
 -10  -4  -1 13418.3 1152.86   1
 -10  -4   0-0.46978 280.999   1
 -10  -4   0 1030.61 324.971   3
 -10  -4   1 30100.0 1757.39   1
 -10  -4   1 29596.2 1647.29   3
 -10  -4   2 19631.0 1393.54   3
 -10  -4   2 17585.5 1374.10   1
 -10  -4   3 1427.01 430.866   3
 -10  -4   4 1256.16 505.624   3
 -10  -4   5 18250.2 1532.07   3
  -9  -5  -5 1427.78 492.072   2
  -9  -5  -4 6234.58 865.516   2
  -9  -5  -3 8494.58 938.184   2
  -9  -5  -2-105.017 222.629   2
  -9  -5  -1 1638.24 428.804   1
  -9  -5  -1 741.400 352.575   3
  -9  -5  -1 1127.59 357.571   2
  -9  -5   0 3220.39 513.530   3
  -9  -5   0 3749.53 482.573   4
  -9  -5   0 2660.95 582.276   1
  -9  -5   1 1020.60 398.815   1
  -9  -5   1 1042.20 313.843   3
  -9  -5   2 460.281 281.938   3
  -9  -5   2 511.314 358.864   1
  -9  -5   3 862.441 366.137   3
  -9  -5   4 3035.10 644.021   3
  -9  -5   5 2552.50 650.498   3
  -8  -6  -5 1120.67 429.913   2
  -8  -6  -4 1011.82 499.277   2
  -8  -6  -3 748.128 405.767   2
  -8  -6  -2 1073.52 344.895   2
  -8  -6  -2 2084.02 408.984   4
  -8  -6  -1 2093.33 425.631   2
  -8  -6  -1 2827.54 582.439   1
  -8  -6  -1 2757.92 445.336   4
  -8  -6   0 4866.58 589.781   2
  -8  -6   0 4462.91 692.901   1
  -8  -6   0 4277.00 572.928   3
  -8  -6   0 5552.42 655.890   4
  -8  -6   1 9555.65 887.972   3
  -8  -6   1 8902.25 1018.51   1
  -8  -6   2 2.03716 273.202   1
  -8  -6   2 1497.89 450.248   3
  -8  -6   3 617.071 310.745   3
  -8  -6   3 514.621 398.545   1
  -8  -6   4 2737.95 609.628   3
  -8  -6   5 1124.90 502.493   3
  -7  -7  -5 17711.2 1479.69   2
  -7  -7  -4 5344.07 774.548   2
  -7  -7  -3 12229.3 1109.33   2
  -7  -7  -3 11920.6 922.979   4
  -7  -7  -2 20433.0 1367.64   2
  -7  -7  -2 19155.0 1164.32   4
  -7  -7  -1 8054.75 817.487   2
  -7  -7  -1 6820.14 864.161   1
  -7  -7  -1 6881.10 716.694   4
  -7  -7   0 686.457 307.192   2
  -7  -7   0 167.543 367.456   1
  -7  -7   0 22.4932 182.618   3
  -7  -7   0 70.2753 202.262   4
  -7  -7   1 58311.8 2080.38   3
  -7  -7   1 53834.1 2409.94   1
  -7  -7   2 19318.5 1289.44   3
  -7  -7   2 17694.5 1432.85   1
  -7  -7   3 7402.55 955.610   1
  -7  -7   3 9478.45 968.544   3
  -7  -7   4 2388.89 556.365   3
  -7  -7   5 14531.5 1328.07   3
  -6  -8  -5 1098.86 511.629   2
  -6  -8  -4 862.615 355.667   2
  -6  -8  -4 967.552 353.608   4
  -6  -8  -3-305.389 352.058   2
  -6  -8  -3 345.759 239.275   4
  -6  -8  -2 2542.74 481.310   4
  -6  -8  -1 2859.49 497.103   4
  -6  -8   0 5734.75 817.284   1
  -6  -8   0 5000.59 676.759   4
  -6  -8   1 8599.20 779.153   3
  -6  -8   1 10353.1 955.768   4
  -6  -8   1 9557.20 1056.60   1
  -6  -8   2 920.332 410.952   1
  -6  -8   2-72.1968 231.297   3
  -6  -8   3 284.348 248.230   3
  -6  -8   3 386.759 337.491   1
  -6  -8   4 3243.00 607.078   3
  -6  -8   5 2098.68 578.914   3
  -5  -9  -5 147.567 340.811   2
  -5  -9  -5-342.146 279.089   4
  -5  -9  -4 4605.50 768.318   2
  -5  -9  -4 5760.32 736.912   4
  -5  -9  -3 6777.38 785.974   4
  -5  -9  -2-182.662 300.860   4
  -5  -9  -1 1319.23 378.506   4
  -5  -9   0 4651.31 754.501   1
  -5  -9   0 2994.39 552.655   4
  -5  -9   1 2010.60 541.131   1
  -5  -9   1 1220.46 387.440   4
  -5  -9   2 341.603 295.676   1
  -5  -9   2 1178.42 371.133   3
  -5  -9   3 314.269 308.020   1
  -5  -9   3 964.537 335.071   3
  -5  -9   4 2302.58 538.689   3
  -5  -9   5 3114.07 684.494   3
  -4 -10  -5 2281.41 544.599   4
  -4 -10  -4 72.4294 248.395   4
  -4 -10  -3 20200.5 1371.83   4
  -4 -10  -2 12108.0 1070.52   4
  -4 -10  -1 11470.9 1048.44   4
  -4 -10   0 782.876 437.067   1
  -4 -10   0 754.995 334.850   4
  -4 -10   1 31269.9 1738.71   4
  -4 -10   1 30603.2 1872.38   1
  -4 -10   2 15928.8 1366.67   1
  -4 -10   3 2447.76 571.345   1
  -4 -10   3 2148.29 491.798   3
  -4 -10   4 300.279 277.483   3
  -4 -10   4 1237.96 451.199   1
  -4 -10   5 16215.8 1325.47   3
  -3 -11  -4 2845.63 559.753   4
  -3 -11  -3-55.5449 292.328   4
  -3 -11  -2 196.889 287.783   4
  -3 -11  -1 938.835 404.915   4
  -3 -11   0 992.710 464.368   1
  -3 -11   0 1511.16 438.014   4
  -3 -11   1-46.9040 302.482   1
  -3 -11   1-318.008 362.826   4
  -3 -11   2 851.670 454.647   1
  -3 -11   2 844.646 446.555   4
  -3 -11   3 476.777 391.415   1
  -3 -11   4 2246.87 509.861   3
  -3 -11   4 1984.07 560.191   1
  -2 -12  -4 2317.97 576.360   4
  -2 -12  -3 3992.16 681.935   4
  -2 -12  -2 285.516 338.805   4
  -2 -12  -1 3298.03 614.513   4
  -2 -12   0 2188.93 542.346   4
  -2 -12   1 5086.46 814.019   1
  -2 -12   1 4941.44 764.315   4
  -2 -12   2 146.455 309.812   1
  -2 -12   2-283.198 348.346   4
  -2 -12   3 809.119 396.068   1
  -2 -12   4 3532.03 736.768   1
  -1 -13  -3 20733.0 1508.79   4
  -1 -13  -2 8818.95 1002.17   4
  -1 -13  -1 999.894 450.870   4
  -1 -13   0 183.202 304.536   4
  -1 -13   1 26583.0 1762.73   4
  -1 -13   1 29619.7 1885.10   1
  -1 -13   2 15175.4 1380.55   4
  -1 -13   2 14598.7 1330.42   1
  -1 -13   3 1448.07 466.961   1
  -1 -13   3 2938.69 593.963   4
   0 -14  -1 115.804 342.744   4
   0 -14   0 2611.46 659.829   4
   0 -14   1-426.640 306.410   1
   0 -14   1 592.703 410.983   4
 -13  -2  -1 8032.57 894.919   1
 -13  -2  -1 6668.49 865.828   3
 -13  -2   0 1364.19 439.069   1
 -13  -2   0 493.138 309.707   3
 -13  -2   1 102.013 312.488   3
 -12  -3  -2 2941.05 576.957   1
 -12  -3  -1-35.0219 282.338   1
 -12  -3  -1 123.862 322.268   3
 -12  -3   0 20983.1 1467.34   1
 -12  -3   0 23267.6 1499.05   3
 -12  -3   1 721.593 367.827   1
 -12  -3   1 630.422 314.654   3
 -12  -3   2 5793.75 792.625   3
 -11  -4  -3 2294.90 556.729   1
 -11  -4  -3 2905.46 556.409   2
 -11  -4  -2 159.689 252.700   1
 -11  -4  -1 3301.71 565.505   3
 -11  -4  -1 3422.67 635.875   1
 -11  -4   0 1025.15 417.171   1
 -11  -4   0 1712.09 460.571   3
 -11  -4   1 806.562 415.133   1
 -11  -4   1-242.821 353.885   3
 -11  -4   2 859.226 374.510   3
 -11  -4   3 1363.05 473.576   3
 -10  -5  -4 346.921 299.878   2
 -10  -5  -3 376.141 297.466   2
 -10  -5  -2 432.524 338.468   1
 -10  -5  -1 5037.17 766.429   1
 -10  -5   0 842.533 382.345   1
 -10  -5   0 1166.80 376.276   3
 -10  -5   1 408.207 367.539   1
 -10  -5   1 171.350 262.430   3
 -10  -5   2 374.161 320.359   1
 -10  -5   2 312.251 328.201   3
 -10  -5   3 5441.42 769.905   3
 -10  -5   4 1.82752 367.891   3
  -9  -6  -4 14638.8 1272.44   2
  -9  -6  -3 1720.24 412.783   2
  -9  -6  -2 6038.09 806.240   1
  -9  -6  -2 4295.63 639.536   2
  -9  -6  -1 7930.68 947.030   1
  -9  -6   0 28832.8 1423.43   4
  -9  -6   0 32389.6 1900.30   1
  -9  -6   1 4313.24 743.950   1
  -9  -6   1 5089.05 685.738   3
  -9  -6   1 5121.55 645.308   4
  -9  -6   2 4554.93 654.650   3
  -9  -6   2 6116.95 888.752   1
  -9  -6   3 1510.36 445.822   3
  -9  -6   4 22545.5 1612.54   3
  -8  -7  -4-6.28650 317.339   2
  -8  -7  -3 895.519 394.400   2
  -8  -7  -2 1310.52 348.788   2
  -8  -7  -1 2892.77 530.841   2
  -8  -7  -1 3012.55 633.608   1
  -8  -7  -1 2470.52 462.998   4
  -8  -7   0 4032.58 702.745   1
  -8  -7   0 3578.87 550.735   4
  -8  -7   1-258.728 266.508   1
  -8  -7   1 616.099 307.330   3
  -8  -7   1 853.006 364.484   4
  -8  -7   2 389.005 402.982   1
  -8  -7   2 156.995 296.457   3
  -8  -7   3 1491.81 507.843   1
  -8  -7   3 405.756 297.820   3
  -8  -7   4 466.544 264.149   3
  -7  -8  -4 454.588 407.824   2
  -7  -8  -3 224.857 254.034   2
  -7  -8  -2 1015.20 402.980   2
  -7  -8  -2 1254.43 366.760   4
  -7  -8  -1 1727.84 413.264   2
  -7  -8  -1 2497.67 489.620   4
  -7  -8   0 3968.75 735.830   1
  -7  -8   0 3805.15 607.139   4
  -7  -8   1 116.072 347.718   1
  -7  -8   1-95.7764 269.566   4
  -7  -8   2-63.9610 252.531   3
  -7  -8   2 98.7396 316.502   1
  -7  -8   3 1965.41 552.445   1
  -7  -8   3 2375.98 509.218   3
  -7  -8   4-11.9565 294.553   3
  -6  -9  -4 13584.7 1266.59   2
  -6  -9  -4 11257.4 971.113   4
  -6  -9  -3 1726.46 545.136   2
  -6  -9  -3 1438.91 436.477   4
  -6  -9  -2 4750.87 665.331   4
  -6  -9  -1 8362.44 862.331   4
  -6  -9   0 27810.1 1570.46   4
  -6  -9   0 30267.6 1899.21   1
  -6  -9   1 4702.87 675.729   4
  -6  -9   1 6245.92 911.636   1
  -6  -9   2 5218.63 812.798   1
  -6  -9   3 1750.73 445.195   3
  -6  -9   3 2920.47 683.126   1
  -6  -9   4 19416.2 1410.24   3
  -5 -10  -4 525.620 383.488   2
  -5 -10  -4-196.252 272.462   4
  -5 -10  -3 111.148 265.940   4
  -5 -10  -2 214.342 260.813   4
  -5 -10  -1 4295.15 651.967   4
  -5 -10   0 1710.44 496.866   1
  -5 -10   0 872.508 378.893   4
  -5 -10   1 223.122 312.707   1
  -5 -10   1-526.188 345.846   4
  -5 -10   2 152.274 362.764   1
  -5 -10   2 240.276 287.449   4
  -5 -10   3 5484.88 871.016   1
  -5 -10   4 110.210 361.163   3
  -4 -11  -3 1602.45 465.246   4
  -4 -11  -2 1139.34 392.328   4
  -4 -11  -1 2112.54 498.901   4
  -4 -11   0 1149.26 486.383   1
  -4 -11   0 369.987 262.558   4
  -4 -11   1-135.833 286.782   1
  -4 -11   1 309.783 283.324   4
  -4 -11   2 675.662 435.990   1
  -4 -11   2 535.186 361.693   4
  -4 -11   3 1523.87 498.999   1
  -3 -12  -2 1938.55 500.894   4
  -3 -12  -1 275.122 344.339   4
  -3 -12   0 21101.4 1524.72   4
  -3 -12   0 20585.9 1619.37   1
  -3 -12   1 209.431 331.762   1
  -3 -12   1 666.242 418.592   4
  -3 -12   2 5884.17 899.555   1
  -3 -12   2 6447.34 887.202   4
  -2 -13  -1 6998.40 901.358   4
  -2 -13   0 791.408 486.523   1
  -2 -13   0 274.500 290.080   4
  -2 -13   1 265.952 329.818   1
  -2 -13   1-794.365 391.221   4
 -11  -5   0 15.8359 351.015   1
 -10  -6  -1 2513.08 578.648   1
 -10  -6   0 464.799 410.032   1
 -10  -6   1-40.6547 298.333   1
  -9  -7  -2 2645.11 751.951   1
  -9  -7  -1 203.829 317.056   1
  -9  -7   0 2321.66 582.389   1
  -9  -7   1 4649.81 830.293   1
  -9  -7   1 4655.13 648.668   4
  -9  -7   2 5197.59 871.404   1
  -8  -8  -2 5870.29 786.957   2
  -8  -8  -1 18811.6 1512.72   1
  -8  -8   0 227.840 299.044   1
  -8  -8   0-270.967 253.908   4
  -8  -8   1 3075.78 702.534   1
  -8  -8   1 2294.51 472.475   4
  -8  -8   2 8766.35 1112.93   1
  -7  -9  -2 2041.69 506.328   2
  -7  -9  -2 3100.65 546.255   4
  -7  -9  -1 155.074 314.984   1
  -7  -9  -1 348.725 338.973   4
  -7  -9   0 2498.10 654.109   1
  -7  -9   0 2588.42 543.466   4
  -7  -9   1 5561.83 895.542   1
  -7  -9   1 4638.88 691.152   4
  -7  -9   2 5082.71 747.147   4
  -7  -9   2 5727.32 897.762   1
  -6 -10  -1 1372.02 552.056   1
  -6 -10  -1 1952.20 454.486   4
  -6 -10   0 84.5913 338.240   1
  -6 -10   0 51.3564 249.046   4
  -6 -10   1 951.756 515.572   1
  -6 -10   1 316.971 286.165   4
  -5 -11   0 333.927 343.461   1
  -5 -11   0 300.381 267.669   4
;
_shelx_hkl_checksum              92279
loop_
_space_group_symop_operation_xyz
'x, y, z'
'-y, x-y, z'
'-x+y, -x, z'
'-y, -x, -z'
'x, x-y, -z'
'-x+y, y, -z'
'-x, -y, -z'
'y, -x+y, -z'
'x-y, x, -z'
'y, x, z'
'-x, -x+y, z'
'x-y, -y, z'
loop_
_atom_site_label
_atom_site_type_symbol
_atom_site_fract_x
_atom_site_fract_y
_atom_site_fract_z
_atom_site_U_iso_or_equiv
_atom_site_adp_type
_atom_site_occupancy
_atom_site_site_symmetry_order
_atom_site_calc_flag
_atom_site_refinement_flags_posn
_atom_site_refinement_flags_adp
_atom_site_refinement_flags_occupancy
_atom_site_disorder_assembly
_atom_site_disorder_group
Fe1 Fe 0.6667 0.3333 0.0000 0.0155(4) Uani 1 6 d S T P . .
O2 O 0.8024(3) 0.3420(3) 0.1092(4) 0.0190(8) Uani 1 1 d . . . . .
C2 C 0.8981(4) 0.4114(4) 0.0611(5) 0.0158(10) Uani 1 1 d . . . . .
C1 C 1.0000 0.4253(5) 0.1099(7) 0.0141(13) Uani 1 2 d S T P . .
Br1 Br 1.0000 0.32649(6) 0.24967(8) 0.0294(3) Uani 1 2 d S T P . .
N11 N 1.1176(5) 0.5588(3) 0.5000 0.0250(14) Uani 1 2 d S T P . .
C12 C 1.0600(4) 0.4683(4) 0.5861(5) 0.0251(11) Uani 1 1 d . . . . .
C13 C 1.1180(5) 0.4328(5) 0.6778(6) 0.0291(12) Uani 1 1 d . . . . .
H13 H 1.1976 0.4718 0.6785 0.035 Uiso 1 1 calc R U . . .
C14 C 1.0594(5) 0.3423(5) 0.7653(6) 0.0333(13) Uani 1 1 d . . . . .
H14 H 1.0987 0.3186 0.8271 0.040 Uiso 1 1 calc R U . . .
O1W O 1.3333 0.6667 -0.543(12) 0.145(13) Uani 0.25 3 d S TU P A 1
O1W' O 1.3333 0.6667 0.468(4) 0.032(7) Uani 0.25 3 d S TU P B 2
O2W O 1.0602(10) 0.1204(19) 0.5000 0.289(15) Uani 1 2 d S T P . .
O3W O 1.0516(9) 0.1033(18) 1.0000 0.318(16) Uani 1 2 d S T P . .
loop_
_atom_site_aniso_label
_atom_site_aniso_U_11
_atom_site_aniso_U_22
_atom_site_aniso_U_33
_atom_site_aniso_U_23
_atom_site_aniso_U_13
_atom_site_aniso_U_12
Fe1 0.0098(6) 0.0098(6) 0.0268(10) 0.000 0.000 0.0049(3)
O2 0.0155(17) 0.0133(17) 0.0245(17) 0.0041(14) -0.0016(14) 0.0043(14)
C2 0.018(2) 0.009(2) 0.019(2) -0.0009(18) 0.0028(19) 0.0056(19)
C1 0.015(3) 0.011(2) 0.017(3) 0.005(2) 0.000 0.0077(16)
Br1 0.0285(5) 0.0278(4) 0.0320(5) 0.0071(3) 0.000 0.0142(3)
N11 0.025(3) 0.025(2) 0.025(3) -0.002(2) 0.000 0.0125(16)
C12 0.027(3) 0.026(3) 0.021(3) -0.008(2) 0.000(2) 0.012(2)
C13 0.029(3) 0.035(3) 0.029(3) -0.008(3) -0.004(2) 0.021(3)
C14 0.039(3) 0.038(3) 0.031(3) -0.004(3) -0.004(3) 0.026(3)
O1W 0.145(12) 0.145(12) 0.145(17) 0.000 0.000 0.072(6)
O1W' 0.033(7) 0.033(7) 0.030(13) 0.000 0.000 0.016(3)
O2W 0.25(2) 0.33(3) 0.31(2) 0.000 0.014(15) 0.167(14)
O3W 0.22(3) 0.206(19) 0.52(3) 0.000 -0.02(2) 0.103(9)
loop_
_atom_type_symbol
_atom_type_description
_atom_type_scat_dispersion_real
_atom_type_scat_dispersion_imag
_atom_type_scat_source
C C 0.0033 0.0016 'International Tables Vol C Tables 4.2.6.8 and 6.1.1.4'
H H 0.0000 0.0000 'International Tables Vol C Tables 4.2.6.8 and 6.1.1.4'
N N 0.0061 0.0033 'International Tables Vol C Tables 4.2.6.8 and 6.1.1.4'
O O 0.0106 0.0060 'International Tables Vol C Tables 4.2.6.8 and 6.1.1.4'
Fe Fe 0.3463 0.8444 'International Tables Vol C Tables 4.2.6.8 and 6.1.1.4'
Br Br -0.2901 2.4595 'International Tables Vol C Tables 4.2.6.8 and 6.1.1.4'
loop_
_geom_angle_atom_site_label_1
_geom_angle_atom_site_label_2
_geom_angle_atom_site_label_3
_geom_angle
_geom_angle_site_symmetry_1
_geom_angle_site_symmetry_3
O2 Fe1 O2 98.35(12) 4_665 5
O2 Fe1 O2 77.41(17) 4_665 3_665
O2 Fe1 O2 174.30(17) 5 3_665
O2 Fe1 O2 174.30(17) 4_665 2_655
O2 Fe1 O2 86.13(18) 5 2_655
O2 Fe1 O2 98.35(12) 3_665 2_655
O2 Fe1 O2 98.35(12) 4_665 6_655
O2 Fe1 O2 98.35(12) 5 6_655
O2 Fe1 O2 86.13(18) 3_665 6_655
O2 Fe1 O2 77.41(17) 2_655 6_655
O2 Fe1 O2 86.13(18) 4_665 .
O2 Fe1 O2 77.41(17) 5 .
O2 Fe1 O2 98.35(12) 3_665 .
O2 Fe1 O2 98.35(12) 2_655 .
O2 Fe1 O2 174.30(17) 6_655 .
C2 O2 Fe1 116.3(3) . .
O2 C2 C1 126.2(4) . .
O2 C2 C2 114.8(3) . 5
C1 C2 C2 119.1(3) . 5
C2 C1 C2 121.5(6) . 11_765
C2 C1 Br1 119.2(3) . .
C2 C1 Br1 119.2(3) 11_765 .
C12 N11 C12 118.9(6) . 5_556
N11 C12 C13 120.0(5) . .
N11 C12 C12 120.6(3) . 11_765
C13 C12 C12 119.4(3) . 11_765
C14 C13 C12 119.7(6) . .
C14 C13 H13 120.2 . .
C12 C13 H13 120.2 . .
C13 C14 C14 120.9(4) . 11_765
C13 C14 H14 119.6 . .
C14 C14 H14 119.6 11_765 .
O2W O2W O2W 120.000(5) 8_666 9_546
O3W O3W O3W 120.004(12) 8_667 9_547
loop_
_geom_bond_atom_site_label_1
_geom_bond_atom_site_label_2
_geom_bond_distance
_geom_bond_site_symmetry_2
Fe1 O2 2.076(3) 4_665
Fe1 O2 2.076(3) 5
Fe1 O2 2.076(3) 3_665
Fe1 O2 2.076(3) 2_655
Fe1 O2 2.076(3) 6_655
Fe1 O2 2.076(3) .
O2 C2 1.262(6) .
C2 C1 1.394(5) .
C2 C2 1.534(9) 5
C1 C2 1.394(6) 11_765
C1 Br1 1.877(6) .
N11 C12 1.352(6) .
N11 C12 1.352(6) 5_556
C12 C13 1.410(7) .
C12 C12 1.432(10) 11_765
C13 C14 1.362(8) .
C13 H13 0.9500 .
C14 C14 1.419(13) 11_765
C14 H14 0.9500 .
O1W O1W 0.8(2) 4_774
O1W' O1W' 0.59(7) 4_776
O2W O2W 1.44(2) 8_666
O2W O2W 1.44(2) 9_546
O3W O3W 1.23(2) 8_667
O3W O3W 1.23(2) 9_547
loop_
_geom_torsion_atom_site_label_1
_geom_torsion_atom_site_label_2
_geom_torsion_atom_site_label_3
_geom_torsion_atom_site_label_4
_geom_torsion
_geom_torsion_site_symmetry_1
_geom_torsion_site_symmetry_4
Fe1 O2 C2 C1 -174.7(4) . .
Fe1 O2 C2 C2 6.1(6) . 5
O2 C2 C1 C2 -172.3(4) . 11_765
C2 C2 C1 C2 6.9(10) 5 11_765
O2 C2 C1 Br1 5.4(8) . .
C2 C2 C1 Br1 -175.5(4) 5 .
C12 N11 C12 C13 -179.5(5) 5_556 .
C12 N11 C12 C12 -0.001(1) 5_556 11_765
N11 C12 C13 C14 179.3(4) . .
C12 C12 C13 C14 -0.2(6) 11_765 .
C12 C13 C14 C14 0.2(6) . 11_765
