#------------------------------------------------------------------------------
#$Date: 2019-11-24 22:10:48 +0200 (Sun, 24 Nov 2019) $
#$Revision: 239568 $
#$URL: file:///home/coder/svn-repositories/cod/cif/4/51/68/4516820.cif $
#------------------------------------------------------------------------------
#
# This file is available in the Crystallography Open Database (COD),
# http://www.crystallography.net/
#
# All data on this site have been placed in the public domain by the
# contributors.
#
data_4516820
loop_
_publ_author_name
'Moreno-Moreno, Miriam'
'Troyano, Javier'
'Ares, Pablo'
'Castillo, Oscar'
'Nijhuis, Christian A.'
'Yuan, Li'
'Amo-Ochoa, Pilar'
'Delgado, Salom\'e'
'G\'omez-Herrero, Julio'
'Zamora, F\'elix'
'G\'omez-Navarro, Cristina'
_publ_contact_author
;
 Felix Zamora. Departamento de Quimica Inorganica. 
 Facultad de Ciencias
 Universidad Autonoma de Madrid, 28049 Madrid, Spain
;
_publ_section_title
;
 One-Pot Preparation of Mechanically Robust, Transparent, Highly
 Conductive, and Memristive Metal-Organic Ultrathin Film.
;
_journal_issue                   10
_journal_name_full               'ACS nano'
_journal_page_first              10171
_journal_page_last               10177
_journal_paper_doi               10.1021/acsnano.8b05056
_journal_volume                  12
_journal_year                    2018
_chemical_formula_moiety         'C2 H5 Cu2 I2 N S'
_chemical_formula_sum            'C2 H5 Cu2 I2 N S'
_chemical_formula_weight         456.01
_chemical_name_systematic
; 
diiodidoacetamidedicopper(I) 
;
_space_group_crystal_system      tetragonal
_space_group_IT_number           88
_space_group_name_Hall           '-I 4ad'
_space_group_name_H-M_alt        'I 41/a :2'
_atom_sites_solution_primary     direct
_atom_sites_solution_secondary   difmap
_audit_creation_method           SHELXL
_cell_angle_alpha                90
_cell_angle_beta                 90
_cell_angle_gamma                90
_cell_formula_units_Z            12
_cell_length_a                   15.5848(7)
_cell_length_b                   15.5848(7)
_cell_length_c                   9.8950(5)
_cell_measurement_reflns_used    10746
_cell_measurement_temperature    100(2)
_cell_measurement_theta_max      25.373
_cell_measurement_theta_min      2.438
_cell_measurement_wavelength     0.71073
_cell_volume                     2403.4(2)
_computing_cell_refinement       'CrysAlis CCD (Oxford Diffraction, 2003)'
_computing_data_collection       'CrysAlis CCD (Oxford Diffraction, 2003)'
_computing_data_reduction        'CrysAlis RED (Oxford Diffraction, 2003)'
_computing_molecular_graphics    'Ortep-3 (Farrugia, 1997)'
_computing_publication_material  'WinGX (Farrugia, 1999)'
_computing_structure_refinement  'SHELXL-97 (Sheldrick, 1997)'
_computing_structure_solution    'Sir92 (Altomare et al., 1993)'
_diffrn_ambient_environment      N~2~
_diffrn_ambient_temperature      100(2)
_diffrn_detector_area_resol_mean 8.3333
_diffrn_measured_fraction_theta_full 1.000
_diffrn_measured_fraction_theta_max 0.999
_diffrn_measurement_device       'four-circle diffractometer'
_diffrn_measurement_device_type  'Bruker Kappa Apex II'
_diffrn_radiation_probe          x-ray
_diffrn_radiation_type           'Mo K\a'
_diffrn_radiation_wavelength     0.71073
_diffrn_reflns_av_R_equivalents  0.1278
_diffrn_reflns_av_unetI/netI     0.0429
_diffrn_reflns_limit_h_max       18
_diffrn_reflns_limit_h_min       -18
_diffrn_reflns_limit_k_max       18
_diffrn_reflns_limit_k_min       -17
_diffrn_reflns_limit_l_max       11
_diffrn_reflns_limit_l_min       -11
_diffrn_reflns_number            10746
_diffrn_reflns_theta_full        25.242
_diffrn_reflns_theta_max         25.373
_diffrn_reflns_theta_min         2.438
_exptl_absorpt_coefficient_mu    13.180
_exptl_absorpt_correction_T_max  0.53
_exptl_absorpt_correction_T_min  0.40
_exptl_absorpt_correction_type   multi-scan
_exptl_absorpt_process_details   sadabs
_exptl_crystal_colour            colourless
_exptl_crystal_density_diffrn    3.781
_exptl_crystal_density_meas      ?
_exptl_crystal_description       plate
_exptl_crystal_F_000             2448
_exptl_crystal_size_max          0.11
_exptl_crystal_size_mid          0.06
_exptl_crystal_size_min          0.05
_refine_diff_density_max         1.007
_refine_diff_density_min         -1.780
_refine_diff_density_rms         0.270
_refine_ls_extinction_method     none
_refine_ls_goodness_of_fit_ref   1.077
_refine_ls_hydrogen_treatment    undef
_refine_ls_matrix_type           full
_refine_ls_number_parameters     72
_refine_ls_number_reflns         1107
_refine_ls_number_restraints     9
_refine_ls_restrained_S_all      1.074
_refine_ls_R_factor_all          0.0438
_refine_ls_R_factor_gt           0.0389
_refine_ls_shift/su_max          0.000
_refine_ls_shift/su_mean         0.000
_refine_ls_structure_factor_coef Fsqd
_refine_ls_weighting_details
'w=1/[\s^2^(Fo^2^)+(0.0554P)^2^+24.6784P] where P=(Fo^2^+2Fc^2^)/3'
_refine_ls_weighting_scheme      calc
_refine_ls_wR_factor_gt          0.1065
_refine_ls_wR_factor_ref         0.1091
_reflns_number_gt                976
_reflns_number_total             1107
_reflns_threshold_expression     'I > 2\s(I)'
_cod_data_source_file            nn8b05056_si_002.cif
_cod_data_source_block           compound1-fresh100K
_cod_depositor_comments
;
The following automatic conversions were performed:

data item '_exptl_crystal_density_meas' value 'not measured' was
changed to '?' -- the value is perceived as not measured.

Automatic conversion script
Id: cif_fix_values 6909 2019-04-08 15:41:33Z antanas 
;
_cod_original_sg_symbol_H-M      'I 41/a'
_cod_database_code               4516820
_shelx_space_group_comment
;
The symmetry employed for this shelxl refinement is uniquely defined
by the following loop, which should always be used as a source of
symmetry information in preference to the above space-group names.
They are only intended as comments.
;
_shelx_res_file
;
TITL datosI41a in I4(1)/a
    shelx.res
    created by SHELXL-2016/6 at 02:43:23 on 19-Jul-2017
CELL  0.71073  15.5848  15.5848   9.8950   90.000   90.000   90.000
ZERR    12.00   0.0007   0.0007   0.0005    0.000    0.000    0.000
LATT   2
SYMM  1/4 - Y, 3/4 + X, 3/4 + Z
SYMM  1/4 + Y, 1/4 - X, 1/4 + Z
SYMM  - X, 1/2 - Y,   Z
SFAC  C    H    CU   I    N    S
UNIT  24   60   24   24   12   12
MERG   2
DFIX 1.30 0.01 C1A N1A C1B N1B C1C N1C
DFIX 1.49 0.01 C1A C2A C1B C2B C1C C2C
FLAT  0.001 S1 C1A N1A C2A
FLAT  0.001 S1 C1B N1B C2B
FLAT  0.001 S1 C1C N1C C2C
EXYZ C2A N1C
EADP C1A C1B C1C
EADP N1A N1B N1C
EADP C2A C2B C2C
FMAP   2
PLAN   20
ACTA
L.S.  10
WGHT    0.055400   24.678400
FVAR       0.05562   0.04960
I1    4    0.303402    0.144718    0.122913    11.00000    0.01594    0.02067 =
         0.02721   -0.00391   -0.00235    0.00267
I2    4    0.500000    0.250000   -0.125000    10.25000    0.04448    0.04448 =
         0.01594    0.00000    0.00000    0.00000
PART    4
I3    4    0.437005    0.376432    0.217236    10.25000    0.01490
PART    0
CU1   3    0.331232    0.263829    0.312626    10.62500    0.01928    0.02098 =
         0.02835    0.00136    0.00075    0.00287
CU2   3    0.452660    0.228015    0.121751    10.50000    0.02627    0.02107 =
         0.02519    0.00048    0.00071    0.00453
CU3   3    0.414355    0.108024    0.321772    10.37500    0.02789    0.01684 =
         0.03173   -0.00122    0.00351   -0.00138
S1    6    0.446597    0.357224    0.244373    10.75000    0.01066
PART   -2
C1A   1    0.407269    0.415430    0.123044    10.25000   21.00000
N1A   5    0.329946    0.423798    0.073410    10.25000   21.00000
C2A   1    0.466365    0.472681    0.047624    10.25000   21.00000
PART   -3
C1B   1    0.394299    0.427561    0.147737    10.25000   21.00000
N1B   5    0.350542    0.409202    0.038301    10.25000   21.00000
C2B   1    0.401194    0.517635    0.197255    10.25000   21.00000
PART   -4
C1C   1    0.428877    0.448053    0.158357    10.25000   21.00000
N1C   5    0.466365    0.472681    0.047624    10.25000   21.00000
C2C   1    0.362779    0.506677    0.215815    10.25000   21.00000
HKLF    4




REM  datosI41a in I4(1)/a
REM R1 =  0.0389 for     976 Fo > 4sig(Fo)  and  0.0438 for all    1107 data
REM     72 parameters refined using      9 restraints

END

WGHT      0.0554     24.6952

REM Highest difference peak  1.007,  deepest hole -1.780,  1-sigma level  0.270
Q1    1   0.3468  0.1003  0.0517  11.00000  0.05    1.01
Q2    1   0.4270  0.3762  0.2781  11.00000  0.05    0.97
Q3    1   0.4530  0.2922 -0.0447  11.00000  0.05    0.90
Q4    1   0.4566  0.5061  0.1091  11.00000  0.05    0.86
Q5    1   0.4123  0.2049  0.2630  11.00000  0.05    0.78
Q6    1   0.4667  0.3584  0.2112  11.00000  0.05    0.75
Q7    1   0.4129  0.4409 -0.0120  11.00000  0.05    0.74
Q8    1   0.4208  0.4343  0.1061  11.00000  0.05    0.65
Q9    1   0.3665  0.1660 -0.0409  11.00000  0.05    0.65
Q10   1   0.5000  0.2500 -0.0262  10.50000  0.05    0.61
Q11   1   0.5051  0.1873  0.0350  11.00000  0.05    0.58
Q12   1   0.2600  0.0943  0.1936  11.00000  0.05    0.58
Q13   1   0.3534  0.1956  0.0269  11.00000  0.05    0.57
Q14   1   0.3448  0.1836  0.2072  11.00000  0.05    0.57
Q15   1   0.5439  0.3155 -0.0455  11.00000  0.05    0.56
Q16   1   0.3595  0.1064  0.2095  11.00000  0.05    0.56
Q17   1   0.5219  0.2655 -0.0361  11.00000  0.05    0.55
Q18   1   0.2620  0.0802  0.0454  11.00000  0.05    0.54
Q19   1   0.3211  0.3976  0.0562  11.00000  0.05    0.53
Q20   1   0.5380  0.2798 -0.0542  11.00000  0.05    0.52
;
_shelx_res_checksum              88737
_shelx_hkl_file
;
   1   0   1  246.51    2.75
  -2   0  -2    1.94    0.74
  -2   0  -2    1.10    0.65
   2   0   2    1.30    0.71
   2   0   2    0.74    0.60
   2   0   2    0.50    0.69
  -3   0  -3   29.43    1.92
  -3   0  -3   25.28    1.86
  -3   0  -3   30.76    2.13
   3   0   3   28.63    1.97
   3   0   3   30.14    1.98
   3   0   3   28.31    2.11
  -4   0  -4   43.86    2.56
  -4   0  -4   38.29    2.44
  -4   0  -4   42.05    2.42
  -4   0  -4   47.16    2.96
   4   0   4   42.79    2.63
   4   0   4   45.64    2.68
  -5   0  -5  318.34    6.98
  -5   0  -5  268.08    6.51
  -5   0  -5  310.72    6.66
  -5   0  -5  325.43    8.25
   5   0   5  314.55    7.26
  -6   0  -6   16.10    2.31
  -6   0  -6   13.99    2.17
  -6   0  -6   13.03    2.04
  -6   0  -6   17.27    2.78
   6   0   6   14.82    2.27
  -7   0  -7   15.57    2.45
  -7   0  -7   18.99    3.09
   7   0   7   20.96    2.98
  -8   0  -8    1.00    1.27
   8   0   8    2.31    1.63
  -9   0  -9   28.92    3.40
 -10   0 -10    1.15    1.60
   0  -2   0  326.93    3.00
  -1  -2  -1    1.38    0.67
   1   2   1    0.62    0.62
  -2  -2  -2   57.14    2.40
  -2  -2  -2   61.98    2.54
   2  -2   2   72.89    1.77
   2  -2   2   63.89    1.67
   2  -2   2   69.37    2.04
   2  -2   2   70.13    2.67
  -2   2  -2   71.34    1.57
  -2   2  -2   45.47    1.31
  -2   2  -2   74.56    2.09
  -2   2  -2   74.15    2.70
   2   2   2   58.28    2.50
   2   2   2   62.39    2.56
  -3  -2  -3    0.30    0.85
  -3  -2  -3    0.44    0.93
   3  -2   3    0.15    0.63
   3  -2   3    0.51    0.67
   3  -2   3   -0.42    0.56
   3  -2   3   -0.38    0.79
  -3   2  -3    0.55    0.63
  -3   2  -3    0.37    0.64
  -3   2  -3    0.22    0.77
   3   2   3    0.99    0.95
   3   2   3    0.94    0.85
  -4  -2  -4 1351.27   14.16
  -4  -2  -4 1288.90   14.06
  -4  -2  -4 1354.38   14.94
   4  -2   4  194.73    4.54
   4  -2   4  184.88    4.41
   4  -2   4  193.60    5.86
  -4   2  -4  133.94    3.58
  -4   2  -4  206.77    4.63
  -4   2  -4  185.41    5.70
   4   2   4 1402.62   14.79
   4   2   4 1383.95   14.48
  -5  -2  -5    2.93    1.30
  -5  -2  -5    1.00    1.17
  -5  -2  -5    0.90    1.05
   5  -2   5    1.01    0.94
   5  -2   5    0.77    1.07
  -5   2  -5    0.16    0.80
  -5   2  -5    0.76    0.79
  -5   2  -5    0.18    0.89
   5   2   5    1.91    1.26
  -6  -2  -6   39.93    3.31
  -6  -2  -6   34.28    3.09
  -6  -2  -6   41.71    3.51
   6  -2   6    1.31    1.14
   6  -2   6    3.17    1.47
  -6   2  -6    1.88    1.01
  -6   2  -6    3.17    1.45
   6   2   6   39.91    3.40
  -7  -2  -7   24.08    2.91
  -7  -2  -7   22.07    3.26
   7  -2   7   27.26    2.81
  -7   2  -7   18.53    2.21
  -7   2  -7   31.96    3.52
   7   2   7   23.09    3.27
  -8  -2  -8    1.52    1.53
   8  -2   8    0.09    1.29
  -8   2  -8    0.08    1.11
   8   2   8    2.96    1.90
  -9  -2  -9   24.51    3.65
  -9   2  -9    6.50    1.94
   9   2   9   28.78    4.23
 -10  -2 -10    6.21    2.38
 -10   2 -10    1.05    1.52
   0  -4   0   39.94    1.67
   0  -4   0   52.15    1.88
   0   4   0   41.67    1.67
  -1  -4  -1   41.65    2.09
  -1  -4  -1   51.43    2.33
   1  -4   1    9.35    0.78
   1  -4   1    6.07    0.70
  -1   4  -1   11.76    0.64
  -1   4  -1   13.29    0.68
   1   4   1   40.35    2.08
   1   4   1   56.09    2.33
  -2  -4  -2    0.47    0.79
  -2  -4  -2    0.26    0.85
   2  -4   2  446.23    3.07
   2  -4   2  474.27    3.26
   2  -4   2  426.87    7.00
   2   4   2    0.51    0.88
   2   4   2    0.45    0.87
  -3  -4  -3  342.38    7.18
  -3  -4  -3  397.39    7.79
   3  -4   3  190.32    3.01
   3  -4   3  192.65    3.04
   3  -4   3  195.07    4.16
   3  -4   3  176.03    5.20
   3   4   3  337.50    7.21
   3   4   3  376.35    7.50
  -4  -4  -4   28.62    2.63
  -4  -4  -4   32.19    2.82
   4  -4   4   37.64    1.92
   4  -4   4   40.00    1.96
   4  -4   4   37.69    2.20
   4  -4   4   39.67    2.95
  -4   4  -4   40.00    1.50
  -4   4  -4   22.81    1.22
   4   4   4   28.51    2.63
   4   4   4   29.81    2.66
  -5  -4  -5    2.83    1.41
  -5  -4  -5    3.40    1.53
  -5  -4  -5    2.34    1.27
   5  -4   5    5.57    1.22
   5  -4   5    7.92    1.86
  -5   4  -5    8.50    1.12
  -5   4  -5    5.06    0.96
  -5   4  -5    9.11    1.92
   5   4   5    2.60    1.39
  -6  -4  -6   47.83    3.77
  -6  -4  -6   62.31    4.30
   6  -4   6    3.56    1.20
   6  -4   6    1.56    1.32
  -6   4  -6    1.71    0.80
  -6   4  -6    0.32    0.78
  -6   4  -6    1.28    1.27
   6   4   6   52.37    3.99
  -7  -4  -7   75.08    4.91
   7  -4   7  144.41    5.28
   7  -4   7  171.15    7.59
  -7   4  -7  184.67    4.88
  -7   4  -7  127.87    4.18
   7   4   7   83.56    5.31
  -8  -4  -8  395.05   11.58
  -8   4  -8   32.34    2.53
   8   4   8  438.47   12.57
  -9  -4  -9    0.56    1.60
  -9   4  -9    0.84    1.16
   9   4   9    0.80    1.87
   0  -6   0   57.52    2.40
   0  -6   0   63.49    2.49
   0   6   0   68.27    2.54
  -1  -6  -1    6.93    1.34
  -1  -6  -1    8.09    1.46
   1  -6   1    4.18    0.82
   1  -6   1    3.44    0.75
  -1   6  -1    7.02    0.85
  -1   6  -1    6.01    0.78
   1   6   1    6.90    1.33
   1   6   1    8.24    1.39
  -2  -6  -2    7.63    1.53
  -2  -6  -2    5.99    1.54
   2  -6   2  133.85    2.21
   2  -6   2  144.55    2.25
   2   6   2    5.41    1.44
   2   6   2    5.94    1.43
  -3  -6  -3    2.61    1.22
  -3  -6  -3    2.02    1.22
   3  -6   3 2571.80   15.04
   3  -6   3 3002.25   17.24
   3  -6   3 2536.55   20.98
   3   6   3    3.86    1.44
   3   6   3    3.66    1.32
  -4  -6  -4    0.99    1.22
  -4  -6  -4    1.07    1.21
   4  -6   4   21.26    1.29
   4  -6   4   21.12    1.34
   4  -6   4   21.44    1.87
   4  -6   4   23.91    2.52
   4   6   4    1.41    1.34
   4   6   4    1.27    1.14
  -5  -6  -5   10.30    2.30
   5  -6   5    2.39    0.83
   5  -6   5    5.22    1.29
   5  -6   5    3.89    1.53
   5   6   5    7.72    2.05
  -6  -6  -6   16.26    2.87
   6  -6   6   16.60    1.81
   6  -6   6   17.81    2.03
   6  -6   6   21.54    3.21
   6   6   6   15.13    2.86
  -7  -6  -7  135.13    6.93
   7  -6   7    0.42    1.42
   7   6   7  143.93    7.19
  -8  -6  -8    6.95    2.45
   8  -6   8  290.56   10.89
   8   6   8    7.86    2.75
  -9  -6  -9   10.57    3.06
   9   6   9   15.07    3.59
   0  -8   0    0.80    0.88
   0  -8   0    0.65    0.83
   0   8   0    0.90    0.85
  -1  -8  -1  946.88   11.67
  -1  -8  -1 1032.63   12.30
   1  -8   1   82.80    2.81
   1  -8   1   81.21    2.76
  -1   8  -1  140.06    3.14
  -1   8  -1  145.39    3.16
   1   8   1  851.22   10.98
   1   8   1 1279.56   13.27
  -2  -8  -2   42.47    3.01
   2  -8   2    7.55    0.99
   2  -8   2   11.81    1.12
   2   8   2   35.01    2.74
   2   8   2   49.55    3.14
  -3  -8  -3    7.58    1.95
   3  -8   3   45.01    1.47
   3  -8   3   56.61    3.59
   3   8   3    5.25    1.62
   3   8   3    7.62    1.85
  -4  -8  -4    0.84    1.30
   4  -8   4  588.57    9.43
   4  -8   4  569.07   11.70
   4   8   4    0.80    1.25
  -5  -8  -5    2.25    1.57
   5  -8   5  234.82    6.19
   5  -8   5  217.28    7.87
   5   8   5    0.30    1.26
  -6  -8  -6   28.16    3.49
   6  -8   6   11.78    1.99
   6  -8   6    8.94    2.37
   6   8   6   22.91    3.55
  -7  -8  -7    1.81    1.81
   7  -8   7   17.22    3.40
   7   8   7    1.35    1.75
  -8  -8  -8   12.96    3.30
   8   8   8   10.72    3.09
  -9  -8  -9   10.00    3.08
   9   8   9   10.67    3.45
   0 -10   0  381.02    7.54
   0  10   0  501.28    8.13
  -1 -10  -1    4.79    1.39
   1 -10   1   71.09    3.00
  -1  10  -1  118.69    3.32
  -1  10  -1  133.02    3.47
   1  10   1    4.33    1.36
   1  10   1    5.50    1.41
  -2 -10  -2    9.76    1.99
   2 -10   2    0.23    0.65
   2  10   2    8.78    1.91
   2  10   2   11.84    2.06
  -3 -10  -3  128.81    5.87
   3 -10   3    0.24    0.58
   3  10   3  114.59    5.43
  -4 -10  -4  132.81    6.33
   4 -10   4   33.31    3.30
   4  10   4  121.97    6.05
  -5 -10  -5  128.57    6.68
   5 -10   5 1116.51   14.50
   5 -10   5 1056.81   18.11
   5  10   5  132.14    6.80
  -6 -10  -6    0.38    1.66
   6 -10   6   48.18    3.36
   6 -10   6   47.88    4.46
   6  10   6    0.70    1.68
  -7 -10  -7    2.30    2.13
   7 -10   7   12.95    3.11
   7  10   7    0.39    1.80
  -8 -10  -8    3.03    2.31
   8  10   8    2.10    2.08
   0 -12   0   12.24    1.97
   0  12   0   16.04    1.94
  -1 -12  -1  103.95    4.90
   1 -12   1  288.43    6.61
  -1  12  -1  430.02    6.75
  -1  12  -1  481.89    7.09
   1  12   1  105.64    4.70
   1  12   1  143.39    5.39
  -2 -12  -2   14.41    2.61
   2 -12   2   26.50    2.04
   2  12   2   16.76    2.66
   2  12   2   23.76    3.08
  -3 -12  -3   12.38    2.59
   3 -12   3   52.13    2.29
   3  12   3   11.23    2.45
  -4 -12  -4  156.24    7.41
   4 -12   4    7.05    2.10
   4  12   4  140.80    6.92
  -5 -12  -5    5.88    2.37
   5 -12   5    7.74    1.97
   5 -12   5    5.23    2.00
   5  12   5    5.66    2.26
  -6 -12  -6   10.48    2.95
   6 -12   6    2.46    1.86
   6  12   6   11.05    3.08
  -7 -12  -7   29.14    4.74
   7  12   7   37.51    5.26
   0 -14   0   31.18    3.02
   0  14   0   41.00    2.99
  -1 -14  -1    2.57    1.53
   1 -14   1    1.00    1.12
  -1  14  -1    0.79    0.92
  -1  14  -1    1.18    0.85
   1  14   1    3.12    1.52
  -2 -14  -2   15.81    2.88
   2  14   2   15.72    2.74
  -3 -14  -3  129.66    6.79
   3  14   3  123.23    6.38
  -4 -14  -4    8.00    2.57
   4 -14   4   32.93    3.72
   4  14   4    9.78    2.68
  -5 -14  -5   16.68    3.58
   5 -14   5    5.03    2.08
   5  14   5   14.45    3.29
  -6 -14  -6   -1.22    1.66
   6  14   6   -1.01    1.82
   0  16   0   39.22    3.12
  -1  16  -1    9.89    1.59
   1  16   1   12.30    2.42
  -2 -16  -2    0.38    1.51
   2  16   2    1.11    1.45
  -3 -16  -3   -0.07    1.61
   3  16   3    0.32    1.48
  -4 -16  -4   22.98    4.09
   4 -16   4   24.64    3.98
   4  16   4   20.26    3.72
  -5 -16  -5    1.27    2.11
   5  16   5    0.90    1.91
   0  18   0   10.73    2.11
  -1  18  -1    3.08    1.16
   1  18   1   31.08    3.32
   2  18   2    1.59    1.63
  -9  -1 -10    0.58    1.62
  -9   1 -10   19.67    3.12
   8   1   9   27.52    3.95
  -8  -1  -9   23.41    3.38
  -8   1  -9  221.87    7.56
   7  -1   8   28.49    3.17
   7   1   8   22.17    3.30
  -7  -1  -8   18.81    2.91
  -7   1  -8   27.97    2.88
   6  -1   7   55.74    3.72
   6   1   7    2.63    1.58
  -6  -1  -7    3.74    1.55
  -6  -1  -7    6.07    1.79
  -6  -1  -7    7.19    2.04
  -6   1  -7   66.62    3.73
  -6   1  -7   44.87    3.19
  -6   1  -7   63.09    4.52
   5  -1   6  150.31    5.27
   5   1   6    2.19    1.23
  -5  -1  -6    3.36    1.38
  -5  -1  -6    1.40    1.19
  -5  -1  -6    2.37    1.30
  -5   1  -6  172.68    5.22
  -5   1  -6  133.34    4.70
  -5   1  -6  180.16    5.63
  -5   1  -6  165.78    6.43
   4  -1   5   23.85    2.12
   4  -1   5   22.78    2.10
   4   1   5   83.28    3.92
  -4  -1  -5   87.38    3.90
  -4  -1  -5   76.76    3.69
  -4  -1  -5   90.95    3.93
  -4  -1  -5   91.53    4.36
  -4   1  -5   22.47    2.02
  -4   1  -5   17.59    1.85
  -4   1  -5   27.99    2.30
  -4   1  -5   25.36    2.49
   3  -1   4    9.76    1.44
   3  -1   4   12.19    1.55
   3  -1   4   13.36    1.88
   3   1   4  195.45    5.16
   3   1   4  199.44    5.19
  -3  -1  -4  213.67    5.30
  -3  -1  -4  182.04    4.91
  -3  -1  -4  222.69    5.92
  -3   1  -4    8.89    1.35
  -3   1  -4   13.78    1.67
  -3   1  -4   13.20    1.85
   2  -1   3    0.09    0.67
   2  -1   3    1.07    0.71
   2  -1   3    0.35    0.76
   2   1   3  811.89    8.96
   2   1   3  820.08    8.91
  -2  -1  -3  866.39    9.08
  -2  -1  -3  789.10    8.76
  -2  -1  -3  883.15    9.99
  -2   1  -3    1.08    0.72
  -2   1  -3    0.32    0.67
  -2   1  -3    0.91    0.80
   1  -1   2   39.10    1.41
   1  -1   2   30.93    1.29
   1  -1   2   51.88    1.87
   1  -1   2   53.91    2.11
   1   1   2   34.67    1.82
  -1  -1  -2   34.12    1.71
  -1   1  -2   34.00    1.29
  -1   1  -2   54.44    1.92
   0  -1   1   87.08    1.12
   0  -1   1    0.01    0.15
   0  -1   1  280.34    3.02
   0   1   1  153.69    2.49
   0  -1  -1  165.16    2.57
   0   1  -1    0.10    0.15
   0   1  -1    0.09    0.26
  -1  -1   0    0.02    0.21
  -1   1   0   -0.08    0.16
   1  -1   0   -0.03    0.19
   1   1   0    0.09    0.22
  -2  -1  -1  592.39    5.82
  -2  -1  -1  298.97    3.86
  -2   1  -1    1.00    0.47
   2  -1   1    0.91    0.46
   2  -1   1    0.13    0.36
   2  -1   1    0.73    0.53
   2   1   1  595.59    5.82
  -3  -1  -2  214.45    4.36
  -3  -1  -2  212.45    4.38
  -3  -1  -2  207.82    4.40
  -3   1  -2 1689.57   15.85
  -3   1  -2 1714.40   16.81
  -3   1  -2 1931.20   20.88
   3  -1   2 1840.94   20.16
   3  -1   2 1964.63   21.75
   3  -1   2 1751.12   12.94
   3   1   2  222.01    4.51
   3   1   2  222.91    4.46
  -4  -1  -3   14.54    1.79
  -4  -1  -3   15.38    1.71
  -4  -1  -3   13.92    1.65
  -4   1  -3   37.35    2.11
  -4   1  -3   34.27    2.06
  -4   1  -3   31.97    1.76
  -4   1  -3   37.26    2.44
   4  -1   3   37.45    2.15
   4  -1   3   37.17    2.12
   4  -1   3   36.46    2.47
   4   1   3   14.54    1.81
   4   1   3   16.06    1.73
  -5  -1  -4    0.61    0.91
  -5  -1  -4    0.65    1.01
  -5  -1  -4    1.92    1.09
  -5   1  -4    3.19    1.09
  -5   1  -4    2.54    1.06
  -5   1  -4    1.35    0.82
  -5   1  -4    1.90    1.07
   5  -1   4    2.22    1.04
   5  -1   4    1.82    0.96
   5  -1   4    0.78    1.04
   5   1   4    1.93    1.12
   5   1   4    0.82    1.00
  -6  -1  -5    0.76    1.04
  -6  -1  -5   -0.85    0.91
  -6  -1  -5    0.80    1.01
  -6   1  -5   24.94    2.23
  -6   1  -5   18.93    2.02
  -6   1  -5   23.71    2.10
  -6   1  -5   24.06    2.60
   6  -1   5   20.44    2.21
   6  -1   5   24.00    2.58
   6   1   5    0.43    1.05
  -7  -1  -6  716.19   12.33
  -7  -1  -6  600.89   11.48
  -7  -1  -6  659.17   13.24
  -7   1  -6   69.13    3.75
  -7   1  -6   50.68    3.31
  -7   1  -6   69.00    4.53
   7  -1   6   62.30    3.81
   7   1   6  672.65   12.51
  -8  -1  -7    8.55    2.08
  -8   1  -7  151.24    5.85
   8  -1   7  186.27    6.87
   8   1   7   11.27    2.41
  -9  -1  -8    5.56    2.01
  -9   1  -8   28.97    3.08
   9  -1   8   28.83    3.39
   9   1   8    8.45    2.40
 -10  -1  -9    5.20    2.11
 -10   1  -9    2.31    1.68
  -9  -3 -10    3.22    2.12
  -9   3 -10  233.55    7.14
   8   3   9    3.04    1.99
  -8  -3  -9    3.38    1.94
  -8   3  -9   13.49    2.24
   7  -3   8   11.20    2.26
   7   3   8    2.05    1.74
  -7  -3  -8    1.82    1.56
  -7   3  -8    9.57    1.79
   6  -3   7   34.00    2.87
   6  -3   7   42.95    3.90
   6   3   7  266.56    8.72
  -6  -3  -7  242.87    8.12
  -6  -3  -7  275.19    9.13
  -6   3  -7   35.88    2.51
  -6   3  -7   43.20    3.90
   5  -3   6   17.74    1.98
   5  -3   6   20.45    2.89
   5   3   6    2.61    1.45
  -5  -3  -6    4.35    1.67
  -5  -3  -6    4.30    1.59
  -5  -3  -6    5.09    1.65
  -5   3  -6   16.41    1.66
  -5   3  -6   25.28    2.42
  -5   3  -6   19.26    2.78
   4  -3   5  196.43    4.71
   4  -3   5  212.16    4.88
   4  -3   5  238.63    7.13
   4   3   5   36.45    2.96
  -4  -3  -5   39.83    3.12
  -4  -3  -5   36.93    2.93
  -4  -3  -5   40.64    3.09
  -4   3  -5  254.08    4.67
  -4   3  -5  164.06    3.85
  -4   3  -5  260.58    5.93
  -4   3  -5  251.26    7.25
   3  -3   4   41.15    1.99
   3  -3   4   44.00    2.10
   3  -3   4   48.96    2.54
   3  -3   4   46.98    3.00
   3   3   4   34.12    2.65
   3   3   4   33.12    2.56
  -3  -3  -4   34.10    2.69
  -3  -3  -4   35.55    2.64
  -3   3  -4   50.28    1.81
  -3   3  -4   33.53    1.58
  -3   3  -4   52.34    2.64
  -3   3  -4   45.40    2.91
   2  -3   3    0.94    0.54
   2  -3   3    0.44    0.53
   2  -3   3    1.19    0.73
   2  -3   3    1.20    0.90
   2   3   3    0.96    0.93
   2   3   3    0.25    0.85
  -2  -3  -3    0.73    0.84
  -2  -3  -3    0.52    0.90
  -2   3  -3    0.86    0.40
  -2   3  -3    0.72    0.42
  -2   3  -3    1.16    0.79
   1  -3   2  205.65    1.51
   1  -3   2  155.75    1.37
   1  -3   2  262.66    4.39
   1  -3   2  244.22    4.68
   1   3   2 1032.55    9.95
  -1  -3  -2 1204.31   10.74
   0  -3   1   33.23    0.93
   0  -3   1   44.16    1.04
   0   3   1   24.54    1.52
   0  -3  -1   24.58    1.50
   0   3  -1   30.43    0.72
   0   3  -1   43.60    0.78
  -1  -3   0    1.62    0.56
  -1   3   0    0.54    0.48
   1  -3   0    0.52    0.44
   1  -3   0    0.13    0.50
   1   3   0    9.84    1.01
  -2  -3  -1   32.23    1.82
  -2  -3  -1   35.89    1.97
  -2   3  -1  249.04    2.54
  -2   3  -1  309.15    2.86
   2  -3   1  293.12    3.07
   2  -3   1  321.83    3.25
   2   3   1   34.20    1.92
  -3  -3  -2  294.58    5.81
  -3  -3  -2  293.76    5.87
  -3   3  -2  373.05    3.72
  -3   3  -2  342.96    3.62
   3  -3   2  337.65    4.02
   3  -3   2  402.64    4.39
   3  -3   2  375.71    4.34
   3  -3   2  393.96    6.78
   3   3   2  282.20    5.78
   3   3   2  329.69    6.13
  -4  -3  -3  142.83    4.68
  -4  -3  -3  146.59    4.77
  -4   3  -3  512.83    5.58
  -4   3  -3  404.27    5.04
  -4   3  -3  494.53    8.65
   4  -3   3  511.50    6.16
   4  -3   3  503.36    6.12
   4  -3   3  465.98    5.63
   4  -3   3  501.91    8.76
   4   3   3  156.18    4.94
   4   3   3  155.69    4.85
  -5  -3  -4   37.72    2.94
  -5  -3  -4   35.59    2.82
  -5  -3  -4   35.35    2.73
  -5   3  -4   28.90    1.85
  -5   3  -4   38.54    2.07
  -5   3  -4   38.86    2.94
   5  -3   4   39.41    2.27
   5  -3   4   38.49    2.28
   5  -3   4   34.81    2.83
   5   3   4   34.82    2.93
   5   3   4   36.75    2.94
  -6  -3  -5  289.36    7.89
  -6  -3  -5  274.00    7.81
  -6  -3  -5  269.54    7.79
  -6   3  -5   16.63    1.72
  -6   3  -5   22.56    1.91
  -6   3  -5   20.90    2.54
   6  -3   5   21.54    2.06
   6  -3   5   19.01    2.72
   6   3   5  287.86    8.08
  -7  -3  -6   45.72    3.63
  -7  -3  -6   51.02    3.95
  -7   3  -6    2.02    1.04
  -7   3  -6    2.15    1.45
   7  -3   6    2.69    1.27
   7  -3   6    1.61    1.37
   7   3   6   50.34    3.98
  -8  -3  -7   10.27    2.42
  -8   3  -7   29.82    2.56
   8  -3   7   36.98    3.22
   8  -3   7   39.71    3.93
   8   3   7    9.23    2.44
  -9  -3  -8    3.81    1.93
  -9   3  -8   -0.91    0.97
   9   3   8    5.20    2.24
 -10  -3  -9    6.35    2.34
 -10   3  -9   -0.19    1.17
  10   3   9    7.28    2.73
   8   5   9    7.70    2.77
  -8  -5  -9    5.22    2.32
  -8   5  -9   23.63    1.91
   7  -5   8   69.50    5.35
   7   5   8    2.02    1.87
  -7  -5  -8    0.16    1.55
  -7   5  -8   57.30    2.47
   6  -5   7   25.91    2.35
   6  -5   7   32.39    3.60
   6   5   7   22.10    3.38
  -6  -5  -7   23.41    3.42
  -6  -5  -7   25.18    3.55
  -6   5  -7   34.05    1.76
  -6   5  -7   28.26    1.64
   5  -5   6  537.84    7.90
   5  -5   6  669.07   10.47
   5  -5   6  674.66   13.52
   5   5   6  501.26   11.63
  -5  -5  -6  501.52   11.55
  -5   5  -6  718.66    5.56
  -5   5  -6  620.61    5.29
   4  -5   5    2.50    0.83
   4  -5   5    3.37    0.88
   4  -5   5    2.75    1.05
   4  -5   5    1.95    1.26
   4   5   5    4.80    1.67
  -4  -5  -5    6.18    1.74
  -4  -5  -5    5.43    1.70
   3  -5   4   39.57    1.55
   3  -5   4   45.24    1.64
   3  -5   4   50.55    2.68
   3  -5   4   45.51    3.09
   3   5   4   22.68    2.50
   3   5   4   27.06    2.61
  -3  -5  -4   27.97    2.64
  -3  -5  -4   26.38    2.61
   2  -5   3   36.55    0.86
   2  -5   3   39.64    0.93
   2  -5   3   44.99    2.43
   2  -5   3   37.64    2.53
   2   5   3  195.27    5.66
   2   5   3  220.47    5.96
  -2  -5  -3  196.19    5.59
  -2  -5  -3  193.97    5.63
   1  -5   2   21.87    0.75
   1  -5   2   23.39    0.73
   1   5   2   15.97    1.83
   1   5   2   19.03    1.90
  -1  -5  -2   17.13    1.83
  -1  -5  -2   17.55    1.96
   0  -5   1  695.29    5.72
   0  -5   1  868.69    6.37
   0   5   1  618.36    7.67
   0   5   1  665.89    7.85
   0  -5  -1  592.05    7.51
   0  -5  -1  604.80    7.62
   0   5  -1  751.05    5.33
   0   5  -1 1125.05    9.49
  -1  -5   0    0.04    0.65
  -1  -5   0    4.05    0.96
  -1   5   0    0.55    0.64
   1  -5   0    0.81    0.67
   1  -5   0    0.18    0.64
   1   5   0    0.34    0.69
   1   5   0    0.14    0.66
  -2  -5  -1    1.09    0.87
  -2  -5  -1    0.53    0.88
  -2   5  -1   52.57    1.49
  -2   5  -1   92.36    1.94
   2  -5   1   74.42    2.03
   2  -5   1   70.44    1.97
   2   5   1    0.24    0.87
   2   5   1    1.25    0.84
  -3  -5  -2   66.05    3.26
  -3  -5  -2   69.70    3.37
   3  -5   2  157.70    2.67
   3  -5   2  172.90    2.83
   3   5   2   60.34    3.23
   3   5   2   76.04    3.44
  -4  -5  -3   61.00    3.58
  -4  -5  -3   62.28    3.64
   4  -5   3   65.94    2.09
   4  -5   3   69.41    2.20
   4  -5   3   62.48    2.48
   4  -5   3   61.46    3.45
   4   5   3   49.78    3.22
   4   5   3   63.36    3.53
  -5  -5  -4   11.19    2.12
  -5  -5  -4   11.19    2.20
  -5   5  -4   12.94    0.95
  -5   5  -4    8.69    0.85
   5  -5   4   13.15    1.40
   5  -5   4   13.36    1.43
   5  -5   4   13.71    1.45
   5  -5   4   10.97    2.03
   5   5   4    8.08    1.89
  -6  -5  -5    3.41    1.64
  -6  -5  -5    2.52    1.33
  -6   5  -5   15.58    1.27
  -6   5  -5    8.74    1.05
   6  -5   5   14.13    1.67
   6  -5   5   12.34    2.28
   6   5   5    2.48    1.44
  -7  -5  -6   15.19    2.79
  -7  -5  -6   18.35    2.91
  -7   5  -6    5.91    1.10
  -7   5  -6    4.51    1.04
   7  -5   6    5.38    1.43
   7  -5   6    4.23    1.81
   7   5   6   16.93    2.93
  -8  -5  -7    4.57    2.07
  -8   5  -7    8.17    1.35
  -8   5  -7    6.74    1.30
   8  -5   7    5.37    1.59
   8  -5   7    6.12    2.18
   8   5   7    4.14    2.01
  -9  -5  -8    7.76    2.58
  -9   5  -8    0.74    0.96
   9  -5   8    1.35    1.73
   9   5   8    8.67    2.70
 -10  -5  -9   78.30    6.04
 -10   5  -9  109.12    4.03
  10   5   9   77.53    6.37
   8   7   9    2.99    2.25
  -8  -7  -9    0.79    1.81
   7  -7   8   -0.89    1.36
   7   7   8    1.33    1.95
  -7  -7  -8    0.35    1.72
   6  -7   7  174.51    5.96
   6  -7   7  192.18    8.25
   6   7   7   -0.32    1.45
  -6  -7  -7    1.39    1.57
   5  -7   6   14.30    1.44
   5  -7   6   19.88    2.20
   5  -7   6   19.79    3.10
   5   7   6    3.51    1.83
  -5  -7  -6    3.68    1.82
   4  -7   5    0.59    0.93
   4  -7   5    0.33    1.05
   4   7   5  234.56    7.96
  -4  -7  -5  246.66    8.10
   3  -7   4   61.84    3.20
   3  -7   4   56.11    3.58
   3   7   4   13.18    2.32
  -3  -7  -4   16.74    2.62
   2  -7   3    2.16    1.08
   2   7   3    0.09    0.99
   2   7   3    0.50    0.96
  -2  -7  -3    0.24    0.97
  -2  -7  -3    0.66    1.07
   1  -7   2 1088.00    7.04
   1  -7   2  837.31    6.11
   1   7   2    0.56    0.95
   1   7   2    1.73    1.10
  -1  -7  -2    0.71    1.09
  -1  -7  -2    1.51    1.13
   0  -7   1  222.94    4.18
   0  -7   1  214.84    4.10
   0   7   1  199.18    5.04
   0   7   1  235.19    5.37
   0  -7  -1  184.49    4.91
   0  -7  -1  190.02    5.00
   0   7  -1  232.03    3.86
   0   7  -1  332.84    4.55
  -1  -7   0   -0.32    0.77
  -1  -7   0    0.21    0.81
  -1   7   0    2.71    0.92
   1  -7   0    0.67    0.80
   1  -7   0    0.80    0.77
   1   7   0    0.18    0.75
   1   7   0    0.02    0.68
  -2  -7  -1    2.71    1.16
  -2  -7  -1    3.49    1.21
  -2   7  -1   56.59    1.93
  -2   7  -1   54.72    1.85
  -2   7  -1   71.65    2.15
   2  -7   1   49.05    2.12
   2  -7   1   48.12    2.06
   2   7   1    3.25    1.19
   2   7   1    3.91    1.23
  -3  -7  -2    1.32    1.05
  -3  -7  -2    1.44    1.19
   3  -7   2    1.31    0.64
   3  -7   2    1.31    0.62
   3   7   2    0.09    1.02
   3   7   2   -0.15    0.96
  -4  -7  -3  265.64    7.53
   4  -7   3   16.87    1.21
   4  -7   3   17.63    1.19
   4  -7   3   18.18    1.24
   4  -7   3   15.25    2.28
   4   7   3  216.45    6.78
   4   7   3  279.85    7.57
  -5  -7  -4   -0.18    1.08
   5  -7   4    0.67    0.64
   5  -7   4    1.91    0.92
   5  -7   4    0.85    1.15
   5   7   4    0.89    1.30
  -6  -7  -5   26.19    3.12
   6  -7   5  400.98    6.11
   6  -7   5  393.90    7.22
   6  -7   5  418.78   10.90
   6   7   5   23.42    3.37
  -7  -7  -6    2.22    1.77
  -7  -7  -6    2.48    1.56
   7  -7   6    1.89    1.01
   7  -7   6    1.03    1.42
   7   7   6    1.79    1.67
  -8  -7  -7   13.13    3.01
   8  -7   7    5.22    2.18
   8   7   7   11.52    2.99
  -9  -7  -8    2.37    2.05
   9   7   8    0.72    1.98
 -10  -7  -9   -0.39    1.76
  10   7   9    1.08    2.06
   8   9   9   78.77    6.71
  -8  -9  -9   73.42    6.25
   7  -9   8    2.03    1.94
   7   9   8    0.34    1.81
  -7  -9  -8   -0.35    1.54
   6  -9   7   23.83    2.66
   6  -9   7   26.81    3.95
   6   9   7   28.13    4.21
   5  -9   6    5.98    1.70
   5  -9   6    3.89    1.84
   5   9   6    3.15    1.89
  -5  -9  -6    2.76    1.81
   4  -9   5   91.62    4.34
   4  -9   5   86.03    5.07
   4   9   5    6.56    2.09
  -4  -9  -5    4.88    1.94
   3  -9   4   23.79    2.63
   3   9   4    1.20    1.39
  -3  -9  -4    1.44    1.34
   2  -9   3  275.09    3.49
   2   9   3   77.37    4.34
   2   9   3   91.20    4.64
  -2  -9  -3   77.86    4.36
   1  -9   2    8.33    1.15
   1  -9   2    5.96    0.97
   1   9   2   11.15    1.93
   1   9   2   14.30    2.16
  -1  -9  -2   13.80    2.19
   0  -9   1  144.55    4.03
   0  -9   1  119.97    3.69
   0   9   1  139.93    4.70
   0   9   1  155.89    4.87
   0  -9  -1  121.72    4.51
   0   9  -1  154.61    3.71
   0   9  -1  205.62    4.18
  -1  -9   0    0.03    0.79
  -1   9   0   -0.13    0.75
   1  -9   0    0.46    0.87
   1  -9   0    0.23    0.77
   1   9   0   -0.29    0.71
   1   9   0    0.29    0.77
  -2  -9  -1    4.40    1.40
  -2   9  -1  418.24    5.60
  -2   9  -1  355.09    5.13
   2  -9   1  231.77    4.92
   2  -9   1  258.93    5.14
   2   9   1    1.90    1.09
   2   9   1    5.04    1.37
  -3  -9  -2  461.74    9.82
   3  -9   2    1.02    0.71
   3  -9   2    0.74    0.69
   3   9   2  342.68    8.37
   3   9   2  526.65   10.19
  -4  -9  -3   20.14    2.91
   4  -9   3   18.17    1.31
   4   9   3   16.00    2.57
  -5  -9  -4    0.68    1.28
   5  -9   4  280.28    6.62
   5  -9   4  277.72    8.77
   5   9   4    0.38    1.36
  -6  -9  -5    0.89    1.61
   6  -9   5  237.76    6.18
   6  -9   5  227.15    8.51
   6   9   5    1.88    1.80
  -7  -9  -6    9.45    2.63
   7  -9   6  407.93    8.20
   7  -9   6  420.60   12.29
   7   9   6    8.96    2.59
  -8  -9  -7  255.61   10.33
   8  -9   7    2.11    1.83
   8   9   7  258.10   10.52
  -9  -9  -8    3.01    2.30
   9   9   8    3.48    2.64
   7  11   8    9.11    3.14
  -7 -11  -8   10.45    3.14
   6 -11   7    5.91    2.24
   6  11   7   13.45    3.33
  -6 -11  -7   11.43    3.11
   5 -11   6   -0.35    1.08
   5 -11   6    0.44    1.34
   5  11   6   47.14    4.74
  -5 -11  -6   40.46    4.31
   4 -11   5   54.01    3.72
   4 -11   5   47.31    4.06
   4  11   5    0.12    1.42
  -4 -11  -5    0.62    1.48
   3 -11   4    1.61    1.29
   3  11   4    1.19    1.42
  -3 -11  -4    4.57    1.82
   2 -11   3  199.81    3.76
   2  11   3  260.45    8.20
  -2 -11  -3  299.04    8.93
   1 -11   2    3.13    1.00
   1  11   2   38.41    3.10
   1  11   2   45.77    3.40
  -1 -11  -2   40.73    3.33
   0 -11   1    0.47    0.84
   0  11   1    1.27    1.08
   0  11   1    0.91    0.96
   0 -11  -1   -0.09    0.96
   0  11  -1    1.04    0.82
   0  11  -1    0.47    0.73
  -1 -11   0    0.76    0.94
  -1  11   0   -0.06    0.79
   1 -11   0    0.39    0.91
   1  11   0   -0.25    0.84
   1  11   0    1.25    0.94
  -2 -11  -1  175.06    6.13
  -2  11  -1    0.53    0.75
  -2  11  -1    0.64    0.69
   2 -11   1    0.37    0.82
   2  11   1  157.11    5.61
   2  11   1  245.03    6.87
  -3 -11  -2    0.64    1.19
   3 -11   2  680.30    8.37
   3  11   2    0.86    1.16
   3  11   2    1.34    1.28
  -4 -11  -3    2.06    1.51
   4 -11   3    6.58    1.10
   4  11   3    2.88    1.58
  -5 -11  -4    7.59    2.29
   5 -11   4   91.03    5.54
   5  11   4    8.85    2.33
  -6 -11  -5   27.99    4.06
   6 -11   5   91.36    4.35
   6 -11   5   89.28    5.79
   6  11   5   21.11    3.63
  -7 -11  -6  222.81    9.70
   7 -11   6   23.96    3.86
   7  11   6  222.92    9.62
  -8 -11  -7    5.59    2.59
   8  11   7    9.99    3.22
   6  13   7  102.34    7.31
  -6 -13  -7   94.02    7.00
   5 -13   6    0.23    1.41
   5  13   6    3.41    2.11
  -5 -13  -6    3.90    2.24
   4 -13   5  205.51    7.49
   4 -13   5  180.87    8.06
   4  13   5    9.97    2.71
  -4 -13  -5   10.09    2.80
   3 -13   4   30.16    3.40
   3  13   4    5.22    2.17
  -3 -13  -4    7.10    2.45
   2 -13   3   90.02    3.11
   2  13   3    7.65    2.15
  -2 -13  -3   12.12    2.68
   1 -13   2   31.12    2.33
   1  13   2  663.79   12.75
  -1 -13  -2  694.82   13.55
   0 -13   1    0.47    0.97
   0  13   1    0.53    1.07
   0  13   1   -0.66    0.91
   0 -13  -1    0.41    1.16
   0  13  -1   -0.17    0.82
   0  13  -1    0.23    0.75
  -1 -13   0    1.04    1.15
  -1  13   0    0.60    0.93
   1 -13   0    0.86    1.06
   1  13   0    0.89    1.16
  -2 -13  -1    9.55    2.20
  -2  13  -1    1.59    0.90
  -2  13  -1    1.64    0.85
   2 -13   1    0.41    1.02
   2  13   1    8.70    1.97
  -3 -13  -2    1.89    1.61
   3 -13   2   51.22    2.84
   3  13   2    2.32    1.57
  -4 -13  -3    5.31    2.13
   4  13   3    5.60    2.09
  -5 -13  -4    1.34    1.82
   5 -13   4    7.42    2.28
   5  13   4    2.38    1.73
  -6 -13  -5  160.48    8.33
   6 -13   5   11.50    2.85
   6  13   5  149.33    7.93
  -7 -13  -6    0.88    2.10
   7  13   6    2.01    2.06
   5  15   6  175.97    9.17
  -5 -15  -6  185.42    9.66
   4 -15   5    8.51    2.49
   4  15   5    2.46    2.11
  -4 -15  -5   -0.16    1.80
   3 -15   4    0.50    1.31
   3  15   4    0.55    1.65
  -3 -15  -4    0.02    1.69
   2  15   3    6.47    2.15
  -2 -15  -3    6.74    2.30
   1  15   2    1.21    1.42
  -1 -15  -2    1.90    1.62
   0  15   1  133.41    5.68
   0 -15  -1  116.95    5.80
   0  15  -1  159.89    4.76
  -1 -15   0    0.10    1.15
  -1  15   0    0.17    1.06
   1 -15   0   -0.40    1.13
   1  15   0    0.18    1.09
  -2 -15  -1    5.78    2.07
  -2  15  -1   12.55    1.68
  -2  15  -1   17.29    1.83
   2  15   1    7.25    2.00
  -3 -15  -2   27.07    3.79
   3  15   2   27.12    3.24
  -4 -15  -3    3.89    2.09
   4  15   3    7.00    2.31
  -5 -15  -4   -0.87    1.58
   5 -15   4    3.74    1.96
   5  15   4    1.65    1.91
  -6 -15  -5   14.29    3.51
   6  15   5   13.00    3.38
   3  17   4   29.15    4.32
   2  17   3    6.25    2.26
   1  17   2   14.65    2.85
   0  17   1    7.09    1.99
   0  17  -1    7.92    1.60
  -1  17   0    0.48    1.18
   1  17   0   -0.30    1.16
  -2  17  -1    2.13    1.01
   2  17   1    2.22    1.61
   3  17   2    2.81    1.86
   4  17   3   32.34    3.95
  -8   0 -10    7.51    2.31
   7   0   9    6.88    2.24
  -7   0  -9    5.62    1.92
   6   0   8    5.99    1.94
  -6   0  -8    6.67    1.85
   5   0   7  440.92    9.84
  -5   0  -7  523.58   10.08
  -5   0  -7  431.11    9.28
  -5   0  -7  532.03   12.21
   4   0   6   52.64    3.31
  -4   0  -6   59.44    3.39
  -4   0  -6   52.10    3.19
  -4   0  -6   62.37    3.98
   3   0   5   67.82    3.33
   3   0   5   67.18    3.33
  -3   0  -5   71.64    3.27
  -3   0  -5   66.39    3.18
  -3   0  -5   86.78    3.79
  -3   0  -5   79.97    4.00
   2   0   4    5.07    1.22
   2   0   4    5.70    1.22
  -2   0  -4    6.09    1.20
  -2   0  -4    5.57    1.21
  -2   0  -4    6.89    1.37
  -2   0  -4    6.71    1.40
   1   0   3   16.85    1.55
   1   0   3   19.15    1.54
  -1   0  -3   20.13    1.52
  -1   0  -3   19.36    1.55
  -1   0  -3   26.30    1.84
  -1   0  -3   24.04    1.78
   0   0   2    1.44    0.65
   0   0   2    0.97    0.58
   0   0  -2    0.74    0.57
   0   0  -2    1.02    0.63
  -1   0   1  289.64    3.23
   1   0  -1  166.70    2.46
  -2   0   0  545.14    4.76
   2   0   0  494.79    4.55
  -3   0  -1   42.10    1.81
  -3   0  -1   40.50    1.75
   3   0   1   42.32    1.91
   3   0   1   38.43    1.69
  -4   0  -2    4.28    1.05
  -4   0  -2    5.10    1.12
  -4   0  -2    6.00    1.14
   4   0   2    5.39    1.17
   4   0   2    4.04    1.01
   4   0   2    3.64    1.03
  -5   0  -3  372.83    6.70
  -5   0  -3  347.01    6.54
  -5   0  -3  348.86    7.11
   5   0   3  368.97    6.82
   5   0   3  391.65    6.95
   5   0   3  342.71    7.09
  -6   0  -4  106.42    4.08
  -6   0  -4   86.88    3.76
  -6   0  -4   96.16    4.36
   6   0   4  100.25    4.18
   6   0   4   95.61    4.38
  -7   0  -5   11.49    2.00
  -7   0  -5    9.47    1.88
  -7   0  -5   10.06    1.63
  -7   0  -5    9.32    1.94
   7   0   5    9.37    1.92
  -8   0  -6    6.84    1.79
  -8   0  -6    5.48    1.70
  -8   0  -6    4.69    1.88
   8   0   6    5.54    1.81
  -9   0  -7    4.88    1.75
   9   0   7    9.27    2.35
 -10   0  -8  195.11    7.60
  10   0   8  233.33    8.83
 -11   0  -9    1.86    1.68
  -8  -2 -10    3.12    1.81
  -8   2 -10    4.47    1.75
   7   2   9    3.48    2.08
  -7  -2  -9    1.47    1.57
  -7   2  -9    7.99    1.91
   6  -2   8  189.70    6.72
   6   2   8    0.59    1.48
  -6  -2  -8    1.67    1.47
  -6   2  -8  193.48    6.07
   5  -2   7   27.78    2.62
   5   2   7   44.54    3.71
  -5  -2  -7   53.44    3.85
  -5  -2  -7   44.78    3.55
  -5  -2  -7   48.81    3.95
  -5   2  -7   26.28    2.36
  -5   2  -7   32.20    3.27
   4  -2   6   14.72    1.99
   4   2   6   24.75    2.71
  -4  -2  -6   25.73    2.68
  -4  -2  -6   21.78    2.47
  -4  -2  -6   20.90    2.51
  -4   2  -6   15.57    1.74
  -4   2  -6   22.43    2.37
  -4   2  -6   20.84    2.53
   3  -2   5   18.38    1.79
   3  -2   5   17.12    1.80
   3  -2   5   21.72    2.34
   3   2   5  159.58    5.37
  -3  -2  -5  180.66    5.52
  -3  -2  -5  164.41    5.38
  -3  -2  -5  196.79    6.23
  -3   2  -5   15.95    1.56
  -3   2  -5   21.22    2.11
  -3   2  -5   23.90    2.36
   2  -2   4   43.40    2.11
   2  -2   4   46.81    2.16
   2  -2   4   64.50    2.95
   2  -2   4   66.44    3.29
   2   2   4   40.76    2.73
   2   2   4   42.67    2.68
  -2  -2  -4   46.27    2.80
  -2  -2  -4   42.56    2.64
  -2   2  -4   48.28    2.07
  -2   2  -4   64.18    2.95
  -2   2  -4   65.29    3.23
   1  -2   3  674.94    5.89
   1  -2   3  722.17    6.10
   1  -2   3 1240.75   10.64
   1  -2   3 1200.36   11.23
   1   2   3    0.40    0.82
   1   2   3    0.48    0.82
  -1  -2  -3    0.86    0.79
  -1  -2  -3    0.69    0.89
  -1   2  -3  939.82    6.33
  -1   2  -3 1027.65   10.02
  -1   2  -3 1266.26   10.65
  -1   2  -3 1126.81   10.82
   0  -2   2    0.92    0.43
   0  -2   2    0.44    0.42
   0  -2   2    1.11    0.65
   0  -2   2    0.55    0.57
   0   2   2    0.78    0.76
   0  -2  -2    0.70    0.71
   0   2  -2    0.45    0.34
   0   2  -2    0.34    0.39
  -1  -2   1    0.17    0.34
  -1  -2   1    0.98    0.44
  -1  -2   1    1.18    0.41
  -1   2   1  527.15    5.46
   1  -2  -1  476.49    5.19
   1   2  -1    1.00    0.43
  -2  -2   0    4.90    0.81
  -2   2   0    5.63    0.75
   2  -2   0    6.14    0.80
   2   2   0    7.70    0.97
  -3  -2  -1  256.12    4.67
  -3  -2  -1  261.07    4.77
  -3   2  -1   38.96    1.58
   3  -2   1   39.96    1.63
   3  -2   1   39.53    1.66
   3  -2   1   37.09    0.80
   3   2   1  255.01    4.72
   3   2   1  278.12    4.89
  -4  -2  -2  392.01    6.73
  -4  -2  -2  389.70    6.76
  -4  -2  -2  323.33    5.73
  -4   2  -2    0.33    0.66
  -4   2  -2    0.43    0.42
   4  -2   2    0.13    0.69
   4  -2   2    0.55    0.67
   4  -2   2    0.87    0.83
   4   2   2  378.88    6.69
  -5  -2  -3   31.68    2.55
  -5  -2  -3   26.92    2.30
  -5  -2  -3   28.36    2.21
  -5   2  -3  287.93    5.30
  -5   2  -3  294.78    4.19
  -5   2  -3  297.46    6.85
   5  -2   3  305.12    5.66
   5  -2   3  308.37    5.69
   5  -2   3  289.06    6.82
   5   2   3   32.43    2.51
   5   2   3   28.65    2.45
  -6  -2  -4   56.52    3.35
  -6  -2  -4   54.35    3.33
  -6  -2  -4   53.65    3.31
  -6   2  -4 2000.25   15.62
  -6   2  -4 2136.08   13.37
  -6   2  -4 2233.77   20.88
   6  -2   4 2287.38   17.48
   6  -2   4 2221.38   17.10
   6  -2   4 1969.15   19.75
   6   2   4   54.69    3.41
  -7  -2  -5   10.83    2.06
  -7  -2  -5   11.53    2.11
  -7  -2  -5    8.77    1.91
  -7   2  -5    3.52    1.17
  -7   2  -5    3.79    1.26
  -7   2  -5    3.56    1.00
  -7   2  -5    4.64    1.58
   7  -2   5    3.19    1.31
   7  -2   5    5.08    1.62
   7   2   5   12.34    2.31
  -8  -2  -6   10.60    2.25
  -8  -2  -6   15.73    2.73
  -8   2  -6    3.22    1.29
  -8   2  -6    2.93    1.34
  -8   2  -6    1.72    1.44
   8  -2   6    2.23    1.35
   8  -2   6    2.51    1.52
   8   2   6   15.18    2.74
  -9  -2  -7   69.64    4.73
  -9   2  -7   11.53    2.15
   9  -2   7   14.98    2.63
   9   2   7   84.46    5.32
 -10  -2  -8   21.28    3.40
 -10   2  -8    6.81    1.95
  10   2   8   27.98    4.09
 -11  -2  -9   46.95    4.52
 -11   2  -9   94.08    5.23
   8   4  10    0.42    1.74
  -8  -4 -10    1.08    1.69
  -8   4 -10    1.15    1.16
   7   4   9   -0.18    1.52
  -7  -4  -9    1.57    1.71
  -7   4  -9  214.31    5.61
   6  -4   8   33.06    2.92
   6   4   8   11.02    2.73
  -6  -4  -8   10.98    2.56
  -6   4  -8   45.16    2.56
  -6   4  -8   39.29    2.47
   5  -4   7    8.58    1.67
   5   4   7   34.09    3.46
  -5  -4  -7   38.71    3.54
  -5  -4  -7   40.15    3.73
  -5   4  -7   12.75    1.49
  -5   4  -7    9.66    1.41
  -5   4  -7   10.62    2.36
   4  -4   6   11.37    1.61
   4  -4   6   15.82    2.21
   4  -4   6   13.80    2.41
   4   4   6    7.83    1.98
  -4  -4  -6    9.44    2.12
  -4   4  -6   16.94    1.37
  -4   4  -6   12.56    1.27
  -4   4  -6   17.81    2.32
  -4   4  -6   16.10    2.64
   3  -4   5   36.64    1.96
   3  -4   5   44.66    2.18
   3  -4   5   56.01    3.06
   3  -4   5   52.76    3.45
   3   4   5  160.15    5.85
  -3  -4  -5  164.86    5.84
  -3  -4  -5  164.73    5.86
  -3   4  -5   53.86    1.68
  -3   4  -5   50.48    1.67
  -3   4  -5   54.10    3.46
   2  -4   4 1042.52    7.39
   2  -4   4 1167.33    7.84
   2  -4   4 1861.27   15.22
   2  -4   4 1703.66   16.44
   2   4   4  131.67    4.86
   2   4   4  142.92    5.04
  -2  -4  -4  140.22    4.96
  -2  -4  -4  125.05    4.71
  -2   4  -4 1771.33   16.67
   1  -4   3   10.80    0.69
   1  -4   3   11.36    0.72
   1  -4   3   15.74    1.58
   1  -4   3   16.73    1.64
   1   4   3   21.48    2.19
   1   4   3   27.62    2.23
  -1  -4  -3   21.78    2.06
  -1  -4  -3   22.60    2.07
   0  -4   2    4.32    0.51
   0  -4   2    4.35    0.50
   0  -4   2    4.13    0.96
   0   4   2    2.66    1.04
   0   4   2    3.56    1.01
   0  -4  -2    3.54    1.11
   0  -4  -2    2.29    0.98
  -1  -4   1   68.70    1.95
  -1  -4   1   75.00    2.03
  -1   4   1    8.30    1.24
  -1   4   1    6.25    1.07
   1  -4  -1    8.03    1.21
   1  -4  -1    7.14    1.19
   1   4  -1   49.82    1.63
  -2  -4   0   87.03    2.76
  -2  -4   0   88.75    2.80
  -2   4   0 2107.34   18.85
   2  -4   0 1836.90   18.61
   2  -4   0 1592.80   18.43
   2   4   0   76.77    2.60
   2   4   0  101.46    2.88
  -3  -4  -1 1271.71   11.67
  -3  -4  -1 1305.01   11.95
  -3   4  -1   83.94    2.14
   3  -4   1   72.27    2.14
   3  -4   1   82.50    2.27
   3   4   1 1110.40   10.98
   3   4   1 1345.42   11.95
  -4  -4  -2    1.65    1.01
  -4  -4  -2    0.79    1.00
  -4   4  -2    1.02    0.60
  -4   4  -2    1.01    0.62
   4  -4   2    0.42    0.64
   4  -4   2    0.91    0.68
   4  -4   2    0.71    0.56
   4  -4   2    1.19    0.96
   4   4   2    0.59    0.94
   4   4   2    0.20    0.87
  -5  -4  -3   52.06    3.27
  -5  -4  -3   49.69    3.30
  -5   4  -3   72.74    2.35
  -5   4  -3   65.62    2.27
   5  -4   3   76.08    2.71
   5  -4   3   78.24    2.78
   5  -4   3   67.56    2.16
   5  -4   3   67.78    3.64
   5   4   3   46.81    3.14
   5   4   3   50.33    3.19
  -6  -4  -4   15.45    2.33
  -6  -4  -4   16.31    2.45
  -6  -4  -4   14.55    2.13
  -6   4  -4    1.43    0.75
  -6   4  -4    1.09    0.77
   6  -4   4    2.77    0.97
   6  -4   4    1.43    1.17
   6   4   4   17.36    2.58
  -7  -4  -5    0.41    1.31
  -7  -4  -5    1.48    1.19
  -7   4  -5  358.33    6.35
  -7   4  -5  258.94    5.51
   7  -4   5  337.95    7.08
   7  -4   5  314.02    9.11
   7   4   5    0.29    1.27
  -8  -4  -6    3.79    1.68
  -8  -4  -6    4.43    1.72
  -8   4  -6    6.94    1.42
  -8   4  -6    4.55    1.26
   8  -4   6    7.98    1.79
   8  -4   6    5.91    2.01
   8   4   6    4.82    1.93
  -9  -4  -7   16.20    3.00
  -9   4  -7   31.28    2.55
   9  -4   7   43.53    3.48
   9  -4   7   46.28    4.40
   9   4   7   10.41    2.71
 -10  -4  -8    0.76    1.59
 -10   4  -8    2.10    1.36
  10  -4   8    3.58    2.06
  10   4   8    1.77    1.93
 -11  -4  -9    0.65    1.73
 -11   4  -9   11.85    2.19
  11   4   9    0.92    2.08
   8   6  10   -0.97    1.81
  -8  -6 -10    0.42    1.71
   7   6   9   50.12    5.14
  -7  -6  -9   47.28    4.77
   6  -6   8   12.98    2.90
   6   6   8   12.37    3.00
  -6  -6  -8   11.80    2.79
   5  -6   7   23.87    2.05
   5  -6   7   33.90    3.00
   5  -6   7   35.05    3.66
   5   6   7   27.64    3.41
  -5  -6  -7   22.44    3.34
   4  -6   6   48.33    2.26
   4  -6   6   73.92    3.88
   4  -6   6   71.92    4.55
   4   6   6    0.35    1.34
  -4  -6  -6   -0.46    1.15
   3  -6   5  212.10    3.40
   3  -6   5  319.64    4.15
   3  -6   5  355.98    7.63
   3  -6   5  350.62    8.83
   3   6   5   13.25    2.37
  -3  -6  -5   14.34    2.45
   2  -6   4   55.94    1.16
   2  -6   4   63.06    3.20
   2  -6   4   59.15    3.39
   2   6   4 1463.93   17.09
   2   6   4 1465.76   16.82
  -2  -6  -4 1399.35   16.46
   1  -6   3   11.31    1.66
   1   6   3   82.18    3.90
   1   6   3   88.23    3.97
  -1  -6  -3   87.18    3.96
  -1  -6  -3   83.06    3.96
   0  -6   2   39.18    1.47
   0  -6   2   37.55    1.43
   0   6   2   24.77    2.16
   0   6   2   25.58    2.23
   0  -6  -2   24.82    2.28
   0  -6  -2   23.74    2.18
  -1  -6   1   13.20    1.34
  -1  -6   1   13.50    1.34
  -1   6   1    5.53    1.22
  -1   6   1    3.91    1.03
   1  -6  -1    3.54    1.10
   1  -6  -1    3.59    1.02
   1   6  -1    7.35    1.04
  -2  -6   0 1373.81   11.86
  -2  -6   0 1465.87   12.33
  -2   6   0   64.86    2.49
   2  -6   0   53.60    2.39
   2  -6   0   47.28    2.20
   2   6   0  924.88    9.63
   2   6   0 1568.38   12.40
  -3  -6  -1   59.02    3.11
  -3  -6  -1   61.56    3.18
  -3   6  -1  237.88    3.64
  -3   6  -1  479.75    5.24
   3  -6   1  418.08    5.45
   3  -6   1  406.41    5.34
   3   6   1   50.10    2.82
   3   6   1   63.45    3.08
  -4  -6  -2  248.64    6.53
  -4  -6  -2  258.79    6.73
  -4   6  -2   24.55    1.09
  -4   6  -2   41.44    1.40
   4  -6   2   37.71    1.81
   4  -6   2   43.96    1.88
   4  -6   2   45.04    1.96
   4   6   2  206.67    6.02
   4   6   2  272.51    6.77
  -5  -6  -3   28.63    2.78
  -5  -6  -3   29.94    2.92
  -5   6  -3   54.65    1.36
  -5   6  -3   65.56    1.52
   5  -6   3   80.80    2.61
   5  -6   3   86.59    2.75
   5  -6   3   79.31    2.72
   5  -6   3   76.99    4.14
   5   6   3   31.12    2.88
   5   6   3   30.63    2.79
  -6  -6  -4   23.71    2.79
  -6   6  -4   26.46    1.19
  -6   6  -4   18.57    1.05
   6  -6   4   32.52    2.03
   6  -6   4   29.89    1.90
   6  -6   4   33.91    3.11
   6   6   4   22.42    2.72
  -7  -6  -5  315.23    9.48
  -7  -6  -5  303.19    8.73
  -7   6  -5   32.86    1.55
  -7   6  -5   23.46    1.36
   7  -6   5   33.55    2.37
   7  -6   5   33.00    3.36
   7   6   5  296.48    9.25
  -8  -6  -6    8.53    2.43
  -8  -6  -6    6.81    2.06
  -8   6  -6   43.69    1.96
  -8   6  -6   31.24    1.75
   8  -6   6   40.48    2.88
   8  -6   6   39.30    3.95
   8   6   6    7.11    2.31
  -9  -6  -7   14.55    3.16
  -9   6  -7   30.27    1.90
   9  -6   7   34.89    4.04
   9   6   7   16.47    3.44
 -10  -6  -8    3.84    2.31
 -10   6  -8   21.18    1.76
  10   6   8    4.78    2.50
   7   8   9   19.15    4.05
  -7  -8  -9   17.10    3.73
   6  -8   8   10.91    2.84
   6   8   8  254.63   10.32
  -6  -8  -8  229.81    9.69
   5  -8   7    7.04    1.83
   5  -8   7    5.17    1.99
   5   8   7    5.02    2.18
  -5  -8  -7    4.44    2.03
   4  -8   6    3.31    1.39
   4  -8   6    5.36    1.83
   4   8   6    4.58    1.95
  -4  -8  -6    4.36    1.91
   3  -8   5    3.42    1.30
   3  -8   5    4.58    1.55
   3   8   5   27.15    3.10
  -3  -8  -5   27.16    3.09
   2  -8   4   64.55    3.54
   2  -8   4   57.92    3.59
   2   8   4    9.46    2.12
   2   8   4   10.04    2.12
  -2  -8  -4    9.43    2.07
   1  -8   3   15.42    0.97
   1   8   3  184.08    6.14
   1   8   3  215.87    6.56
  -1  -8  -3  185.72    6.23
   0  -8   2  324.55    4.78
   0  -8   2  245.66    4.14
   0   8   2  211.85    6.03
   0   8   2  257.68    6.53
   0  -8  -2  214.79    6.09
   0  -8  -2  195.69    5.83
   0   8  -2  336.96    3.00
   0   8  -2  346.79    2.77
  -1  -8   1 1375.47   11.68
  -1  -8   1 1205.83   10.99
  -1   8   1  120.69    4.15
  -1   8   1  103.21    3.82
   1  -8  -1  100.20    3.89
   1  -8  -1   90.74    3.72
   1   8  -1  891.29    8.73
  -2  -8   0   77.97    3.41
  -2  -8   0   75.84    3.35
  -2   8   0    2.27    0.93
   2  -8   0    0.22    0.82
   2  -8   0    1.33    0.85
   2   8   0   57.38    2.91
   2   8   0   99.39    3.64
  -3  -8  -1    0.60    0.94
  -3   8  -1    7.17    1.02
  -3   8  -1   11.55    1.25
   3  -8   1    7.79    1.26
   3  -8   1    7.74    1.22
   3   8   1   -0.08    0.84
   3   8   1    0.75    0.98
  -4  -8  -2   65.07    3.91
  -4   8  -2   10.28    0.68
   4  -8   2   10.97    1.31
   4  -8   2   12.09    1.28
   4   8   2   49.19    3.43
   4   8   2   74.21    4.05
  -5  -8  -3    8.51    1.99
   5  -8   3   32.59    1.82
   5  -8   3   36.66    1.87
   5  -8   3   33.10    3.08
   5   8   3    6.80    1.86
   5   8   3    9.59    2.04
  -6  -8  -4  613.30   13.04
   6  -8   4    0.96    0.80
   6  -8   4   -0.27    0.78
   6  -8   4    0.43    1.17
   6   8   4  496.66   11.72
  -7  -8  -5   25.51    3.76
   7  -8   5   -0.40    0.76
   7  -8   5    0.03    0.85
   7  -8   5   -0.30    1.17
   7   8   5   23.82    3.56
  -8  -8  -6   31.49    3.78
   8  -8   6   34.70    3.90
   8   8   6   31.37    4.36
  -9  -8  -7    0.04    1.65
   9  -8   7  366.27   12.31
   9   8   7   -0.46    1.75
 -10  -8  -8    0.55    2.04
  10   8   8    0.78    2.22
   7  10   9   -0.69    2.01
  -7 -10  -9   -0.51    1.73
   6 -10   8   10.51    2.89
   6  10   8   21.26    4.05
  -6 -10  -8   20.28    3.91
   5 -10   7  202.12    7.11
   5 -10   7  207.01    8.78
   5  10   7   73.58    5.71
  -5 -10  -7   69.33    5.52
   4 -10   6   63.48    4.03
   4 -10   6   58.76    4.52
   4  10   6    3.03    1.99
  -4 -10  -6    4.01    2.00
   3 -10   5   14.48    2.35
   3 -10   5   12.98    2.50
   3  10   5    0.53    1.38
  -3 -10  -5    3.49    1.78
   2 -10   4   39.94    3.30
   2  10   4  168.97    6.83
  -2 -10  -4  160.01    6.71
   1 -10   3    1.07    0.60
   1  10   3    5.27    1.70
   1  10   3    7.44    1.90
  -1 -10  -3    6.05    1.78
   0 -10   2   32.12    1.99
   0  10   2   31.69    2.81
   0  10   2   38.56    3.00
   0 -10  -2   29.54    2.81
   0  10  -2   49.55    1.62
   0  10  -2   52.98    1.58
  -1 -10   1    5.05    1.25
  -1  10   1  107.12    4.28
  -1  10   1  109.98    4.27
   1 -10  -1   84.38    3.96
   1  10  -1    4.36    1.11
  -2 -10   0   46.11    2.99
  -2  10   0   37.91    2.43
   2 -10   0   27.49    2.26
   2  10   0   37.74    2.61
   2  10   0   57.64    3.10
  -3 -10  -1   11.85    2.09
  -3  10  -1   11.51    1.30
  -3  10  -1   13.56    1.42
   3 -10   1   11.06    1.56
   3  10   1    9.92    1.91
   3  10   1   13.86    2.13
  -4 -10  -2    3.53    1.52
   4 -10   2    6.11    1.18
   4  10   2    3.53    1.55
   4  10   2    5.24    1.66
  -5 -10  -3  409.15   10.62
   5 -10   3  385.66    5.74
   5  10   3  318.02    9.28
  -6 -10  -4   11.50    2.73
   6 -10   4   18.49    1.58
   6 -10   4   20.01    2.20
   6 -10   4   20.12    3.19
   6  10   4   13.56    2.73
  -7 -10  -5   20.35    3.53
   7 -10   5   17.05    2.20
   7 -10   5   15.45    3.03
   7  10   5   17.27    3.21
  -8 -10  -6    4.03    2.33
   8 -10   6    2.46    1.27
   8 -10   6    2.41    1.87
   8  10   6    2.42    2.04
  -9 -10  -7   -1.51    1.46
   9  10   7    0.88    2.01
   6  12   8   62.81    5.94
  -6 -12  -8   65.60    6.01
   5 -12   7    2.95    1.84
   5  12   7    3.51    2.41
  -5 -12  -7    1.82    1.98
   4 -12   6    2.74    1.53
   4 -12   6    1.69    1.54
   4  12   6    3.35    2.13
  -4 -12  -6    0.96    1.73
   3 -12   5    0.75    1.26
   3 -12   5    0.62    1.18
   3  12   5    8.89    2.46
  -3 -12  -5    8.31    2.49
   2 -12   4   51.70    4.03
   2  12   4    2.39    1.59
  -2 -12  -4    1.73    1.73
   1 -12   3  219.84    4.49
   1  12   3   12.37    2.40
  -1 -12  -3   13.56    2.67
   0 -12   2   17.92    1.85
   0  12   2   18.31    2.66
   0  12   2   22.55    2.65
   0 -12  -2   17.04    2.69
   0  12  -2   33.32    1.56
   0  12  -2   31.52    1.46
  -1 -12   1  102.99    4.25
  -1  12   1  344.08    8.07
  -1  12   1  387.34    8.43
   1 -12  -1  286.80    7.80
   1  12  -1  115.37    3.95
  -2 -12   0   92.18    4.50
  -2  12   0  133.29    4.53
   2 -12   0   95.25    4.27
   2  12   0   79.95    3.92
   2  12   0  128.52    4.83
  -3 -12  -1   32.54    3.13
  -3  12  -1   57.91    2.55
  -3  12  -1   70.47    2.80
   3 -12   1   54.14    3.07
   3  12   1   28.78    2.85
   3  12   1   45.04    3.41
  -4 -12  -2    4.26    1.74
   4 -12   2   14.08    1.81
   4  12   2    3.26    1.60
  -5 -12  -3    0.44    1.51
   5 -12   3    0.98    0.89
   5  12   3    0.85    1.39
  -6 -12  -4   94.72    6.03
   6 -12   4  378.79   11.60
   6  12   4   87.21    5.78
  -7 -12  -5    1.11    1.92
   7 -12   5    7.28    1.75
   7 -12   5    5.44    2.25
   7  12   5    2.32    1.89
  -8 -12  -6   24.62    4.37
   8  12   6   21.99    4.04
  -9 -12  -7   72.21    6.37
   9  12   7   66.11    6.12
   5  14   7   13.95    3.67
  -5 -14  -7   11.24    3.33
   4 -14   6    1.45    1.58
   4  14   6    0.80    1.78
  -4 -14  -6   -0.82    1.79
   3 -14   5    4.42    1.84
   3  14   5  176.04    8.33
  -3 -14  -5  184.73    8.70
   2 -14   4  526.56   13.01
   2  14   4    8.48    2.41
  -2 -14  -4   10.01    2.68
   1  14   3    3.82    1.81
  -1 -14  -3    2.86    1.74
   0  14   2    1.47    1.33
   0 -14  -2    1.75    1.48
   0  14  -2    1.76    0.70
   0  14  -2    0.56    0.54
  -1 -14   1    2.16    1.27
  -1  14   1    1.51    1.23
   1 -14  -1    0.25    1.19
   1  14  -1    3.05    1.20
   1  14  -1    5.02    1.29
  -2 -14   0    4.77    1.72
  -2  14   0  165.50    5.35
   2 -14   0  123.69    5.28
   2  14   0    3.63    1.45
  -3 -14  -1  166.41    6.89
  -3  14  -1   95.62    3.29
  -3  14  -1  105.31    3.50
   3 -14   1   82.96    4.06
   3  14   1  136.26    5.91
  -4 -14  -2    2.56    1.71
   4  14   2    1.60    1.52
  -5 -14  -3   37.31    4.20
   5  14   3   25.76    3.78
  -6 -14  -4    7.68    2.69
   6 -14   4   60.45    5.30
   6  14   4    7.22    2.56
  -7 -14  -5    2.34    2.10
   7  14   5   -0.28    1.90
  -8 -14  -6    3.08    2.43
   8  14   6    1.60    2.23
   3 -16   5   76.82    5.72
   3  16   5   14.66    3.29
  -3 -16  -5   18.71    3.89
   2 -16   4   18.66    3.31
   2  16   4   98.03    6.31
  -2 -16  -4  113.90    7.06
   1  16   3    1.84    1.67
  -1 -16  -3    3.34    2.03
   0  16   2    1.23    1.37
  -1  16   1    8.92    2.11
   1  16  -1   16.93    2.20
  -2  16   0   41.95    3.04
   2  16   0  256.80    7.57
  -3  16  -1  274.12    5.34
   3  16   1    3.76    1.78
  -4 -16  -2    1.51    1.78
   4  16   2    2.15    1.79
  -5 -16  -3    5.50    2.43
   5  16   3    3.48    2.01
  -6 -16  -4   -0.03    1.78
   6  16   4    0.68    1.78
   1  18   3   60.22    5.04
   0  18   2    6.28    2.21
  -1  18   1    3.21    1.69
   1  18  -1   35.76    2.68
  -2  18   0   10.14    2.04
  -2  18   0   11.07    2.08
   2  18   0   -0.34    1.21
   3  18   1   21.33    3.25
   4  18   2    2.61    1.96
  -7  -1 -10  153.42    7.05
  -7   1 -10    3.26    1.69
   6  -1   9   23.03    3.31
   6   1   9    7.87    2.33
  -6  -1  -9    7.53    2.10
  -6   1  -9   27.58    2.95
   5  -1   8    1.13    1.38
   5   1   8   15.86    2.78
  -5  -1  -8   12.28    2.38
  -5   1  -8   -0.13    1.07
   4  -1   7   44.48    3.20
   4   1   7    7.06    1.89
  -4  -1  -7    7.78    1.82
  -4  -1  -7    5.36    1.63
  -4  -1  -7    5.93    1.82
  -4   1  -7   49.15    3.10
  -4   1  -7   41.11    2.85
  -4   1  -7   50.93    3.92
   3  -1   6  469.74    8.59
   3   1   6    2.24    1.24
  -3  -1  -6    0.83    1.01
  -3  -1  -6    2.04    1.17
  -3  -1  -6    1.84    1.13
  -3   1  -6  516.02    8.43
  -3   1  -6  449.83    8.00
  -3   1  -6  587.44   11.39
   2  -1   5    0.73    0.88
   2  -1   5    0.29    0.79
   2   1   5  977.03   12.17
   2   1   5 1007.57   12.24
  -2  -1  -5  973.18   11.76
  -2  -1  -5  980.56   12.01
  -2  -1  -5 1242.49   14.02
  -2  -1  -5 1138.44   14.28
  -2   1  -5    1.79    0.87
  -2   1  -5    0.33    0.77
  -2   1  -5    1.41    0.97
  -2   1  -5    1.04    0.96
   1  -1   4   15.70    1.55
   1  -1   4   20.41    1.68
   1  -1   4   26.88    2.21
   1   1   4   18.55    1.93
   1   1   4   20.25    1.96
  -1  -1  -4   14.95    1.76
  -1  -1  -4   17.67    1.85
  -1  -1  -4   22.30    2.06
  -1   1  -4   21.50    1.72
  -1   1  -4   25.53    2.20
  -1   1  -4   23.91    2.02
   0  -1   3   23.15    1.51
   0  -1   3   26.83    1.62
   0  -1   3   29.04    1.99
   0   1   3   20.84    1.79
   0   1   3   24.72    1.84
   0  -1  -3   21.96    1.68
   0  -1  -3   21.55    1.68
   0  -1  -3   27.74    2.00
   0   1  -3   27.26    1.55
   0   1  -3   30.59    2.01
   0   1  -3   29.13    1.85
  -1  -1   2   53.45    1.80
  -1  -1   2   55.69    1.80
  -1  -1   2   60.56    2.25
  -1   1   2   49.20    2.05
   1  -1  -2   51.39    2.13
   1  -1  -2   52.15    2.14
   1   1  -2   56.11    1.80
   1   1  -2   59.26    2.26
  -2  -1   1  649.64    5.72
  -2   1   1    1.62    0.70
   2  -1  -1    1.04    0.61
   2  -1  -1    1.83    0.61
   2   1  -1  656.14    5.74
  -3  -1   0    0.57    0.67
  -3  -1   0    0.52    0.37
  -3   1   0    0.76    0.66
   3  -1   0    6.12    0.95
   3  -1   0    0.67    0.36
   3   1   0    0.62    0.66
   3   1   0    0.56    0.37
  -4  -1  -1   10.29    1.36
  -4  -1  -1    9.96    1.38
  -4  -1  -1    9.57    1.07
  -4   1  -1   76.38    2.56
  -4   1  -1   79.85    2.64
   4  -1   1   83.63    2.75
   4  -1   1   85.97    2.75
   4  -1   1   70.28    2.58
   4   1   1    9.27    1.35
   4   1   1   11.24    1.40
   4   1   1    8.46    1.10
  -5  -1  -2   37.87    2.37
  -5  -1  -2   39.40    2.52
  -5  -1  -2   34.27    2.13
  -5   1  -2   29.15    2.00
  -5   1  -2   31.83    2.09
  -5   1  -2   29.45    2.14
   5  -1   2   30.44    2.10
   5  -1   2   31.68    2.12
   5  -1   2   29.64    2.15
   5   1   2   35.63    2.35
   5   1   2   41.02    2.53
   5   1   2   30.03    2.03
  -6  -1  -3   15.69    2.12
  -6  -1  -3   13.12    1.98
  -6  -1  -3   14.47    1.95
  -6   1  -3  146.37    4.38
  -6   1  -3  134.85    4.28
  -6   1  -3  116.23    2.83
  -6   1  -3  139.67    4.86
   6  -1   3  144.89    4.52
   6  -1   3  148.30    4.56
   6  -1   3  133.90    4.78
   6   1   3   12.93    1.93
   6   1   3   13.89    1.95
  -7  -1  -4   30.18    2.72
  -7  -1  -4   28.94    2.66
  -7  -1  -4   26.16    2.51
  -7   1  -4   25.30    2.31
  -7   1  -4   31.11    2.54
  -7   1  -4   23.87    1.75
  -7   1  -4   23.28    2.46
   7  -1   4   28.33    2.50
   7  -1   4   25.91    2.59
   7   1   4   27.36    2.69
  -8  -1  -5    2.29    1.27
  -8  -1  -5    3.35    1.50
  -8  -1  -5    3.18    1.44
  -8   1  -5  430.91    8.86
  -8   1  -5  373.04    8.37
  -8   1  -5  392.09    6.79
  -8   1  -5  422.18   10.31
   8  -1   5  430.20    9.36
   8  -1   5  392.09   10.00
   8   1   5    5.15    1.76
  -9  -1  -6    1.17    1.37
  -9  -1  -6    2.62    1.54
  -9  -1  -6    2.76    1.57
  -9   1  -6   59.49    3.88
  -9   1  -6   67.97    4.79
   9  -1   6   66.66    4.30
   9   1   6    2.30    1.64
 -10  -1  -7   24.87    3.49
 -10   1  -7   -0.79    1.11
  10  -1   7   -0.60    1.30
  10   1   7   29.96    3.60
 -11  -1  -8   -0.11    1.41
 -11   1  -8    4.95    1.96
  11   1   8   -0.33    1.63
 -12  -1  -9   94.67    6.14
 -12   1  -9    0.31    1.54
   7   3  10   11.71    3.12
  -7  -3 -10   11.91    2.82
  -7   3 -10    4.69    1.58
   6   3   9  302.19   10.28
  -6  -3  -9  283.13    9.60
  -6   3  -9    5.36    1.54
   5  -3   8    0.00    1.05
   5   3   8    4.48    1.99
  -5  -3  -8    2.93    1.67
  -5   3  -8    1.54    1.06
   4  -3   7  324.45    7.29
   4   3   7    0.89    1.31
  -4  -3  -7   -0.71    1.08
  -4  -3  -7    1.40    1.32
  -4   3  -7  423.90    7.15
  -4   3  -7  344.52    6.57
  -4   3  -7  435.11   10.94
   3  -3   6    3.50    1.07
   3  -3   6    4.50    1.53
   3   3   6    4.73    1.56
  -3  -3  -6    3.89    1.42
  -3  -3  -6    4.62    1.61
  -3   3  -6    6.56    1.14
  -3   3  -6    5.22    1.10
  -3   3  -6    4.12    1.47
   2  -3   5  151.16    3.86
   2  -3   5  155.68    3.90
   2  -3   5  230.96    6.04
   2  -3   5  229.53    6.54
   2   3   5   14.02    2.12
   2   3   5   16.21    2.23
  -2  -3  -5   15.46    2.19
  -2  -3  -5   12.00    1.98
  -2   3  -5  209.48    3.87
  -2   3  -5  201.97    3.90
  -2   3  -5  248.43    6.18
  -2   3  -5  220.70    6.37
   1  -3   4  180.26    3.50
   1  -3   4  183.63    3.54
   1  -3   4  284.03    6.14
   1  -3   4  280.70    6.30
   1   3   4    8.99    1.63
   1   3   4   10.80    1.75
  -1  -3  -4    9.64    1.67
  -1  -3  -4   12.38    1.92
  -1   3  -4  224.78    3.27
  -1   3  -4  285.30    3.75
  -1   3  -4  313.17    6.36
  -1   3  -4  265.42    6.11
   0  -3   3   30.26    1.34
   0  -3   3   32.00    1.39
   0  -3   3   34.80    2.27
   0  -3   3   32.68    1.96
   0   3   3   21.45    1.99
   0   3   3   20.93    2.02
   0  -3  -3   20.36    1.94
   0  -3  -3   20.50    1.91
   0   3  -3   19.86    0.95
   0   3  -3   36.43    1.22
   0   3  -3   31.40    1.92
  -1  -3   2 2173.17   14.72
  -1  -3   2 2062.74   19.45
  -1  -3   2 1926.73   19.37
  -1   3   2  176.75    4.21
  -1   3   2  173.66    4.11
   1  -3  -2  189.45    4.34
   1  -3  -2  165.02    4.13
   1   3  -2 1939.62   17.38
   1   3  -2 2009.71   16.29
  -2  -3   1   41.57    1.76
  -2  -3   1   43.80    1.80
  -2   3   1  251.25    4.46
   2  -3  -1  252.82    4.45
   2  -3  -1  245.09    4.43
   2   3  -1   35.64    1.64
  -3  -3   0    0.12    0.66
  -3  -3   0   -0.09    0.71
  -3   3   0    1.73    0.76
   3  -3   0    1.58    0.72
   3  -3   0    1.04    0.74
   3  -3   0    1.16    0.71
   3   3   0    0.68    0.80
   3   3   0    0.81    0.72
  -4  -3  -1   58.00    2.84
  -4  -3  -1   63.04    2.88
  -4   3  -1 1451.89    9.96
   4  -3   1 1636.14   16.38
   4  -3   1 1533.66   10.52
   4   3   1   58.55    2.90
   4   3   1   66.00    2.91
  -5  -3  -2  134.49    4.50
  -5  -3  -2  145.86    4.76
  -5  -3  -2  111.35    3.60
  -5   3  -2   81.32    2.75
   5  -3   2   85.44    2.95
   5  -3   2   86.43    2.94
   5  -3   2   75.76    3.46
   5   3   2  136.29    4.63
   5   3   2  138.53    4.64
  -6  -3  -3 2348.37   20.00
  -6  -3  -3 2402.39   20.57
  -6  -3  -3 1926.23   17.08
  -6   3  -3    6.11    1.22
   6  -3   3    7.23    1.35
   6  -3   3    7.43    1.33
   6  -3   3    4.79    1.42
   6   3   3 2286.93   20.15
   6   3   3 2414.05   20.40
  -7  -3  -4   48.62    3.43
  -7  -3  -4   44.60    3.40
  -7  -3  -4   42.54    3.07
  -7   3  -4   20.39    1.94
  -7   3  -4   22.18    1.48
   7  -3   4   22.70    2.18
   7  -3   4   21.75    2.52
   7   3   4   43.73    3.43
  -8  -3  -5    3.34    1.65
  -8  -3  -5    2.37    1.40
  -8   3  -5   34.74    2.63
  -8   3  -5   43.35    2.21
  -8   3  -5   35.63    3.35
   8  -3   5   41.39    2.99
   8  -3   5   40.26    3.53
   8   3   5    3.10    1.59
  -9  -3  -6   27.27    3.14
  -9  -3  -6   29.82    3.31
  -9   3  -6 1167.46   14.46
   9  -3   6 1433.67   17.51
   9  -3   6 1383.77   20.88
   9   3   6   29.35    3.39
 -10  -3  -7    0.22    1.33
 -10   3  -7    3.99    1.54
  10  -3   7    4.51    1.85
  10  -3   7    5.92    2.13
  10   3   7   -0.02    1.61
 -11  -3  -8   -0.11    1.30
 -11   3  -8    1.87    1.40
  11   3   8    0.57    1.79
   7   5  10   20.87    4.08
  -7  -5 -10   18.35    3.63
  -7   5 -10    2.44    0.87
   6   5   9   38.22    4.43
  -6  -5  -9   37.36    4.15
  -6   5  -9    0.83    0.78
   5  -5   8   16.68    3.08
   5   5   8   13.43    2.87
  -5  -5  -8   15.45    2.98
  -5   5  -8   19.07    1.32
  -5   5  -8   18.13    1.39
   4  -5   7   35.87    2.41
   4  -5   7   46.48    3.42
   4  -5   7   50.66    4.08
   4   5   7    7.60    2.18
  -4  -5  -7    8.36    2.29
  -4   5  -7   52.35    1.55
  -4   5  -7   48.16    4.02
   3  -5   6    3.56    0.98
   3  -5   6    6.02    1.54
   3  -5   6    4.55    1.58
   3   5   6   15.91    2.66
  -3  -5  -6   13.84    2.57
  -3   5  -6    5.06    1.64
   2  -5   5    0.50    0.59
   2  -5   5    0.42    0.61
   2  -5   5    1.98    1.01
   2  -5   5    1.23    1.03
   2   5   5   -0.20    1.05
  -2  -5  -5    1.33    1.23
  -2  -5  -5   -0.17    1.04
  -2   5  -5    1.47    1.04
   1  -5   4    1.38    0.49
   1  -5   4    1.01    0.50
   1  -5   4    0.90    0.94
   1  -5   4    1.23    0.85
   1   5   4    1.92    1.24
   1   5   4    2.31    1.19
  -1  -5  -4    2.91    1.28
  -1  -5  -4    3.08    1.31
   0  -5   3  422.33    3.67
   0  -5   3  393.36    3.43
   0  -5   3  362.79    6.55
   0   5   3  246.39    6.16
   0   5   3  237.79    5.96
   0  -5  -3  253.64    6.23
   0  -5  -3  227.75    5.93
  -1  -5   2   31.44    1.46
  -1  -5   2   29.85    1.42
  -1   5   2   28.43    2.17
  -1   5   2   26.92    2.06
   1  -5  -2   28.99    2.30
   1  -5  -2   25.24    2.08
   1   5  -2   19.51    1.01
   1   5  -2   28.47    1.13
  -2  -5   1    0.52    0.70
  -2  -5   1    1.10    0.77
  -2   5   1   66.58    2.71
  -2   5   1   50.14    2.35
   2  -5  -1   62.59    2.73
   2  -5  -1   57.91    2.64
   2   5  -1    0.26    0.66
  -3  -5   0    0.83    0.85
  -3  -5   0    0.19    0.77
  -3   5   0    0.72    0.79
  -3   5   0    0.10    0.73
   3  -5   0    0.42    0.71
   3  -5   0    0.58    0.76
   3   5   0    0.47    0.87
   3   5   0    0.99    0.82
  -4  -5  -1   27.78    2.27
  -4  -5  -1   30.73    2.40
  -4   5  -1  128.82    3.09
   4  -5   1  124.22    3.24
   4  -5   1  111.38    3.07
   4  -5   1  127.96    3.30
   4   5   1   29.49    2.32
   4   5   1   35.60    2.46
  -5  -5  -2 1646.72   16.50
  -5  -5  -2 1650.06   16.77
  -5   5  -2 1758.34   15.51
  -5   5  -2 1876.84   19.74
   5  -5   2 1987.68   12.93
   5  -5   2 2008.33   13.04
   5   5   2 1527.00   16.11
   5   5   2 1684.26   16.65
  -6  -5  -3   63.22    3.81
  -6  -5  -3   58.26    3.71
  -6   5  -3   31.94    1.78
  -6   5  -3   35.38    1.87
   6  -5   3   37.59    2.16
   6  -5   3   36.67    2.20
   6  -5   3   33.81    1.53
   6  -5   3   36.00    2.94
   6   5   3   58.63    3.73
   6   5   3   64.62    3.93
  -7  -5  -4    2.34    1.34
  -7  -5  -4    0.22    1.13
  -7  -5  -4    1.28    1.01
  -7   5  -4    0.81    0.72
  -7   5  -4    0.55    0.71
   7  -5   4    1.27    0.96
   7  -5   4    0.92    1.19
   7   5   4    0.29    1.14
  -8  -5  -5  185.24    7.32
  -8  -5  -5  177.06    6.77
  -8   5  -5    1.41    0.88
  -8   5  -5    0.94    0.87
   8  -5   5    2.15    1.20
   8  -5   5    0.50    1.21
   8   5   5  180.25    7.29
  -9  -5  -6    2.98    1.88
  -9  -5  -6    2.61    1.69
  -9   5  -6    4.44    1.23
  -9   5  -6    1.88    1.06
   9  -5   6    4.49    1.52
   9  -5   6    4.00    1.76
   9   5   6    3.79    1.94
 -10  -5  -7  152.72    7.65
 -10   5  -7   63.94    3.34
  10  -5   7   90.68    6.23
  10   5   7  157.78    7.88
 -11  -5  -8   -0.72    1.58
 -11   5  -8   15.53    2.21
  11   5   8   -1.51    1.46
   7   7  10   30.65    5.02
  -7  -7 -10   26.29    4.33
   6  -7   9   56.44    5.26
   6   7   9    6.49    2.61
  -6  -7  -9    5.73    2.49
   5  -7   8    0.57    1.20
   5  -7   8    0.02    1.43
   5   7   8   54.31    4.86
  -5  -7  -8   61.66    5.02
   4  -7   7   78.06    2.81
   4  -7   7  107.74    5.12
   4  -7   7  114.65    6.08
   4   7   7  140.57    7.02
  -4  -7  -7  126.58    6.55
   3  -7   6   58.66    3.65
   3  -7   6   52.91    3.91
   3   7   6    0.94    1.48
  -3  -7  -6    0.58    1.38
   2  -7   5   19.90    2.25
   2  -7   5   16.87    2.44
   2   7   5    2.84    1.49
  -2  -7  -5    3.43    1.54
   1  -7   4   34.62    2.63
   1  -7   4   32.26    2.56
   1   7   4   16.16    2.43
   1   7   4   22.47    2.67
  -1  -7  -4   18.20    2.60
   0  -7   3    7.53    0.88
   0  -7   3    6.00    0.73
   0  -7   3    5.90    1.37
   0   7   3    1.87    1.25
   0   7   3    3.66    1.38
   0  -7  -3    2.13    1.25
   0  -7  -3    3.97    1.44
  -1  -7   2    1.97    0.79
  -1  -7   2    2.21    0.77
  -1   7   2 1061.98   12.59
  -1   7   2 1022.80   12.17
   1  -7  -2 1085.03   12.73
   1  -7  -2  953.15   12.06
   1   7  -2    0.73    0.56
   1   7  -2    1.65    0.57
  -2  -7   1    7.32    1.27
  -2  -7   1    6.72    1.26
  -2   7   1   60.17    2.94
  -2   7   1   42.40    2.46
   2  -7  -1   51.30    2.80
   2  -7  -1   45.77    2.66
   2   7  -1    4.23    1.03
  -3  -7   0    0.40    0.83
  -3  -7   0    0.16    0.83
  -3   7   0    0.49    0.81
   3  -7   0   -0.12    0.72
   3  -7   0    0.41    0.80
   3   7   0   -0.36    0.81
   3   7   0    1.85    0.93
  -4  -7  -1 1310.44   14.52
  -4  -7  -1 1427.92   15.34
  -4   7  -1  126.08    3.12
  -4   7  -1  231.60    4.27
   4  -7   1  195.81    4.35
   4  -7   1  200.07    4.37
   4   7   1 1112.21   13.42
   4   7   1 1584.82   15.80
  -5  -7  -2    7.31    1.76
  -5   7  -2   11.09    1.04
  -5   7  -2   18.02    1.28
   5  -7   2   20.51    1.70
   5  -7   2   19.74    1.60
   5   7   2    7.04    1.73
   5   7   2   10.94    2.04
  -6  -7  -3   17.42    2.65
  -6   7  -3  248.57    3.38
  -6   7  -3  322.82    3.93
   6  -7   3  384.25    6.13
   6  -7   3  373.06    5.67
   6  -7   3  351.34    9.16
   6   7   3   14.87    2.51
  -7  -7  -4   44.78    3.81
  -7   7  -4   33.76    1.35
  -7   7  -4   31.72    1.36
   7  -7   4   40.28    2.40
   7  -7   4   39.77    2.07
   7  -7   4   38.93    3.55
   7   7   4   39.92    3.65
  -8  -7  -5    1.17    1.53
  -8  -7  -5    0.30    1.24
  -8   7  -5   32.19    1.38
  -8   7  -5   23.70    1.26
   8  -7   5   39.42    2.67
   8  -7   5   34.52    3.62
   8   7   5    0.63    1.52
  -9  -7  -6  335.31   11.00
  -9   7  -6   16.07    1.14
  -9   7  -6   12.18    1.09
   9  -7   6   15.72    3.24
   9   7   6  323.28   10.91
 -10  -7  -7    9.16    2.81
  10  -7   7    3.97    2.20
  10   7   7    7.40    2.75
 -11  -7  -8    1.11    1.86
  11   7   8   -0.24    1.83
   6   9   9   36.20    5.15
  -6  -9  -9   27.19    4.50
   5  -9   8    9.08    2.58
   5   9   8    0.87    1.83
  -5  -9  -8    0.79    1.83
   4  -9   7   22.91    2.75
   4  -9   7   27.85    3.84
   4   9   7   32.58    4.02
  -4  -9  -7   30.44    3.75
   3  -9   6   34.49    3.10
   3  -9   6   33.71    3.31
   3   9   6 1048.31   18.32
  -3  -9  -6 1028.05   18.15
   2  -9   5  312.30    8.27
   2  -9   5  288.64    8.43
   2   9   5    5.07    1.85
  -2  -9  -5    3.69    1.78
   1  -9   4    3.41    1.29
   1   9   4   27.14    3.01
  -1  -9  -4   25.16    2.86
   0  -9   3    2.91    0.75
   0  -9   3    1.42    0.64
   0   9   3    1.60    1.24
   0   9   3    1.14    1.13
   0  -9  -3    2.27    1.37
  -1  -9   2   17.42    1.69
  -1  -9   2   13.09    1.45
  -1   9   2    8.98    1.79
  -1   9   2    6.42    1.58
   1  -9  -2   16.84    2.36
   1   9  -2   12.36    1.17
   1   9  -2   17.20    1.24
  -2  -9   1    3.13    1.10
  -2   9   1  324.12    6.97
  -2   9   1  256.60    6.14
   2  -9  -1  232.68    6.12
   2   9  -1    3.21    1.00
  -3  -9   0    3.46    1.25
  -3   9   0    1.18    0.89
   3  -9   0    0.12    0.82
   3   9   0    0.16    0.83
   3   9   0    0.15    0.81
  -4  -9  -1   15.71    2.34
  -4   9  -1    3.36    0.85
  -4   9  -1    5.40    1.07
   4  -9   1    4.09    1.08
   4   9   1   10.48    1.98
   4   9   1   16.92    2.34
  -5  -9  -2   28.07    2.87
  -5   9  -2   22.13    1.19
  -5   9  -2   30.31    1.38
   5  -9   2   28.92    1.95
   5   9   2   19.42    2.76
   5   9   2   28.20    2.85
  -6  -9  -3   28.41    3.17
   6  -9   3   21.26    1.78
   6  -9   3   19.18    2.94
   6   9   3   21.55    3.14
  -7  -9  -4   29.84    3.59
   7  -9   4    6.51    1.26
   7  -9   4    5.19    1.24
   7  -9   4    5.30    1.92
   7   9   4   22.99    3.49
  -8  -9  -5  112.94    6.53
   8  -9   5    0.26    0.85
   8  -9   5    0.52    1.51
   8   9   5   96.95    6.08
  -9  -9  -6    1.43    1.81
   9  -9   6    2.13    1.87
   9   9   6    3.04    2.05
 -10  -9  -7    7.21    2.61
  10   9   7    9.22    3.05
   5 -11   8    1.48    1.75
   5  11   8   13.57    3.45
  -5 -11  -8   17.38    3.70
   4 -11   7    3.37    1.64
   4 -11   7    1.99    1.58
   4  11   7   27.84    4.37
  -4 -11  -7   29.66    4.37
   3 -11   6  366.73    9.85
   3 -11   6  332.61   10.29
   3  11   6   29.97    3.74
  -3 -11  -6   23.07    3.77
   2 -11   5    6.00    1.79
   2 -11   5    4.49    1.70
   2  11   5  162.90    7.40
  -2 -11  -5  170.62    7.62
   1 -11   4   56.11    3.86
   1  11   4    0.09    1.21
  -1 -11  -4    0.13    1.26
   0 -11   3   15.42    1.47
   0  11   3   14.36    2.45
   0 -11  -3   16.27    2.71
  -1 -11   2   44.71    2.59
  -1  11   2    2.86    1.38
  -1  11   2    3.67    1.40
   1 -11  -2    1.92    1.30
   1  11  -2   48.59    2.09
   1  11  -2   64.38    2.28
  -2 -11   1  200.24    5.75
  -2  11   1   -0.08    0.97
  -2  11   1    0.17    0.92
   2 -11  -1    0.20    0.99
   2  11  -1  167.94    4.78
  -3 -11   0   -0.19    0.99
  -3  11   0    0.81    0.98
   3 -11   0    0.39    0.93
   3  11   0    0.14    0.88
   3  11   0    1.33    0.98
  -4 -11  -1   49.08    3.70
  -4  11  -1    1.07    0.74
  -4  11  -1    0.98    0.83
   4 -11   1    0.81    0.90
   4  11   1   41.26    3.28
   4  11   1   68.17    4.06
  -5 -11  -2  132.67    6.12
  -5  11  -2   23.75    1.01
   5 -11   2   23.70    1.99
   5  11   2  109.44    5.45
  -6 -11  -3   -0.39    1.28
   6 -11   3   38.02    2.30
   6  11   3    0.24    1.28
  -7 -11  -4   19.27    3.48
   7 -11   4    2.10    1.19
   7 -11   4    3.16    1.85
   7  11   4   17.24    3.24
  -8 -11  -5   11.01    3.00
   8 -11   5  195.50    5.44
   8 -11   5  191.53    8.75
   8  11   5   10.67    2.86
  -9 -11  -6    5.24    2.44
   9  11   6    4.48    2.49
 -10 -11  -7    1.62    2.31
  10  11   7   -0.21    2.09
   4 -13   7  159.67    8.08
   4  13   7    0.29    1.77
  -4 -13  -7    0.44    1.79
   3 -13   6   28.49    3.31
   3 -13   6   25.62    3.71
   3  13   6    2.29    2.01
  -3 -13  -6    2.55    1.98
   2 -13   5    4.12    1.76
   2  13   5   35.86    4.07
  -2 -13  -5   34.65    3.98
   1 -13   4    2.60    1.55
   1  13   4   25.66    3.62
  -1 -13  -4   28.91    3.46
   0 -13   3   12.80    1.67
   0  13   3   15.76    2.78
   0 -13  -3   17.13    2.97
  -1 -13   2  628.87    9.86
  -1  13   2   36.51    3.28
   1 -13  -2   30.62    3.19
   1  13  -2  919.17    8.77
   1  13  -2 1126.38    9.31
  -2 -13   1    9.45    1.93
  -2  13   1    0.76    1.11
  -2  13   1    1.13    1.07
   2 -13  -1    0.73    1.24
   2  13  -1    8.23    1.65
  -3 -13   0   -0.05    1.12
  -3  13   0    0.43    1.00
   3 -13   0   -0.31    1.03
   3  13   0    0.18    1.04
   3  13   0    0.35    1.02
  -4 -13  -1   43.86    3.84
  -4  13  -1  135.04    3.85
  -4  13  -1  157.76    4.17
   4 -13   1  125.46    4.74
   4  13   1   32.49    3.16
  -5 -13  -2    2.68    1.79
   5  13   2    2.65    1.64
  -6 -13  -3  159.54    7.68
   6  13   3  143.98    7.12
  -7 -13  -4    3.01    2.14
   7 -13   4   21.82    2.56
   7 -13   4   22.13    3.80
   7  13   4    3.81    2.09
  -8 -13  -5    5.62    2.65
   8  13   5    3.86    2.34
  -9 -13  -6   75.01    6.50
   9  13   6   72.71    6.29
   3 -15   6   14.74    3.04
   3 -15   6   13.01    3.00
   3  15   6   37.37    4.51
  -3 -15  -6   41.80    4.92
   2 -15   5    3.96    1.85
   2  15   5   29.98    4.30
  -2 -15  -5   30.31    4.48
   1 -15   4    3.48    1.78
   1  15   4   15.06    3.11
  -1 -15  -4   18.12    3.44
   0  15   3  244.13    8.76
   0 -15  -3  256.49    9.37
  -1  15   2    7.87    2.11
   1 -15  -2    6.48    2.12
   1  15  -2    3.73    0.98
  -2  15   1   13.38    2.40
   2 -15  -1   10.21    2.34
   2  15  -1    5.89    1.53
  -3 -15   0   -0.10    1.26
  -3  15   0   -0.01    1.13
   3  15   0    0.33    1.17
  -4 -15  -1   33.18    3.65
  -4  15  -1   84.67    3.14
   4  15   1   34.53    3.49
  -5 -15  -2  242.18    9.29
   5  15   2  201.44    8.15
  -6 -15  -3    0.11    1.67
   6  15   3    0.03    1.35
  -7 -15  -4   22.39    4.10
   7  15   4   20.84    3.88
  -8 -15  -5    3.42    2.34
   8  15   5   -0.87    1.90
   1 -17   4    3.09    1.91
   1  17   4   -0.43    1.46
   0  17   3   -0.33    1.45
  -1  17   2  129.55    6.34
  -2  17   1    3.29    1.66
   2  17  -1    3.05    1.31
  -3  17   0    0.25    1.17
  -3  17   0    0.62    1.12
   3  17   0   -0.43    1.17
  -4  17  -1   56.61    2.35
   4  17   1   82.98    5.18
   5  17   2    1.02    1.62
   6  17   3   23.49    4.00
  -7   0 -11   12.52    2.79
  -6   0 -10    0.55    1.39
   5   0   9  204.81    7.74
  -5   0  -9  188.97    6.97
   4   0   8    3.13    1.61
  -4   0  -8    3.19    1.42
  -4   0  -8    3.83    1.53
  -4   0  -8    2.69    1.53
   3   0   7    0.65    1.04
  -3   0  -7    0.58    0.96
  -3   0  -7    0.22    1.01
  -3   0  -7    0.44    1.05
   2   0   6   11.57    1.91
  -2   0  -6   12.94    1.86
  -2   0  -6   14.09    2.00
  -2   0  -6   14.31    2.20
   1   0   5    9.28    1.59
   1   0   5    8.15    1.50
  -1   0  -5    9.09    1.53
  -1   0  -5    8.06    1.50
  -1   0  -5   10.86    1.79
  -1   0  -5    8.98    1.65
   0   0   4 1034.29   10.55
   0   0   4 1158.11   11.07
   0   0  -4  961.95    9.89
   0   0  -4 1333.42   11.78
   0   0  -4 1530.33   14.01
  -1   0   3   27.55    1.88
  -1   0   3   31.27    1.87
  -1   0   3   30.77    2.09
   1   0  -3   26.48    1.80
   1   0  -3   28.63    1.87
   1   0  -3   31.08    2.07
  -2   0   2    0.47    0.74
  -2   0   2    1.22    0.69
  -2   0   2    1.34    0.70
   2   0  -2    0.48    0.67
   2   0  -2    0.83    0.71
  -3   0   1   51.22    2.11
   3   0  -1   44.69    1.99
   3   0  -1   48.70    1.86
  -4   0   0   73.71    2.60
  -4   0   0   80.23    2.78
   4   0   0   77.12    2.74
   4   0   0   77.67    2.68
   4   0   0   74.86    2.13
  -5   0  -1 1071.43   10.46
  -5   0  -1 1162.15   11.01
  -5   0  -1 1016.88    9.46
   5   0   1 1079.40   10.67
   5   0   1 1167.25   10.98
   5   0   1  959.43    9.22
  -6   0  -2   40.39    2.52
  -6   0  -2   36.99    2.45
  -6   0  -2   36.62    2.37
   6   0   2   36.59    2.57
   6   0   2   47.04    2.78
   6   0   2   37.66    2.44
  -7   0  -3    5.60    1.35
  -7   0  -3    4.92    1.36
  -7   0  -3    5.64    1.44
   7   0   3    4.72    1.44
   7   0   3    7.15    1.57
   7   0   3    4.38    1.31
  -8   0  -4    0.52    0.98
  -8   0  -4   -0.46    0.85
  -8   0  -4   -0.74    0.80
   8   0   4    0.91    1.17
   8   0   4   -0.10    0.90
  -9   0  -5   10.12    2.06
  -9   0  -5   10.42    2.17
  -9   0  -5   10.18    2.19
   9   0   5   13.46    2.48
 -10   0  -6   18.10    2.81
 -10   0  -6   27.58    3.37
  10   0   6   27.05    3.25
 -11   0  -7    4.52    1.92
  11   0   7    1.31    1.76
 -12   0  -8   56.10    4.54
  -6  -2 -10    0.95    1.58
  -6   2 -10    2.31    1.46
   5  -2   9    0.10    1.26
   5   2   9    4.05    2.00
  -5  -2  -9    3.51    1.72
  -5   2  -9    0.77    1.16
   4  -2   8    0.84    1.20
   4   2   8  908.91   15.75
  -4  -2  -8  894.64   15.11
  -4   2  -8   -0.44    0.86
  -4   2  -8   -0.45    1.05
   3  -2   7    0.08    0.96
   3   2   7   39.04    3.36
  -3  -2  -7   39.38    3.27
  -3  -2  -7   38.48    3.23
  -3   2  -7   -0.32    0.81
  -3   2  -7    0.10    1.04
   2  -2   6   26.86    2.23
   2   2   6   30.62    2.83
  -2  -2  -6   28.68    2.69
  -2  -2  -6   31.00    2.74
  -2  -2  -6   32.78    2.96
  -2   2  -6   30.99    2.15
  -2   2  -6   38.57    2.95
  -2   2  -6   31.91    2.83
   1  -2   5  944.78   10.04
   1  -2   5  969.74   10.14
   1  -2   5 1463.35   15.22
   1   2   5    1.28    1.11
   1   2   5    0.58    0.94
  -1  -2  -5    0.67    0.97
  -1  -2  -5    1.32    1.11
  -1  -2  -5    1.68    1.12
  -1   2  -5 1330.63   11.17
  -1   2  -5 1558.46   15.50
  -1   2  -5 1329.69   14.83
   0  -2   4    5.27    1.01
   0  -2   4    5.91    1.10
   0  -2   4    5.95    1.34
   0   2   4    7.61    1.55
   0   2   4    5.83    1.37
   0  -2  -4    6.23    1.40
   0  -2  -4    4.93    1.28
   0   2  -4    6.44    1.08
   0   2  -4    7.11    1.43
   0   2  -4    5.43    1.23
  -1  -2   3    1.14    0.71
  -1  -2   3    1.65    0.71
  -1  -2   3    2.14    0.97
  -1   2   3  957.26   10.28
  -1   2   3  974.10   10.24
   1  -2  -3  891.88    9.78
   1  -2  -3  958.14   10.25
   1   2  -3    1.79    0.76
   1   2  -3    2.13    0.91
   1   2  -3    1.52    0.74
  -2  -2   2   78.95    2.34
  -2  -2   2   79.93    2.37
  -2  -2   2   77.12    2.82
  -2   2   2   73.83    2.86
  -2   2   2   71.79    2.75
   2  -2  -2   71.71    2.69
   2  -2  -2   70.37    2.72
   2   2  -2   78.15    2.35
   2   2  -2   69.29    1.77
  -3  -2   1  287.05    4.64
  -3  -2   1  297.17    4.75
  -3   2   1   39.63    2.06
  -3   2   1   43.09    2.10
   3  -2  -1   43.47    2.05
   3  -2  -1   41.45    2.07
   3  -2  -1   36.17    1.66
   3   2  -1  282.64    4.63
  -4  -2   0 2102.31   21.38
  -4  -2   0 2093.43   20.63
  -4  -2   0 1931.35   16.46
  -4   2   0  103.25    2.98
  -4   2   0  108.35    3.15
   4  -2   0  102.76    3.09
   4  -2   0  114.85    3.23
   4  -2   0   97.57    1.76
   4   2   0 2020.76   22.44
   4   2   0 2132.43   21.06
  -5  -2  -1   76.71    3.21
  -5  -2  -1   82.05    3.36
  -5  -2  -1   73.57    2.51
  -5   2  -1    0.87    0.81
  -5   2  -1    0.33    0.82
   5  -2   1    0.47    0.82
   5  -2   1   -0.03    0.74
   5  -2   1    0.46    0.78
   5   2   1   80.91    3.41
   5   2   1   83.55    3.41
  -6  -2  -2  153.28    4.87
  -6  -2  -2  163.67    5.14
  -6  -2  -2  144.23    4.24
  -6   2  -2    8.96    1.44
  -6   2  -2    6.72    1.34
   6  -2   2   10.54    1.59
   6  -2   2    6.98    1.35
   6  -2   2    7.11    1.52
   6   2   2  166.22    5.20
   6   2   2  163.32    5.05
  -7  -2  -3    4.89    1.51
  -7  -2  -3    1.55    1.16
  -7  -2  -3    2.54    1.10
  -7   2  -3   -0.37    0.78
  -7   2  -3    0.22    0.92
  -7   2  -3    0.64    0.45
   7  -2   3    0.55    0.93
   7  -2   3    1.21    0.97
   7  -2   3   -0.44    0.78
   7   2   3    4.20    1.47
   7   2   3    2.38    1.22
  -8  -2  -4   53.35    3.64
  -8  -2  -4   47.63    3.43
  -8  -2  -4   49.61    3.38
  -8   2  -4   15.09    2.05
  -8   2  -4   15.25    2.08
  -8   2  -4   12.63    1.26
  -8   2  -4   16.12    2.48
   8  -2   4   12.86    2.03
   8  -2   4   11.65    2.19
   8   2   4   48.55    3.61
  -9  -2  -5  246.53    7.97
  -9  -2  -5  245.90    7.98
  -9   2  -5    7.01    1.69
  -9   2  -5    5.16    1.59
  -9   2  -5    7.61    1.24
  -9   2  -5    6.78    1.94
   9  -2   5    7.07    1.80
   9  -2   5    7.00    1.96
   9   2   5  245.93    8.08
 -10  -2  -6    4.87    1.86
 -10  -2  -6    3.41    1.70
 -10   2  -6    0.61    1.24
  10  -2   6   -0.89    1.18
  10  -2   6    0.04    1.31
  10   2   6    8.02    2.29
 -11  -2  -7   11.33    2.71
 -11   2  -7   84.82    4.82
  11  -2   7  103.52    5.77
  11   2   7    9.97    2.76
 -12  -2  -8    0.66    1.71
 -12   2  -8    1.21    1.51
  12   2   8    0.84    1.92
   6   4  10    1.78    1.91
  -6  -4 -10    0.70    1.66
  -6   4 -10   12.27    1.85
   5   4   9    3.37    2.07
  -5  -4  -9    2.43    1.80
  -5   4  -9    5.84    1.37
   4  -4   8    6.30    1.60
   4   4   8    5.27    2.03
  -4  -4  -8    5.94    2.00
  -4   4  -8    5.87    1.23
  -4   4  -8    6.02    1.28
   3  -4   7    0.80    0.90
   3  -4   7    1.28    1.15
   3   4   7  332.78    9.48
  -3  -4  -7  345.68    9.50
  -3   4  -7    0.40    0.67
  -3   4  -7    1.18    0.77
  -3   4  -7    1.20    1.22
   2  -4   6   26.19    1.94
   2  -4   6   38.18    3.05
   2  -4   6   30.68    2.82
   2   4   6   15.39    2.51
  -2  -4  -6   13.69    2.31
  -2  -4  -6   13.49    2.37
  -2   4  -6   30.68    1.59
  -2   4  -6   35.42    1.74
  -2   4  -6   33.45    2.92
   1  -4   5   85.18    2.72
   1  -4   5   74.98    2.59
   1  -4   5  113.55    4.53
   1  -4   5  107.86    4.47
   1   4   5   18.89    2.57
   1   4   5   19.16    2.30
  -1  -4  -5   18.44    2.27
  -1  -4  -5   18.67    2.28
  -1   4  -5   92.49    2.08
  -1   4  -5  113.49    2.37
  -1   4  -5  103.11    4.33
   0  -4   4   56.72    1.98
   0  -4   4   53.39    1.97
   0  -4   4   59.82    3.18
   0  -4   4   60.10    2.99
   0   4   4   36.37    2.77
   0   4   4   32.88    2.71
   0  -4  -4   33.10    2.64
   0  -4  -4   35.78    2.69
   0   4  -4   38.18    1.21
   0   4  -4   60.17    1.51
   0   4  -4   53.89    2.83
  -1  -4   3   46.72    1.78
  -1  -4   3   43.51    1.70
  -1  -4   3   48.18    2.82
  -1  -4   3   42.39    2.16
  -1   4   3   12.08    1.84
  -1   4   3   12.81    1.79
   1  -4  -3   11.39    1.71
   1  -4  -3    9.73    1.62
   1   4  -3   34.42    1.30
   1   4  -3   43.72    1.43
  -2  -4   2    0.57    0.65
  -2  -4   2    1.90    0.74
  -2  -4   2    0.45    0.57
  -2   4   2  321.69    6.12
  -2   4   2  313.71    5.99
   2  -4  -2  326.80    6.12
   2  -4  -2  311.31    6.04
   2   4  -2    0.78    0.63
  -3  -4   1 1432.58   10.99
  -3  -4   1 1440.72   11.10
  -3   4   1   65.79    2.78
  -3   4   1   51.03    2.44
   3  -4  -1   60.66    2.68
   3  -4  -1   54.46    2.51
   3   4  -1 1309.42   10.44
   3   4  -1 1430.07   10.73
  -4  -4   0    3.77    1.10
  -4  -4   0    2.58    1.03
  -4   4   0    5.08    1.03
  -4   4   0    6.05    1.15
   4  -4   0    3.83    0.99
   4  -4   0    4.67    1.07
   4   4   0    3.52    1.11
   4   4   0    2.97    1.05
  -5  -4  -1  111.21    4.10
  -5  -4  -1  120.70    4.31
  -5   4  -1   41.34    2.15
   5  -4   1   38.85    2.20
   5  -4   1   40.34    2.22
   5   4   1  111.36    4.19
   5   4   1  122.04    4.32
  -6  -4  -2   47.87    3.25
  -6  -4  -2   41.87    3.00
  -6  -4  -2   32.94    2.22
  -6   4  -2  302.99    5.51
   6  -4   2  314.75    5.92
   6  -4   2  345.43    6.17
   6  -4   2  319.55    7.47
   6   4   2   41.83    3.10
   6   4   2   45.58    3.07
  -7  -4  -3   15.33    2.42
  -7  -4  -3   14.44    2.34
  -7  -4  -3   10.79    1.73
  -7   4  -3  320.56    6.11
   7  -4   3  350.71    6.82
   7  -4   3  302.17    7.99
   7   4   3   12.50    2.16
  -8  -4  -4  490.89   11.00
  -8  -4  -4  487.23   10.10
  -8   4  -4    0.80    0.91
   8  -4   4    0.63    0.99
   8  -4   4    1.29    1.18
   8   4   4  487.43   11.02
  -9  -4  -5   77.29    4.89
  -9  -4  -5   72.24    4.48
  -9   4  -5    8.84    1.73
   9  -4   5   10.69    2.04
   9  -4   5    8.64    2.21
   9   4   5   83.24    5.21
 -10  -4  -6   51.60    4.48
 -10  -4  -6   48.49    4.16
 -10   4  -6    3.32    1.33
  10  -4   6    3.88    1.62
  10  -4   6    3.73    1.92
  10   4   6   46.65    4.41
 -11  -4  -7    1.78    1.86
 -11   4  -7   26.43    2.72
  11  -4   7   33.22    4.06
  11   4   7    2.36    2.02
 -12  -4  -8   15.77    3.41
 -12   4  -8  163.51    6.16
  12   4   8   17.49    3.84
   6   6  10    0.99    1.93
  -6  -6 -10   -0.52    1.73
   5   6   9    2.69    2.01
  -5  -6  -9    1.82    1.84
   4  -6   8   15.39    2.63
   4  -6   8   12.64    2.71
   4   6   8   32.91    3.82
  -4  -6  -8   32.78    3.81
   3  -6   7  255.90    5.24
   3  -6   7  338.09    8.86
   3  -6   7  329.57    9.68
   3   6   7   35.42    3.61
  -3  -6  -7   34.08    3.63
  -3   6  -7  330.52    9.63
   2  -6   6   35.00    1.82
   2  -6   6   40.83    3.21
   2  -6   6   43.82    3.43
   2   6   6    0.25    1.24
  -2  -6  -6    0.79    1.26
   1  -6   5    0.54    0.52
   1  -6   5    0.08    0.51
   1  -6   5    0.62    0.96
   1  -6   5    0.93    0.90
   1   6   5   17.42    2.67
  -1  -6  -5   16.18    2.55
   0  -6   4  116.90    2.35
   0  -6   4  113.66    2.25
   0  -6   4  115.19    4.56
   0  -6   4  111.55    4.19
   0   6   4   66.13    3.81
   0   6   4   68.96    3.86
   0  -6  -4   71.60    3.91
   0  -6  -4   63.58    3.71
  -1  -6   3  151.15    2.98
  -1  -6   3  145.29    2.90
  -1  -6   3  135.82    4.06
  -1   6   3    8.15    1.71
  -1   6   3   11.21    1.88
   1  -6  -3    9.49    1.76
   1  -6  -3    8.79    1.71
  -2  -6   2   10.77    1.31
  -2  -6   2    7.27    1.13
  -2   6   2  114.17    4.17
  -2   6   2   98.48    3.79
   2  -6  -2  120.85    4.22
   2  -6  -2  101.86    3.99
   2   6  -2    5.48    0.94
   2   6  -2    9.12    1.14
  -3  -6   1   65.10    2.83
  -3  -6   1   64.04    2.82
  -3   6   1  403.34    6.94
  -3   6   1  300.44    5.91
   3  -6  -1  365.31    6.67
   3  -6  -1  360.09    6.65
   3   6  -1   53.38    2.50
   3   6  -1   65.25    2.75
  -4  -6   0   38.63    2.54
  -4  -6   0   38.05    2.53
  -4   6   0  357.21    5.93
  -4   6   0  477.79    6.97
   4  -6   0  483.04    7.19
   4  -6   0  457.76    7.03
   4   6   0   40.18    2.60
   4   6   0   44.84    2.64
  -5  -6  -1  148.76    5.14
  -5  -6  -1  154.18    5.28
  -5   6  -1    1.16    0.81
   5  -6   1    1.49    0.86
   5  -6   1    1.34    0.85
   5   6   1  141.43    5.01
   5   6   1  171.94    5.37
  -6  -6  -2   85.65    4.32
  -6  -6  -2   91.49    4.48
  -6   6  -2   98.92    3.00
  -6   6  -2  111.33    3.23
   6  -6   2  114.44    3.65
   6  -6   2  115.43    3.68
   6   6   2   78.56    4.18
   6   6   2   89.65    4.36
  -7  -6  -3  304.81    8.57
  -7   6  -3   20.48    1.62
  -7   6  -3   20.27    1.64
   7  -6   3   23.02    1.99
   7  -6   3   19.71    1.15
   7  -6   3   17.66    2.57
   7   6   3  298.59    8.53
  -8  -6  -4    1.01    1.46
  -8  -6  -4   -0.55    0.96
  -8   6  -4  709.67    8.38
  -8   6  -4  664.58    8.24
   8  -6   4  770.94   10.52
   8   6   4    0.66    1.40
  -9  -6  -5  206.74    8.25
  -9  -6  -5  177.67    6.98
  -9   6  -5    3.62    1.04
  -9   6  -5    2.33    1.02
   9  -6   5    4.04    1.39
   9  -6   5    5.24    1.93
   9   6   5  185.70    7.84
 -10  -6  -6   35.45    3.95
 -10   6  -6    1.32    0.94
  10  -6   6    0.41    1.42
  10   6   6   37.97    4.29
 -11  -6  -7    4.67    2.24
 -11   6  -7   11.00    1.74
  11  -6   7   18.23    3.63
  11   6   7    5.02    2.49
 -12   6  -8   61.04    3.19
  12   6   8  107.44    7.50
   6   8  10   10.61    3.39
  -6  -8 -10   10.71    3.26
   5  -8   9    8.37    2.55
   5   8   9   25.82    4.37
  -5  -8  -9   25.54    4.14
   4  -8   8  575.58   12.46
   4  -8   8  577.03   14.29
   4   8   8   32.07    3.95
  -4  -8  -8   34.54    4.01
   3  -8   7   13.44    2.46
   3  -8   7   13.37    2.58
   3   8   7   37.45    3.96
  -3  -8  -7   34.00    3.79
   2  -8   6   15.69    2.53
   2  -8   6   14.35    2.41
   2   8   6    1.54    1.56
  -2  -8  -6    1.75    1.54
   1  -8   5    2.75    1.38
   1  -8   5    2.44    1.23
   1   8   5  281.59    8.64
  -1  -8  -5  303.98    8.98
   0  -8   4    0.83    0.50
   0  -8   4    0.48    0.88
   0   8   4    0.48    1.12
   0   8   4    1.30    1.13
   0  -8  -4    0.46    1.09
  -1  -8   3  335.84    4.87
  -1  -8   3  303.92    4.64
  -1  -8   3  313.85    6.81
  -1   8   3    7.02    1.78
  -1   8   3    7.77    1.72
   1  -8  -3    9.02    1.89
  -2  -8   2   69.99    2.86
  -2  -8   2   62.87    2.69
  -2   8   2   13.00    2.03
  -2   8   2    7.97    1.63
   2  -8  -2    8.22    1.63
   2   8  -2   38.36    1.91
   2   8  -2   70.80    2.43
  -3  -8   1    0.12    0.83
  -3  -8   1   -0.03    0.78
  -3   8   1    6.60    1.45
  -3   8   1    3.90    1.19
   3  -8  -1    6.38    1.44
   3  -8  -1    4.77    1.32
   3   8  -1    1.24    0.89
   3   8  -1    0.91    0.81
  -4  -8   0   17.09    2.01
  -4   8   0 1631.07   13.74
  -4   8   0 2202.48   15.96
   4  -8   0 1869.87   15.39
   4  -8   0 1883.74   15.52
   4   8   0   14.19    2.04
   4   8   0   18.29    2.09
  -5  -8  -1   32.89    2.81
  -5   8  -1   15.31    1.49
  -5   8  -1   26.98    1.90
   5  -8   1   20.91    1.87
   5   8   1   24.98    2.59
   5   8   1   29.27    2.73
  -6  -8  -2    7.96    1.93
  -6   8  -2    3.35    0.80
  -6   8  -2    5.28    0.98
   6  -8   2    5.45    1.23
   6   8   2    4.70    1.62
   6   8   2    9.36    2.05
  -7  -8  -3   82.37    4.93
  -7   8  -3   -0.14    0.51
  -7   8  -3    0.85    0.62
   7  -8   3    0.27    0.83
   7  -8   3    0.13    0.66
   7  -8   3    0.50    1.18
   7   8   3   79.07    4.88
  -8  -8  -4    2.96    1.77
  -8   8  -4    1.70    0.57
  -8   8  -4    2.65    0.65
   8  -8   4    3.29    1.19
   8  -8   4    3.31    0.87
   8  -8   4    2.59    1.56
   8   8   4    4.74    2.02
  -9  -8  -5   -0.39    1.39
  -9  -8  -5    0.52    1.29
   9  -8   5  134.93    7.04
   9   8   5   -0.12    1.47
 -10  -8  -6    2.48    2.04
  10  -8   6    1.14    1.66
  10   8   6    3.09    2.03
 -11  -8  -7   92.43    6.66
  11   8   7   98.25    7.10
   5  10   9  107.45    7.54
  -5 -10  -9  103.44    7.31
   4 -10   8    0.97    1.30
   4 -10   8    1.74    1.63
   4  10   8    2.07    2.13
  -4 -10  -8    1.68    1.99
   3 -10   7   -0.79    1.11
   3 -10   7    0.26    1.23
   3  10   7    3.08    2.00
  -3 -10  -7    4.55    2.10
   2 -10   6    6.89    1.96
   2 -10   6    6.25    1.81
   2  10   6    0.84    1.64
  -2 -10  -6    2.66    1.82
   1 -10   5    0.29    1.14
   1 -10   5    1.33    1.15
   1  10   5    0.23    1.35
  -1 -10  -5   -0.26    1.17
   0 -10   4  789.38   12.85
   0  10   4  484.74   11.22
   0 -10  -4  495.51   11.45
  -1 -10   3   10.62    1.36
  -1  10   3    1.60    1.28
  -1  10   3    1.46    1.27
   1 -10  -3    1.32    1.22
  -2 -10   2   17.51    1.85
  -2  10   2   -0.10    1.01
  -2  10   2    0.90    1.05
   2 -10  -2    0.67    1.09
   2  10  -2   11.11    1.36
   2  10  -2   20.87    1.62
  -3 -10   1   13.25    1.97
  -3  10   1   13.31    1.98
  -3  10   1    7.95    1.59
   3 -10  -1   11.92    1.98
   3  10  -1    8.32    1.54
  -4 -10   0    1.30    1.19
  -4  10   0   26.42    2.18
  -4  10   0   30.88    2.30
   4 -10   0   23.20    2.23
   4  10   0    2.10    1.17
   4  10   0    3.49    1.28
  -5 -10  -1  262.23    7.84
  -5  10  -1  231.52    4.86
  -5  10  -1  415.28    6.59
   5 -10   1  360.77    7.09
   5  10   1  178.52    6.32
   5  10   1  298.95    8.05
  -6 -10  -2   15.95    2.72
  -6  10  -2    7.16    0.98
  -6  10  -2    9.91    1.16
   6 -10   2   11.16    1.64
   6  10   2   12.58    2.51
  -7 -10  -3  127.76    6.48
   7 -10   3   23.18    2.10
   7 -10   3   21.36    3.26
   7  10   3  105.94    5.86
  -8 -10  -4   34.63    3.89
   8 -10   4    2.75    1.05
   8 -10   4    2.55    1.72
   8  10   4   24.14    3.64
  -9 -10  -5   10.74    2.90
  -9 -10  -5   11.02    2.54
   9 -10   5   75.34    5.66
   9  10   5    5.33    2.34
 -10 -10  -6    1.07    1.81
  10  10   6    0.38    1.80
 -11 -10  -7    7.46    2.91
  11  10   7    5.51    2.77
   4 -12   8   20.94    3.70
   4  12   8  196.52    9.80
  -4 -12  -8  193.63    9.71
   3 -12   7   59.07    4.51
   3 -12   7   57.72    4.79
   3  12   7    1.19    1.85
  -3 -12  -7   -0.47    1.54
   2 -12   6   41.75    3.85
   2 -12   6   45.37    4.00
   2  12   6   10.22    2.85
  -2 -12  -6    7.88    2.53
   1 -12   5  164.56    6.90
   1  12   5    1.65    1.67
  -1 -12  -5    2.88    1.83
   0 -12   4    3.91    1.49
   0  12   4    3.44    1.69
   0 -12  -4    1.58    1.60
  -1 -12   3   13.61    1.67
  -1  12   3  223.47    7.68
   1 -12  -3  212.14    7.68
  -2 -12   2   18.18    2.12
  -2  12   2   25.18    2.82
  -2  12   2   21.78    2.60
   2 -12  -2   19.77    2.79
   2  12  -2   16.16    1.64
   2  12  -2   22.42    1.81
  -3 -12   1   38.54    3.00
  -3  12   1   59.38    3.57
  -3  12   1   45.13    3.13
   3 -12  -1   47.35    3.39
   3  12  -1   27.53    2.43
  -4 -12   0  445.33   10.09
  -4  12   0   11.44    1.84
  -4  12   0   16.57    2.16
   4 -12   0   10.91    1.96
   4  12   0  328.19    8.24
   4  12   0  587.91   10.80
  -5 -12  -1    2.78    1.60
  -5  12  -1   70.32    2.88
  -5  12  -1   97.48    3.43
   5 -12   1   84.87    3.90
   5  12   1    3.11    1.52
   5  12   1    5.16    1.75
  -6 -12  -2   29.86    3.52
  -6  12  -2   32.92    1.35
   6 -12   2   36.27    2.59
   6  12   2   22.49    3.34
  -7 -12  -3    3.20    1.94
   7  12   3    1.17    1.66
  -8 -12  -4   33.85    4.08
   8 -12   4   10.30    1.83
   8 -12   4   11.53    2.87
   8  12   4   30.32    4.30
  -9 -12  -5   32.31    4.72
   9  12   5   28.13    4.43
 -10 -12  -6    6.08    2.68
  10  12   6   10.29    3.29
   3 -14   7    0.18    1.48
   3 -14   7    1.16    1.58
   3  14   7   63.87    5.79
  -3 -14  -7   70.75    6.21
   2 -14   6    0.71    1.40
   2 -14   6    1.92    1.53
   2  14   6   19.13    3.69
  -2 -14  -6   22.20    4.00
   1 -14   5   13.70    2.72
   1  14   5   45.67    4.56
  -1 -14  -5   54.42    5.01
   0 -14   4   37.44    3.68
   0  14   4   24.13    3.61
   0 -14  -4   30.19    3.63
  -1  14   3   11.95    2.52
   1 -14  -3   12.55    2.74
  -2 -14   2   16.54    2.32
  -2  14   2   17.28    2.76
   2 -14  -2   19.26    3.00
   2  14  -2   18.60    1.81
   2  14  -2   25.09    1.91
  -3 -14   1  172.70    6.37
  -3  14   1   89.49    4.52
   3 -14  -1   66.10    4.33
   3  14  -1  157.82    5.40
  -4 -14   0  232.45    7.93
  -4  14   0   25.42    2.43
  -4  14   0   29.58    2.58
   4 -14   0   21.23    2.63
   4  14   0  193.55    6.76
  -5 -14  -1    7.87    2.31
  -5  14  -1    5.06    1.25
   5  14   1    3.73    1.70
  -6 -14  -2   16.03    3.13
   6  14   2   14.60    2.92
  -7 -14  -3   18.72    3.67
   7  14   3   15.63    3.21
  -8 -14  -4  108.94    7.12
   8  14   4   96.99    6.68
  -9 -14  -5   -0.05    1.76
   9  14   5   -1.21    1.59
   2 -16   6    3.09    1.99
   2 -16   6    2.80    1.85
   2  16   6    1.43    1.95
  -2 -16  -6    0.47    2.14
   1 -16   5   20.71    3.56
   1  16   5    0.45    1.66
  -1 -16  -5    1.37    1.95
   0 -16   4   -0.04    1.28
   0  16   4   -0.94    1.31
   0 -16  -4    0.08    1.69
  -1  16   3   -0.39    1.32
   1 -16  -3    0.56    1.66
  -2  16   2    8.08    2.21
   2  16  -2    1.49    0.97
  -3  16   1  243.79    7.57
   3  16  -1    2.74    1.43
  -4  16   0   13.66    2.12
   4  16   0  170.08    6.64
  -5  16  -1   16.00    1.68
   5  16   1   30.53    3.55
  -6 -16  -2   -0.33    1.49
   6  16   2   -0.99    1.35
  -7 -16  -3   37.69    4.64
   7  16   3   36.82    4.34
  -1  18   3   40.98    4.19
  -2  18   2   19.56    3.18
   2  18  -2    5.67    1.05
  -3  18   1   36.56    3.43
   3  18  -1   26.03    2.71
  -4  18   0  277.17    6.97
   4  18   0   13.54    2.58
   5  18   1    2.96    1.86
  -6  -1 -11    1.52    1.70
  -6   1 -11    1.99    1.61
  -5  -1 -10    2.22    1.67
  -5   1 -10    1.96    1.50
   4  -1   9    2.36    1.66
   4   1   9   26.67    3.32
  -4  -1  -9   24.02    2.98
  -4   1  -9    0.98    1.30
   3  -1   8    1.53    1.37
   3   1   8   15.44    2.61
  -3  -1  -8   14.18    2.44
  -3  -1  -8   16.60    2.97
  -3   1  -8    1.86    1.18
  -3   1  -8    2.53    1.29
  -3   1  -8    2.11    1.47
   2  -1   7    3.62    1.33
   2   1   7  228.31    7.09
  -2  -1  -7  218.59    6.63
  -2  -1  -7  231.98    6.92
  -2  -1  -7  254.39    8.07
  -2   1  -7    4.56    1.31
  -2   1  -7    2.98    1.26
  -2   1  -7    3.74    1.46
   1  -1   6   24.00    2.28
   1   1   6   23.83    2.36
  -1  -1  -6   24.20    2.29
  -1  -1  -6   22.77    2.37
  -1  -1  -6   23.27    2.49
  -1   1  -6   22.41    2.06
  -1   1  -6   30.27    2.35
  -1   1  -6   28.36    2.61
   0  -1   5   11.06    1.66
   0  -1   5   10.03    1.58
   0  -1   5   12.16    1.97
   0   1   5    8.15    1.61
   0   1   5    9.31    1.66
   0  -1  -5    9.79    1.67
   0  -1  -5    7.39    1.50
   0  -1  -5   10.47    1.82
   0   1  -5   10.49    1.51
   0   1  -5   11.30    1.62
   0   1  -5   14.70    2.08
   0   1  -5   10.56    1.73
  -1  -1   4   25.25    1.91
  -1  -1   4   26.15    1.94
  -1  -1   4   28.10    2.35
  -1   1   4   17.44    1.95
  -1   1   4   21.41    2.05
   1  -1  -4   18.35    1.96
   1  -1  -4   21.36    2.02
   1  -1  -4   20.81    2.13
   1   1  -4   20.50    1.79
   1   1  -4   25.27    1.89
   1   1  -4   29.09    2.33
   1   1  -4   23.84    1.85
  -2  -1   3 1253.21   10.45
  -2  -1   3 1321.26   10.66
  -2  -1   3 1259.01   11.99
  -2   1   3    2.36    1.05
  -2   1   3    1.92    1.00
   2  -1  -3    2.17    0.93
   2  -1  -3    2.15    0.99
   2  -1  -3    2.23    0.99
   2   1  -3 1178.24    9.89
   2   1  -3 1217.91   10.16
   2   1  -3 1339.58   12.24
  -3  -1   2  283.73    4.95
  -3  -1   2  250.31    4.91
  -3   1   2 2085.09   20.80
  -3   1   2 1944.33   13.43
  -3   1   2 1804.70   18.94
   3  -1  -2 2036.39   13.72
   3  -1  -2 1992.92   13.72
   3  -1  -2 1896.45   19.28
   3   1  -2  269.48    4.75
   3   1  -2  260.35    4.75
   3   1  -2  281.27    5.15
  -4  -1   1   10.84    1.40
  -4  -1   1   11.24    1.47
  -4   1   1   71.73    2.80
  -4   1   1   75.20    2.85
  -4   1   1   66.47    2.16
   4  -1  -1   70.26    2.79
   4  -1  -1   73.37    2.78
   4  -1  -1   74.52    2.27
   4   1  -1    9.83    1.40
   4   1  -1   10.71    1.39
  -5  -1   0    0.83    0.88
  -5  -1   0   -0.12    0.86
  -5   1   0   -0.04    0.72
  -5   1   0   -0.28    0.80
  -5   1   0   -0.09    0.43
   5  -1   0    0.49    0.89
   5  -1   0    0.16    0.82
   5   1   0   -0.23    0.86
   5   1   0   -0.92    0.71
   5   1   0    0.31    0.53
  -6  -1  -1    8.67    1.57
  -6  -1  -1    8.74    1.63
  -6  -1  -1    7.07    1.19
  -6   1  -1   15.74    1.81
  -6   1  -1   14.83    1.74
   6  -1   1   16.42    1.90
   6  -1   1   14.98    1.84
   6  -1   1   12.64    1.47
   6   1   1    6.87    1.43
   6   1   1    8.92    1.61
   6   1   1    8.30    1.27
  -7  -1  -2 1796.57   16.66
  -7  -1  -2 1733.73   16.62
  -7  -1  -2 1598.23   14.58
  -7   1  -2    2.72    1.09
  -7   1  -2    2.01    1.09
   7  -1   2    3.31    1.28
   7  -1   2    2.37    1.20
   7  -1   2    2.46    1.07
   7   1   2 1702.91   16.60
   7   1   2 1776.57   16.71
   7   1   2 1543.69   14.41
  -8  -1  -3   12.78    2.14
  -8  -1  -3   12.62    2.08
  -8  -1  -3   13.26    2.04
  -8   1  -3  292.83    6.99
  -8   1  -3  300.39    7.17
  -8   1  -3  284.14    7.40
   8  -1   3  312.05    7.48
   8  -1   3  270.98    7.25
   8   1   3   13.38    2.18
   8   1   3   11.86    1.95
  -9  -1  -4    4.75    1.56
  -9  -1  -4    6.03    1.70
  -9  -1  -4    3.97    1.46
  -9   1  -4   45.01    3.22
  -9   1  -4   40.42    3.10
  -9   1  -4   37.64    1.94
  -9   1  -4   45.65    3.49
   9  -1   4   45.59    3.39
   9  -1   4   38.37    3.30
   9   1   4    3.86    1.59
 -10  -1  -5   -0.05    1.19
 -10  -1  -5    0.99    1.20
 -10   1  -5   -0.33    1.02
 -10   1  -5    1.17    1.25
 -10   1  -5    0.54    0.80
 -10   1  -5    0.89    1.25
  10  -1   5   -0.27    1.15
  10  -1   5    0.88    1.25
  10   1   5    0.86    1.41
 -11  -1  -6   46.13    4.03
 -11   1  -6    1.36    1.42
  11  -1   6    1.37    1.51
  11   1   6   53.75    4.50
 -12  -1  -7  334.12   10.53
 -12   1  -7   13.16    2.69
  12  -1   7   16.84    3.31
  12   1   7  375.78   11.65
 -13  -1  -8    1.63    1.92
 -13   1  -8   14.81    2.98
  -6  -3 -11  100.01    6.41
  -6   3 -11   21.31    2.56
   5   3  10   13.48    3.13
  -5  -3 -10   11.94    2.81
  -5   3 -10    8.29    1.82
   4   3   9    0.78    1.54
  -4  -3  -9    1.63    1.56
  -4   3  -9  172.40    5.42
   3  -3   8   19.18    2.33
   3   3   8   19.97    3.19
  -3  -3  -8   18.51    2.93
  -3   3  -8   21.71    2.07
  -3   3  -8   19.57    2.03
  -3   3  -8   21.82    3.24
   2  -3   7   40.86    2.75
   2   3   7    1.11    1.26
  -2  -3  -7    1.01    1.16
  -2   3  -7   41.05    2.39
  -2   3  -7   48.52    2.61
  -2   3  -7   49.10    3.69
   1  -3   6    0.22    0.77
   1  -3   6    0.03    1.09
   1   3   6  451.01    9.78
  -1  -3  -6  480.69    9.81
  -1  -3  -6  483.22   10.02
  -1   3  -6    0.92    0.70
  -1   3  -6    0.64    0.77
  -1   3  -6    1.14    1.01
   0  -3   5   72.94    2.82
   0  -3   5   74.61    2.87
   0  -3   5   92.41    4.20
   0   3   5   60.63    3.52
   0   3   5   67.08    3.64
   0  -3  -5   68.76    3.72
   0  -3  -5   69.76    3.77
   0   3  -5   55.20    2.23
   0   3  -5   88.46    2.82
   0   3  -5   90.19    4.14
   0   3  -5   79.82    3.66
  -1  -3   4   15.79    1.44
  -1  -3   4   16.13    1.52
  -1  -3   4   17.45    2.14
  -1   3   4  187.43    5.44
  -1   3   4  202.01    5.57
   1  -3  -4  194.88    5.51
   1  -3  -4  204.13    5.66
   1   3  -4   15.84    1.38
   1   3  -4   16.46    1.59
  -2  -3   3    0.28    0.69
  -2  -3   3    0.04    0.68
  -2  -3   3   -0.04    0.82
  -2  -3   3    0.68    0.65
  -2   3   3    1.12    0.96
  -2   3   3    0.86    0.92
   2  -3  -3    0.84    0.91
   2  -3  -3    1.19    1.02
   2   3  -3    0.93    0.71
   2   3  -3    0.08    0.56
  -3  -3   2  382.92    5.65
  -3  -3   2  375.23    5.60
  -3   3   2  302.71    5.88
   3  -3  -2  333.54    6.17
   3  -3  -2  290.32    5.81
   3   3  -2  379.74    5.55
   3   3  -2  377.74    5.46
  -4  -3   1   78.00    2.94
  -4  -3   1   74.98    2.97
  -4   3   1 1364.82   11.73
  -4   3   1 1483.60   12.38
   4  -3  -1 1373.36   11.95
   4   3  -1   70.96    2.89
   4   3  -1   78.69    2.97
  -5  -3   0    1.15    0.94
  -5  -3   0   -0.59    0.87
  -5  -3   0    0.51    0.49
  -5   3   0    0.23    0.78
  -5   3   0    0.27    0.86
   5  -3   0    0.35    0.87
   5  -3   0    0.47    0.82
   5  -3   0    0.86    0.49
   5   3   0    0.22    0.89
   5   3   0    0.89    0.89
  -6  -3  -1  451.23    8.20
  -6  -3  -1  371.92    5.70
  -6   3  -1   60.69    2.81
  -6   3  -1   64.91    2.97
   6  -3   1   63.79    2.96
   6  -3   1   67.97    3.03
   6   3   1  437.78    8.20
   6   3   1  444.57    8.14
  -7  -3  -2    0.83    1.03
  -7  -3  -2    1.64    1.14
  -7  -3  -2    1.98    0.94
  -7   3  -2    0.93    0.86
  -7   3  -2    0.56    0.88
   7  -3   2    0.99    0.98
   7  -3   2    0.53    0.88
   7  -3   2    0.42    0.90
   7   3   2    0.61    1.05
   7   3   2    0.32    1.06
  -8  -3  -3   53.49    3.59
  -8  -3  -3   59.61    3.91
  -8  -3  -3   49.57    3.07
  -8   3  -3    8.83    1.61
  -8   3  -3   10.12    1.71
   8  -3   3    9.93    1.78
   8  -3   3    9.68    1.93
   8   3   3   56.92    3.84
  -9  -3  -4   17.36    2.72
  -9  -3  -4   17.99    2.59
  -9   3  -4    0.97    1.02
  -9   3  -4    0.22    0.99
   9  -3   4    0.19    1.05
   9  -3   4    2.43    1.35
   9   3   4   19.47    2.91
 -10  -3  -5   15.28    2.75
 -10  -3  -5   12.72    2.45
 -10   3  -5    2.20    1.27
 -10   3  -5    0.71    1.22
  10  -3   5    2.47    1.47
  10  -3   5    3.63    1.66
  10   3   5   15.59    2.92
 -11  -3  -6  285.11    9.72
 -11   3  -6   28.76    2.92
  11  -3   6   37.23    3.58
  11  -3   6   39.21    4.11
  11   3   6  307.78   10.31
 -12  -3  -7   45.96    4.51
 -12   3  -7   -0.74    1.19
  12  -3   7   -0.05    1.50
  12   3   7   46.70    4.69
 -13  -3  -8    3.30    2.13
 -13   3  -8    1.66    1.64
  13   3   8    4.64    2.55
   5   5  10  154.72    8.27
  -5  -5 -10  155.82    7.94
   4   5   9    4.20    2.23
  -4  -5  -9    6.41    2.20
  -4   5  -9    2.45    0.82
   3  -5   8    6.09    1.49
   3  -5   8    4.99    1.84
   3   5   8    0.76    1.49
  -3  -5  -8    0.39    1.34
  -3   5  -8    6.19    0.87
  -3   5  -8    6.85    0.94
  -3   5  -8    7.58    2.18
   2  -5   7   47.65    2.63
   2  -5   7   64.17    4.18
   2  -5   7   59.82    4.12
   2   5   7   32.61    3.50
  -2  -5  -7   27.63    3.10
  -2   5  -7   58.59    1.60
  -2   5  -7   65.27    1.76
  -2   5  -7   61.35    4.14
   1  -5   6    3.31    0.94
   1  -5   6    3.21    1.50
   1  -5   6    2.75    1.26
   1   5   6  133.01    5.82
  -1  -5  -6  147.66    6.00
  -1  -5  -6  136.42    5.89
  -1   5  -6    2.69    1.22
   0  -5   5  364.45    5.25
   0  -5   5  326.49    5.01
   0  -5   5  385.23    8.53
   0  -5   5  357.90    7.79
   0   5   5  237.98    7.16
   0  -5  -5  253.22    7.25
   0  -5  -5  259.22    7.46
   0   5  -5  374.49    7.94
  -1  -5   4    2.58    0.79
  -1  -5   4    2.97    0.79
  -1  -5   4    2.70    1.19
  -1  -5   4    2.45    1.02
  -1   5   4    2.01    1.30
  -1   5   4    1.07    1.03
   1  -5  -4    1.18    1.08
   1  -5  -4    1.77    1.14
   1   5  -4    1.33    0.46
   1   5  -4    2.71    0.58
  -2  -5   3  340.53    5.04
  -2  -5   3  320.29    4.84
  -2  -5   3  294.57    5.16
  -2   5   3   24.90    2.33
  -2   5   3   23.65    2.22
   2  -5  -3   22.52    2.24
   2  -5  -3   19.79    2.13
   2   5  -3  310.49    4.24
   2   5  -3  308.42    4.30
  -3  -5   2   90.47    3.05
  -3  -5   2   93.11    3.08
  -3  -5   2   82.08    2.24
  -3   5   2  127.21    4.32
  -3   5   2  110.69    3.99
   3  -5  -2  129.93    4.29
   3  -5  -2  114.40    4.07
   3   5  -2   79.74    2.78
  -4  -5   1   39.41    2.42
  -4  -5   1   44.77    2.54
  -4   5   1  126.27    4.05
  -4   5   1  110.95    3.76
  -4   5   1  117.23    3.85
   4  -5  -1  122.58    4.01
   4  -5  -1  113.93    3.89
   4   5  -1   37.98    2.36
   4   5  -1   45.72    2.50
  -5  -5   0    0.86    0.93
  -5  -5   0    0.45    0.93
  -5   5   0    0.66    0.80
  -5   5   0    0.13    0.81
   5  -5   0    0.58    0.86
   5  -5   0    2.27    1.00
   5   5   0    0.65    0.97
   5   5   0    0.10    0.84
  -6  -5  -1    0.99    1.03
  -6  -5  -1   -0.24    0.97
  -6   5  -1  184.94    4.62
   6  -5   1  181.38    4.74
   6  -5   1  188.92    4.85
   6   5   1   -0.23    1.00
   6   5   1    1.72    1.11
  -7  -5  -2   20.81    2.73
  -7  -5  -2   17.06    2.52
  -7  -5  -2   14.96    1.70
  -7   5  -2    7.84    1.44
   7  -5   2   10.96    1.66
   7  -5   2    9.03    1.82
   7   5   2   15.77    2.41
   7   5   2   20.18    2.44
  -8  -5  -3   33.92    3.29
  -8  -5  -3   27.28    2.46
  -8   5  -3    9.72    1.53
   8  -5   3   11.79    1.82
   8  -5   3    8.12    1.91
   8   5   3   32.19    3.13
  -9  -5  -4  231.21    8.11
  -9  -5  -4  201.83    6.74
  -9   5  -4    0.53    0.95
   9  -5   4    0.71    1.04
   9  -5   4    0.90    1.26
   9   5   4  213.41    7.89
 -10  -5  -5  932.23   17.17
 -10  -5  -5  850.05   15.12
 -10   5  -5  173.98    5.43
  10  -5   5  196.96    6.50
  10  -5   5  196.27    8.08
  10   5   5  916.17   17.21
 -11  -5  -6    1.56    1.82
 -11   5  -6   50.99    3.33
  11  -5   6   63.58    5.14
  11   5   6    0.90    1.68
 -12  -5  -7    1.32    1.90
 -12   5  -7    2.87    1.46
  12   5   7    0.33    1.82
 -13   5  -8    0.00    1.23
   5   7  10    3.50    2.33
  -5  -7 -10    3.63    2.28
   4  -7   9    0.99    1.43
   4   7   9  198.99    9.17
  -4  -7  -9  198.92    8.92
   3  -7   8    3.32    1.65
   3  -7   8    3.32    1.75
   3   7   8   10.65    2.78
  -3  -7  -8    9.12    2.54
   2  -7   7   29.56    1.85
   2  -7   7   29.32    3.11
   2  -7   7   31.38    3.24
   2   7   7   19.54    3.19
  -2  -7  -7   30.14    3.56
   1  -7   6  769.03    7.01
   1  -7   6  800.12   13.53
   1  -7   6  778.52   13.35
   1   7   6   55.46    4.28
  -1  -7  -6   54.32    4.13
   0  -7   5   12.81    1.14
   0  -7   5   13.81    1.11
   0  -7   5   12.33    2.15
   0  -7   5   10.00    1.80
   0   7   5    7.24    2.00
   0  -7  -5    7.42    1.94
  -1  -7   4   32.49    1.68
  -1  -7   4   32.50    1.64
  -1  -7   4   28.88    2.30
  -1   7   4   18.02    2.59
  -1   7   4   19.84    2.38
   1  -7  -4   22.01    2.50
  -2  -7   3    0.92    0.75
  -2  -7   3    1.12    0.73
  -2  -7   3    0.87    0.80
  -2   7   3    1.90    1.27
  -2   7   3    2.11    1.17
   2  -7  -3    2.52    1.19
   2  -7  -3    1.47    1.14
   2   7  -3    0.75    0.55
   2   7  -3    0.65    0.58
  -3  -7   2    2.18    0.98
  -3  -7   2    0.55    0.80
  -3   7   2    0.41    1.06
  -3   7   2    1.09    0.93
   3  -7  -2    1.49    1.10
   3  -7  -2    0.41    0.93
   3   7  -2    1.61    0.85
  -4  -7   1 1635.36   14.73
  -4  -7   1 1580.79   14.66
  -4   7   1  232.23    5.75
  -4   7   1  152.87    4.63
   4  -7  -1  189.73    5.26
   4  -7  -1  177.14    5.14
   4   7  -1 1303.53   12.90
   4   7  -1 1757.02   14.76
  -5  -7   0   -0.02    0.96
  -5   7   0   -0.02    0.68
  -5   7   0   -0.07    0.84
   5  -7   0   -0.74    0.80
   5  -7   0    0.41    0.87
   5   7   0    0.99    1.02
   5   7   0    0.11    0.92
  -6  -7  -1   20.31    2.39
  -6   7  -1  286.58    5.69
   6  -7   1  251.44    5.73
   6   7   1   15.69    2.32
   6   7   1   20.92    2.52
  -7  -7  -2   37.38    3.27
  -7   7  -2   45.40    2.36
  -7   7  -2   47.33    2.44
   7  -7   2   50.23    2.77
   7   7   2   37.75    3.27
   7   7   2   42.94    3.52
  -8  -7  -3    0.43    1.26
  -8  -7  -3    0.72    1.00
  -8   7  -3   95.91    3.27
  -8   7  -3   96.17    3.30
   8  -7   3   98.21    3.92
   8  -7   3   90.19    1.78
   8  -7   3  102.06    5.44
   8   7   3    0.94    1.34
  -9  -7  -4    3.35    1.78
  -9  -7  -4    4.59    1.62
  -9   7  -4   29.49    2.02
  -9   7  -4   30.39    2.07
   9  -7   4   34.24    2.67
   9  -7   4   31.38    3.43
   9   7   4    2.85    1.72
 -10  -7  -5   15.24    3.15
 -10  -7  -5   13.64    2.68
 -10   7  -5   18.63    1.83
  10  -7   5   26.79    2.66
  10  -7   5   23.25    3.60
  10   7   5   14.64    3.18
 -11  -7  -6   17.86    3.55
 -11   7  -6  217.84    5.20
  11  -7   6  279.98   10.71
  11   7   6   19.28    3.71
 -12  -7  -7    2.06    2.16
 -12   7  -7   32.87    2.28
  12   7   7    1.27    2.06
   4  -9   9    1.67    1.61
   4  -9   9    1.36    1.64
   4   9   9    2.32    2.15
  -4  -9  -9    2.93    2.09
   3  -9   8    5.26    1.91
   3  -9   8    4.27    1.96
   3   9   8   -0.67    1.69
  -3  -9  -8    0.02    1.58
   2  -9   7  104.95    5.54
   2  -9   7   91.20    5.38
   2   9   7   10.85    2.77
  -2  -9  -7   14.30    3.02
   1  -9   6    2.51    1.48
   1  -9   6    0.88    1.16
   1   9   6   47.86    4.28
  -1  -9  -6   52.20    4.42
   0  -9   5    8.81    2.10
   0  -9   5    8.83    1.86
   0   9   5    6.70    1.98
   0  -9  -5    7.54    2.19
  -1  -9   4   45.94    2.01
  -1  -9   4   45.99    3.04
  -1   9   4    2.02    1.44
   1  -9  -4    3.34    1.61
  -2  -9   3  126.39    3.66
  -2   9   3  247.99    7.34
  -2   9   3  234.59    7.02
   2  -9  -3  224.08    7.07
   2   9  -3  181.29    3.07
   2   9  -3   78.54    2.10
   2   9  -3  132.62    2.60
  -3  -9   2  590.21    8.79
  -3   9   2    1.58    1.16
  -3   9   2    1.26    1.08
   3  -9  -2    1.98    1.22
   3   9  -2  359.17    6.23
  -4  -9   1   15.41    2.09
  -4   9   1    6.15    1.51
  -4   9   1    3.04    1.14
   4  -9  -1    3.64    1.33
   4   9  -1   11.89    1.83
   4   9  -1   17.23    2.01
  -5  -9   0    1.09    1.14
  -5   9   0    0.37    0.85
   5  -9   0    0.52    0.88
   5   9   0    0.13    0.96
   5   9   0    0.27    0.96
  -6  -9  -1    8.40    2.04
  -6   9  -1   32.21    2.19
   6  -9   1   31.54    2.40
   6   9   1    6.97    1.85
   6   9   1   13.01    2.28
  -7  -9  -2   17.19    2.87
  -7   9  -2  441.45    6.37
  -7   9  -2  724.54    8.28
   7  -9   2  729.74   10.09
   7   9   2   15.66    2.72
  -8  -9  -3  256.50    8.95
  -8   9  -3   17.60    1.39
  -8   9  -3   25.85    1.63
   8  -9   3   27.18    2.35
   8  -9   3   26.36    1.72
   8  -9   3   26.11    3.19
   8   9   3  243.62    8.65
  -9  -9  -4    8.85    2.49
  -9  -9  -4   10.50    2.28
  -9   9  -4    6.72    0.82
  -9   9  -4   10.45    1.04
   9  -9   4   11.42    1.89
   9  -9   4    9.43    1.09
   9  -9   4   10.03    2.54
   9   9   4    8.94    2.57
 -10  -9  -5   57.94    5.14
 -10  -9  -5   49.65    4.23
  10  -9   5    8.54    2.66
  10   9   5   56.17    5.06
 -11  -9  -6    7.47    2.67
  11   9   6    5.13    2.58
 -12  -9  -7    2.22    2.21
  12   9   7   -0.10    1.88
   4  11   9   10.60    3.36
  -4 -11  -9   12.20    3.36
   3 -11   8    1.72    1.62
   3 -11   8    0.22    1.28
   3  11   8   -0.76    1.69
  -3 -11  -8    1.10    1.85
   2 -11   7   15.16    2.89
   2 -11   7   16.26    2.92
   2  11   7   82.31    5.95
  -2 -11  -7   90.56    6.27
   1 -11   6   64.75    4.62
   1 -11   6   60.69    4.31
   1  11   6    0.35    1.51
  -1 -11  -6    0.94    1.48
   0 -11   5   50.84    3.74
   0  11   5   26.29    3.26
   0 -11  -5   29.85    3.55
  -1 -11   4    0.74    0.74
  -1 -11   4    0.31    1.04
  -1  11   4   35.67    3.42
   1 -11  -4   38.73    3.68
  -2 -11   3  370.73    6.76
  -2  11   3  152.22    6.15
   2 -11  -3  153.14    6.35
   2  11  -3  350.11    4.12
   2  11  -3  435.61    4.38
  -3 -11   2    3.58    1.26
  -3  11   2  620.99   11.44
  -3  11   2  474.95    9.85
   3 -11  -2  520.10   10.81
   3  11  -2    2.55    1.01
   3  11  -2    3.79    1.09
  -4 -11   1   65.69    3.74
  -4  11   1    2.89    1.32
  -4  11   1    0.74    1.02
   4 -11  -1    0.97    1.16
   4  11  -1   45.46    3.00
   4  11  -1   80.71    3.84
  -5 -11   0    0.68    1.21
  -5  11   0    0.40    0.99
   5 -11   0    1.09    1.12
   5  11   0   -0.84    0.91
   5  11   0   -0.61    0.88
  -6 -11  -1  116.90    5.68
  -6  11  -1   26.20    1.99
  -6  11  -1   45.67    2.58
   6 -11   1   41.94    2.88
   6  11   1   84.97    4.81
  -7 -11  -2 1017.75   17.49
  -7  11  -2   32.64    1.78
  -7  11  -2   50.03    2.18
   7 -11   2   53.65    3.15
   7  11   2  815.23   15.35
  -8 -11  -3    2.46    1.81
   8 -11   3  117.34    6.58
   8  11   3    0.83    1.52
  -9 -11  -4   12.65    3.15
   9 -11   4   27.70    4.08
   9  11   4   13.04    3.12
 -10 -11  -5   11.06    3.02
  10  11   5    9.78    3.02
 -11 -11  -6    2.55    2.36
  11  11   6    3.29    2.40
   3 -13   8    6.29    2.20
   3 -13   8    3.81    2.04
   3  13   8    1.62    2.12
  -3 -13  -8    2.88    2.40
   2 -13   7    3.33    1.82
   2 -13   7    6.62    2.23
   2  13   7    0.66    1.79
  -2 -13  -7    0.82    1.97
   1 -13   6   12.77    2.86
   1 -13   6   11.51    2.59
   1  13   6  213.23    9.21
  -1 -13  -6  226.81    9.61
   0 -13   5   10.10    2.36
   0  13   5    4.14    2.11
   0 -13  -5    6.50    2.33
  -1 -13   4   41.16    3.49
  -1  13   4    3.85    1.84
   1 -13  -4    2.55    1.82
  -2 -13   3   12.12    1.88
  -2  13   3   78.65    4.85
   2 -13  -3   67.98    4.69
  -3 -13   2    2.74    1.30
  -3  13   2   42.05    3.45
   3 -13  -2   38.14    3.50
   3  13  -2    1.97    1.07
   3  13  -2    3.61    1.14
  -4 -13   1   49.21    3.59
  -4  13   1  147.38    5.60
   4 -13  -1  115.36    5.39
   4  13  -1   29.79    2.71
  -5 -13   0   -0.04    1.21
  -5  13   0    0.00    1.07
   5 -13   0   -0.36    1.18
   5  13   0    0.38    1.15
  -6 -13  -1  129.94    6.47
  -6  13  -1    5.11    1.18
  -6  13  -1    7.76    1.44
   6 -13   1    6.83    1.73
   6  13   1  105.61    5.59
  -7 -13  -2   10.68    2.82
   7  13   2    7.38    2.28
  -8 -13  -3    6.70    2.56
   8  13   3    3.01    2.02
  -9 -13  -4    2.32    2.04
   9  13   4    2.18    2.04
 -10 -13  -5    3.12    2.35
  10  13   5    2.37    2.18
   2 -15   7    0.61    1.71
   2 -15   7   -0.46    1.27
   2  15   7    1.56    2.10
  -2 -15  -7    1.33    2.14
   1 -15   6   32.15    3.97
   1 -15   6   33.32    3.88
   1  15   6    2.13    1.93
  -1 -15  -6    1.30    2.01
   0 -15   5   32.76    3.66
   0  15   5   25.45    4.00
   0 -15  -5   24.89    4.12
  -1 -15   4   24.63    3.43
  -1  15   4    2.16    1.75
   1 -15  -4    1.75    1.85
  -2  15   3   25.73    3.59
   2 -15  -3   24.34    3.64
  -3  15   2   59.10    4.25
   3 -15  -2   47.98    4.13
   3  15  -2   26.77    2.27
  -4  15   1   82.69    4.50
   4  15  -1   31.37    2.91
  -5 -15   0   -0.77    1.28
  -5  15   0   -0.62    1.05
   5  15   0   -1.36    1.06
  -6 -15  -1    4.56    2.12
  -6  15  -1    0.76    0.93
   6  15   1    1.86    1.62
  -7 -15  -2   14.40    3.30
   7  15   2    8.74    2.54
  -8 -15  -3    9.57    3.07
   8  15   3    6.61    2.48
  -9 -15  -4    5.97    2.71
   9  15   4    3.53    2.33
   0 -17   5    0.87    1.60
   0  17   5    0.50    1.75
   0 -17  -5    2.53    2.10
  -1 -17   4    1.62    1.66
  -1  17   4    0.50    1.57
  -2  17   3    1.44    1.62
  -3  17   2   26.34    3.60
   3  17  -2    3.51    1.25
  -4  17   1   46.86    3.70
   4  17  -1   87.47    4.58
  -5  17   0    0.77    1.23
   5  17   0   -0.53    1.26
  -6  17  -1  104.90    2.92
   6  17   1   16.92    3.15
   7  17   2   50.58    4.89
  -5   0 -11   65.16    4.72
  -4   0 -10    7.53    2.09
   3   0   9    7.08    2.15
  -3   0  -9    6.28    1.89
   2   0   8   29.08    3.00
  -2   0  -8   26.20    2.78
  -2   0  -8   27.88    2.81
  -2   0  -8   31.30    3.28
   1   0   7    0.17    1.02
  -1   0  -7    0.29    0.95
  -1   0  -7   -0.13    0.95
  -1   0  -7   -0.21    0.93
   0   0   6    0.14    0.89
   0   0  -6    0.59    0.89
   0   0  -6    0.03    0.89
   0   0  -6    0.11    0.79
  -1   0   5    9.32    1.67
  -1   0   5   10.24    1.72
   1   0  -5    8.51    1.54
   1   0  -5    9.43    1.65
   1   0  -5   15.00    2.17
  -2   0   4    6.60    1.39
  -2   0   4    5.17    1.27
  -2   0   4    3.83    1.25
   2   0  -4    6.44    1.35
   2   0  -4    5.43    1.25
   2   0  -4    6.56    1.44
  -3   0   3   39.38    2.37
  -3   0   3   37.30    2.29
  -3   0   3   34.23    2.36
   3   0  -3   36.35    2.23
   3   0  -3   36.12    2.25
   3   0  -3   35.31    2.37
  -4   0   2    4.06    1.09
  -4   0   2    3.17    1.14
  -4   0   2    1.52    0.93
   4   0  -2    4.01    1.05
   4   0  -2    3.46    1.14
   4   0  -2    3.31    0.99
  -5   0   1 1156.87   11.32
  -5   0   1 1143.84   11.40
  -5   0   1 1080.92    9.11
   5   0  -1 1148.77   11.43
   5   0  -1 1174.54   11.41
  -6   0   0  100.88    3.72
  -6   0   0  101.84    3.79
   6   0   0  107.99    3.88
   6   0   0  106.78    3.84
   6   0   0   98.01    2.93
  -7   0  -1  343.49    7.10
  -7   0  -1  345.75    7.22
   7   0   1  328.12    7.08
   7   0   1  381.23    7.54
   7   0   1  320.62    6.15
  -8   0  -2  362.43    7.87
  -8   0  -2  343.43    7.75
   8   0   2  334.40    7.77
   8   0   2  374.39    8.08
   8   0   2  320.90    7.10
  -9   0  -3    1.85    1.23
  -9   0  -3    3.10    1.39
  -9   0  -3    3.69    1.35
   9   0   3    2.95    1.46
   9   0   3    2.47    1.15
 -10   0  -4  771.41   13.13
 -10   0  -4  712.88   12.82
 -10   0  -4  753.71   13.48
  10   0   4  753.84   13.49
  10   0   4  662.85   12.71
 -11   0  -5   38.75    3.45
 -11   0  -5   41.87    3.91
  11   0   5   42.35    3.86
 -12   0  -6   13.17    2.75
  12   0   6   15.66    3.06
 -13   0  -7   11.71    2.72
  13   0   7   12.06    3.01
  -5  -2 -11    0.87    1.69
  -5   2 -11    0.60    1.34
   4   2  10    3.17    2.01
  -4  -2 -10    0.67    1.48
  -4   2 -10    0.78    1.26
   3  -2   9   10.74    2.31
   3   2   9    1.15    1.42
  -3  -2  -9   -0.15    1.22
  -3   2  -9   11.55    2.08
   2  -2   8   89.65    4.45
   2   2   8   84.49    4.93
  -2  -2  -8   85.83    4.81
  -2  -2  -8   87.01    4.87
  -2  -2  -8   96.00    5.49
  -2   2  -8   99.72    4.23
  -2   2  -8  116.12    5.90
   1  -2   7  219.41    6.14
   1   2   7    2.44    1.35
  -1  -2  -7    2.94    1.39
  -1  -2  -7    1.91    1.33
  -1   2  -7  271.25    6.33
  -1   2  -7  295.46    8.40
   0  -2   6   11.85    1.72
   0  -2   6   11.79    2.11
   0   2   6   10.92    1.98
   0  -2  -6   10.16    1.88
   0  -2  -6   11.16    1.98
   0   2  -6   16.93    1.83
   0   2  -6   12.58    2.02
  -1  -2   5    0.64    0.85
  -1  -2   5    1.33    0.94
  -1  -2   5    1.21    1.17
  -1   2   5 1023.40   13.11
  -1   2   5 1152.13   13.74
   1  -2  -5 1043.98   12.94
   1  -2  -5 1157.48   13.81
   1  -2  -5 1268.96   14.99
   1   2  -5    0.86    0.86
   1   2  -5    1.65    1.10
   1   2  -5    0.43    0.83
  -2  -2   4   58.76    2.68
  -2  -2   4   61.25    2.72
  -2  -2   4   59.88    3.27
  -2   2   4   55.27    3.07
  -2   2   4   53.46    3.00
   2  -2  -4   56.68    3.15
   2  -2  -4   57.46    3.10
   2  -2  -4   56.65    3.24
   2   2  -4   56.18    2.55
   2   2  -4   61.24    2.64
   2   2  -4   61.82    3.28
   2   2  -4   55.45    2.56
  -3  -2   3    1.57    0.88
  -3  -2   3    1.44    0.86
  -3  -2   3    1.08    1.01
  -3   2   3    1.62    1.12
  -3   2   3    1.03    0.98
   3  -2  -3    0.60    0.93
   3  -2  -3    0.91    1.01
   3  -2  -3    0.23    0.86
   3   2  -3    0.52    0.78
   3   2  -3    0.09    0.78
   3   2  -3    0.59    0.58
  -4  -2   2  445.69    6.76
  -4  -2   2  454.24    6.87
  -4  -2   2  417.01    6.94
  -4   2   2    0.74    0.91
  -4   2   2    1.57    0.99
  -4   2   2    0.94    0.96
   4  -2  -2    0.82    0.86
   4  -2  -2    0.00    0.94
   4  -2  -2    1.23    0.83
   4   2  -2  418.88    6.59
   4   2  -2  427.62    6.56
  -5  -2   1   87.22    3.34
  -5  -2   1   84.69    3.35
  -5   2   1    1.08    0.96
  -5   2   1    1.90    1.01
   5  -2  -1    1.84    0.98
   5  -2  -1    1.55    1.04
   5  -2  -1    1.52    0.99
   5  -2  -1    1.24    0.70
   5   2  -1   84.91    3.32
   5   2  -1   98.37    3.57
   5   2  -1   75.29    1.31
  -6  -2   0   65.73    3.20
  -6  -2   0   69.17    3.40
  -6   2   0 1697.39   14.27
  -6   2   0 1698.54   14.48
   6  -2   0 1696.18   14.56
   6  -2   0 1765.45   14.71
   6   2   0   62.32    3.16
   6   2   0   68.89    3.27
   6   2   0   53.86    1.90
  -7  -2  -1   73.18    3.63
  -7  -2  -1   77.91    3.76
  -7  -2  -1   73.34    2.85
  -7   2  -1    5.65    1.31
  -7   2  -1    6.34    1.42
   7  -2   1    5.92    1.45
   7  -2   1    5.91    1.34
   7  -2   1    6.49    1.46
   7   2   1   72.36    3.73
   7   2   1   78.08    3.75
   7   2   1   60.99    2.59
  -8  -2  -2   11.83    2.03
  -8  -2  -2   11.93    2.14
  -8  -2  -2    8.84    1.55
  -8   2  -2   63.21    3.34
  -8   2  -2   59.74    3.29
   8  -2   2   59.12    3.35
   8  -2   2   56.14    3.31
   8   2   2   11.44    2.11
   8   2   2   15.34    2.25
  -9  -2  -3  197.78    6.69
  -9  -2  -3  334.28    8.68
  -9  -2  -3  323.93    7.78
  -9   2  -3  132.59    4.96
  -9   2  -3  128.56    4.95
   9  -2   3  135.55    5.24
   9  -2   3  121.06    5.23
   9   2   3  336.50    8.83
 -10  -2  -4   41.05    3.62
 -10  -2  -4   37.73    3.21
 -10   2  -4  249.25    7.14
 -10   2  -4  236.65    7.06
 -10   2  -4  248.67    3.39
  10  -2   4  247.12    7.51
  10  -2   4  216.79    7.59
  10   2   4   42.72    3.75
 -11  -2  -5    3.34    1.75
 -11  -2  -5    2.85    1.65
 -11   2  -5  201.14    6.98
  11  -2   5  236.72    7.89
  11  -2   5  198.25    7.93
  11   2   5    4.83    2.06
 -12  -2  -6   36.22    3.91
 -12   2  -6    8.74    2.17
  12  -2   6   12.99    2.75
  12  -2   6   15.33    3.19
  12   2   6   42.67    4.43
 -13  -2  -7    3.93    2.12
 -13   2  -7   -0.73    1.21
  13   2   7    3.45    2.30
  -5  -4 -11   -0.14    1.60
  -5   4 -11   21.84    2.24
   4   4  10    0.64    1.80
  -4  -4 -10    0.62    1.72
  -4   4 -10    1.93    1.14
   3   4   9  159.53    7.51
  -3  -4  -9  151.49    7.11
  -3   4  -9    3.05    1.13
   2  -4   8  848.01   11.92
   2  -4   8 1120.86   17.30
   2   4   8   -0.33    1.40
  -2  -4  -8   -0.87    1.09
  -2   4  -8 1004.41   10.27
  -2   4  -8 1115.86   11.04
  -2   4  -8 1133.56   18.05
   1  -4   7    5.53    1.34
   1  -4   7    8.46    2.06
   1   4   7   50.89    3.97
  -1  -4  -7   45.80    3.73
  -1   4  -7    7.30    1.18
  -1   4  -7    8.35    1.29
  -1   4  -7    9.52    2.08
   0  -4   6   69.58    3.00
   0  -4   6   78.95    4.29
   0   4   6   50.57    3.72
   0  -4  -6   55.49    3.79
   0  -4  -6   50.30    3.57
   0   4  -6   54.32    2.23
   0   4  -6   79.69    2.70
   0   4  -6   69.73    3.83
  -1  -4   5   27.26    1.85
  -1  -4   5   24.44    1.84
  -1  -4   5   27.21    2.63
  -1   4   5   71.54    3.96
  -1   4   5   71.03    3.97
   1  -4  -5   77.22    4.02
   1  -4  -5   79.06    4.12
   1   4  -5   18.70    1.41
   1   4  -5   27.10    1.65
   1   4  -5   25.37    2.17
  -2  -4   4  226.69    4.59
  -2  -4   4  223.79    4.53
  -2  -4   4  209.17    6.05
  -2  -4   4  186.69    4.53
  -2   4   4 1250.95   14.61
  -2   4   4 1350.78   14.94
   2  -4  -4 1373.19   15.05
   2  -4  -4 1380.67   15.33
   2   4  -4  213.41    4.09
   2   4  -4  200.81    4.69
  -3  -4   3  560.62    7.25
  -3  -4   3  499.14    6.85
  -3  -4   3  527.12    9.03
  -3  -4   3  433.46    5.35
  -3   4   3  145.73    4.82
  -3   4   3  149.68    4.81
   3  -4  -3  159.58    5.04
   3  -4  -3  147.12    4.84
   3   4  -3  516.79    6.70
  -4  -4   2    1.78    0.91
  -4  -4   2    1.07    0.91
  -4   4   2    0.64    0.98
  -4   4   2   -0.20    0.82
   4  -4  -2    1.45    0.97
   4  -4  -2    0.89    1.01
   4   4  -2    1.78    0.96
   4   4  -2    1.84    0.90
  -5  -4   1  128.91    4.22
  -5  -4   1  132.27    4.30
  -5   4   1   27.41    2.25
  -5   4   1   36.34    2.47
   5  -4  -1   34.13    2.36
   5  -4  -1   37.49    2.45
   5   4  -1  119.99    4.08
   5   4  -1  123.48    4.02
  -6  -4   0  474.19    8.48
  -6  -4   0  506.87    8.91
  -6  -4   0  420.21    4.82
  -6   4   0   42.45    2.58
  -6   4   0   44.67    2.66
   6  -4   0   36.62    2.49
   6  -4   0   41.17    2.62
   6  -4   0   41.79    2.64
   6  -4   0   33.50    1.47
   6   4   0  468.50    8.54
   6   4   0  528.63    8.90
  -7  -4  -1  219.05    6.38
  -7  -4  -1  212.08    6.39
  -7  -4  -1  195.90    4.40
  -7   4  -1 1573.81   14.14
  -7   4  -1 1647.77   14.67
   7  -4   1 1657.14   15.11
   7  -4   1 1662.50   15.03
   7   4   1  209.72    6.30
   7   4   1  227.32    6.46
  -8  -4  -2   13.62    2.33
  -8  -4  -2   11.16    2.12
  -8  -4  -2   12.38    1.72
  -8   4  -2   91.63    3.75
  -8   4  -2   87.46    3.74
   8  -4   2   90.02    3.91
   8  -4   2   87.29    4.39
   8   4   2   10.40    2.05
   8   4   2   15.31    2.38
  -9  -4  -3   18.86    2.87
  -9  -4  -3   17.68    2.38
  -9   4  -3   28.51    2.48
  -9   4  -3   26.42    2.41
   9  -4   3   31.01    2.64
   9  -4   3   21.68    2.60
   9   4   3   15.21    2.60
 -10  -4  -4   32.64    3.40
 -10  -4  -4   29.25    2.93
 -10   4  -4  184.51    5.80
 -10   4  -4  176.11    5.76
  10  -4   4  194.33    6.48
  10  -4   4  190.15    7.45
  10   4   4   30.26    3.49
 -11  -4  -5   44.71    4.23
 -11  -4  -5   42.63    3.86
 -11   4  -5    0.11    1.13
  11  -4   5    0.87    1.32
  11  -4   5    0.31    1.30
  11   4   5   44.70    4.22
 -12  -4  -6    2.46    1.90
 -12   4  -6    0.84    1.35
  12  -4   6    1.04    1.70
  12   4   6    0.68    1.66
 -13  -4  -7  140.30    7.76
 -13   4  -7    0.94    1.32
  13   4   7  136.48    7.99
   4   6  10   13.20    3.41
  -4  -6 -10   15.20    3.42
   3  -6   9  355.21   10.50
   3   6   9    3.16    1.99
  -3  -6  -9    3.38    1.95
   2  -6   8    2.28    1.09
   2  -6   8    2.85    1.59
   2   6   8  192.69    8.15
  -2  -6  -8  191.81    8.02
  -2   6  -8    1.79    1.48
   1  -6   7    3.80    1.08
   1  -6   7    4.42    1.78
   1  -6   7    4.22    1.56
   1   6   7   54.34    4.38
  -1  -6  -7   60.81    4.45
  -1   6  -7    4.77    1.65
   0  -6   6   21.27    1.72
   0  -6   6   18.17    2.72
   0  -6   6   21.95    2.34
   0   6   6   13.32    2.50
   0  -6  -6   11.90    2.44
   0   6  -6   25.21    2.49
  -1  -6   5   21.60    1.65
  -1  -6   5   24.07    1.63
  -1  -6   5   24.65    2.61
  -1  -6   5   23.25    2.22
  -1   6   5    0.02    1.10
   1  -6  -5    0.57    1.22
  -2  -6   4 2659.80   14.89
  -2  -6   4 2400.73   19.74
  -2  -6   4 2466.02   21.80
  -2  -6   4 2248.90   16.48
  -2   6   4   40.70    3.12
  -2   6   4   41.78    3.09
   2  -6  -4   44.77    3.33
   2  -6  -4   38.31    3.10
   2   6  -4 1968.27   16.65
   2   6  -4 2164.73   17.30
  -3  -6   3    6.22    1.22
  -3  -6   3    6.68    1.25
  -3  -6   3    7.06    1.11
  -3   6   3 2019.62   18.76
  -3   6   3 1815.97   17.48
   3  -6  -3 2149.53   19.16
   3  -6  -3 1870.72   18.11
   3   6  -3    5.90    1.11
  -4  -6   2  339.77    6.39
  -4  -6   2  334.88    6.40
  -4   6   2   41.81    2.91
  -4   6   2   35.98    2.68
   4  -6  -2   38.87    2.75
   4  -6  -2   42.10    2.85
   4   6  -2  281.91    5.69
   4   6  -2  314.92    5.89
  -5  -6   1  179.38    5.20
  -5  -6   1  171.85    5.13
  -5   6   1    0.19    0.93
  -5   6   1    0.11    0.85
  -5   6   1    1.05    0.98
   5  -6  -1    0.47    0.94
   5  -6  -1    0.85    0.98
   5   6  -1  165.21    4.95
   5   6  -1  186.82    5.16
  -6  -6   0    8.70    1.73
  -6  -6   0    9.03    1.80
  -6   6   0    9.28    1.54
  -6   6   0   12.55    1.79
   6  -6   0   12.70    1.83
   6  -6   0   11.56    1.76
   6   6   0    7.70    1.64
   6   6   0    9.39    1.76
  -7  -6  -1  247.83    7.25
  -7   6  -1   18.31    1.91
  -7   6  -1   17.85    1.87
   7  -6   1   19.55    2.02
   7   6   1  233.64    7.03
   7   6   1  261.00    7.27
  -8  -6  -2    3.31    1.53
  -8  -6  -2    3.75    1.18
  -8   6  -2    9.57    1.60
   8  -6   2    8.73    1.65
   8  -6   2    6.10    1.75
   8   6   2    5.17    1.80
  -9  -6  -3   14.37    2.76
  -9  -6  -3   12.80    2.09
  -9   6  -3   26.85    2.26
   9  -6   3   30.20    2.66
   9  -6   3   26.72    3.00
   9   6   3   15.35    2.74
 -10  -6  -4   13.97    2.80
 -10  -6  -4   14.54    2.49
 -10   6  -4   18.82    2.10
  10  -6   4   20.92    2.51
  10  -6   4   17.92    3.01
  10   6   4   14.26    2.94
 -11  -6  -5   80.93    5.76
 -11  -6  -5   76.61    4.85
 -11   6  -5   30.31    2.59
  11  -6   5   37.49    3.30
  11  -6   5   32.33    3.77
  11   6   5   75.73    5.57
 -12  -6  -6    2.63    2.10
 -12   6  -6   14.63    2.19
  12  -6   6   16.12    3.40
  12   6   6    3.80    2.25
 -13  -6  -7    2.51    2.20
 -13   6  -7   93.53    4.39
  13   6   7    2.39    2.36
   4   8  10    0.59    2.03
  -4  -8 -10    0.69    1.96
   3  -8   9    3.50    1.83
   3   8   9   20.03    3.89
  -3  -8  -9   15.32    3.35
   2  -8   8    2.22    1.64
   2  -8   8    2.93    1.66
   2   8   8   -0.93    1.44
  -2  -8  -8    0.04    1.45
   1  -8   7   12.15    2.47
   1  -8   7   11.89    2.37
   1   8   7  149.40    7.20
  -1  -8  -7  155.48    7.27
   0  -8   6    5.00    0.90
   0  -8   6    4.48    1.70
   0  -8   6    3.24    1.35
   0   8   6    3.04    1.74
   0  -8  -6    4.95    1.83
  -1  -8   5  486.54    5.92
  -1  -8   5  457.42   10.51
  -1  -8   5  424.85    8.83
  -1   8   5    2.40    1.53
   1  -8  -5    0.12    1.25
  -2  -8   4   14.58    1.53
  -2  -8   4   13.92    1.44
  -2  -8   4   13.59    1.69
  -2   8   4   33.81    3.07
  -2   8   4   40.65    3.26
   2  -8  -4   37.19    3.28
  -3  -8   3   10.87    1.50
  -3  -8   3   10.97    1.49
  -3   8   3   51.54    3.53
  -3   8   3   40.08    3.04
   3  -8  -3   37.76    3.13
   3   8  -3    7.90    1.17
   3   8  -3    9.71    1.25
  -4  -8   2   81.27    3.57
  -4   8   2   12.49    2.07
  -4   8   2    9.49    1.84
   4  -8  -2    9.17    1.84
   4   8  -2   64.31    2.99
  -5  -8   1   30.27    2.60
  -5   8   1   21.34    2.24
  -5   8   1   15.25    2.05
  -5   8   1   23.65    2.30
   5  -8  -1   19.84    2.20
   5   8  -1   23.02    2.24
   5   8  -1   29.46    2.46
  -6  -8   0  602.88   11.02
  -6   8   0   -0.30    0.70
  -6   8   0    0.30    0.90
   6  -8   0   -0.01    0.86
   6   8   0  486.74    9.72
   6   8   0  613.22   10.71
  -7  -8  -1    1.39    1.31
  -7   8  -1   57.87    2.96
   7  -8   1   54.68    3.14
   7   8   1    2.73    1.40
  -8  -8  -2   10.43    2.42
  -8   8  -2   13.53    1.67
   8  -8   2   16.54    2.04
   8   8   2   10.31    2.36
  -9  -8  -3   24.56    3.56
  -9  -8  -3   19.96    2.37
  -9   8  -3  264.68    5.58
  -9   8  -3  313.53    6.15
   9  -8   3  334.75    7.54
   9  -8   3  323.39   10.02
   9   8   3   21.17    3.38
 -10  -8  -4    0.81    1.61
 -10  -8  -4    0.84    1.27
 -10   8  -4   33.81    2.21
 -10   8  -4   33.14    2.24
  10  -8   4   41.20    3.08
  10  -8   4   37.49    3.92
  10   8   4    3.26    2.03
 -11  -8  -5  167.56    8.27
 -11  -8  -5  142.15    6.64
 -11   8  -5   11.57    1.63
  11  -8   5   10.94    2.79
  11   8   5  148.64    7.94
 -12  -8  -6    1.18    1.95
 -12   8  -6   26.73    2.02
  12   8   6    1.69    2.05
   3 -10   9    8.95    2.50
   3 -10   9    7.18    2.47
   3  10   9    2.01    2.11
  -3 -10  -9    0.69    1.89
   2 -10   8   29.05    3.56
   2 -10   8   30.60    3.54
   2  10   8    5.60    2.46
  -2 -10  -8    5.61    2.49
   1 -10   7   36.11    3.72
   1 -10   7   33.17    3.45
   1  10   7    0.24    1.49
  -1 -10  -7    2.14    1.80
   0 -10   6   28.96    3.25
   0 -10   6   27.27    2.92
   0  10   6   17.01    3.10
   0 -10  -6   16.33    3.07
  -1 -10   5    0.46    1.39
  -1 -10   5    0.45    1.04
  -1  10   5    1.32    1.44
   1 -10  -5    2.03    1.52
  -2 -10   4  243.92    5.03
  -2 -10   4  247.59    6.67
  -2  10   4   28.63    3.17
   2 -10  -4   24.44    2.91
  -3 -10   3  178.19    4.92
  -3  10   3    0.64    1.13
   3 -10  -3    2.16    1.33
   3  10  -3  100.33    3.04
   3  10  -3  193.06    4.05
  -4 -10   2    5.56    1.46
  -4  10   2    6.64    1.75
  -4  10   2    3.55    1.36
   4 -10  -2    2.65    1.41
   4  10  -2    3.75    1.18
  -5 -10   1  271.16    7.35
  -5  10   1  374.97    8.23
  -5  10   1  240.66    6.49
  -5  10   1  357.81    8.06
   5 -10  -1  304.37    7.75
   5  10  -1  198.93    6.01
   5  10  -1  307.36    7.37
  -6 -10   0   14.41    2.41
  -6  10   0   17.82    2.06
   6 -10   0   18.78    2.19
   6  10   0   12.79    2.25
   6  10   0   19.27    2.65
  -7 -10  -1   48.13    3.84
  -7  10  -1   30.75    2.35
   7 -10   1   33.62    2.65
   7  10   1   44.00    3.60
  -8 -10  -2   20.61    3.29
  -8  10  -2    0.62    0.78
  -8  10  -2    2.75    1.03
   8 -10   2    2.08    1.18
   8  10   2   15.14    2.86
  -9 -10  -3   13.11    2.92
  -9  10  -3   20.35    1.57
  -9  10  -3   29.88    1.86
   9 -10   3   33.01    2.76
   9 -10   3   28.44    1.67
   9 -10   3   29.99    3.62
   9  10   3   11.70    2.75
 -10 -10  -4  378.20   12.14
 -10 -10  -4  334.98    9.50
  10 -10   4  454.88   13.26
  10  10   4  349.89   11.64
 -11 -10  -5    5.13    2.48
  11  10   5    5.48    2.48
 -12 -10  -6    2.74    2.23
  12  10   6    2.73    2.45
   2 -12   8    0.07    1.35
   2 -12   8    0.15    1.38
   2  12   8    1.45    2.14
  -2 -12  -8    2.07    2.02
   1 -12   7  421.98   11.97
   1 -12   7  417.34   11.63
   1  12   7   10.17    2.87
  -1 -12  -7   13.01    3.15
   0 -12   6   15.04    2.96
   0 -12   6   13.52    2.58
   0  12   6    6.12    2.40
   0 -12  -6    5.59    2.30
  -1 -12   5    2.64    1.44
  -1  12   5  103.16    6.06
   1 -12  -5  102.56    6.07
  -2 -12   4    3.86    1.14
  -2 -12   4    2.27    1.29
  -2  12   4   29.54    3.37
   2 -12  -4   32.09    3.58
  -3 -12   3   17.64    2.08
  -3  12   3   36.89    3.42
   3 -12  -3   35.34    3.40
   3  12  -3   14.45    1.47
   3  12  -3   21.18    1.60
  -4 -12   2    4.78    1.54
  -4  12   2   13.73    2.38
   4 -12  -2   11.32    2.32
   4  12  -2    3.23    1.20
  -5 -12   1    4.75    1.72
  -5  12   1   63.54    3.71
  -5  12   1   91.78    4.43
   5 -12  -1   81.19    4.49
   5  12  -1    4.42    1.50
   5  12  -1    6.02    1.65
  -6 -12   0   24.40    3.01
  -6  12   0 1545.98   16.03
   6 -12   0 1344.31   16.53
   6  12   0   18.38    2.76
  -7 -12  -1    6.90    2.13
  -7  12  -1    4.99    1.22
  -7  12  -1    7.21    1.50
   7 -12   1    6.59    1.69
   7  12   1    4.87    1.91
  -8 -12  -2   10.92    2.71
  -8  12  -2    1.96    0.90
   8  12   2   10.01    2.48
  -9 -12  -3  301.86   10.83
   9 -12   3    5.15    1.32
   9 -12   3    4.63    2.15
   9  12   3  256.22    9.84
 -10 -12  -4    8.77    2.96
 -10 -12  -4    8.09    2.31
  10  12   4    5.60    2.49
 -11 -12  -5   14.17    3.66
  11  12   5   11.07    3.35
   1 -14   7   16.66    3.30
   1 -14   7   16.64    3.22
   1  14   7   12.19    3.38
  -1 -14  -7    7.56    2.78
   0 -14   6   29.24    4.26
   0 -14   6   24.77    3.49
   0  14   6   15.17    3.27
   0 -14  -6   16.31    3.54
  -1 -14   5   68.60    4.64
  -1  14   5    5.67    2.27
   1 -14  -5    8.25    2.61
  -2 -14   4   18.22    2.78
  -2  14   4  355.77   10.82
   2 -14  -4  333.23   10.78
  -3  14   3   -0.14    1.31
   3 -14  -3   -0.38    1.29
   3  14  -3  161.05    3.59
  -4  14   2   32.82    3.21
   4 -14  -2   22.73    3.33
   4  14  -2    3.32    1.27
  -5 -14   1    4.78    1.91
  -5  14   1    3.89    1.61
  -5  14   1    4.26    1.62
   5 -14  -1    4.13    1.72
   5  14  -1    4.15    1.57
  -6 -14   0   47.62    4.16
  -6  14   0    4.47    1.49
   6  14   0   32.04    3.26
  -7 -14  -1    6.60    2.34
  -7  14  -1  127.84    4.22
   7  14   1    7.72    2.29
  -8 -14  -2    2.49    1.94
   8  14   2    3.54    1.97
  -9 -14  -3    4.37    2.33
   9  14   3    2.91    2.12
 -10 -14  -4   93.85    7.11
  10  14   4   82.11    6.50
   0 -16   6   16.44    3.68
   0 -16   6   13.61    3.05
   0  16   6    9.27    3.04
   0 -16  -6   14.15    3.50
  -1 -16   5    4.08    1.91
  -1  16   5   12.13    3.06
   1 -16  -5   17.62    3.71
  -2 -16   4  153.73    6.87
  -2  16   4   10.40    2.74
   2 -16  -4   11.85    3.07
  -3  16   3   39.09    3.99
  -4  16   2   49.07    4.08
   4  16  -2    2.29    1.24
  -5  16   1   11.24    2.25
  -5  16   1   16.20    2.64
   5  16  -1   29.81    3.05
  -6  16   0   10.08    1.96
   6  16   0   44.52    3.95
  -7  16  -1   16.92    1.80
   7  16   1   49.23    4.43
  -8 -16  -2    4.81    2.39
   8  16   2    3.25    2.12
  -4  18   2    2.09    1.66
   4  18  -2    3.20    1.34
  -5  18   1    1.70    1.50
   5  18  -1    3.30    1.66
  -4  -1 -11    3.27    1.89
  -4   1 -11    2.08    1.58
   3   1  10    1.38    1.73
  -3  -1 -10    1.22    1.50
  -3   1 -10  289.70    8.42
   2  -1   9    0.01    1.21
   2   1   9  147.06    6.59
  -2  -1  -9  143.74    6.25
  -2   1  -9    0.52    1.20
   1  -1   8   -0.34    1.09
   1   1   8    0.65    1.34
  -1  -1  -8    2.05    1.34
  -1  -1  -8    0.55    1.21
  -1  -1  -8    0.26    1.07
  -1   1  -8   -0.97    0.83
  -1   1  -8    0.27    1.07
  -1   1  -8    0.28    1.11
   0  -1   7    0.14    1.00
   0   1   7    0.34    1.10
   0  -1  -7    0.95    1.07
   0  -1  -7   -0.10    1.01
   0  -1  -7    1.21    1.14
   0   1  -7    0.88    0.97
   0   1  -7    1.88    1.18
   0   1  -7    1.47    1.10
  -1  -1   6   25.50    2.33
  -1  -1   6   31.19    2.91
  -1   1   6   25.12    2.45
   1  -1  -6   24.02    2.44
   1  -1  -6   26.64    2.53
   1   1  -6   23.37    2.22
   1   1  -6   28.64    2.35
   1   1  -6   27.59    2.45
  -2  -1   5 1378.94   13.84
  -2  -1   5 1454.10   14.09
  -2  -1   5 1447.32   16.24
  -2   1   5    0.04    0.88
  -2   1   5    0.64    0.96
   2  -1  -5    1.40    0.99
   2  -1  -5    2.42    1.16
   2  -1  -5    0.17    0.92
   2   1  -5 1232.60   12.59
   2   1  -5 1508.96   14.12
   2   1  -5 1554.64   16.54
   2   1  -5 1199.25   13.01
  -3  -1   4  271.90    5.96
  -3  -1   4  301.67    6.21
  -3  -1   4  268.68    6.58
  -3   1   4   13.38    1.89
  -3   1   4   14.04    1.91
  -3   1   4   14.47    2.05
   3  -1  -4   16.68    2.08
   3  -1  -4   17.17    2.08
   3  -1  -4   12.70    1.86
   3   1  -4  284.05    5.91
   3   1  -4  283.03    5.96
   3   1  -4  287.34    6.71
  -4  -1   3   21.90    2.06
  -4  -1   3   19.07    1.97
  -4  -1   3   15.95    1.88
  -4   1   3   43.80    2.72
  -4   1   3   41.03    2.61
  -4   1   3   35.64    2.43
   4  -1  -3   44.28    2.74
   4  -1  -3   40.50    2.67
   4  -1  -3   41.58    2.64
   4   1  -3   19.26    1.83
   4   1  -3   21.46    2.03
  -5  -1   2   49.37    2.80
  -5  -1   2   46.03    2.74
  -5  -1   2   42.49    2.40
  -5   1   2   29.29    2.27
  -5   1   2   33.60    2.40
  -5   1   2   26.33    1.95
   5  -1  -2   30.00    2.40
   5  -1  -2   28.65    2.37
   5  -1  -2   28.79    1.98
   5   1  -2   43.63    2.67
   5   1  -2   45.89    2.60
  -6  -1   1    6.80    1.43
  -6  -1   1    5.93    1.43
  -6  -1   1    7.68    1.30
  -6   1   1   17.01    2.08
  -6   1   1   16.64    2.05
  -6   1   1   13.47    1.33
   6  -1  -1   13.55    1.85
   6  -1  -1   18.08    1.98
   6   1  -1    5.24    1.33
   6   1  -1    4.57    1.26
  -7  -1   0    1.29    1.08
  -7  -1   0    0.51    1.04
  -7   1   0    1.10    1.02
  -7   1   0    1.09    1.05
  -7   1   0    0.27    0.54
   7  -1   0    0.18    0.96
   7  -1   0    0.22    0.90
   7   1   0    0.18    1.00
   7   1   0    1.17    1.07
   7   1   0    0.84    0.66
  -8  -1  -1  169.53    5.54
  -8  -1  -1  169.84    5.62
  -8   1  -1 1609.87   16.02
  -8   1  -1 1576.15   16.11
  -8   1  -1 1531.70   11.76
   8  -1   1  817.89   11.76
   8  -1   1 1711.52   16.71
   8  -1   1 1476.74   14.47
   8   1   1  173.37    5.76
   8   1   1  167.35    5.60
   8   1   1  141.99    4.21
  -9  -1  -2   12.49    2.13
  -9  -1  -2   10.70    2.00
  -9  -1  -2   14.47    1.79
  -9   1  -2   14.06    2.14
  -9   1  -2   13.38    2.09
   9  -1   2   19.31    2.57
   9  -1   2   14.29    2.04
   9   1   2   12.44    2.17
   9   1   2   11.70    1.82
 -10  -1  -3    1.12    1.31
 -10  -1  -3    1.25    1.16
 -10   1  -3   10.82    2.03
 -10   1  -3    9.13    1.94
  10  -1   3   11.64    2.25
  10  -1   3   11.20    2.09
  10   1   3    1.26    1.39
  10   1   3    1.27    1.04
 -11  -1  -4   54.53    4.06
 -11  -1  -4   57.76    4.08
 -11   1  -4    1.08    1.25
 -11   1  -4    0.85    1.29
 -11   1  -4    0.22    0.56
  11  -1   4   -0.14    1.17
  11  -1   4    1.63    1.27
  11   1   4   57.46    4.38
 -12  -1  -5  145.99    6.79
 -12  -1  -5  147.19    6.80
 -12   1  -5    2.64    1.58
  12  -1   5    2.37    1.69
  12  -1   5    2.30    1.59
  12   1   5  143.53    6.91
 -13  -1  -6    9.12    2.60
 -13   1  -6  281.44    9.35
  13  -1   6  333.58   10.71
  13   1   6   12.07    2.97
 -14  -1  -7   13.20    3.06
 -14   1  -7   11.17    2.76
  -4  -3 -11    1.96    1.83
  -4   3 -11   60.15    3.74
   3   3  10    3.18    2.12
  -3  -3 -10    2.51    1.75
  -3   3 -10    2.76    1.35
   2  -3   9   -0.15    1.13
   2   3   9   11.21    2.67
  -2  -3  -9    7.70    2.24
  -2   3  -9    0.91    1.09
   1  -3   8   14.32    2.19
   1   3   8    3.11    1.64
  -1  -3  -8    4.45    1.72
  -1   3  -8   17.70    2.02
  -1   3  -8   16.47    2.70
   0  -3   7    0.67    0.97
   0  -3   7    0.16    1.15
   0   3   7    0.01    1.07
   0  -3  -7    0.03    1.18
   0   3  -7    0.45    0.88
   0   3  -7    0.99    1.04
  -1  -3   6  585.42    8.92
  -1  -3   6  629.72   11.70
  -1   3   6    0.81    1.11
   1  -3  -6    0.38    1.09
   1  -3  -6    0.09    1.02
   1   3  -6  639.07    8.60
   1   3  -6  587.80   10.28
  -2  -3   5   24.86    2.07
  -2  -3   5   27.54    2.18
  -2  -3   5   27.38    2.64
  -2   3   5  165.05    5.68
  -2   3   5  183.04    5.89
   2  -3  -5  184.51    5.94
   2  -3  -5  198.86    6.21
   2   3  -5   26.33    1.96
   2   3  -5   24.41    2.54
   2   3  -5   24.21    2.05
  -3  -3   4   51.88    2.66
  -3  -3   4   47.98    2.53
  -3   3   4   42.45    2.96
  -3   3   4   42.30    2.93
   3  -3  -4   41.68    2.91
   3  -3  -4   43.25    2.94
   3  -3  -4   39.77    2.86
   3   3  -4   50.09    2.48
   3   3  -4   42.40    2.13
  -4  -3   3  203.35    4.89
  -4  -3   3  192.82    4.81
  -4  -3   3  188.40    5.46
  -4   3   3  479.17    8.59
  -4   3   3  481.72    8.46
   4  -3  -3  488.44    8.52
   4  -3  -3  468.22    8.46
   4  -3  -3  412.91    7.42
   4   3  -3  198.72    4.74
   4   3  -3  182.84    4.61
   4   3  -3  173.96    3.02
  -5  -3   2  158.34    4.59
  -5  -3   2  159.70    4.65
  -5   3   2   95.42    3.91
  -5   3   2   91.56    3.86
   5  -3  -2   90.67    3.75
   5  -3  -2   82.17    3.69
   5  -3  -2   79.48    3.07
   5   3  -2  152.32    4.46
   5   3  -2  151.65    4.38
  -6  -3   1  463.65    8.16
  -6  -3   1  462.54    8.23
  -6   3   1   73.07    3.43
  -6   3   1   68.07    3.31
   6  -3  -1   80.10    3.63
   6  -3  -1   71.91    3.46
   6  -3  -1   78.28    3.50
   6  -3  -1   67.03    2.42
   6   3  -1  424.92    7.85
   6   3  -1  455.69    8.00
  -7  -3   0    0.00    0.91
  -7  -3   0    1.19    1.11
  -7  -3   0    0.01    0.53
  -7   3   0    0.45    0.85
  -7   3   0    0.69    0.92
   7  -3   0    0.70    0.95
   7  -3   0   -0.56    0.78
   7   3   0   -0.03    0.97
   7   3   0   -0.20    0.90
  -8  -3  -1    7.14    1.70
  -8  -3  -1    5.52    1.64
  -8  -3  -1    7.27    1.25
  -8   3  -1   -0.46    0.83
  -8   3  -1    0.58    0.92
   8  -3   1   -0.26    0.85
   8  -3   1    0.61    0.95
   8   3   1    7.31    1.73
   8   3   1    8.42    1.80
  -9  -3  -2    2.13    1.28
  -9  -3  -2    2.35    1.34
  -9  -3  -2    1.51    0.97
  -9   3  -2  594.36   10.02
  -9   3  -2  599.74   10.21
   9  -3   2  627.39   10.72
   9  -3   2  567.79   10.80
   9   3   2    1.89    1.28
 -10  -3  -3   -0.57    1.17
 -10  -3  -3    0.77    1.03
 -10   3  -3  189.42    6.08
 -10   3  -3  174.64    5.92
  10  -3   3  191.20    6.44
  10  -3   3  176.57    6.65
  10   3   3    0.81    1.40
 -11  -3  -4    1.97    1.55
 -11  -3  -4    2.79    1.50
 -11   3  -4    3.52    1.47
  11  -3   4    4.96    1.80
  11  -3   4    2.92    1.58
  11   3   4    2.14    1.62
 -12  -3  -5    1.77    1.70
 -12  -3  -5    0.94    1.41
 -12   3  -5   12.05    2.33
  12  -3   5   12.57    2.59
  12  -3   5   11.55    2.68
  12   3   5    1.55    1.81
 -13  -3  -6   27.57    4.09
 -13   3  -6    4.22    1.78
  13  -3   6    2.53    1.86
  13   3   6   26.96    4.27
 -14  -3  -7    1.92    2.03
 -14   3  -7   68.59    4.80
  14   3   7    1.14    2.21
   4   5  11   20.47    4.06
  -4  -5 -11   19.42    3.75
   3   5  10    8.03    2.78
  -3  -5 -10    6.17    2.39
  -3   5 -10   10.95    1.34
   2   5   9    0.06    1.65
  -2  -5  -9   -0.42    1.42
  -2   5  -9    4.30    1.00
   1  -5   8   14.05    2.03
   1  -5   8   14.07    2.72
   1   5   8    0.49    1.50
  -1  -5  -8    1.13    1.59
  -1   5  -8   16.68    1.42
  -1   5  -8   17.56    1.48
  -1   5  -8   17.51    2.85
   0  -5   7  564.16    8.60
   0  -5   7  624.03   12.67
   0   5   7  423.99   10.91
   0  -5  -7  448.97   11.11
   0   5  -7  480.47    5.79
   0   5  -7  616.36    6.71
   0   5  -7  587.59   11.62
  -1  -5   6  199.36    4.85
  -1  -5   6  206.45    7.02
  -1   5   6    2.43    1.51
   1  -5  -6    3.30    1.51
   1  -5  -6    1.90    1.33
   1   5  -6  127.19    3.05
   1   5  -6  193.71    3.80
   1   5  -6  181.88    5.84
  -2  -5   5    0.81    0.84
  -2  -5   5    0.14    0.72
  -2  -5   5   -0.29    0.98
  -2  -5   5    0.85    0.85
  -2   5   5    0.86    1.16
   2  -5  -5    0.84    1.12
   2  -5  -5    1.12    1.21
   2   5  -5    0.32    0.63
   2   5  -5    0.53    0.67
   2   5  -5    0.44    0.74
  -3  -5   4   42.37    2.41
  -3  -5   4   41.59    2.33
  -3  -5   4   33.70    2.86
  -3  -5   4   32.21    1.97
  -3   5   4   36.81    2.95
  -3   5   4   36.25    2.99
   3  -5  -4   40.89    3.09
   3  -5  -4   36.23    2.93
   3   5  -4   37.55    2.08
  -4  -5   3   77.03    3.18
  -4  -5   3   81.55    3.24
  -4  -5   3   62.72    1.98
  -4   5   3   56.20    3.45
  -4   5   3   52.02    3.22
   4  -5  -3   55.22    3.33
   4  -5  -3   52.07    3.27
   4   5  -3   75.56    3.05
  -5  -5   2 2092.81   16.59
  -5  -5   2 1914.47   16.05
  -5   5   2 1832.01   17.00
  -5   5   2 1704.66   16.11
  -5   5   2 1781.45   16.76
   5  -5  -2 1852.82   16.96
   5  -5  -2 1705.23   16.48
   5   5  -2 1890.49   15.63
   5   5  -2 2030.34   15.90
  -6  -5   1    0.91    1.01
  -6  -5   1    0.25    1.04
  -6  -5   1    0.53    0.32
  -6   5   1  162.04    4.96
  -6   5   1  181.55    5.35
   6  -5  -1  171.97    5.19
   6  -5  -1  164.84    5.17
   6   5  -1    1.02    0.96
   6   5  -1    1.00    1.02
  -7  -5   0    0.45    1.00
  -7  -5   0    0.21    1.08
  -7  -5   0    0.10    0.53
  -7   5   0    0.02    0.83
  -7   5   0    0.50    0.94
   7  -5   0    0.89    0.97
   7  -5   0    0.44    1.00
   7  -5   0    0.23    0.93
   7  -5   0    0.35    0.55
   7   5   0   -0.19    1.03
   7   5   0    0.42    1.01
  -8  -5  -1   22.92    2.63
  -8  -5  -1   21.64    1.73
  -8   5  -1   32.96    2.56
  -8   5  -1   34.68    2.66
   8  -5   1   34.96    2.67
   8   5   1   24.91    2.81
   8   5   1   23.81    2.81
  -9  -5  -2   30.34    3.09
  -9  -5  -2   25.09    2.16
  -9   5  -2   29.37    2.53
  -9   5  -2   26.33    2.37
   9  -5   2   31.44    2.66
   9  -5   2   28.14    2.85
   9   5   2   28.64    3.03
 -10  -5  -3  328.92    9.74
 -10  -5  -3  296.27    7.64
 -10   5  -3  488.71    9.16
 -10   5  -3  471.64    9.12
  10  -5   3  514.90   10.14
  10  -5   3  486.80   11.54
  10   5   3  314.98    9.57
 -11  -5  -4   78.68    5.28
 -11  -5  -4   71.59    4.41
 -11   5  -4   11.89    2.11
  11  -5   4   11.54    2.28
  11  -5   4   11.19    2.57
  11   5   4   78.49    5.36
 -12  -5  -5    7.13    2.38
 -12  -5  -5    7.15    2.20
 -12   5  -5    6.93    1.86
  12  -5   5    7.02    2.09
  12  -5   5    6.72    2.41
  12   5   5    4.55    2.28
 -13  -5  -6    1.46    1.89
 -13   5  -6    2.69    1.50
  13  -5   6   -0.64    1.41
  13   5   6   -1.37    1.62
 -14  -5  -7    3.85    2.51
 -14   5  -7   12.55    2.45
  14   5   7    2.30    2.39
   3   7  10    1.33    2.16
  -3  -7 -10    2.41    1.98
   2  -7   9    0.74    1.63
   2   7   9    6.93    2.53
  -2  -7  -9    7.63    2.57
   1  -7   8   33.36    3.64
   1   7   8   26.80    3.88
  -1  -7  -8   32.66    3.75
   0  -7   7   29.02    2.05
   0  -7   7   24.23    1.93
   0  -7   7   23.80    3.36
   0  -7   7   23.66    2.71
   0   7   7   16.99    3.09
   0  -7  -7   15.25    2.85
  -1  -7   6   73.54    2.79
  -1  -7   6   65.10    4.38
  -1  -7   6   68.51    3.86
  -1   7   6  503.58   11.83
   1  -7  -6  600.99   12.91
  -2  -7   5    3.87    0.99
  -2  -7   5    2.27    1.35
  -2  -7   5    3.26    1.20
  -2   7   5    7.43    1.96
   2  -7  -5    7.79    1.98
   2   7  -5    1.81    0.45
   2   7  -5    3.86    0.56
  -3  -7   4   25.10    1.90
  -3  -7   4   19.53    1.74
  -3   7   4   45.22    3.41
  -3   7   4   37.39    3.09
   3  -7  -4   36.41    3.12
   3   7  -4   23.25    1.55
   3   7  -4   23.47    1.60
  -4  -7   3  349.36    6.69
  -4  -7   3  309.76    5.05
  -4   7   3   14.15    2.26
  -4   7   3   12.09    2.05
   4  -7  -3   11.09    2.01
   4   7  -3  295.59    5.75
  -5  -7   2    6.74    1.48
  -5   7   2   15.76    2.23
  -5   7   2   14.35    2.07
   5  -7  -2   16.38    2.34
   5   7  -2    7.85    1.54
   5   7  -2    9.98    1.62
  -6  -7   1   23.82    2.46
  -6   7   1  204.07    5.80
  -6   7   1  234.38    6.29
   6  -7  -1  229.02    6.36
   6   7  -1   17.48    2.14
   6   7  -1   20.75    2.29
  -7  -7   0   -0.67    1.03
  -7   7   0    0.64    0.86
  -7   7   0    1.68    1.15
   7  -7   0    0.18    0.92
   7   7   0   -0.56    1.07
   7   7   0    0.22    1.06
  -8  -7  -1   58.38    4.07
  -8  -7  -1   43.25    2.42
  -8   7  -1    3.82    1.23
  -8   7  -1    5.91    1.46
   8  -7   1    4.09    1.33
   8   7   1   50.43    3.71
  -9  -7  -2  660.90   13.52
  -9  -7  -2  541.14    9.25
  -9   7  -2   17.66    2.02
   9  -7   2   18.04    2.17
   9  -7   2   13.60    2.52
   9   7   2  607.28   12.92
 -10  -7  -3   19.50    3.27
 -10  -7  -3   17.16    2.40
 -10   7  -3  145.77    4.91
  10  -7   3  156.88    5.68
  10  -7   3  154.32    6.99
  10   7   3   17.13    3.13
 -11  -7  -4    1.02    1.83
 -11  -7  -4    2.29    1.38
 -11   7  -4   26.66    2.42
  11  -7   4   30.38    3.00
  11  -7   4   30.54    3.62
  11   7   4    1.90    1.89
 -12  -7  -5    3.05    2.21
 -12  -7  -5    3.24    1.86
 -12   7  -5    3.75    1.44
  12  -7   5    3.25    2.04
  12   7   5    5.98    2.42
 -13  -7  -6    2.79    2.13
 -13   7  -6    2.50    1.40
  13   7   6    1.09    2.15
   3  -9  10    2.43    1.99
   3   9  10  228.40   10.64
  -3  -9 -10  247.89   10.95
   2  -9   9   32.42    3.80
   2   9   9    6.95    2.77
  -2  -9  -9    7.46    2.61
   1  -9   8   12.24    2.75
   1  -9   8   11.73    2.59
   1   9   8   32.56    4.53
  -1  -9  -8   31.57    3.94
   0  -9   7   11.18    2.57
   0  -9   7   11.86    2.30
   0   9   7    3.81    1.98
   0  -9  -7    5.81    2.21
  -1  -9   6   75.30    2.64
  -1  -9   6   70.80    4.80
  -1  -9   6   70.04    4.13
  -1   9   6    0.19    1.40
   1  -9  -6    1.50    1.45
  -2  -9   5    8.22    1.29
  -2  -9   5    6.49    1.96
  -2  -9   5    5.29    1.46
  -2   9   5  173.60    7.05
   2  -9  -5  178.90    7.27
  -3  -9   4    1.96    0.95
  -3  -9   4    0.43    0.83
  -3   9   4   15.63    2.66
   3  -9  -4   14.25    2.49
   3   9  -4    0.68    0.58
   3   9  -4   -0.09    0.53
  -4  -9   3   23.32    2.18
  -4  -9   3   23.68    1.88
  -4   9   3   15.46    2.50
  -4   9   3   12.20    2.17
   4  -9  -3   14.18    2.39
   4   9  -3   16.91    1.70
  -5  -9   2   31.74    2.64
  -5   9   2   25.63    2.66
  -5   9   2   21.58    2.46
   5  -9  -2   25.66    2.70
   5   9  -2   23.41    2.23
   5   9  -2   32.26    2.48
  -6  -9   1   10.06    2.01
  -6   9   1   28.68    2.52
  -6   9   1   37.39    2.88
   6  -9  -1   30.29    2.73
   6   9  -1    7.46    1.71
   6   9  -1   10.16    1.89
  -7  -9   0   -0.16    1.18
  -7   9   0    0.77    0.94
  -7   9   0    0.23    0.95
   7  -9   0    1.14    1.09
   7   9   0    1.28    1.23
   7   9   0   -0.46    1.03
  -8  -9  -1  498.23   11.63
  -8   9  -1   96.96    3.99
   8  -9   1   95.82    4.36
   8   9   1  442.07   10.78
  -9  -9  -2    0.62    1.44
  -9  -9  -2    2.54    1.21
  -9   9  -2    0.73    0.88
  -9   9  -2    0.89    1.01
   9  -9   2   -0.36    1.10
   9   9   2    0.87    1.55
 -10  -9  -3   26.50    3.90
 -10  -9  -3   25.11    2.69
 -10   9  -3   12.00    1.71
 -10   9  -3   13.95    1.86
  10  -9   3   16.45    2.41
  10  -9   3   14.41    2.90
  10   9   3   28.35    4.05
 -11  -9  -4   25.98    4.18
 -11  -9  -4   24.36    3.27
 -11   9  -4   18.34    1.93
  11  -9   4   17.46    3.35
  11   9   4   21.67    3.72
 -12  -9  -5   19.90    3.80
 -12   9  -5   36.10    2.31
  12   9   5   25.50    4.32
 -13  -9  -6  108.65    7.51
 -13   9  -6   68.40    2.45
  13   9   6   98.28    7.37
   2 -11   9   67.95    5.40
   2 -11   9   63.79    5.28
   2  11   9  103.85    7.33
  -2 -11  -9  104.71    7.28
   1 -11   8   -0.52    1.47
   1 -11   8   -1.59    1.03
   1  11   8    4.81    2.32
  -1 -11  -8    3.31    2.25
   0 -11   7    2.47    1.78
   0 -11   7    1.66    1.55
   0  11   7    2.21    1.93
   0 -11  -7    3.02    1.99
  -1 -11   6    0.64    1.56
  -1 -11   6    0.09    1.11
  -1  11   6   40.07    4.20
   1 -11  -6   43.03    4.25
  -2 -11   5  227.93    4.88
  -2 -11   5  236.98    7.08
  -2  11   5    1.01    1.47
   2 -11  -5    3.03    1.74
  -3 -11   4    4.03    1.25
  -3 -11   4    6.10    1.49
  -3  11   4    0.98    1.37
   3 -11  -4   -0.10    1.24
   3  11  -4    4.39    0.58
  -4 -11   3    4.27    1.40
  -4  11   3    3.21    1.59
   4 -11  -3    2.98    1.56
   4  11  -3    4.11    1.13
   4  11  -3    5.23    1.20
  -5 -11   2  173.57    5.98
  -5  11   2   24.12    2.72
  -5  11   2   17.69    2.58
   5 -11  -2   24.00    2.84
   5  11  -2  120.76    4.60
  -6 -11   1  139.01    5.83
  -6  11   1   30.39    2.70
  -6  11   1   44.14    3.30
   6 -11  -1   40.41    3.32
   6  11  -1  103.76    4.78
   6  11  -1  159.96    5.88
  -7 -11   0    0.85    1.37
  -7  11   0    0.31    1.12
   7 -11   0    0.70    1.14
   7  11   0    3.70    1.62
   7  11   0    1.57    1.27
  -8 -11  -1   22.48    3.42
  -8  11  -1  216.11    5.84
   8 -11   1  206.40    6.50
   8  11   1   21.27    3.28
  -9 -11  -2   30.99    3.69
  -9  11  -2    7.46    1.45
   9 -11   2    7.52    1.85
   9  11   2   24.77    3.63
 -10 -11  -3   -0.27    1.64
 -10 -11  -3   -0.52    1.10
 -10  11  -3    3.90    1.06
  10 -11   3    3.25    1.97
  10  11   3    1.08    1.81
 -11 -11  -4    0.29    1.77
 -11 -11  -4    1.71    1.49
  11 -11   4    0.79    1.67
  11  11   4   -0.11    1.59
 -12 -11  -5   77.93    6.57
  12  11   5   73.09    6.39
   1 -13   8    3.45    2.13
   1 -13   8    3.79    1.96
  -1 -13  -8   10.30    3.25
   0 -13   7   10.27    2.78
   0 -13   7   13.22    2.74
   0  13   7    7.56    2.70
   0 -13  -7    6.62    2.70
  -1 -13   6  315.01   10.76
  -1 -13   6  307.61    9.32
  -1  13   6    7.10    2.46
   1 -13  -6    7.87    2.69
  -2 -13   5   50.86    3.73
  -2  13   5    3.71    2.04
   2 -13  -5    5.43    2.17
  -3 -13   4   10.62    2.06
  -3  13   4   21.48    3.39
   3 -13  -4   23.20    3.62
  -4 -13   3    7.61    1.74
  -4  13   3  119.33    5.94
   4 -13  -3  105.34    5.85
   4  13  -3    4.73    1.21
   4  13  -3    6.34    1.28
  -5 -13   2    1.53    1.40
  -5  13   2    2.18    1.52
   5 -13  -2    1.14    1.43
   5  13  -2    2.38    1.27
  -6 -13   1  141.41    6.26
  -6  13   1    9.50    2.05
   6 -13  -1    6.08    1.94
   6  13  -1  101.38    4.98
  -7 -13   0   -0.21    1.20
  -7  13   0   -0.23    0.98
   7 -13   0   -0.52    1.09
   7  13   0    0.37    1.32
  -8 -13  -1   73.91    5.39
  -8  13  -1   53.80    3.10
   8  13   1   58.36    4.61
  -9 -13  -2    6.72    2.49
  -9  13  -2  307.41    5.50
   9  13   2    5.25    2.23
 -10 -13  -3    3.43    2.20
  10  13   3    1.04    1.90
 -11 -13  -4   -0.82    2.00
  11  13   4    0.31    1.98
   0 -15   7  113.18    7.10
   0 -15   7  104.01    6.37
   0  15   7   60.49    5.66
   0 -15  -7   75.59    6.51
  -1 -15   6   -0.04    1.69
  -1 -15   6    1.39    1.53
  -1  15   6   20.65    3.89
   1 -15  -6   22.86    4.11
  -2 -15   5   47.16    3.98
  -2  15   5    2.29    1.94
   2 -15  -5    1.83    1.94
  -3 -15   4    0.65    1.31
  -3  15   4   -1.13    1.33
   3 -15  -4   -0.44    1.57
  -4  15   3    2.73    1.80
   4 -15  -3    1.59    1.83
   4  15  -3    4.51    1.21
  -5  15   2  258.93    8.45
   5  15  -2  210.26    6.36
  -6  15   1    0.16    1.28
   6  15  -1    4.17    1.72
  -7  15   0    0.16    1.15
   7  15   0    1.14    1.45
  -8 -15  -1    4.94    2.31
  -8  15  -1    2.77    1.20
   8  15   1    4.78    2.16
  -9 -15  -2    0.77    1.82
   9  15   2    0.87    1.73
 -10 -15  -3   78.99    6.42
  10  15   3   56.14    5.35
  -3  17   4   -0.10    1.65
  -4  17   3   18.54    3.34
   4  17  -3   46.13    2.04
  -5  17   2    9.83    2.45
   5  17  -2    0.36    1.16
  -6  17   1  101.20    5.19
   6  17  -1   15.25    2.72
  -7  17   0   -0.31    1.19
   7  17   0    1.76    1.72
  -3   0 -11    0.67    1.48
   2   0  10   15.88    2.97
  -2   0 -10   14.86    2.68
   1   0   9   63.18    4.41
  -1   0  -9   62.11    4.08
   0   0   8  480.91   10.61
   0   0  -8  504.61   10.29
   0   0  -8  539.44   10.80
   0   0  -8  551.85   12.23
  -1   0   7    1.24    1.16
   1   0  -7    0.89    1.03
   1   0  -7    1.48    1.15
   1   0  -7    0.91    1.01
  -2   0   6   14.62    2.18
   2   0  -6   13.20    1.99
   2   0  -6   15.31    2.20
  -3   0   5   96.04    4.10
  -3   0   5   88.79    3.93
  -3   0   5   94.88    4.45
   3   0  -5   86.60    3.86
   3   0  -5   96.32    4.09
   3   0  -5   95.96    4.42
  -4   0   4   62.36    3.36
  -4   0   4   59.86    3.29
  -4   0   4   58.36    3.34
   4   0  -4   59.50    3.22
   4   0  -4   56.26    3.15
   4   0  -4   59.23    3.33
  -5   0   3  407.21    7.65
  -5   0   3  409.30    7.75
  -5   0   3  373.53    7.24
   5   0  -3  412.02    7.65
   5   0  -3  397.03    7.63
   5   0  -3  406.02    7.48
  -6   0   2   49.30    2.95
  -6   0   2   49.23    2.96
  -6   0   2   46.06    2.53
   6   0  -2   41.05    2.75
   6   0  -2   45.43    2.87
   6   0  -2   49.64    2.93
  -7   0   1  327.45    7.18
  -7   0   1  331.52    7.32
  -7   0   1  311.13    5.59
   7   0  -1  310.33    7.08
   7   0  -1  346.81    7.38
  -8   0   0    0.11    1.01
  -8   0   0   -0.66    1.03
  -8   0   0    1.24    0.74
   8   0   0    0.37    1.04
   8   0   0    0.19    1.06
   8   0   0    0.72    0.77
  -9   0  -1  215.87    6.52
  -9   0  -1  211.06    6.49
   9   0   1  213.95    6.62
   9   0   1  197.12    5.41
 -10   0  -2   47.45    3.44
 -10   0  -2   50.21    3.64
  10   0   2   49.71    3.68
  10   0   2   44.22    3.02
 -11   0  -3   26.42    2.99
  11   0   3   24.30    2.90
  11   0   3   21.32    2.49
 -12   0  -4    1.94    1.52
  12   0   4    3.54    1.84
  12   0   4    2.99    1.49
 -13   0  -5   10.32    2.49
  13   0   5   11.06    2.70
 -14   0  -6   19.66    3.45
  14   0   6   19.75    3.72
 -15   0  -7   82.15    5.90
  -3  -2 -11    1.85    1.83
  -3   2 -11    0.59    1.30
   2   2  10    6.83    2.32
  -2  -2 -10    5.79    2.05
  -2   2 -10    3.82    1.58
   1  -2   9  145.69    6.00
   1   2   9    0.07    1.38
  -1  -2  -9    0.16    1.32
  -1   2  -9  164.39    5.81
   0  -2   8   28.93    2.82
   0   2   8   25.18    2.94
   0  -2  -8   25.71    2.96
   0  -2  -8   26.41    3.10
   0   2  -8   34.75    2.78
   0   2  -8   33.09    3.28
  -1  -2   7    3.24    1.29
  -1  -2   7    2.93    1.57
  -1   2   7  222.08    7.27
   1  -2  -7  229.72    7.20
   1  -2  -7  234.04    7.36
   1   2  -7    2.75    1.13
   1   2  -7    3.76    1.33
   1   2  -7    3.44    1.34
  -2  -2   6   37.95    2.71
  -2  -2   6   38.53    3.24
  -2   2   6   34.79    2.96
   2  -2  -6   37.58    3.09
   2  -2  -6   32.65    2.92
   2   2  -6   34.70    2.51
   2   2  -6   39.50    2.66
   2   2  -6   34.95    2.67
  -3  -2   5  242.18    5.99
  -3  -2   5  241.23    5.94
  -3  -2   5  228.24    6.78
  -3   2   5   22.50    2.51
  -3   2   5   21.88    2.49
   3  -2  -5   23.44    2.55
   3  -2  -5   22.51    2.37
   3  -2  -5   22.26    2.46
   3   2  -5  218.07    5.43
   3   2  -5  238.39    5.74
   3   2  -5  205.37    5.21
  -4  -2   4 2030.10   16.44
  -4  -2   4 1866.20   15.89
  -4  -2   4 1818.54   17.67
  -4   2   4  187.34    5.72
  -4   2   4  209.34    6.00
   4  -2  -4  204.98    5.88
   4  -2  -4  199.86    5.93
   4  -2  -4  194.87    5.69
   4   2  -4 1838.08   15.48
   4   2  -4 1886.48   17.69
   4   2  -4 1433.33   11.28
  -5  -2   3   42.28    2.77
  -5  -2   3   39.67    2.59
  -5  -2   3   37.33    2.76
  -5   2   3  292.27    6.92
  -5   2   3  327.19    7.21
  -5   2   3  306.15    7.03
   5  -2  -3  314.31    7.05
   5  -2  -3  294.82    6.89
   5  -2  -3  294.03    6.36
   5   2  -3   39.98    2.64
   5   2  -3   39.66    2.57
  -6  -2   2  167.13    5.09
  -6  -2   2  166.63    5.13
  -6  -2   2  162.86    4.83
  -6   2   2    8.49    1.68
  -6   2   2    7.78    1.63
  -6   2   2    5.76    1.24
   6  -2  -2    7.47    1.59
   6  -2  -2    5.63    1.49
   6  -2  -2    7.44    1.31
   6   2  -2  160.41    4.96
   6   2  -2  173.38    5.12
  -7  -2   1   66.92    3.51
  -7  -2   1   69.94    3.63
  -7   2   1    5.19    1.38
  -7   2   1    6.19    1.52
  -7   2   1    3.48    0.89
   7  -2  -1    6.38    1.56
   7  -2  -1    4.88    1.46
   7  -2  -1    5.38    1.01
   7   2  -1   62.04    3.41
   7   2  -1   72.48    3.60
   7   2  -1   60.30    1.78
  -8  -2   0    0.78    1.06
  -8  -2   0    0.07    1.07
  -8   2   0  104.89    4.30
  -8   2   0  103.69    4.35
  -8   2   0   85.48    2.30
   8  -2   0  100.66    4.32
   8  -2   0  108.69    4.43
   8   2   0    0.94    1.14
   8   2   0    0.47    1.09
   8   2   0    1.12    0.66
  -9  -2  -1  418.21    9.25
  -9  -2  -1  383.46    9.01
  -9   2  -1    2.68    1.22
  -9   2  -1    2.52    1.31
   9  -2   1    3.50    1.33
   9  -2   1    3.94    1.28
   9   2   1  373.68    8.93
   9   2   1  335.14    6.50
 -10  -2  -2    0.38    1.12
 -10  -2  -2   -0.01    1.11
 -10  -2  -2    0.89    0.94
 -10   2  -2   18.97    2.59
 -10   2  -2   12.84    2.21
  10  -2   2   17.83    2.61
  10  -2   2   13.70    2.22
  10   2   2    0.70    1.22
  10   2   2    1.09    0.94
 -11  -2  -3  220.06    7.79
 -11  -2  -3  224.88    6.98
 -11   2  -3  453.26   10.05
 -11   2  -3  437.37   10.00
  11  -2   3  469.15   10.68
  11  -2   3  403.38   10.04
  11   2   3  218.21    7.85
 -12  -2  -4   43.81    4.06
 -12  -2  -4   51.29    3.99
 -12   2  -4    2.92    1.53
  12  -2   4    4.36    1.77
  12  -2   4    3.95    1.78
  12   2   4   49.84    4.29
 -13  -2  -5    4.80    2.15
 -13   2  -5   50.96    4.11
  13  -2   5   53.59    4.50
  13  -2   5   54.69    4.63
  13   2   5    4.79    2.31
 -14  -2  -6   -0.05    1.51
 -14   2  -6   24.74    3.55
  14  -2   6   23.56    3.97
  14   2   6   -0.67    1.80
 -15  -2  -7   -0.80    1.63
 -15   2  -7    3.16    2.01
   3   4  11   62.73    5.68
  -3  -4 -11   64.46    5.36
  -3   4 -11    0.51    1.07
   2   4  10    1.71    1.88
  -2  -4 -10    1.45    1.68
  -2   4 -10    1.42    1.10
   1   4   9    3.43    1.99
  -1  -4  -9    2.89    1.64
  -1   4  -9   34.20    2.48
   0  -4   8    3.13    1.33
   0  -4   8    5.64    2.08
   0   4   8    1.36    1.60
   0  -4  -8    2.00    1.61
   0   4  -8    3.93    1.12
   0   4  -8    3.90    1.19
   0   4  -8    4.17    1.63
  -1  -4   7   56.93    3.17
  -1  -4   7   57.36    4.14
  -1   4   7    3.97    1.68
   1  -4  -7    4.16    1.71
   1   4  -7   40.48    2.36
   1   4  -7   58.11    2.78
   1   4  -7   56.79    3.69
  -2  -4   6   24.89    2.20
  -2  -4   6   25.47    2.84
  -2   4   6   21.22    2.93
   2  -4  -6   25.18    2.77
   2  -4  -6   25.02    2.73
   2   4  -6   24.72    1.96
   2   4  -6   22.84    2.20
  -3  -4   5  263.72    5.87
  -3  -4   5  242.66    7.25
  -3   4   5   43.10    3.28
   3  -4  -5   44.37    3.30
   3  -4  -5   41.91    3.23
   3   4  -5  248.82    5.36
   3   4  -5  231.23    5.42
  -4  -4   4   41.24    2.57
  -4  -4   4   42.97    2.57
  -4   4   4   34.81    2.91
  -4   4   4   35.68    2.87
   4  -4  -4   33.29    2.84
   4  -4  -4   31.26    2.77
   4  -4  -4   27.49    2.56
   4   4  -4   45.42    2.48
   4   4  -4   38.63    2.38
   4   4  -4   35.88    1.83
  -5  -4   3   71.39    3.37
  -5  -4   3   67.35    3.21
  -5  -4   3   68.00    3.69
  -5   4   3   73.08    3.82
  -5   4   3   72.50    3.83
   5  -4  -3   75.88    3.82
   5  -4  -3   69.23    3.71
   5  -4  -3   61.70    3.25
   5   4  -3   69.43    3.21
   5   4  -3   67.73    3.21
   5   4  -3   70.80    3.22
  -6  -4   2   48.63    3.04
  -6  -4   2   48.38    3.05
  -6   4   2  289.39    6.92
  -6   4   2  303.79    7.18
   6  -4  -2  321.91    7.36
   6  -4  -2  300.97    7.18
   6  -4  -2  252.04    5.44
   6   4  -2   45.05    2.82
   6   4  -2   48.42    2.96
  -7  -4   1  217.52    6.16
  -7  -4   1  223.95    6.34
  -7   4   1 1582.77   15.82
  -7   4   1 1721.81   16.76
   7  -4  -1 1751.82   16.84
   7  -4  -1 1574.18   16.18
   7  -4  -1 1508.48   11.21
   7   4  -1  192.79    5.86
   7   4  -1  232.64    6.31
  -8  -4   0 2272.56   20.84
  -8  -4   0 2215.30   20.99
  -8   4   0   17.01    2.12
  -8   4   0   17.30    2.15
   8  -4   0   19.54    2.29
   8  -4   0   18.75    1.15
   8   4   0 2064.30   20.14
   8   4   0 2343.77   21.06
  -9  -4  -1    6.73    1.86
  -9  -4  -1    5.47    1.16
  -9   4  -1   17.73    2.33
  -9   4  -1   16.11    2.27
   9  -4   1   17.23    2.39
   9   4   1    6.45    1.78
 -10  -4  -2    7.78    2.15
 -10  -4  -2    6.74    1.50
 -10   4  -2   11.19    2.02
 -10   4  -2    6.28    1.66
  10  -4   2    9.30    1.99
  10  -4   2    9.65    2.11
  10   4   2    7.31    2.04
 -11  -4  -3    3.61    1.81
 -11  -4  -3    4.32    1.48
 -11   4  -3    5.03    1.59
 -11   4  -3    5.12    1.65
  11  -4   3    6.41    1.86
  11  -4   3    4.91    1.76
  11   4   3    3.81    1.84
 -12  -4  -4    8.07    2.43
 -12  -4  -4    8.46    2.08
 -12   4  -4  193.84    6.77
  12  -4   4  226.28    7.79
  12  -4   4  197.14    8.05
  12   4   4    8.25    2.54
 -13  -4  -5  159.29    7.90
 -13   4  -5   13.51    2.51
  13  -4   5   14.20    2.84
  13  -4   5   12.67    2.91
  13   4   5  170.41    8.26
 -14  -4  -6    0.65    1.87
 -14   4  -6    1.14    1.48
  14  -4   6    1.09    1.83
  14   4   6   -0.77    1.79
   3   6  11   20.24    4.23
  -3  -6 -11   20.15    3.90
   2   6  10    1.16    1.93
  -2  -6 -10    2.48    2.10
   1  -6   9   11.04    2.75
   1   6   9   27.06    4.12
  -1  -6  -9   22.47    3.67
   0  -6   8   11.36    1.80
   0  -6   8   11.48    2.58
   0   6   8    7.70    2.33
   0  -6  -8    8.45    2.36
   0   6  -8   10.31    2.23
  -1  -6   7   77.64    3.38
  -1  -6   7   72.85    3.26
  -1  -6   7   73.75    4.83
  -1   6   7    4.29    1.87
   1  -6  -7    3.40    1.70
   1   6  -7   54.75    1.79
   1   6  -7   73.49    2.11
   1   6  -7   74.63    4.23
  -2  -6   6    2.50    1.02
  -2  -6   6    1.91    1.50
  -2   6   6   30.13    3.18
   2  -6  -6   33.92    3.31
   2   6  -6    1.43    0.66
   2   6  -6    3.85    0.88
   2   6  -6    1.77    1.06
  -3  -6   5   23.93    2.01
  -3  -6   5   23.86    2.73
  -3  -6   5   20.08    1.85
  -3   6   5  258.42    7.89
   3  -6  -5  250.87    7.78
   3   6  -5   21.64    1.63
   3   6  -5   22.08    1.70
  -4  -6   4    1.84    0.93
  -4  -6   4    2.01    1.28
  -4  -6   4    1.50    0.72
  -4   6   4   16.29    2.46
  -4   6   4   20.75    2.77
   4  -6  -4   14.89    2.36
   4   6  -4    1.43    0.92
  -5  -6   3   37.68    2.59
  -5  -6   3   26.94    1.24
  -5   6   3   69.02    3.88
  -5   6   3   68.76    3.88
   5  -6  -3   69.65    3.91
   5   6  -3   29.92    2.32
   5   6  -3   34.48    2.34
  -6  -6   2  109.69    4.42
  -6   6   2   86.67    4.20
  -6   6   2   88.00    4.18
  -6   6   2   90.37    4.22
   6  -6  -2   89.84    4.30
   6   6  -2   95.17    4.05
   6   6  -2  114.72    4.34
  -7  -6   1  265.33    7.16
  -7  -6   1  221.48    2.48
  -7   6   1   18.53    2.22
  -7   6   1   20.43    2.29
   7  -6  -1   23.59    2.35
   7   6  -1  229.83    6.60
   7   6  -1  269.82    7.01
  -8  -6   0   -0.40    1.04
  -8  -6   0    0.08    0.55
  -8   6   0  592.95    9.94
  -8   6   0  663.12   10.68
   8  -6   0  612.65   10.54
   8  -6   0  535.41    6.02
   8   6   0    0.09    1.04
   8   6   0    0.72    1.10
  -9  -6  -1   30.10    3.23
  -9  -6  -1   28.77    2.03
  -9   6  -1    8.76    1.68
  -9   6  -1    9.09    1.80
   9  -6   1    8.33    1.81
   9   6   1   32.95    3.28
 -10  -6  -2    9.16    2.29
 -10  -6  -2    9.84    1.70
 -10   6  -2   17.69    2.35
 -10   6  -2   18.24    2.42
  10  -6   2   21.90    2.53
  10  -6   2   19.23    2.98
  10   6   2   11.46    2.44
 -11  -6  -3   32.46    3.65
 -11  -6  -3   25.79    2.61
 -11   6  -3    0.73    1.17
  11  -6   3    2.05    1.40
  11  -6   3    0.18    1.30
  11   6   3   29.46    3.66
 -12  -6  -4  320.88   10.84
 -12  -6  -4  304.17    8.86
 -12   6  -4  122.53    5.15
  12  -6   4  128.48    5.88
  12  -6   4  120.06    6.65
  12   6   4  320.72   10.96
 -13  -6  -5   10.69    2.99
 -13   6  -5  203.20    6.78
  13  -6   5  214.42    9.34
  13   6   5   10.66    3.04
 -14  -6  -6    1.55    2.07
 -14   6  -6   -0.86    1.22
  14   6   6    0.82    1.99
   2  -8  10    0.43    1.76
   2   8  10    3.23    2.25
  -2  -8 -10    0.64    2.00
   1  -8   9   33.62    4.04
   1   8   9  214.43    9.52
  -1  -8  -9  218.12    9.46
   0  -8   8   -0.10    1.44
   0   8   8    2.58    1.93
   0  -8  -8    1.47    1.69
  -1  -8   7  230.59    5.02
  -1  -8   7  218.65    8.26
  -1  -8   7  199.79    6.95
  -1   8   7    9.57    2.54
   1  -8  -7   10.68    2.62
  -2  -8   6    1.52    0.93
  -2  -8   6    1.37    1.51
  -2  -8   6    2.21    1.23
  -2   8   6    8.95    2.36
   2  -8  -6   10.02    2.35
  -3  -8   5   44.59    2.54
  -3  -8   5   44.07    3.73
  -3  -8   5   37.85    2.57
  -3   8   5    3.42    1.61
   3  -8  -5    3.34    1.56
   3   8  -5   36.69    1.61
   3   8  -5   33.32    1.57
  -4  -8   4    1.22    0.91
  -4  -8   4    0.92    0.78
  -4   8   4  461.50   10.61
   4  -8  -4  395.16    9.86
   4   8  -4    0.87    0.73
   4   8  -4    0.81    0.79
  -5  -8   3   10.99    1.84
  -5  -8   3   10.52    1.12
  -5   8   3   30.08    2.89
  -5   8   3   28.31    2.77
   5  -8  -3   26.80    2.75
   5   8  -3   10.91    1.71
  -6  -8   2   10.65    1.93
  -6   8   2    2.37    1.40
  -6   8   2    2.09    1.22
  -6   8   2    1.91    1.27
   6  -8  -2    3.95    1.49
   6   8  -2   10.51    1.87
   6   8  -2   12.20    1.94
  -7  -8   1    3.20    1.49
  -7   8   1   48.89    3.25
  -7   8   1   58.43    3.55
   7  -8  -1   60.44    3.70
   7   8  -1    3.42    1.45
   7   8  -1    4.93    1.58
  -8  -8   0  545.14   11.56
  -8   8   0  484.60    9.14
  -8   8   0  610.54   10.43
   8  -8   0  554.85   10.40
   8   8   0  474.37   10.58
  -9  -8  -1   85.91    5.17
  -9  -8  -1   69.34    3.10
  -9   8  -1  499.75    9.15
  -9   8  -1  587.33   10.06
   9  -8   1  572.25   10.61
   9  -8   1  460.95    5.14
   9   8   1   72.46    4.75
 -10  -8  -2    0.56    1.46
 -10  -8  -2    2.03    1.08
 -10   8  -2   17.91    2.19
  10  -8   2   24.04    2.69
  10  -8   2   16.78    2.95
  10   8   2    1.81    1.58
 -11  -8  -3  107.48    6.37
 -11  -8  -3   97.02    4.74
 -11   8  -3    0.35    1.10
  11  -8   3    1.12    1.29
  11  -8   3    2.83    1.80
  11   8   3  104.24    6.29
 -12  -8  -4    7.11    2.65
 -12  -8  -4    7.04    2.01
 -12   8  -4   38.97    2.94
  12  -8   4   40.34    4.34
  12   8   4    6.58    2.49
 -13  -8  -5    5.43    2.50
 -13   8  -5    7.69    1.79
  13   8   5    6.78    2.69
 -14  -8  -6    6.93    2.98
 -14   8  -6    1.77    1.27
  14   8   6    5.21    2.61
   2 -10  10    9.86    2.88
   2  10  10    1.63    2.17
  -2 -10 -10    3.15    2.40
   1 -10   9   11.90    2.99
   1  10   9    1.68    2.19
  -1 -10  -9    2.47    2.15
   0 -10   8  291.48   10.21
   0 -10   8  274.46    9.24
   0  10   8  221.40    9.63
   0 -10  -8  219.12    9.54
  -1 -10   7   -0.51    1.50
  -1 -10   7   -0.32    1.12
  -1  10   7   20.57    3.62
   1 -10  -7   25.91    3.97
  -2 -10   6    0.83    0.87
  -2 -10   6   -0.05    1.44
  -2 -10   6    0.62    1.16
  -2  10   6    4.53    2.14
   2 -10  -6    2.56    1.74
  -3 -10   5    2.56    1.10
  -3 -10   5    1.22    1.64
  -3 -10   5    2.15    1.18
  -3  10   5    6.74    2.10
   3 -10  -5    9.40    2.33
  -4 -10   4  187.67    5.40
  -4 -10   4  172.06    4.96
  -4  10   4   25.33    2.96
   4 -10  -4   18.05    2.98
   4  10  -4  185.05    4.17
   4  10  -4  117.79    3.41
  -5 -10   3  509.05    9.51
  -5 -10   3  507.87    7.57
  -5  10   3  310.80    8.79
   5 -10  -3  276.06    8.47
   5  10  -3  372.34    7.32
  -6 -10   2   19.84    2.47
  -6  10   2    8.51    1.99
  -6  10   2    6.26    1.67
  -6  10   2    7.57    1.92
   6 -10  -2    7.25    1.90
   6  10  -2   14.96    2.19
   6  10  -2   19.55    2.36
  -7 -10   1   48.36    3.75
  -7  10   1   23.03    2.46
  -7  10   1   35.77    3.00
   7 -10  -1   26.92    2.82
   7  10  -1   40.30    3.29
   7  10  -1   50.80    3.62
  -8 -10   0    1.16    1.43
  -8  10   0  170.00    5.64
  -8  10   0  219.48    6.49
   8 -10   0  213.91    6.88
   8  10   0    0.14    1.25
  -9 -10  -1    0.36    1.39
  -9  10  -1   14.72    2.14
   9 -10   1   14.21    2.38
   9  10   1   -0.21    1.22
 -10 -10  -2   43.38    4.36
 -10 -10  -2   33.68    2.80
 -10  10  -2   49.89    3.09
  10 -10   2   51.45    3.62
  10 -10   2   45.25    1.56
  10  10   2   34.81    3.81
 -11 -10  -3    5.13    2.29
 -11 -10  -3    4.39    1.65
 -11  10  -3   -0.08    0.96
  11 -10   3    0.52    1.61
  11  10   3    3.28    2.07
 -12 -10  -4   13.28    3.38
 -12  10  -4    9.57    1.61
  12 -10   4    9.96    2.80
  12  10   4   13.59    3.41
 -13 -10  -5   14.65    3.67
 -13  10  -5    4.76    1.14
  13  10   5   13.09    3.60
   1 -12   9  137.38    7.74
   1 -12   9  135.14    7.37
   1  12   9   -0.46    1.81
  -1 -12  -9    0.65    1.82
   0 -12   8   87.83    6.07
   0 -12   8   88.28    5.64
   0  12   8   59.19    5.61
   0 -12  -8   67.62    5.87
  -1 -12   7   16.97    3.43
  -1 -12   7   18.58    3.04
  -1  12   7  281.42   10.81
   1 -12  -7  307.61   11.38
  -2 -12   6   13.13    3.07
  -2 -12   6   12.33    2.33
  -2  12   6   27.20    4.03
   2 -12  -6   22.47    3.73
  -3 -12   5   12.92    2.16
  -3  12   5    0.82    1.48
   3 -12  -5    1.81    1.61
  -4 -12   4  204.07    5.94
  -4 -12   4  215.69    6.20
  -4  12   4    3.23    1.78
   4 -12  -4    5.80    2.11
   4  12  -4  209.83    4.03
   4  12  -4  131.11    3.29
  -5 -12   3    1.70    1.29
  -5 -12   3    1.06    0.96
  -5  12   3    0.48    1.32
   5 -12  -3    1.35    1.44
   5  12  -3    1.00    1.00
  -6 -12   2   35.78    3.25
  -6  12   2   30.69    3.11
  -6  12   2   30.19    3.08
   6 -12  -2   29.04    3.22
   6  12  -2   27.63    2.68
  -7 -12   1    5.61    1.94
  -7  12   1    6.96    1.87
   7 -12  -1    7.09    2.01
   7  12  -1    7.65    1.94
  -8 -12   0    1.27    1.48
  -8  12   0   74.28    4.02
   8 -12   0   76.70    4.47
   8  12   0    1.31    1.46
  -9 -12  -1  174.71    7.93
  -9  12  -1    0.90    1.11
   9  12   1  151.10    7.17
 -10 -12  -2    8.71    2.79
 -10  12  -2   49.42    2.91
  10  12   2    7.84    2.59
 -11 -12  -3    0.00    1.64
 -11  12  -3   36.62    2.15
  11  12   3   -0.25    1.78
 -12 -12  -4    6.72    2.80
  12  12   4    4.86    2.60
  -1 -14   7   15.34    3.41
  -1 -14   7   14.43    2.94
  -1  14   7    8.51    2.82
   1 -14  -7   11.86    3.23
  -2 -14   6   32.87    4.69
  -2 -14   6   31.00    3.30
  -2  14   6    0.19    1.71
   2 -14  -6    2.04    1.99
  -3 -14   5  242.99    7.71
  -3  14   5    2.76    1.97
   3 -14  -5    4.18    2.17
  -4 -14   4   14.34    2.31
  -4  14   4   28.37    3.43
   4 -14  -4   27.56    4.00
  -5  14   3    1.28    1.50
   5 -14  -3    1.81    1.69
   5  14  -3   25.03    2.25
  -6  14   2    3.14    1.76
  -6  14   2    3.04    1.73
   6 -14  -2    1.57    1.57
   6  14  -2   17.26    2.52
  -7 -14   1    6.89    2.28
  -7  14   1  123.39    5.55
   7  14  -1    7.49    2.08
  -8 -14   0  230.87    9.00
  -8  14   0   33.71    2.99
   8  14   0  175.31    7.45
  -9 -14  -1    0.71    1.72
  -9  14  -1    3.70    1.43
   9  14   1    1.82    1.78
 -10 -14  -2    3.46    2.34
 -10  14  -2   21.07    1.82
  10  14   2    1.95    1.98
 -11 -14  -3   26.79    4.66
  11  14   3   22.90    4.30
  -2 -16   6    4.33    2.59
  -2  16   6    1.53    2.08
   2 -16  -6   -0.17    1.79
  -3  16   5   56.54    5.15
   3 -16  -5   56.92    5.45
  -4  16   4   15.88    3.27
   4 -16  -4   16.11    3.44
  -5  16   3    5.10    2.05
   5  16  -3    5.48    1.42
  -6  16   2   -0.18    1.40
  -6  16   2    1.52    1.57
   6  16  -2   -0.37    1.13
  -7  16   1   11.62    2.36
   7  16  -1   55.76    4.23
  -8  16   0  226.27    6.78
   8  16   0    0.15    1.43
  -9  16  -1    4.54    1.36
   9  16   1   38.11    4.26
  -2  -1 -11  119.15    6.39
  -2   1 -11    6.48    2.05
   1   1  10   75.71    5.26
  -1  -1 -10   80.13    5.05
  -1   1 -10   83.17    4.75
   0  -1   9   60.23    4.21
   0   1   9   54.18    4.29
   0  -1  -9   59.29    4.22
   0   1  -9   63.44    4.02
  -1  -1   8   -0.13    1.15
  -1   1   8    1.19    1.40
   1  -1  -8   -0.10    1.08
   1  -1  -8    1.49    1.28
   1  -1  -8    0.62    1.24
   1   1  -8    0.92    1.03
   1   1  -8    1.06    1.21
   1   1  -8    1.19    1.17
  -2  -1   7  268.80    7.41
  -2  -1   7  297.46    8.88
  -2   1   7    3.47    1.54
   2  -1  -7    2.42    1.24
   2  -1  -7    2.27    1.32
   2   1  -7  237.78    6.61
   2   1  -7  286.66    7.37
   2   1  -7  254.71    7.38
  -3  -1   6    4.51    1.39
  -3  -1   6    0.43    1.09
  -3   1   6  591.55   10.99
   3  -1  -6  556.66   10.36
   3  -1  -6  574.95   10.68
   3   1  -6   -0.11    0.86
   3   1  -6    0.09    0.96
   3   1  -6    1.05    0.91
  -4  -1   5  105.22    4.39
  -4  -1   5   97.61    4.64
  -4   1   5   19.08    2.54
  -4   1   5   20.86    2.48
   4  -1  -5   21.17    2.32
   4  -1  -5   21.16    2.42
   4   1  -5  100.87    4.11
   4   1  -5  103.33    4.20
  -5  -1   4    1.40    1.04
  -5  -1   4    1.52    1.11
  -5  -1   4    1.27    1.22
  -5   1   4    2.62    1.37
  -5   1   4    1.57    1.14
  -5   1   4    2.38    1.35
  -5   1   4    1.58    1.11
   5  -1  -4    3.65    1.37
   5  -1  -4    1.31    1.11
   5  -1  -4    2.23    1.15
   5   1  -4    1.21    1.10
   5   1  -4    1.72    1.11
   5   1  -4    1.41    1.15
  -6  -1   3   17.31    2.09
  -6  -1   3   15.14    2.11
  -6  -1   3   13.76    1.96
  -6   1   3  145.73    5.05
  -6   1   3  129.72    4.84
  -6   1   3  124.03    4.37
   6  -1  -3  140.41    5.00
   6  -1  -3  137.71    4.97
   6  -1  -3  135.01    4.50
   6   1  -3   15.36    2.06
   6   1  -3   17.49    2.08
  -7  -1   2 1904.82   17.67
  -7  -1   2 1836.77   17.56
  -7  -1   2 1639.80   14.91
  -7   1   2    0.35    1.01
  -7   1   2    1.02    1.12
  -7   1   2    1.70    0.95
   7  -1  -2    1.09    1.18
   7  -1  -2    1.20    1.13
   7  -1  -2    1.17    1.10
   7  -1  -2    1.26    0.87
   7   1  -2 1741.33   17.07
   7   1  -2 1999.96   18.00
  -8  -1   1  170.40    5.64
  -8  -1   1  169.19    5.71
  -8  -1   1  160.01    4.53
  -8   1   1 1643.44   16.88
  -8   1   1 1634.23   17.10
  -8   1   1 1487.43   12.03
   8  -1  -1 1613.68   17.04
   8  -1  -1 1711.04   17.30
   8   1  -1  158.57    5.57
   8   1  -1  177.76    5.74
   8   1  -1  152.66    3.52
  -9  -1   0    0.60    1.05
  -9  -1   0    0.08    1.12
  -9   1   0    0.19    0.95
  -9   1   0    0.24    1.03
  -9   1   0    0.29    0.60
   9  -1   0   -0.39    0.96
   9  -1   0   -0.56    0.66
   9   1   0   -0.81    0.92
   9   1   0    1.42    1.23
   9   1   0    0.54    0.71
 -10  -1  -1  152.68    5.98
 -10  -1  -1  154.02    6.06
 -10   1  -1   10.73    2.11
 -10   1  -1    7.91    1.93
 -10   1  -1    6.60    0.94
  10  -1   1    7.85    1.89
  10  -1   1    7.71    1.56
  10   1   1  154.09    6.06
  10   1   1  135.81    4.58
 -11  -1  -2    4.55    1.68
 -11   1  -2   62.61    4.11
 -11   1  -2   61.09    1.87
  11  -1   2   61.82    4.13
  11  -1   2   53.90    3.59
  11   1   2    4.24    1.80
  11   1   2    3.08    1.24
 -12  -1  -3  312.25    9.49
 -12   1  -3   19.08    2.95
  12  -1   3   18.35    2.98
  12  -1   3   21.23    2.96
  12   1   3  319.59    9.72
  12   1   3  307.25    8.55
 -13  -1  -4    3.73    1.92
 -13   1  -4   41.25    3.83
  13  -1   4   39.82    4.02
  13  -1   4   42.14    3.91
  13   1   4    3.89    1.95
 -14  -1  -5   10.18    2.72
 -14   1  -5   64.70    4.88
  14  -1   5   68.50    5.31
  14  -1   5   70.60    5.32
  14   1   5   11.35    2.91
 -15  -1  -6   29.33    4.26
 -15   1  -6   -0.65    1.53
  15   1   6   32.44    4.86
   2   3  11    2.60    2.08
  -2  -3 -11   -0.08    1.51
  -2   3 -11    1.09    1.33
   1   3  10  297.97   10.47
  -1  -3 -10  281.63    9.76
  -1   3 -10    0.32    1.12
   0  -3   9    7.86    1.98
   0   3   9    5.77    2.10
   0  -3  -9    7.56    2.26
   0   3  -9    6.88    1.69
   0   3  -9    6.72    2.03
  -1  -3   8    2.23    1.33
  -1  -3   8    1.96    1.62
  -1   3   8   14.55    2.70
   1  -3  -8   16.59    2.85
   1   3  -8    1.77    1.14
   1   3  -8    2.77    1.49
  -2  -3   7    0.50    1.01
  -2  -3   7    1.56    1.39
  -2   3   7   41.53    3.52
   2  -3  -7   41.70    3.55
   2   3  -7   -0.29    0.86
   2   3  -7    0.19    0.88
  -3  -3   6    4.51    1.42
  -3  -3   6    4.75    1.66
  -3   3   6    4.55    1.70
   3  -3  -6    6.54    1.81
   3  -3  -6    4.36    1.60
   3   3  -6    5.18    1.32
   3   3  -6    5.33    1.37
   3   3  -6    5.07    1.32
  -4  -3   5   58.39    3.20
  -4  -3   5   58.01    3.83
  -4   3   5  215.73    6.83
   4  -3  -5  232.40    6.90
   4  -3  -5  214.73    6.78
   4   3  -5   53.38    2.98
   4   3  -5   54.16    2.98
   4   3  -5   48.80    2.52
  -5  -3   4   50.46    3.04
  -5  -3   4   52.71    3.07
  -5  -3   4   49.58    3.35
  -5   3   4   39.51    3.16
  -5   3   4   42.07    3.23
   5  -3  -4   43.19    3.24
   5  -3  -4   36.05    2.92
   5  -3  -4   31.70    2.65
   5   3  -4   51.08    2.95
   5   3  -4   49.32    2.91
   5   3  -4   43.44    1.91
  -6  -3   3 2716.39   20.47
  -6  -3   3 2652.04   20.43
  -6  -3   3 2675.89   21.58
  -6   3   3    3.23    1.41
  -6   3   3    4.02    1.39
  -6   3   3    2.42    1.33
   6  -3  -3    4.16    1.37
   6  -3  -3    2.95    1.34
   6  -3  -3    3.89    1.24
   6   3  -3 2771.43   20.37
   6   3  -3 2612.78   20.06
   6   3  -3 2809.30   20.46
   6   3  -3 2373.75   16.64
  -7  -3   2    1.44    1.17
  -7  -3   2    1.79    1.27
  -7   3   2    2.29    1.24
  -7   3   2    1.14    1.19
   7  -3  -2    2.42    1.21
   7  -3  -2    1.71    1.15
   7  -3  -2    2.09    0.95
   7   3  -2    2.38    1.24
   7   3  -2    0.72    0.96
  -8  -3   1   11.41    2.12
  -8  -3   1   11.94    2.09
  -8   3   1   -0.37    0.95
  -8   3   1    0.87    1.11
   8  -3  -1    0.61    0.98
   8  -3  -1    0.34    1.07
   8  -3  -1    1.25    1.14
   8  -3  -1   -0.42    0.57
   8   3  -1   10.72    2.03
   8   3  -1   10.09    1.94
  -9  -3   0    0.74    1.09
  -9  -3   0   -0.20    1.13
  -9   3   0    0.67    0.99
  -9   3   0    0.17    0.99
   9  -3   0    0.59    1.10
   9   3   0   -0.05    1.03
   9   3   0    0.07    1.19
 -10  -3  -1   13.54    2.41
 -10   3  -1   16.73    2.47
 -10   3  -1   16.92    2.50
  10  -3   1   14.31    2.40
  10  -3   1   14.14    2.16
  10   3   1   15.04    2.55
 -11  -3  -2  771.02   14.52
 -11  -3  -2  736.22   11.27
 -11   3  -2    2.96    1.46
 -11   3  -2    2.35    1.42
  11  -3   2    2.52    1.42
  11  -3   2    1.80    1.25
  11   3   2  753.66   14.40
 -12  -3  -3   49.25    4.21
 -12  -3  -3   51.91    3.62
 -12   3  -3   17.49    2.70
  12  -3   3   22.99    3.24
  12  -3   3   18.52    2.97
  12   3   3   46.23    4.28
 -13  -3  -4   29.54    4.10
 -13  -3  -4   27.27    3.18
 -13   3  -4    5.36    1.92
  13  -3   4   10.24    2.53
  13  -3   4    7.03    2.19
  13   3   4   32.68    4.40
 -14  -3  -5    5.04    2.25
 -14   3  -5  241.37    8.48
  14  -3   5  256.87    9.36
  14  -3   5  239.68    9.57
  14   3   5    6.29    2.49
 -15  -3  -6   11.58    3.10
 -15   3  -6   44.32    4.17
  15   3   6   12.47    3.43
   2   5  11    2.24    2.21
  -2  -5 -11    0.44    1.68
  -2   5 -11    1.01    0.90
   1   5  10    0.40    1.57
  -1  -5 -10    1.90    1.86
  -1   5 -10    1.96    1.01
   0  -5   9  252.96    9.41
   0   5   9  166.87    7.81
   0  -5  -9  188.47    8.18
   0   5  -9  242.67    5.23
   0   5  -9  236.84    8.57
  -1  -5   8    1.92    1.19
  -1  -5   8    1.91    1.56
  -1   5   8   12.85    2.77
   1  -5  -8   14.27    2.79
   1   5  -8    0.66    0.75
   1   5  -8    1.80    0.94
   1   5  -8    2.43    1.43
  -2  -5   7   38.31    2.74
  -2  -5   7   40.98    2.77
  -2  -5   7   33.42    3.51
  -2   5   7   43.78    3.84
   2  -5  -7   48.84    3.97
   2   5  -7   23.89    1.89
   2   5  -7   37.08    2.28
   2   5  -7   33.98    2.89
  -3  -5   6   25.32    2.26
  -3  -5   6   23.17    2.84
  -3   5   6    4.61    1.79
   3  -5  -6    4.58    1.82
   3   5  -6   22.08    1.88
   3   5  -6   24.64    2.17
  -4  -5   5   10.53    1.69
  -4  -5   5    5.66    1.74
  -4   5   5    3.56    1.60
   4  -5  -5    2.43    1.45
   4   5  -5    8.88    1.51
   4   5  -5    8.09    1.29
  -5  -5   4   15.58    1.90
  -5  -5   4   13.21    2.21
  -5   5   4   12.38    2.34
  -5   5   4   12.81    2.20
   5  -5  -4   12.95    2.31
   5   5  -4   16.35    1.81
   5   5  -4   10.40    1.69
  -6  -5   3   80.25    3.80
  -6   5   3   35.61    3.00
  -6   5   3   33.44    3.00
  -6   5   3   33.50    2.99
   6  -5  -3   31.86    2.93
   6  -5  -3   28.37    2.39
   6   5  -3   77.51    3.66
   6   5  -3   78.57    3.64
  -7  -5   2   16.93    2.39
  -7   5   2    9.11    1.89
  -7   5   2    6.58    1.63
   7  -5  -2    5.94    1.67
   7  -5  -2    6.04    1.29
   7   5  -2   13.09    2.09
   7   5  -2   16.06    2.24
  -8  -5   1   21.03    2.59
  -8   5   1   30.86    2.80
  -8   5   1   30.80    2.78
   8  -5  -1   29.66    2.77
   8  -5  -1   30.03    1.88
   8   5  -1   20.86    2.43
   8   5  -1   24.29    2.56
  -9  -5   0    0.29    1.25
  -9  -5   0    0.75    0.56
  -9   5   0   -0.58    0.87
  -9   5   0    0.04    0.94
   9  -5   0   -0.02    1.03
   9  -5   0    0.01    0.48
   9   5   0    0.25    1.15
   9   5   0    0.40    1.18
 -10  -5  -1  344.78    6.47
 -10   5  -1  288.40    7.53
 -10   5  -1  283.80    7.58
  10  -5   1  309.51    8.17
  10   5   1  352.29    9.65
 -11  -5  -2   23.41    3.49
 -11  -5  -2   22.98    2.28
 -11   5  -2  174.98    6.16
 -11   5  -2  177.84    6.22
  11  -5   2  194.87    6.81
  11  -5   2  177.01    7.02
  11   5   2   27.05    3.26
 -12  -5  -3   -0.50    1.36
 -12  -5  -3   -0.40    1.02
 -12   5  -3    0.76    1.30
  12  -5   3    0.77    1.37
  12  -5   3    0.93    1.32
  12   5   3   -0.13    1.36
 -13  -5  -4    2.28    1.93
 -13  -5  -4    5.67    1.92
 -13   5  -4    3.58    1.71
  13  -5   4    2.13    1.71
  13  -5   4    2.43    1.76
  13   5   4    4.42    2.33
 -14  -5  -5    4.16    2.39
 -14   5  -5   16.58    2.81
  14  -5   5   21.83    3.80
  14   5   5    3.80    2.21
 -15  -5  -6  117.79    7.63
 -15   5  -6  222.21    7.96
  15   5   6  119.57    7.84
   1  -7  10  177.41    8.40
   1   7  10    3.01    2.35
  -1  -7 -10    3.40    2.18
   0  -7   9    6.61    2.35
   0   7   9    3.38    2.11
   0  -7  -9    1.83    1.77
  -1  -7   8   37.80    4.00
  -1   7   8   21.01    3.52
   1  -7  -8   21.83    3.54
  -2  -7   7   34.05    2.50
  -2  -7   7   34.96    3.65
  -2   7   7   25.46    3.64
   2  -7  -7   25.57    3.73
   2   7  -7   22.32    1.09
  -3  -7   6    2.42    1.11
  -3  -7   6    1.50    1.55
  -3   7   6   35.04    3.51
   3  -7  -6   39.71    3.69
   3   7  -6    0.93    0.69
   3   7  -6    2.59    0.85
  -4  -7   5  363.68    7.16
  -4  -7   5  355.53    9.71
  -4   7   5    1.17    1.35
   4  -7  -5    0.77    1.27
   4   7  -5  343.15    6.02
   4   7  -5  329.25    5.99
  -5  -7   4    1.57    1.08
  -5   7   4    0.83    1.33
  -5   7   4    1.29    1.29
   5  -7  -4    0.09    1.10
   5   7  -4    1.38    0.95
  -6  -7   3   21.07    2.30
  -6   7   3  331.54    8.59
  -6   7   3  291.03    7.96
   6  -7  -3  296.43    8.24
   6   7  -3   19.36    2.18
   6   7  -3   20.92    2.20
  -7  -7   2   50.95    3.44
  -7   7   2   40.77    3.20
  -7   7   2   39.35    3.18
   7  -7  -2   40.38    3.18
   7   7  -2   46.17    3.22
   7   7  -2   54.77    3.41
  -8  -7   1   61.03    3.92
  -8  -7   1   52.45    1.32
  -8   7   1    3.64    1.43
  -8   7   1    2.26    1.31
   8  -7  -1    2.71    1.40
   8  -7  -1    2.92    1.01
   8   7  -1   53.92    3.69
   8   7  -1   63.45    3.95
  -9  -7   0    1.51    1.36
  -9  -7   0    0.74    0.62
  -9   7   0   -0.81    0.83
  -9   7   0    0.02    1.01
   9  -7   0    1.01    1.20
   9  -7   0   -0.28    0.60
   9   7   0   -0.24    1.09
 -10  -7  -1   30.51    3.48
 -10  -7  -1   26.43    2.05
 -10   7  -1   49.86    3.35
 -10   7  -1   55.32    3.58
  10  -7   1   56.62    3.78
  10   7   1   30.80    3.43
 -11  -7  -2   47.48    4.25
 -11  -7  -2   41.95    2.90
 -11   7  -2 1138.16   14.78
 -11   7  -2 1207.48   15.43
  11  -7   2 1226.30   16.69
  11  -7   2 1173.84   18.95
  11   7   2   39.23    3.94
 -12  -7  -3   77.42    5.60
 -12  -7  -3   66.25    4.03
 -12   7  -3    2.43    1.44
  12  -7   3    3.06    1.57
  12  -7   3    2.91    1.74
  12   7   3   72.94    5.44
 -13  -7  -4   19.92    3.72
 -13  -7  -4   20.96    3.10
 -13   7  -4   -0.06    1.24
  13  -7   4    1.52    1.89
  13   7   4   20.57    3.95
 -14  -7  -5  130.88    7.96
 -14   7  -5   -0.08    1.24
  14   7   5  125.05    7.96
   1  -9  10   -0.43    1.63
   1   9  10   16.65    3.81
  -1  -9 -10   18.79    3.95
   0  -9   9   35.62    4.28
   0   9   9   30.89    4.56
   0  -9  -9   31.15    4.62
  -1  -9   8   37.65    4.17
  -1   9   8    6.30    2.41
   1  -9  -8    6.50    2.36
  -2  -9   7   16.41    3.16
  -2  -9   7   15.30    2.43
  -2   9   7   68.89    5.17
   2  -9  -7   81.61    5.68
  -3  -9   6 1662.18   14.59
  -3  -9   6 1603.45   22.25
  -3  -9   6 1398.55   15.99
  -3   9   6   23.88    3.60
   3  -9  -6   21.56    3.46
  -4  -9   5   11.15    1.77
  -4  -9   5   10.43    2.50
  -4  -9   5   10.04    1.65
  -4   9   5   73.53    4.93
   4  -9  -5   66.69    4.65
   4   9  -5   10.74    1.30
   4   9  -5    8.41    1.21
  -5  -9   4    0.71    1.04
  -5  -9   4    0.64    0.75
  -5   9   4  196.50    7.30
   5  -9  -4  188.34    7.29
   5   9  -4    0.74    0.91
  -6  -9   3   28.33    2.72
  -6  -9   3   26.35    1.51
  -6   9   3   13.67    2.51
   6  -9  -3   14.17    2.54
   6   9  -3   20.84    2.23
   6   9  -3   27.22    2.43
  -7  -9   2   15.10    2.42
  -7   9   2  547.99   10.93
  -7   9   2  671.79   12.30
   7  -9  -2  620.11   12.10
   7   9  -2   12.55    2.11
   7   9  -2   18.55    2.52
  -8  -9   1  567.43   11.88
  -8   9   1   69.14    4.00
  -8   9   1   80.34    4.32
   8  -9  -1   84.10    4.60
   8   9  -1  476.02   10.59
   8   9  -1  626.03   11.91
  -9  -9   0   -0.36    1.31
  -9  -9   0    0.15    0.69
  -9   9   0    1.13    1.05
  -9   9   0    0.45    1.11
   9  -9   0    0.93    1.26
   9   9   0   -1.40    1.01
 -10  -9  -1   16.70    3.02
 -10  -9  -1   12.38    1.74
 -10   9  -1    1.33    1.23
  10  -9   1    0.43    1.30
  10  -9   1    0.54    0.59
  10   9   1   13.46    2.83
 -11  -9  -2    7.12    2.45
 -11  -9  -2    5.58    1.49
 -11   9  -2   41.21    3.09
  11  -9   2   37.80    3.34
  11  -9   2   35.93    3.93
  11   9   2    4.04    2.05
 -12  -9  -3    3.31    2.06
 -12  -9  -3    6.46    1.82
 -12   9  -3  357.96    8.14
  12  -9   3  374.52   12.08
  12   9   3    3.02    2.19
 -13  -9  -4    4.79    2.38
 -13   9  -4    0.21    1.15
  13  -9   4   -0.70    1.53
  13   9   4    3.39    2.30
 -14  -9  -5    2.77    2.45
 -14   9  -5    0.09    1.17
  14   9   5    6.47    2.77
   0 -11   9    3.04    2.24
   0  11   9    0.98    2.20
   0 -11  -9    2.31    2.29
  -1 -11   8    3.71    2.08
  -1 -11   8    3.76    1.79
  -1  11   8   -1.36    1.60
   1 -11  -8    0.12    1.75
  -2 -11   7  126.08    6.97
  -2 -11   7  109.43    5.43
  -2  11   7    9.26    2.76
   2 -11  -7   11.42    3.10
  -3 -11   6   36.47    4.06
  -3 -11   6   34.40    2.95
  -3  11   6  232.72    9.22
   3 -11  -6  232.58    9.25
  -4 -11   5   -0.16    0.96
  -4 -11   5    0.54    0.97
  -4  11   5   33.60    3.65
   4 -11  -5   31.78    3.73
   4  11  -5    0.34    0.46
  -5 -11   4   12.54    2.07
  -5 -11   4    9.95    1.57
  -5  11   4   66.51    4.64
   5 -11  -4   56.06    4.53
   5  11  -4   12.16    1.66
   5  11  -4    9.72    1.55
   5  11  -4   11.92    1.62
  -6 -11   3    2.21    1.35
  -6 -11   3    1.66    0.84
  -6  11   3   28.24    3.17
   6 -11  -3   27.62    3.29
   6  11  -3    0.80    1.05
  -7 -11   2 1155.28   16.66
  -7  11   2   44.08    3.58
   7 -11  -2   38.49    3.49
   7  11  -2  897.01   13.81
  -8 -11   1   24.48    3.42
  -8  11   1  197.35    6.76
   8 -11  -1  186.61    6.98
   8  11  -1   18.46    2.82
  -9 -11   0   -0.79    1.26
  -9  11   0   -0.15    1.13
   9 -11   0    0.04    1.32
   9  11   0    0.32    1.36
 -10 -11  -1   52.95    4.64
 -10 -11  -1   39.41    2.72
 -10  11  -1    4.07    1.52
  10 -11   1    5.17    1.79
  10  11   1   42.38    4.09
 -11 -11  -2   18.68    3.60
 -11  11  -2   18.99    2.27
  11  11   2    8.70    2.68
 -12 -11  -3   36.63    4.47
 -12  11  -3   -0.30    1.02
  12  11   3   29.30    4.46
 -13 -11  -4    0.60    2.15
 -13  11  -4   -0.95    0.85
  13  11   4    1.95    2.16
  -1 -13   8   19.13    3.80
  -1 -13   8   16.01    3.09
  -1  13   8    2.10    2.11
   1 -13  -8    3.45    2.31
  -2 -13   7    0.65    1.89
  -2 -13   7    0.55    1.44
  -2  13   7    1.41    1.96
   2 -13  -7    5.63    2.50
  -3 -13   6    6.50    2.54
  -3 -13   6    6.43    1.86
  -3  13   6   18.42    3.51
   3 -13  -6   17.63    3.50
  -4 -13   5   14.91    2.28
  -4  13   5  120.45    6.76
   4 -13  -5  131.55    7.22
  -5 -13   4    1.58    1.11
  -5  13   4    3.64    1.91
   5 -13  -4    4.24    2.11
   5  13  -4    1.06    0.90
  -6 -13   3  235.01    5.93
  -6  13   3    0.74    1.43
   6 -13  -3   -0.73    1.34
   6  13  -3  146.14    5.23
  -7 -13   2   11.52    2.55
  -7  13   2   55.57    4.11
   7 -13  -2   53.91    4.36
   7  13  -2    9.94    2.16
  -8 -13   1   71.02    4.99
  -8  13   1   49.45    3.76
   8 -13  -1   46.67    3.97
   8  13  -1   61.60    4.35
  -9 -13   0    1.05    1.74
  -9  13   0   -1.29    1.00
   9  13   0   -1.25    1.17
 -10 -13  -1    7.02    2.54
 -10  13  -1    9.41    1.92
  10  13   1    3.47    1.98
 -11 -13  -2  138.52    8.00
 -11  13  -2   26.22    2.31
  11  13   2  116.25    7.09
 -12 -13  -3   10.84    3.32
 -12  13  -3    9.67    1.32
  12  13   3    8.07    3.00
  -2 -15   7    2.30    2.14
  -2  15   7    1.60    2.16
   2 -15  -7    1.91    2.19
  -3 -15   6   49.96    5.15
  -3  15   6    8.91    2.84
   3 -15  -6    8.88    3.01
  -4  15   5    7.55    2.59
   4 -15  -5    8.88    2.89
  -5  15   4    1.94    1.81
   5 -15  -4    2.69    2.12
   5  15  -4    0.60    0.76
  -6  15   3   14.02    2.92
  -6  15   3   14.00    2.93
   6  15  -3    0.78    1.12
  -7  15   2   20.13    3.12
   7  15  -2    9.29    2.15
  -8  15   1    2.12    1.55
   8  15  -1    3.51    1.74
  -9  15   0    0.38    1.28
   9  15   0    0.34    1.51
 -10 -15  -1   66.38    5.78
 -10  15  -1  110.95    4.43
  10  15   1   50.97    4.84
  -6  17   3   69.22    5.24
   6  17  -3   29.41    2.60
  -7  17   2    6.73    2.25
   7  17  -2   38.35    3.47
  -1   0 -11   11.14    2.57
   0   0  10    1.89    1.69
   0   0 -10    0.00    1.32
  -1   0   9   61.05    4.40
   1   0  -9   61.52    4.17
   1   0  -9   58.40    4.49
  -2   0   8   33.54    3.28
   2   0  -8   27.38    2.90
   2   0  -8   28.69    3.02
   2   0  -8   24.98    2.78
  -3   0   7    1.33    1.23
   3   0  -7   -0.36    0.99
   3   0  -7   -0.07    1.06
  -4   0   6   66.90    3.91
  -4   0   6   69.50    4.29
   4   0  -6   66.67    3.86
   4   0  -6   65.48    3.77
  -5   0   5  355.09    8.32
  -5   0   5  373.18    8.49
  -5   0   5  323.29    8.30
   5   0  -5  370.67    8.24
   5   0  -5  354.04    8.18
  -6   0   4  117.78    4.85
  -6   0   4  117.66    4.81
  -6   0   4  109.97    4.64
   6   0  -4  110.01    4.68
   6   0  -4  113.82    4.73
  -7   0   3    5.87    1.56
  -7   0   3    4.95    1.53
  -7   0   3    6.72    1.56
   7   0  -3    7.98    1.75
   7   0  -3    7.59    1.80
   7   0  -3    7.34    1.54
  -8   0   2  394.05    8.68
  -8   0   2  369.84    8.50
  -8   0   2  363.81    7.11
   8   0  -2  365.43    8.44
   8   0  -2  404.81    8.74
  -9   0   1  225.01    6.79
  -9   0   1  204.95    6.59
  -9   0   1  210.88    5.09
   9   0  -1  213.07    6.73
   9   0  -1  226.99    6.83
 -10   0   0  728.33   12.51
 -10   0   0  713.08   12.60
 -10   0   0  693.49    8.53
  10   0   0  700.45   12.54
  10   0   0  660.67    9.55
 -11   0  -1    0.36    1.29
 -11   0  -1    0.28    0.64
  11   0   1   -0.39    1.10
  11   0   1    0.20    0.81
 -12   0  -2   35.07    3.51
  12   0   2   32.34    3.48
  12   0   2   30.83    2.85
 -13   0  -3   20.06    3.13
  13   0   3   17.82    3.27
  13   0   3   17.66    2.75
 -14   0  -4   33.76    3.81
  14   0   4   39.28    4.15
  14   0   4   33.44    3.63
 -15   0  -5   33.92    3.98
  15   0   5   32.43    4.62
 -16   0  -6   13.12    3.13
  -1  -2 -11    7.84    2.43
  -1   2 -11  140.82    6.02
   0   2  10   10.38    2.71
   0  -2 -10   11.81    2.69
   0   2 -10   15.27    2.54
  -1  -2   9    0.18    1.23
  -1   2   9  142.24    6.81
   1  -2  -9  132.88    6.36
   1   2  -9    0.37    1.11
   1   2  -9    0.93    1.24
  -2  -2   8  110.80    5.12
  -2  -2   8  106.62    5.91
  -2   2   8   92.06    5.22
   2  -2  -8   93.58    5.19
   2   2  -8   91.97    4.37
   2   2  -8  113.27    4.83
   2   2  -8  100.77    5.12
  -3  -2   7   49.36    3.41
  -3  -2   7   52.01    4.04
  -3   2   7    0.40    1.20
   3  -2  -7   -0.08    1.08
   3   2  -7   41.53    3.05
   3   2  -7   49.94    3.23
   3   2  -7   42.27    3.11
  -4  -2   6   33.00    2.81
  -4  -2   6   32.88    2.69
  -4  -2   6   30.16    3.09
  -4   2   6   18.48    2.73
   4  -2  -6   24.06    2.81
   4  -2  -6   15.39    2.46
   4   2  -6   29.81    2.59
   4   2  -6   35.56    2.82
   4   2  -6   25.00    2.18
  -5  -2   5    2.95    1.32
  -5  -2   5    1.26    1.25
  -5   2   5   -0.50    1.00
   5  -2  -5    0.99    1.14
   5  -2  -5    0.92    1.20
   5   2  -5    2.31    1.17
   5   2  -5    2.55    1.20
   5   2  -5    2.60    0.93
  -6  -2   4   59.88    3.50
  -6  -2   4   53.76    3.48
  -6   2   4 2300.64   20.99
  -6   2   4 2277.29   21.21
   6  -2  -4 2330.82   21.06
   6  -2  -4 2241.18   20.99
   6  -2  -4 2211.29   19.55
   6   2  -4   60.88    3.47
   6   2  -4   58.23    3.42
  -7  -2   3    2.68    1.25
  -7  -2   3    2.41    1.33
  -7  -2   3    1.79    1.13
  -7   2   3    1.41    1.19
  -7   2   3    1.90    1.32
  -7   2   3    0.95    0.93
   7  -2  -3    2.07    1.21
   7  -2  -3    1.08    1.21
   7  -2  -3    1.08    0.99
   7   2  -3    3.34    1.28
   7   2  -3    2.33    1.28
   7   2  -3    3.78    1.30
  -8  -2   2   15.81    2.32
  -8  -2   2   17.09    2.44
  -8  -2   2   16.09    1.97
  -8   2   2   66.44    3.81
  -8   2   2   74.68    4.12
  -8   2   2   57.97    2.91
   8  -2  -2   75.65    4.06
   8  -2  -2   64.42    3.79
   8  -2  -2   76.21    4.05
   8  -2  -2   65.85    3.08
   8   2  -2   15.48    2.29
   8   2  -2   17.23    2.38
   8   2  -2   15.22    1.00
  -9  -2   1  413.44    9.29
  -9  -2   1  410.66    9.37
  -9   2   1    4.72    1.55
  -9   2   1    3.53    1.47
  -9   2   1    3.04    0.94
   9  -2  -1    4.67    1.53
   9   2  -1  411.10    9.38
   9   2  -1  445.34    9.58
   9   2  -1  374.26    5.24
 -10  -2   0   40.65    3.49
 -10   2   0   68.63    4.01
 -10   2   0   68.77    4.13
 -10   2   0   55.00    2.12
  10  -2   0   63.57    3.97
  10  -2   0   63.38    3.45
  10   2   0   41.78    3.41
  10   2   0   39.49    2.23
 -11  -2  -1   -0.03    1.24
 -11   2  -1  260.81    7.87
  11  -2   1  223.62    7.42
  11  -2   1  264.76    7.39
  11   2   1    1.01    1.31
  11   2   1    0.36    0.78
 -12  -2  -2   33.43    3.50
 -12   2  -2   22.54    3.10
  12  -2   2   27.81    3.11
  12  -2   2   23.43    2.65
  12   2   2   30.45    3.41
  12   2   2   29.23    2.66
 -13  -2  -3  103.33    5.96
 -13   2  -3   13.07    2.58
  13  -2   3   13.93    2.81
  13  -2   3   14.71    2.70
  13   2   3  109.10    6.28
 -14  -2  -4  484.91   13.12
 -14   2  -4   14.55    2.83
  14  -2   4   18.89    3.36
  14  -2   4   14.68    2.90
  14   2   4  480.79   13.36
 -15  -2  -5    3.75    2.07
 -15   2  -5   46.49    4.31
  15  -2   5   49.37    4.80
  15  -2   5   38.80    4.29
  15   2   5    4.23    2.43
 -16  -2  -6    3.40    2.16
 -16   2  -6    1.35    1.82
  16   2   6    5.04    2.63
   1   4  11    2.20    2.23
  -1  -4 -11    2.34    1.88
  -1   4 -11    5.53    1.57
   0   4  10    5.14    2.33
   0  -4 -10    6.38    2.27
   0   4 -10    5.68    1.54
  -1  -4   9    2.14    1.41
  -1  -4   9    0.21    1.49
  -1   4   9   21.78    3.52
   1  -4  -9   21.13    3.38
   1   4  -9    3.28    1.30
   1   4  -9    3.82    1.69
  -2  -4   8    1.61    1.24
  -2  -4   8   -0.20    1.39
  -2   4   8  789.12   15.50
   2  -4  -8  870.49   16.03
   2   4  -8    0.23    0.95
   2   4  -8    1.15    1.18
  -3  -4   7  510.93    9.62
  -3  -4   7  460.70    9.13
  -3  -4   7  474.17   11.61
  -3   4   7    0.54    1.31
   3  -4  -7    0.21    1.25
   3   4  -7  452.29    8.28
   3   4  -7  411.73    8.92
  -4  -4   6   14.80    2.15
  -4  -4   6   16.21    2.75
  -4   4   6   12.54    2.40
   4  -4  -6    8.51    2.09
   4   4  -6   14.83    1.81
   4   4  -6   15.76    1.93
   4   4  -6   14.91    1.71
  -5  -4   5    3.29    1.30
  -5  -4   5    3.53    1.54
  -5   4   5    7.25    1.93
   5  -4  -5    6.63    1.85
   5   4  -5    3.68    1.20
   5   4  -5    4.06    1.28
   5   4  -5    3.31    0.91
  -6  -4   4   24.11    2.38
  -6  -4   4   21.34    2.53
  -6   4   4    2.77    1.44
  -6   4   4    2.77    1.35
   6  -4  -4    1.94    1.28
   6  -4  -4    2.12    1.37
   6  -4  -4    1.74    1.11
   6   4  -4   21.07    2.24
   6   4  -4   22.75    2.30
   6   4  -4   20.77    1.17
  -7  -4   3   18.40    2.30
  -7  -4   3   16.67    2.49
  -7   4   3  337.04    8.34
  -7   4   3  344.94    8.56
   7  -4  -3  320.24    8.24
   7  -4  -3  304.01    6.89
   7   4  -3   17.08    2.36
   7   4  -3   15.71    2.18
  -8  -4   2   16.18    2.37
  -8   4   2   84.90    4.29
  -8   4   2   80.71    4.25
   8  -4  -2   85.26    4.38
   8  -4  -2   80.36    3.34
   8   4  -2   14.13    2.23
   8   4  -2   14.52    2.23
  -9  -4   1    4.24    1.68
  -9   4   1   23.84    2.68
  -9   4   1   21.95    2.60
   9  -4  -1   21.60    2.51
   9  -4  -1   22.38    1.69
   9   4  -1    5.25    1.72
   9   4  -1    6.25    1.71
 -10  -4   0   26.70    2.94
 -10   4   0    3.75    1.43
 -10   4   0    3.92    1.54
  10  -4   0    2.19    1.31
  10   4   0   27.55    3.08
 -11  -4  -1    1.64    1.47
 -11   4  -1   75.03    4.33
 -11   4  -1   79.69    4.47
  11  -4   1   72.83    4.43
  11  -4   1   69.41    4.22
  11   4   1    0.31    1.29
 -12  -4  -2   16.83    3.00
 -12  -4  -2   16.20    2.25
 -12   4  -2    7.65    1.98
 -12   4  -2    5.68    1.83
  12  -4   2    9.22    2.25
  12  -4   2    5.73    1.79
  12   4   2   15.45    2.94
 -13  -4  -3  137.20    7.13
 -13  -4  -3  139.22    5.78
 -13   4  -3    5.51    1.90
  13  -4   3    7.62    2.24
  13  -4   3    6.48    2.10
  13   4   3  141.80    7.24
 -14  -4  -4   26.27    4.03
 -14  -4  -4   33.92    3.50
 -14   4  -4   14.34    2.72
  14  -4   4   16.72    3.16
  14  -4   4   17.39    3.23
  14   4   4   34.06    4.70
 -15  -4  -5    8.76    2.84
 -15   4  -5    2.00    1.69
  15  -4   5    2.32    2.02
  15   4   5    9.76    3.12
   1   6  11    1.40    2.09
  -1  -6 -11    0.04    1.70
   0  -6  10   -0.21    1.79
   0   6  10    0.84    1.74
   0  -6 -10    1.49    1.87
  -1  -6   9   26.10    3.87
  -1   6   9    6.55    2.39
   1  -6  -9    5.03    2.15
   1   6  -9   33.05    1.90
   1   6  -9   33.26    3.49
  -2  -6   8  252.65    6.68
  -2  -6   8  251.30    9.23
  -2   6   8    1.53    1.72
   2  -6  -8    1.50    1.65
   2   6  -8  175.71    4.17
   2   6  -8  256.14    5.10
   2   6  -8  227.17    7.48
  -3  -6   7   48.51    3.07
  -3  -6   7   51.47    4.23
  -3   6   7  239.25    8.66
   3  -6  -7  246.51    8.74
   3   6  -7   31.93    2.13
   3   6  -7   47.17    2.53
   3   6  -7   47.32    3.21
  -4  -6   6    1.53    1.06
  -4  -6   6    0.47    1.29
  -4   6   6   56.07    4.22
   4  -6  -6   59.74    4.43
   4   6  -6    1.41    0.96
  -5  -6   5   14.29    2.06
  -5  -6   5   14.78    2.59
  -5   6   5    4.05    1.77
   5  -6  -5    3.19    1.66
   5   6  -5   13.27    1.85
  -6  -6   4   34.51    2.79
  -6  -6   4   34.13    3.24
  -6   6   4   31.48    3.20
  -6   6   4   29.70    2.99
   6  -6  -4   32.00    3.17
   6   6  -4   35.75    2.62
   6   6  -4   31.81    2.52
   6   6  -4   35.15    2.59
  -7  -6   3  371.63    8.50
  -7   6   3   13.57    2.37
  -7   6   3   15.55    2.44
  -7   6   3   18.24    2.70
   7  -6  -3   16.36    2.54
   7  -6  -3   14.50    2.08
   7   6  -3  345.94    7.98
   7   6  -3  359.66    7.99
  -8  -6   2    3.81    1.45
  -8   6   2    9.19    1.95
  -8   6   2    7.75    1.85
   8  -6  -2    5.91    1.68
   8  -6  -2    6.43    1.41
   8   6  -2    2.62    1.35
   8   6  -2    4.51    1.52
  -9  -6   1   35.40    3.30
  -9   6   1   11.26    2.12
  -9   6   1   11.22    2.12
   9  -6  -1   11.06    2.13
   9  -6  -1    9.31    1.38
   9   6  -1   35.58    3.26
 -10  -6   0   22.02    3.25
 -10  -6   0   20.03    1.43
 -10   6   0   18.40    2.65
 -10   6   0   17.16    2.59
  10  -6   0   17.35    2.64
  10  -6   0   17.98    1.22
  10   6   0   16.57    2.82
 -11  -6  -1   47.80    4.21
 -11  -6  -1   42.55    2.53
 -11   6  -1  150.19    5.81
 -11   6  -1  149.08    5.88
  11  -6   1  156.67    6.28
  11   6   1   38.92    3.86
 -12  -6  -2   32.21    3.72
 -12  -6  -2   33.07    2.68
 -12   6  -2   32.27    3.16
  12  -6   2   35.89    3.45
  12  -6   2   33.78    3.63
  12   6   2   30.36    3.74
 -13  -6  -3   -0.89    1.54
 -13  -6  -3    1.38    1.24
 -13   6  -3  214.54    7.29
  13  -6   3  228.18    8.11
  13  -6   3  223.82    8.90
  13   6   3    0.49    1.83
 -14  -6  -4   43.97    4.67
 -14  -6  -4   48.30    4.02
 -14   6  -4   10.33    2.27
  14  -6   4    9.91    2.75
  14   6   4   51.02    5.08
 -15  -6  -5   -2.06    1.69
 -15   6  -5   20.27    3.05
  15   6   5    0.23    1.90
   0  -8  10   10.68    3.07
   0   8  10    6.15    2.73
   0  -8 -10    5.76    2.62
  -1  -8   9  279.23   10.33
  -1   8   9   30.19    4.45
   1  -8  -9   22.84    3.86
  -2  -8   8   -0.43    1.42
  -2   8   8    1.96    1.77
   2  -8  -8    0.93    1.62
  -3  -8   7   44.83    2.87
  -3  -8   7   45.65    4.22
  -3   8   7    9.24    2.59
   3  -8  -7    5.96    2.13
   3   8  -7   27.95    1.17
  -4  -8   6    9.34    1.74
  -4  -8   6    9.88    2.50
  -4   8   6    5.32    2.10
   4  -8  -6    4.07    1.81
   4   8  -6    7.27    1.21
   4   8  -6    9.72    1.37
  -5  -8   5    1.76    1.17
  -5  -8   5    0.74    1.39
  -5   8   5  177.34    7.28
   5  -8  -5  166.59    7.04
   5   8  -5    3.37    1.05
   5   8  -5    2.36    1.07
  -6  -8   4  777.38   11.95
  -6   8   4    0.79    1.28
   6  -8  -4    0.67    1.26
   6   8  -4  698.68   10.52
  -7  -8   3  101.77    4.75
  -7   8   3    0.27    1.14
  -7   8   3    0.64    1.26
   7  -8  -3    0.27    1.26
   7   8  -3   85.97    4.18
   7   8  -3  104.33    4.55
  -8  -8   2   11.73    2.22
  -8   8   2   15.61    2.46
  -8   8   2   10.21    2.09
   8  -8  -2   13.21    2.36
   8   8  -2   10.59    2.10
   8   8  -2   12.31    2.24
  -9  -8   1   85.85    5.02
  -9   8   1  486.77   10.28
  -9   8   1  557.91   11.18
   9  -8  -1  567.80   11.62
   9  -8  -1  443.96    7.50
   9   8  -1   77.06    4.63
 -10  -8   0  208.96    7.92
 -10  -8   0  208.36    4.16
 -10   8   0   -0.51    0.99
 -10   8   0    0.29    1.15
  10  -8   0    0.84    1.31
  10  -8   0    0.28    0.64
  10   8   0  203.51    7.74
 -11  -8  -1  202.00    8.31
 -11  -8  -1  177.06    4.84
 -11   8  -1   26.51    2.79
  11  -8   1   28.22    3.09
  11   8   1  178.72    7.70
 -12  -8  -2    3.80    2.05
 -12  -8  -2    1.01    1.15
 -12   8  -2    8.93    2.06
  12  -8   2   12.84    2.59
  12  -8   2    7.56    2.35
  12   8   2    1.70    1.83
 -13  -8  -3   31.09    4.46
 -13  -8  -3   33.69    3.16
 -13   8  -3    5.28    1.74
  13  -8   3    6.08    2.36
  13   8   3   26.01    4.25
 -14  -8  -4    0.19    1.84
 -14   8  -4  147.99    5.93
  14   8   4    2.65    2.25
 -15  -8  -5   12.77    3.49
 -15   8  -5   -1.50    1.13
  15   8   5   18.97    4.22
   0 -10  10    1.41    2.14
   0  10  10    4.65    2.55
   0 -10 -10    2.27    2.31
  -1 -10   9    3.70    2.26
  -1  10   9    7.38    2.70
   1 -10  -9    6.12    2.50
  -2 -10   8    6.61    2.49
  -2  10   8   24.13    4.02
   2 -10  -8   21.64    3.96
  -3 -10   7    4.75    2.08
  -3 -10   7    4.41    1.57
  -3  10   7    1.04    1.81
   3 -10  -7    3.06    1.98
  -4 -10   6    3.05    1.87
  -4 -10   6    3.23    1.31
  -4  10   6   47.20    4.35
   4 -10  -6   44.83    4.30
  -5 -10   5  208.29    6.13
  -5 -10   5  197.05    8.20
  -5 -10   5  176.24    4.89
  -5  10   5  821.46   16.03
   5 -10  -5  796.47   15.97
   5  10  -5  188.11    4.56
   5  10  -5  145.20    4.12
  -6 -10   4   19.87    2.43
  -6 -10   4   18.81    1.56
  -6  10   4   14.31    2.76
   6 -10  -4   10.77    2.55
   6  10  -4   15.46    2.07
  -7 -10   3  151.08    5.98
  -7 -10   3  133.32    2.85
  -7  10   3   21.19    3.11
   7 -10  -3   18.67    3.05
   7  10  -3  116.40    4.92
   7  10  -3  161.84    5.67
  -8 -10   2   20.80    3.06
  -8 -10   2   19.81    1.07
  -8  10   2    1.40    1.29
  -8  10   2    1.21    1.35
   8 -10  -2    1.57    1.48
   8  10  -2   20.18    2.87
  -9 -10   1    1.10    1.49
  -9 -10   1    1.02    0.59
  -9  10   1   14.14    2.41
   9 -10  -1   15.30    2.68
   9  10  -1    0.51    1.33
 -10 -10   0  227.38    8.64
 -10 -10   0  176.69    4.25
 -10  10   0  231.24    7.26
  10 -10   0  228.51    7.74
  10 -10   0  176.33    4.64
  10  10   0  187.94    7.72
 -11 -10  -1    3.27    1.97
 -11 -10  -1    4.73    1.28
 -11  10  -1   58.54    3.82
  11 -10   1   60.59    4.22
  11  10   1    3.96    2.07
 -12 -10  -2   38.88    4.51
 -12  10  -2   12.46    2.21
  12 -10   2   15.82    3.35
  12  10   2   36.68    4.22
 -13 -10  -3    4.74    2.47
 -13  10  -3    6.08    1.72
  13  10   3    6.61    2.60
 -14 -10  -4    0.03    1.96
 -14  10  -4  120.26    4.88
  14  10   4   -0.32    1.86
  -1 -12   9    0.62    1.84
  -1  12   9  101.02    7.43
   1 -12  -9  109.62    7.74
  -2 -12   8    1.96    2.04
  -2 -12   8   -0.27    1.36
  -2  12   8    0.68    1.99
   2 -12  -8   -0.43    1.70
  -3 -12   7   -1.11    1.47
  -3 -12   7    0.60    1.25
  -3  12   7   38.95    4.44
   3 -12  -7   40.88    4.65
  -4 -12   6    1.67    1.92
  -4 -12   6   -0.10    1.05
  -4  12   6    0.03    1.60
   4 -12  -6    1.85    1.76
  -5 -12   5    6.60    1.52
  -5  12   5    3.29    1.94
   5 -12  -5    4.60    2.10
   5  12  -5    4.16    0.98
  -6 -12   4  125.00    4.06
  -6  12   4  286.61    9.62
   6 -12  -4  258.54    9.36
   6  12  -4   87.75    3.82
  -7 -12   3    3.29    1.66
  -7 -12   3    3.60    0.97
  -7  12   3   66.60    4.68
  -7  12   3   75.96    4.95
   7 -12  -3   68.56    4.94
   7  12  -3    1.91    1.27
  -8 -12   2   13.29    2.68
  -8  12   2    2.51    1.65
   8 -12  -2    2.97    1.71
   8  12  -2    9.62    2.15
  -9 -12   1  190.31    7.85
  -9  12   1   -0.07    1.19
   9 -12  -1    0.48    1.33
   9  12  -1  154.26    6.80
 -10 -12   0    1.10    1.68
 -10  12   0   26.82    2.92
  10  12   0    1.87    1.67
 -11 -12  -1   24.17    4.01
 -11  12  -1  186.29    6.33
  11  12   1   21.12    3.73
 -12 -12  -2    1.36    2.09
 -12  12  -2    0.91    1.26
  12  12   2    0.81    1.95
 -13 -12  -3   12.28    3.54
 -13  12  -3    9.01    1.77
  13  12   3    5.86    2.80
  -3 -14   7   86.90    6.52
  -3  14   7    0.33    1.84
   3 -14  -7    1.01    1.92
  -4 -14   6    1.61    2.03
  -4  14   6    0.33    1.79
   4 -14  -6    1.07    1.83
  -5  14   5    2.76    1.91
   5 -14  -5    3.03    2.04
  -6  14   4   39.36    4.14
   6 -14  -4   40.39    4.41
   6  14  -4    7.15    1.52
  -7  14   3  312.03    9.97
  -7  14   3  351.99   10.62
   7 -14  -3  308.53   10.45
   7  14  -3   13.56    2.29
  -8  14   2   10.61    2.47
   8  14  -2    2.79    1.64
  -9  14   1    6.79    2.07
   9  14  -1    2.41    1.68
 -10 -14   0   45.18    4.73
 -10  14   0    4.40    1.71
  10  14   0   38.61    4.09
 -11 -14  -1   37.13    5.18
 -11  14  -1   20.92    2.55
  11  14   1   28.12    4.34
 -12 -14  -2   31.83    5.06
 -12  14  -2    3.80    1.39
  12  14   2   29.65    4.67
  -5  16   5    7.89    2.66
   5 -16  -5    6.69    2.82
  -6  16   4    4.20    2.22
   6  16  -4    0.51    0.95
  -7  16   3    2.65    1.87
  -7  16   3    3.42    1.92
   7  16  -3   32.54    2.97
  -8  16   2   15.80    2.99
   8  16  -2    3.46    1.83
  -9  16   1    2.72    1.69
   9  16  -1   35.74    3.81
   0  -1 -11   10.70    2.67
   0   1 -11    6.28    2.10
  -1  -1  10   75.43    5.08
  -1   1  10   78.72    5.44
   1  -1 -10   75.11    4.97
   1   1 -10   89.44    4.99
  -2  -1   9  156.81    6.65
  -2   1   9    0.42    1.43
   2  -1  -9   -0.76    1.19
   2  -1  -9   -0.61    1.03
   2   1  -9  167.80    6.46
   2   1  -9  162.73    6.96
  -3  -1   8   15.61    2.64
  -3   1   8    2.61    1.61
   3  -1  -8    1.41    1.32
   3   1  -8   17.13    2.61
   3   1  -8   18.07    2.71
  -4  -1   7    5.44    1.74
  -4  -1   7    3.89    1.75
  -4   1   7   52.31    3.94
   4  -1  -7   55.64    3.94
   4   1  -7    5.42    1.67
   4   1  -7    4.21    1.57
   4   1  -7    5.57    1.49
  -5  -1   6    4.27    1.58
  -5  -1   6    2.43    1.37
  -5  -1   6    3.45    1.59
  -5   1   6  185.52    6.65
   5  -1  -6  184.71    6.51
   5  -1  -6  185.58    6.56
   5   1  -6    3.59    1.46
   5   1  -6    2.83    1.39
  -6  -1   5    0.15    0.99
  -6  -1   5    0.57    1.14
  -6   1   5   17.06    2.55
  -6   1   5   22.99    2.61
  -6   1   5   22.17    2.69
   6  -1  -5   20.75    2.50
   6  -1  -5   23.66    2.67
   6   1  -5    0.52    0.94
   6   1  -5   -0.04    1.06
  -7  -1   4   29.13    2.73
  -7  -1   4   31.00    2.80
  -7   1   4   26.55    2.81
  -7   1   4   22.85    2.45
   7  -1  -4   24.13    2.62
   7   1  -4   34.87    2.88
   7   1  -4   31.09    2.78
  -8  -1   3   12.55    2.24
  -8  -1   3   10.51    1.91
  -8   1   3  303.60    7.97
  -8   1   3  313.75    8.19
  -8   1   3  285.37    6.90
   8  -1  -3  369.26    8.75
   8  -1  -3  309.59    8.14
   8  -1  -3  322.22    7.23
   8   1  -3   13.64    2.23
   8   1  -3   10.62    2.09
   8   1  -3   11.30    2.07
  -9  -1   2   12.17    2.20
  -9  -1   2    9.64    1.73
  -9   1   2   24.94    2.84
  -9   1   2   20.33    2.53
  -9   1   2   17.18    1.87
   9  -1  -2   20.03    2.78
   9   1  -2    9.72    2.05
   9   1  -2   11.84    2.26
 -10  -1   1  152.16    6.14
 -10  -1   1  142.27    4.64
 -10   1   1    5.55    1.71
 -10   1   1    5.88    1.81
 -10   1   1    5.27    1.18
  10  -1  -1    4.91    1.70
  10   1  -1  140.46    5.92
  10   1  -1  140.48    3.88
 -11  -1   0    1.02    1.34
 -11  -1   0   -0.22    0.72
 -11   1   0    1.38    1.33
 -11   1   0    0.81    0.72
  11  -1   0    0.01    1.23
  11  -1   0    1.14    0.91
  11   1   0    0.63    1.33
  11   1   0    0.44    0.77
 -12  -1  -1  477.79   11.53
 -12   1  -1  155.62    6.54
 -12   1  -1  148.12    3.40
  12  -1   1  170.38    6.98
  12  -1   1  157.96    5.76
  12   1   1  485.80   11.71
  12   1   1  444.21    8.86
 -13  -1  -2   46.80    4.23
 -13   1  -2 1026.40   17.13
 -13   1  -2 1013.51    7.05
  13  -1   2 1114.18   18.22
  13  -1   2 1008.61   15.64
  13   1   2   46.44    4.17
  13   1   2   40.43    3.20
 -14  -1  -3   18.38    3.39
 -14   1  -3    3.16    1.80
  14  -1   3    6.41    2.24
  14  -1   3    4.36    1.75
  14   1   3   23.90    3.70
  14   1   3   23.61    3.23
 -15  -1  -4    1.66    1.81
 -15   1  -4   23.00    3.68
  15  -1   4   24.45    3.91
  15  -1   4   20.92    3.44
  15   1   4    2.57    2.14
 -16  -1  -5   20.02    3.72
 -16   1  -5    2.74    1.96
  16  -1   5    0.92    1.86
  16  -1   5    1.58    1.74
  16   1   5   18.24    3.76
   0   3  11   -0.87    1.48
   0  -3 -11   -0.38    1.40
   0   3 -11    0.70    1.31
  -1   3  10    1.53    1.81
   1  -3 -10    1.76    1.69
   1   3 -10  340.71    8.48
  -2  -3   9   12.35    2.39
  -2  -3   9   12.76    2.91
  -2   3   9    0.67    1.53
   2  -3  -9    0.96    1.50
   2   3  -9   15.28    2.34
   2   3  -9   13.59    2.56
  -3  -3   8   22.05    2.69
  -3  -3   8   22.38    3.42
  -3   3   8   18.21    3.13
   3  -3  -8   19.09    3.07
   3   3  -8   25.31    2.56
   3   3  -8   19.24    2.68
  -4  -3   7    0.55    1.17
  -4  -3   7    0.96    1.18
  -4  -3   7    0.80    1.33
  -4   3   7  387.92   10.35
   4  -3  -7  381.58   10.14
   4   3  -7    0.84    1.04
   4   3  -7   -0.02    0.99
   4   3  -7    0.62    0.96
  -5  -3   6    6.31    1.70
  -5  -3   6    4.22    1.71
  -5   3   6   18.28    2.84
   5  -3  -6   20.13    2.89
   5   3  -6    7.45    1.66
   5   3  -6    6.68    1.65
   5   3  -6    5.49    1.26
  -6  -3   5  359.67    8.38
  -6  -3   5  349.15    9.15
  -6   3   5   20.82    2.98
   6  -3  -5   21.83    2.97
   6  -3  -5   19.04    2.75
   6   3  -5  362.75    8.08
   6   3  -5  365.25    8.22
   6   3  -5  310.03    5.55
  -7  -3   4   47.30    3.34
  -7  -3   4   51.18    3.59
  -7   3   4   24.48    2.75
   7  -3  -4   21.37    2.59
   7   3  -4   53.74    3.47
   7   3  -4   50.65    3.36
   7   3  -4   41.85    1.63
  -8  -3   3   59.03    3.78
  -8  -3   3   53.72    3.60
  -8   3   3   12.02    2.20
  -8   3   3   14.09    2.37
   8  -3  -3   12.69    2.26
   8  -3  -3   13.27    1.95
   8   3  -3   56.98    3.70
   8   3  -3   64.98    3.78
  -9  -3   2    0.45    1.14
  -9  -3   2    0.86    1.01
  -9   3   2  602.32   11.38
  -9   3   2  642.53   11.94
   9  -3  -2  644.33   12.04
   9  -3  -2  633.25    9.01
   9   3  -2    0.78    1.15
   9   3  -2    1.08    1.18
 -10  -3   1   12.66    2.35
 -10   3   1   11.54    2.17
 -10   3   1   13.10    2.34
  10  -3  -1   12.31    2.31
  10   3  -1   10.82    2.28
 -11  -3   0   -0.28    1.20
 -11   3   0    0.01    1.14
  11  -3   0    1.00    1.37
  11  -3   0    0.11    0.92
  11   3   0    0.71    1.32
 -12  -3  -1   66.70    4.78
 -12   3  -1   41.84    3.62
  12  -3   1   46.24    3.80
  12  -3   1   39.18    3.30
  12   3   1   69.91    4.90
 -13  -3  -2   47.10    4.27
 -13   3  -2    1.88    1.51
  13  -3   2    0.90    1.55
  13  -3   2    2.88    1.56
  13   3   2   44.14    4.22
 -14  -3  -3    0.11    1.63
 -14   3  -3  191.28    7.65
  14  -3   3  205.46    8.28
  14  -3   3  185.27    7.74
  14   3   3    1.16    1.84
 -15  -3  -4    0.71    1.65
 -15   3  -4    0.22    1.37
  15  -3   4    1.01    1.82
  15  -3   4   -0.40    1.39
  15   3   4    1.26    1.83
 -16  -3  -5   79.15    6.24
 -16   3  -5   20.10    3.51
  16  -3   5   18.95    3.70
  16   3   5   81.67    6.58
   0   5  11   53.21    5.39
   0  -5 -11   53.99    5.11
   0   5 -11   77.52    3.41
  -1  -5  10    1.17    1.92
  -1   5  10    1.74    1.84
   1  -5 -10    0.59    1.71
   1   5 -10    1.36    1.11
  -2  -5   9   -0.37    1.51
  -2   5   9    3.28    2.06
   2  -5  -9    1.81    1.63
   2   5  -9    0.71    1.01
   2   5  -9    0.29    1.16
  -3  -5   8    1.18    1.21
  -3  -5   8    0.69    1.19
  -3  -5   8    1.94    1.67
  -3   5   8    5.51    2.12
   3  -5  -8    4.35    1.94
   3   5  -8    0.99    1.04
   3   5  -8    0.41    1.01
  -4  -5   7   11.63    2.08
  -4  -5   7   14.34    2.80
  -4   5   7   40.54    3.91
   4  -5  -7   35.92    3.62
   4   5  -7   10.64    1.82
   4   5  -7   11.14    1.87
  -5  -5   6  743.05   11.70
  -5  -5   6  699.16   13.98
  -5   5   6  586.17   12.76
   5  -5  -6  556.65   12.37
   5   5  -6  718.39   10.61
   5   5  -6  714.48   10.74
   5   5  -6  669.35    9.39
  -6  -5   5    5.10    1.50
  -6  -5   5    3.94    1.71
  -6   5   5   11.77    2.38
   6  -5  -5   10.47    2.28
   6   5  -5    4.55    1.38
   6   5  -5    3.76    1.33
   6   5  -5    4.99    0.93
  -7  -5   4    0.55    1.10
  -7  -5   4    1.30    1.26
  -7   5   4    0.54    1.33
  -7   5   4   -0.02    1.10
   7  -5  -4    1.54    1.33
   7   5  -4    2.04    1.15
   7   5  -4    0.84    1.07
   7   5  -4    0.74    1.05
  -8  -5   3   40.82    3.20
  -8  -5   3   40.06    3.35
  -8   5   3   13.45    2.43
  -8   5   3   14.46    2.50
   8  -5  -3   12.68    2.34
   8  -5  -3   15.13    2.13
   8   5  -3   32.61    2.83
   8   5  -3   36.64    2.96
  -9  -5   2   27.00    2.87
  -9   5   2   37.14    3.30
   9  -5  -2   34.63    3.17
   9  -5  -2   29.45    2.27
   9   5  -2   23.23    2.65
   9   5  -2   30.38    2.93
 -10  -5   1  372.26    9.80
 -10   5   1  310.43    8.57
  10  -5  -1  281.21    8.27
  10  -5  -1  305.30    5.44
  10   5  -1  362.34    9.59
 -11  -5   0    0.90    1.39
 -11   5   0    0.48    1.16
  11  -5   0    0.38    1.25
  11   5   0    1.53    1.44
 -12  -5  -1   91.08    5.60
 -12   5  -1    5.36    1.79
 -12   5  -1    3.65    1.62
  12  -5   1    4.84    1.83
  12  -5   1    4.12    1.66
  12   5   1   98.30    5.84
 -13  -5  -2    3.90    2.00
 -13   5  -2    2.56    1.63
  13  -5   2    2.39    1.73
  13  -5   2    2.66    1.59
  13   5   2    3.41    1.95
 -14  -5  -3    0.51    1.73
 -14  -5  -3    1.02    1.37
 -14   5  -3   39.07    3.78
  14  -5   3   41.24    4.07
  14  -5   3   44.79    4.25
  14   5   3    2.47    1.93
 -15  -5  -4    2.41    2.03
 -15   5  -4    0.14    1.41
  15  -5   4    2.08    1.81
  15   5   4    3.91    2.41
 -16  -5  -5   12.97    3.43
 -16   5  -5   -0.86    1.45
  16   5   5   12.85    3.63
   0  -7  11   12.86    3.37
   0   7  11    9.80    3.24
   0  -7 -11   10.42    3.05
  -1  -7  10    1.62    1.90
  -1   7  10  138.43    7.99
   1  -7 -10  152.33    8.23
  -2  -7   9   11.88    2.96
  -2   7   9    1.23    1.94
   2  -7  -9    2.81    1.93
   2   7  -9   10.66    2.35
  -3  -7   8   10.71    2.73
  -3   7   8    1.07    1.77
   3  -7  -8    1.81    1.82
   3   7  -8   13.40    1.46
  -4  -7   7  196.13    5.96
  -4  -7   7  192.75    8.12
  -4   7   7   75.21    5.31
   4  -7  -7   67.99    5.06
   4   7  -7  147.61    4.23
   4   7  -7  185.22    4.77
  -5  -7   6    4.30    1.48
  -5  -7   6    3.35    1.77
  -5   7   6   13.35    2.89
   5  -7  -6   17.55    3.09
   5   7  -6    4.78    1.36
  -6  -7   5   33.43    2.81
  -6  -7   5   35.02    3.54
  -6   7   5  345.72    9.96
   6  -7  -5  328.31    9.72
   6   7  -5   31.44    2.55
  -7  -7   4   50.25    3.51
  -7  -7   4   43.32    3.80
  -7   7   4   44.17    3.84
  -7   7   4   42.34    3.66
   7  -7  -4   41.24    3.63
   7   7  -4   51.09    3.30
   7   7  -4   40.73    3.01
   7   7  -4   52.79    3.40
  -8  -7   3    0.82    1.16
  -8   7   3   94.73    5.06
   8  -7  -3   92.96    5.07
   8   7  -3   -0.04    1.04
   8   7  -3   -0.21    0.98
  -9  -7   2  728.93   13.42
  -9   7   2   15.69    2.62
   9  -7  -2   13.85    2.48
   9  -7  -2   13.56    1.93
   9   7  -2  647.62   12.37
 -10  -7   1   35.15    3.54
 -10   7   1   49.45    3.76
 -10   7   1   49.31    3.74
  10  -7  -1   52.27    3.87
  10  -7  -1   46.44    2.51
  10   7  -1   29.16    3.15
 -11  -7   0    0.43    1.49
 -11   7   0    0.02    1.17
  11  -7   0   -0.45    1.07
  11   7   0    0.48    1.43
 -12  -7  -1    6.28    2.28
 -12  -7  -1    6.40    1.35
 -12   7  -1    7.80    2.06
  12  -7   1    8.16    2.19
  12   7   1    7.14    2.31
 -13  -7  -2   58.71    5.15
 -13  -7  -2   54.66    3.37
 -13   7  -2   13.97    2.61
  13  -7   2   13.75    2.75
  13  -7   2   14.50    2.95
  13   7   2   54.94    5.00
 -14  -7  -3  378.36   12.66
 -14   7  -3   21.45    3.13
  14  -7   3   22.34    3.77
  14   7   3  349.11   12.20
 -15  -7  -4    2.74    2.24
 -15   7  -4   30.55    3.38
  15   7   4    2.21    2.18
  -1  -9  10   20.59    4.04
  -1   9  10    2.87    2.23
   1  -9 -10   -0.08    1.87
  -2  -9   9    6.87    2.58
  -2   9   9   27.98    4.52
   2  -9  -9   28.50    4.53
  -3  -9   8    0.66    1.73
  -3   9   8    2.70    2.16
   3  -9  -8    7.49    2.54
  -4  -9   7   45.57    4.42
  -4   9   7   14.53    3.08
   4  -9  -7   10.91    2.90
   4   9  -7   30.55    1.39
  -5  -9   6    5.66    1.59
  -5  -9   6    5.40    2.13
  -5   9   6    3.88    1.97
   5  -9  -6    2.19    1.76
   5   9  -6    3.96    1.10
   5   9  -6    3.11    1.09
  -6  -9   5    4.14    1.57
  -6  -9   5    4.55    2.04
  -6   9   5  187.95    7.74
   6  -9  -5  173.90    7.58
   6   9  -5    4.26    1.32
  -7  -9   4   35.01    3.15
  -7   9   4    3.77    1.84
   7  -9  -4    4.09    1.89
   7   9  -4   29.52    2.69
  -8  -9   3  320.81    8.83
  -8   9   3   24.02    2.95
   8  -9  -3   21.36    3.17
   8   9  -3  295.94    8.08
   8   9  -3  339.54    8.49
  -9  -9   2    0.60    1.30
  -9   9   2    1.32    1.42
   9  -9  -2    0.22    1.28
   9   9  -2   -0.07    1.20
   9   9  -2    0.76    1.28
 -10  -9   1   17.46    3.11
 -10   9   1    0.64    1.34
  10  -9  -1    0.17    1.38
  10  -9  -1    0.78    0.91
  10   9  -1   11.93    2.48
 -11  -9   0    0.27    1.46
 -11  -9   0    0.08    0.62
 -11   9   0    0.99    1.41
  11  -9   0   -0.23    1.38
  11  -9   0   -0.23    0.68
  11   9   0   -0.74    1.19
 -12  -9  -1    0.27    1.74
 -12  -9  -1    0.15    0.84
 -12   9  -1  195.80    6.97
  12  -9   1  204.55    7.67
  12   9   1   -0.03    1.51
 -13  -9  -2  263.88   10.55
 -13   9  -2    8.00    2.09
  13  -9   2   10.77    2.82
  13   9   2  274.73   10.63
 -14  -9  -3    2.86    2.28
 -14   9  -3    7.83    2.06
  14   9   3    2.76    2.19
 -15  -9  -4    7.70    3.13
 -15   9  -4    4.46    1.76
  15   9   4    8.63    3.27
  -2 -11   9  115.71    7.35
  -2  11   9   46.56    5.32
   2 -11  -9   43.50    4.99
  -3 -11   8    0.78    1.97
  -3  11   8   -0.06    1.59
   3 -11  -8    0.94    1.78
  -4 -11   7   37.64    4.31
  -4  11   7    2.37    2.05
   4 -11  -7    1.91    1.97
  -5 -11   6   56.48    4.99
  -5 -11   6   53.99    3.16
  -5  11   6    1.45    1.77
   5 -11  -6    0.60    1.71
   5  11  -6   42.49    1.81
  -6 -11   5   28.13    2.04
  -6  11   5   72.14    5.19
   6 -11  -5   63.11    4.97
   6  11  -5   26.92    2.23
  -7 -11   4   29.15    3.10
  -7 -11   4   22.73    1.49
  -7  11   4    2.39    1.68
   7 -11  -4    1.94    1.66
   7  11  -4   21.01    2.41
  -8 -11   3    4.21    1.77
  -8  11   3  112.99    5.95
   8 -11  -3  105.58    5.97
   8  11  -3    2.94    1.48
  -9 -11   2   38.11    3.79
  -9  11   2    7.91    2.19
   9 -11  -2    6.86    2.18
   9  11  -2   32.23    3.29
 -10 -11   1   54.49    4.64
 -10  11   1    4.50    1.77
  10 -11  -1    3.43    1.84
  10  11  -1   50.84    4.26
 -11 -11   0    0.05    1.54
 -11  11   0    0.71    1.26
  11 -11   0    1.36    1.66
  11  11   0   -1.21    1.33
 -12 -11  -1  187.70    8.81
 -12  11  -1   26.05    2.93
  12  11   1  158.04    8.02
 -13 -11  -2   21.71    4.12
 -13  11  -2  162.81    6.09
  13  11   2   21.90    3.98
 -14 -11  -3  117.72    7.86
 -14  11  -3   38.13    3.18
  14  11   3  105.70    7.51
  -3 -13   8    3.05    2.28
  -3  13   8    3.92    2.43
   3 -13  -8    3.08    2.38
  -4 -13   7    0.31    1.89
  -4  13   7   98.73    6.82
   4 -13  -7  104.24    7.09
  -5 -13   6    1.45    2.11
  -5  13   6   -0.50    1.65
   5 -13  -6    0.23    1.78
  -6  13   5    8.99    2.64
   6 -13  -5    8.91    2.69
   6  13  -5  138.30    4.03
  -7  13   4   18.27    3.34
  -7  13   4   20.71    3.48
   7 -13  -4   18.26    3.42
   7  13  -4    0.96    1.19
  -8  13   3   29.68    3.55
   8 -13  -3   29.13    4.07
   8  13  -3    2.61    1.49
  -9 -13   2    9.00    2.55
  -9  13   2  292.55    9.31
   9 -13  -2  284.87    9.76
   9  13  -2    5.46    1.94
 -10 -13   1    7.15    2.53
 -10  13   1    8.37    2.20
  10  13  -1    4.86    2.08
 -11 -13   0   -0.09    1.71
 -11  13   0   -0.84    1.23
  11  13   0    0.20    1.58
 -12 -13  -1    9.20    3.14
 -12  13  -1    8.15    2.02
  12  13   1    7.27    2.66
 -13 -13  -2   30.90    5.07
 -13  13  -2   31.59    2.92
  13  13   2   21.78    4.13
  -5 -15   6  259.27   11.24
  -5  15   6  100.22    6.93
   5 -15  -6  107.86    7.29
  -6  15   5   -1.55    1.36
   6 -15  -5    0.25    1.66
  -7  15   4    3.26    2.10
  -7  15   4    3.74    2.10
   7 -15  -4    5.09    2.36
   7  15  -4   22.19    2.36
  -8  15   3   -0.53    1.43
   8  15  -3    7.30    1.99
  -9  15   2  128.08    6.47
   9  15  -2    1.50    1.54
 -10  15   1  101.97    5.55
  10  15  -1   49.88    4.48
 -11  15   0    0.08    1.41
  11  15   0    1.44    1.91
   1   0 -11   13.16    2.84
  -2   0  10   11.86    2.74
   2   0 -10   15.33    2.83
  -3   0   9    6.36    2.12
   3   0  -9    4.81    1.80
   3   0  -9    4.65    1.75
  -4   0   8    2.35    1.60
   4   0  -8    3.09    1.52
   4   0  -8    2.75    1.51
   4   0  -8    1.76    1.35
  -5   0   7  602.63   12.31
  -5   0   7  570.34   12.85
   5   0  -7  580.06   11.77
  -6   0   6   19.86    2.94
  -6   0   6   22.85    2.81
  -6   0   6   19.38    2.95
   6   0  -6   20.74    2.58
   6   0  -6   15.96    2.55
  -7   0   5   10.29    2.21
  -7   0   5   11.31    2.20
   7   0  -5   12.99    2.24
   7   0  -5    9.05    1.96
  -8   0   4    0.46    1.17
  -8   0   4    0.53    1.05
   8   0  -4    0.06    1.05
   8   0  -4   -0.32    1.15
  -9   0   3    3.77    1.60
  -9   0   3    2.18    1.20
   9   0  -3    1.42    1.39
 -10   0   2   63.29    4.23
 -10   0   2   56.96    3.21
  10   0  -2   60.88    4.17
 -11   0   1    0.97    1.46
 -11   0   1   -0.26    0.81
  11   0  -1    0.34    1.24
  11   0  -1    0.88    0.82
 -12   0   0   20.82    3.12
 -12   0   0   19.02    1.87
  12   0   0   16.62    2.96
  12   0   0   16.64    2.01
 -13   0  -1   -0.58    1.23
 -13   0  -1   -0.49    0.68
  13   0   1    0.06    1.37
  13   0   1    2.72    1.30
 -14   0  -2    1.94    1.71
 -14   0  -2    1.95    0.83
  14   0   2    1.17    1.72
  14   0   2    3.45    1.56
 -15   0  -3  345.17   11.13
  15   0   3  341.50   11.32
  15   0   3  330.97    9.89
 -16   0  -4   -0.16    1.56
  16   0   4    0.53    1.98
  16   0   4    0.18    1.50
 -17   0  -5    0.97    1.89
  -1   2  11  116.78    7.05
   1  -2 -11  118.82    6.69
   1   2 -11    7.07    2.10
  -2   2  10    3.93    2.16
   2  -2 -10    4.89    2.14
   2   2 -10    6.82    1.88
  -3  -2   9    1.77    1.51
  -3   2   9   12.87    2.85
   3  -2  -9   13.25    2.71
   3   2  -9    0.89    1.23
   3   2  -9    1.08    1.27
  -4  -2   8 1111.04   16.50
  -4  -2   8 1118.99   19.01
  -4   2   8    0.97    1.56
   4  -2  -8   -0.24    1.25
   4   2  -8 1087.10   15.48
   4   2  -8  986.04   14.95
  -5  -2   7   61.65    4.00
  -5  -2   7   62.19    4.07
  -5  -2   7   63.62    4.56
  -5   2   7   35.65    3.46
   5  -2  -7   35.97    3.49
   5   2  -7   62.51    3.89
   5   2  -7   63.90    3.92
   5   2  -7   49.83    3.19
  -6  -2   6   43.65    3.43
  -6  -2   6   42.45    3.76
  -6   2   6   -0.69    1.25
   6  -2  -6    2.87    1.52
   6   2  -6   41.50    3.28
   6   2  -6   40.06    3.12
   6   2  -6   35.27    2.41
  -7  -2   5   10.08    2.10
  -7  -2   5    8.50    2.02
  -7   2   5    2.78    1.44
  -7   2   5    4.36    1.69
   7  -2  -5    5.69    1.79
   7  -2  -5    4.40    1.72
   7   2  -5   12.59    2.21
   7   2  -5   10.72    2.10
  -8  -2   4   60.62    3.95
  -8  -2   4   55.77    3.81
  -8   2   4   15.09    2.52
  -8   2   4   13.99    2.24
   8  -2  -4   10.77    2.22
   8   2  -4   61.15    3.89
   8   2  -4   57.15    3.78
  -9  -2   3  370.26    9.27
  -9  -2   3  356.26    8.48
  -9   2   3  121.08    5.51
  -9   2   3  103.75    4.36
   9  -2  -3  119.91    5.50
   9  -2  -3  133.62    4.85
   9   2  -3  384.96    9.27
   9   2  -3  373.84    9.26
   9   2  -3  410.28    9.56
 -10  -2   2    0.69    1.31
 -10  -2   2    0.85    1.01
 -10   2   2   20.55    2.90
 -10   2   2   18.03    2.73
 -10   2   2   17.11    1.96
  10  -2  -2   17.62    2.73
  10   2  -2    0.93    1.24
  10   2  -2    3.34    1.55
  10   2  -2    0.91    0.57
 -11  -2   1    0.93    1.41
 -11  -2   1   -0.29    0.85
 -11   2   1  259.88    8.23
 -11   2   1  234.91    5.25
  11  -2  -1  269.49    8.40
  11   2  -1    0.46    1.35
  11   2  -1    0.61    0.66
 -12  -2   0  146.33    6.62
 -12   2   0  140.64    6.28
 -12   2   0  108.27    3.13
  12  -2   0  124.19    6.00
  12  -2   0  138.14    5.39
  12   2   0  145.96    6.63
  12   2   0  136.35    4.37
 -13  -2  -1    0.50    1.47
 -13   2  -1   16.73    2.98
  13  -2   1   16.15    2.95
  13  -2   1   16.47    2.60
  13   2   1    2.13    1.69
  13   2   1    1.18    1.04
 -14  -2  -2   25.63    3.88
 -14   2  -2   24.96    3.59
  14  -2   2   26.63    3.81
  14  -2   2   24.75    3.04
  14   2   2   22.77    3.71
 -15  -2  -3   33.97    4.03
 -15   2  -3    8.66    2.48
  15  -2   3    6.79    2.40
  15  -2   3    8.85    2.41
  15   2   3   36.29    4.40
 -16  -2  -4   16.17    3.47
 -16   2  -4  144.61    7.40
  16  -2   4  159.66    8.10
  16  -2   4  143.68    7.48
  16   2   4   17.92    3.70
  -1   4  11    5.00    2.52
   1  -4 -11    5.23    2.45
   1   4 -11    3.45    1.50
  -2  -4  10   -0.41    1.53
  -2   4  10    3.41    2.15
   2  -4 -10    1.59    1.74
   2   4 -10    0.91    1.24
  -3  -4   9  205.32    7.24
  -3  -4   9  200.31    7.05
  -3  -4   9  198.03    8.66
  -3   4   9    2.35    1.75
   3  -4  -9    0.62    1.62
   3   4  -9  199.18    6.26
   3   4  -9  191.72    7.23
  -4  -4   8    8.43    2.07
  -4  -4   8    9.69    2.06
  -4  -4   8    6.16    2.32
  -4   4   8    9.25    2.45
   4  -4  -8    8.70    2.31
   4   4  -8    8.95    1.83
   4   4  -8    8.43    1.83
  -5  -4   7   55.68    3.72
  -5  -4   7   48.07    4.14
  -5   4   7    8.23    2.28
   5  -4  -7    8.35    2.25
   5   4  -7   48.27    3.31
   5   4  -7   54.16    3.46
   5   4  -7   44.60    2.95
  -6  -4   6   79.78    4.31
  -6  -4   6   75.91    4.83
  -6   4   6   -0.46    1.23
   6  -4  -6   -1.18    1.23
   6   4  -6   76.50    3.99
   6   4  -6   74.32    4.02
   6   4  -6   62.23    2.90
  -7  -4   5    1.35    1.26
  -7  -4   5   -0.33    1.19
  -7   4   5  307.90    9.06
   7  -4  -5  314.85    9.17
   7   4  -5    0.55    1.04
   7   4  -5    0.58    1.13
   7   4  -5    0.79    0.59
  -8  -4   4  599.27   11.47
  -8  -4   4  572.91   11.82
  -8   4   4    1.70    1.45
   8  -4  -4    1.57    1.38
   8   4  -4  646.40   11.56
   8   4  -4  553.93   10.83
   8   4  -4  651.93   11.58
  -9  -4   3   15.46    2.51
  -9  -4   3   15.10    2.44
  -9   4   3   24.02    2.83
   9  -4  -3   18.42    2.79
   9  -4  -3   22.23    2.31
   9   4  -3   15.88    2.50
   9   4  -3   20.43    2.79
 -10  -4   2    2.93    1.58
 -10   4   2    6.23    1.85
  10  -4  -2    4.44    1.68
  10  -4  -2    7.47    1.42
  10   4  -2    5.02    1.80
 -11  -4   1    1.08    1.54
 -11   4   1   66.77    4.42
  11  -4  -1   63.96    4.32
  11   4  -1    1.38    1.43
 -12  -4   0   15.97    2.97
 -12   4   0  586.61   12.42
  12  -4   0  567.36   12.47
  12   4   0   18.02    3.18
 -13  -4  -1  153.06    7.36
 -13   4  -1   49.68    4.06
  13  -4   1   52.86    4.23
  13  -4   1   50.46    3.90
  13   4   1  144.47    7.16
 -14  -4  -2   31.33    3.87
 -14   4  -2    5.82    2.02
  14  -4   2    7.14    2.36
  14  -4   2    5.18    1.98
  14   4   2   31.61    3.91
 -15  -4  -3    2.15    1.93
 -15   4  -3    7.52    2.28
  15  -4   3    8.68    2.64
  15  -4   3    7.15    2.40
  15   4   3    3.14    2.21
 -16  -4  -4   24.52    4.19
 -16   4  -4   28.53    4.02
  16  -4   4   33.77    4.20
  16   4   4   25.29    4.51
  -1  -6  11    1.62    2.20
  -1   6  11   -0.48    1.83
   1  -6 -11    0.66    1.80
   1   6 -11    0.41    0.83
  -2  -6  10    3.36    2.09
  -2   6  10    1.31    2.07
   2  -6 -10    2.14    1.99
   2   6 -10    1.77    1.04
  -3  -6   9    4.10    2.12
  -3   6   9  265.95   10.29
   3  -6  -9  290.43   10.56
   3   6  -9    4.66    1.33
   3   6  -9    5.71    1.82
  -4  -6   8   47.33    3.44
  -4  -6   8   52.31    4.76
  -4   6   8   11.20    2.83
   4  -6  -8    7.85    2.42
   4   6  -8   45.71    2.90
   4   6  -8   41.68    3.22
  -5  -6   7   37.04    3.10
  -5  -6   7   26.09    3.71
  -5   6   7   22.22    3.49
   5  -6  -7   20.58    3.35
   5   6  -7   33.73    2.62
   5   6  -7   30.93    2.47
  -6  -6   6   24.05    2.63
  -6  -6   6   22.01    3.31
  -6   6   6   20.42    3.27
   6  -6  -6   15.93    2.87
   6   6  -6   22.21    2.36
  -7  -6   5  432.09    9.59
  -7  -6   5  425.43   11.13
  -7   6   5   32.03    3.49
   7  -6  -5   26.73    3.16
   7   6  -5  456.77    9.26
   7   6  -5  404.88    8.85
  -8  -6   4    1.31    1.32
  -8  -6   4    0.51    1.31
  -8   6   4  719.89   13.96
   8  -6  -4  669.20   13.52
   8   6  -4    0.59    1.15
   8   6  -4    0.33    1.10
   8   6  -4    1.22    1.19
  -9  -6   3   18.59    2.84
  -9   6   3   25.80    3.08
   9  -6  -3   28.23    3.12
   9   6  -3   18.33    2.76
   9   6  -3   22.99    2.81
 -10  -6   2   11.24    2.47
 -10   6   2   20.01    2.98
  10  -6  -2   21.53    3.12
  10  -6  -2   20.99    2.10
  10   6  -2    9.08    2.14
 -11  -6   1   47.39    4.04
 -11   6   1  133.87    5.99
  11  -6  -1  136.97    6.28
  11  -6  -1  142.69    3.86
  11   6  -1   41.26    3.78
 -12  -6   0 1557.88   22.30
 -12   6   0   30.73    3.26
  12  -6   0   29.22    3.33
  12   6   0 1471.76   21.51
 -13  -6  -1    8.85    2.63
 -13   6  -1  155.77    6.66
  13  -6   1  167.30    7.20
  13  -6   1  154.05    7.04
  13   6   1    6.59    2.39
 -14  -6  -2    4.63    2.30
 -14   6  -2   21.19    3.20
  14  -6   2   24.74    3.62
  14  -6   2   23.40    3.56
  14   6   2    3.97    2.28
 -15  -6  -3   14.48    3.48
 -15   6  -3   -0.55    1.43
  15  -6   3   -0.88    1.42
  15   6   3   14.11    3.52
 -16  -6  -4    5.12    2.72
 -16   6  -4    0.30    1.60
  16   6   4    5.42    2.74
  -2  -8  10    5.00    2.48
  -2   8  10    0.41    1.93
   2  -8 -10   -0.31    1.76
  -3  -8   9   18.38    3.69
  -3   8   9   -0.01    1.75
   3  -8  -9    2.59    2.00
  -4  -8   8   33.99    4.17
  -4   8   8  376.79   12.12
   4  -8  -8  401.90   12.44
   4   8  -8   35.04    2.07
  -5  -8   7    7.00    1.79
  -5  -8   7    9.05    2.57
  -5   8   7    4.91    2.23
   5  -8  -7    2.08    1.78
   5   8  -7    8.26    1.49
   5   8  -7    6.71    1.44
  -6  -8   6   46.31    3.37
  -6  -8   6   46.66    4.30
  -6   8   6    7.44    2.32
   6  -8  -6   11.82    2.76
   6   8  -6   43.26    2.89
  -7  -8   5   37.31    3.20
  -7  -8   5   36.54    3.84
  -7   8   5    0.11    1.49
   7  -8  -5   -0.73    1.24
   7   8  -5   32.42    2.79
  -8  -8   4    1.87    1.42
  -8   8   4    3.37    1.80
  -8   8   4    2.98    1.66
   8  -8  -4    2.14    1.59
   8   8  -4    3.57    1.40
   8   8  -4    1.98    1.31
   8   8  -4    3.28    1.41
  -9  -8   3   29.62    3.10
  -9   8   3  303.20    9.29
   9  -8  -3  279.62    9.08
   9   8  -3   22.02    2.74
   9   8  -3   33.55    3.21
 -10  -8   2    3.28    1.79
 -10   8   2   20.78    3.12
  10  -8  -2   22.61    3.28
  10   8  -2    1.33    1.37
 -11  -8   1  202.39    8.14
 -11   8   1   22.60    3.22
  11  -8  -1   23.48    3.40
  11  -8  -1   22.42    2.00
  11   8  -1  186.53    7.60
 -12  -8   0   76.92    5.54
 -12   8   0    2.58    1.59
  12  -8   0    1.25    1.53
  12   8   0   70.95    5.22
 -13  -8  -1   48.63    4.84
 -13   8  -1   85.47    5.01
  13  -8   1   91.16    5.51
  13  -8   1   83.21    5.65
  13   8   1   45.30    4.60
 -14  -8  -2   12.12    3.13
 -14   8  -2    5.44    1.94
  14  -8   2    5.48    2.25
  14   8   2   10.61    3.01
 -15  -8  -3    1.56    2.17
 -15   8  -3   11.28    2.46
  15   8   3   -1.67    1.60
  -2 -10  10    1.62    2.22
  -2  10  10    6.12    2.78
   2 -10 -10    8.32    3.05
  -3 -10   9   -0.17    1.89
  -3  10   9    5.41    2.76
   3 -10  -9    6.51    2.65
  -4 -10   8    4.56    2.43
  -4  10   8    0.81    1.75
   4 -10  -8    1.95    2.00
  -5 -10   7   93.75    6.32
  -5  10   7  144.94    7.75
   5 -10  -7  140.22    7.60
   5  10  -7   71.68    2.34
  -6 -10   6    1.45    1.81
  -6  10   6   33.69    4.03
   6 -10  -6   38.37    4.26
   6  10  -6   -0.26    0.87
  -7 -10   5   23.72    2.84
  -7 -10   5   23.22    3.78
  -7  10   5   14.95    3.07
   7 -10  -5   16.68    3.18
   7  10  -5   23.33    2.43
  -8 -10   4   38.14    3.56
  -8  10   4    2.37    1.67
  -8  10   4    1.97    1.73
   8 -10  -4    3.37    1.80
   8  10  -4   33.79    3.04
  -9 -10   3   14.33    2.75
  -9  10   3   29.99    3.35
   9 -10  -3   30.06    3.60
   9  10  -3   12.42    2.44
 -10 -10   2   47.39    4.25
 -10  10   2   47.21    3.90
  10 -10  -2   37.54    3.73
  10  10  -2   34.31    3.51
 -11 -10   1    5.47    2.26
 -11  10   1   55.26    4.17
  11 -10  -1   60.41    4.65
  11  10  -1    2.94    1.80
 -12 -10   0   26.95    4.10
 -12  10   0    0.67    1.48
  12 -10   0    1.41    1.64
  12  10   0   20.20    3.51
 -13 -10  -1    6.78    2.66
 -13  10  -1    6.98    2.07
  13  10   1    7.42    2.56
 -14 -10  -2   17.98    3.87
 -14  10  -2    4.74    1.84
  14  10   2   20.32    4.00
 -15 -10  -3  103.14    7.49
 -15  10  -3   86.41    4.90
  15  10   3   92.42    7.19
  -4 -12   8  247.16   10.71
  -4  12   8   20.18    4.08
   4 -12  -8   16.38    3.77
  -5 -12   7    2.28    2.09
  -5  12   7    0.73    1.77
   5 -12  -7    2.46    2.02
  -6 -12   6   13.73    3.24
  -6  12   6    2.68    2.05
   6 -12  -6    4.63    2.34
   6  12  -6   10.14    1.39
  -7  12   5    5.05    2.31
   7 -12  -5    6.01    2.42
   7  12  -5    2.79    1.28
  -8  12   4    2.98    1.88
  -8  12   4    4.68    2.19
   8 -12  -4    6.46    2.39
   8  12  -4   31.70    2.97
  -9 -12   3  355.51   10.41
  -9  12   3    5.54    2.12
   9 -12  -3    3.27    2.04
   9  12  -3  292.59    8.75
 -10 -12   2   11.00    2.79
 -10  12   2   41.69    3.92
  10 -12  -2   43.40    4.25
  10  12  -2    9.59    2.46
 -11 -12   1   25.32    3.99
 -11  12   1  191.40    7.50
  11  12  -1   21.32    3.51
 -12 -12   0   33.63    4.77
 -12  12   0   32.37    3.41
  12  12   0   26.88    4.09
 -13 -12  -1   11.47    3.28
 -13  12  -1   13.83    2.64
  13  12   1    9.09    2.84
 -14 -12  -2    4.27    2.66
 -14  12  -2   32.60    3.17
  14  12   2    1.63    2.15
  -5 -14   7   15.76    3.73
  -5  14   7    2.75    2.32
   5 -14  -7    3.12    2.35
  -6 -14   6   -1.08    1.75
  -6  14   6    1.09    1.87
   6 -14  -6    0.99    1.92
  -7  14   5  108.03    6.81
   7 -14  -5  109.96    7.12
   7  14  -5    0.71    1.02
  -8  14   4    1.47    1.77
  -8  14   4    1.18    1.78
   8 -14  -4    2.29    2.09
   8  14  -4   94.63    4.65
  -9  14   3    2.58    1.84
   9  14  -3    3.56    1.79
 -10  14   2   16.06    3.00
  10  14  -2    3.57    1.82
 -11  14   1   17.94    3.08
  11  14  -1   29.81    4.14
 -12 -14   0    0.86    1.91
 -12  14   0  203.78    7.46
  12  14   0    3.28    2.17
   2  -1 -11    6.31    2.27
   2   1 -11  133.86    6.41
  -3  -1  10    0.87    1.63
  -3   1  10  307.46   10.43
   3  -1 -10  307.22    9.94
   3   1 -10    1.49    1.42
  -4  -1   9   26.14    3.61
  -4   1   9    2.20    1.78
   4  -1  -9    1.55    1.52
   4   1  -9   26.25    3.05
   4   1  -9   26.99    3.06
  -5  -1   8   19.78    3.06
  -5  -1   8   14.44    2.93
  -5   1   8    0.85    1.52
   5  -1  -8    0.29    1.33
   5   1  -8   16.94    2.79
   5   1  -8    9.76    2.01
  -6  -1   7    6.47    1.99
  -6  -1   7    6.12    1.93
  -6  -1   7    6.38    2.10
  -6   1   7   67.96    4.71
   6  -1  -7   61.10    4.33
   6   1  -7    4.01    1.62
  -7  -1   6  791.69   13.98
  -7  -1   6  762.77   14.41
  -7   1   6   68.28    4.57
  -7   1   6   74.81    4.72
  -7   1   6   66.86    4.55
   7  -1  -6   71.29    4.55
   7   1  -6  779.33   13.63
  -8  -1   5    1.13    1.37
  -8  -1   5    1.11    1.35
  -8   1   5  442.85   10.67
  -8   1   5  399.96    9.77
   8  -1  -5  442.59   10.60
   8   1  -5    2.28    1.40
  -9  -1   4    3.58    1.70
  -9  -1   4    3.34    1.42
  -9   1   4   41.34    3.54
  -9   1   4   37.24    3.15
   9  -1  -4   41.11    3.52
   9   1  -4    4.35    1.64
 -10  -1   3    1.16    1.36
 -10  -1   3    1.42    1.14
 -10   1   3   11.32    2.42
 -10   1   3    9.31    1.85
  10  -1  -3   10.29    2.30
  10   1  -3    0.69    1.25
 -11  -1   2    3.98    1.75
 -11  -1   2    4.18    1.43
 -11   1   2   64.75    4.39
 -11   1   2   57.70    3.24
  11  -1  -2   70.26    4.58
  11   1  -2    2.56    1.57
  11   1  -2    3.09    0.89
 -12  -1   1  521.01   12.26
 -12  -1   1  469.71    8.86
 -12   1   1  174.53    7.13
 -12   1   1  149.78    4.60
  12  -1  -1  172.86    7.18
  12  -1  -1  161.14    5.30
  12   1  -1  492.73   11.93
  12   1  -1  442.18    7.59
 -13  -1   0    0.60    1.42
 -13  -1   0    0.03    0.91
 -13   1   0    0.53    1.49
 -13   1   0    0.00    0.74
  13  -1   0    0.72    1.41
  13  -1   0   -0.02    0.91
  13   1   0   -0.65    1.29
  13   1   0    0.04    0.83
 -14  -1  -1    2.88    1.88
 -14  -1  -1    1.17    0.99
 -14   1  -1    6.21    2.20
 -14   1  -1    4.34    0.95
  14  -1   1    6.52    2.33
  14  -1   1    4.82    1.68
  14   1   1    2.00    1.74
  14   1   1    1.95    1.24
 -15  -1  -2   11.81    2.97
 -15   1  -2    2.00    1.88
  15  -1   2    1.19    1.87
  15  -1   2    2.81    1.60
  15   1   2   11.59    3.04
  15   1   2   11.77    2.34
 -16  -1  -3    2.29    2.01
 -16   1  -3    2.18    1.94
  16  -1   3    1.30    2.06
  16  -1   3    3.26    1.80
  16   1   3    2.50    2.17
 -17  -1  -4    4.90    2.49
 -17   1  -4    0.92    1.84
  17  -1   4    3.90    2.46
  17  -1   4    2.08    1.95
  17   1   4    4.19    2.40
  -2   3  11    1.99    2.07
   2  -3 -11    1.50    1.62
   2   3 -11    1.20    1.40
  -3   3  10    2.73    1.92
   3  -3 -10    0.85    1.61
   3   3 -10    2.22    1.51
  -4  -3   9    1.12    1.58
  -4  -3   9    2.92    1.76
  -4  -3   9    1.90    1.78
  -4   3   9  166.66    7.83
   4  -3  -9  167.64    7.62
   4   3  -9    3.32    1.57
   4   3  -9    0.87    1.27
  -5  -3   8    7.94    2.15
  -5  -3   8    6.90    2.02
  -5  -3   8    7.16    2.44
  -5   3   8    1.60    1.65
   5  -3  -8    0.09    1.28
   5   3  -8    7.02    1.89
   5   3  -8    7.36    1.76
  -6  -3   7  390.10    9.75
  -6  -3   7  342.75   10.38
  -6   3   7   44.70    4.00
   6  -3  -7   41.74    3.93
   6   3  -7  341.82    8.76
   6   3  -7  309.71    7.22
  -7  -3   6   53.18    3.78
  -7  -3   6   52.83    4.25
  -7   3   6    1.23    1.48
  -7   3   6    2.37    1.68
   7  -3  -6    1.65    1.43
   7   3  -6   53.73    3.70
   7   3  -6   51.47    3.67
   7   3  -6   48.73    2.59
  -8  -3   5    4.96    1.65
  -8  -3   5    6.76    2.00
  -8   3   5   40.72    3.66
   8  -3  -5   33.66    3.35
   8   3  -5    3.47    1.52
   8   3  -5    4.98    1.75
   8   3  -5    3.90    0.84
  -9  -3   4   25.87    3.00
  -9  -3   4   18.83    2.75
  -9   3   4    1.01    1.31
   9  -3  -4    0.22    1.24
   9   3  -4   20.89    2.93
   9   3  -4   19.61    1.00
 -10  -3   3    0.36    1.25
 -10  -3   3    0.87    1.16
 -10   3   3  179.04    7.00
  10  -3  -3  172.83    6.91
  10   3  -3    0.83    1.35
 -11  -3   2  791.15   14.72
 -11  -3   2  768.75   12.80
 -11   3   2    2.40    1.56
  11  -3  -2    3.57    1.66
  11   3  -2  752.64   14.29
  11   3  -2  605.50    5.29
 -12  -3   1   66.54    4.70
 -12  -3   1   66.30    3.90
 -12   3   1   50.41    4.10
  12  -3  -1   56.17    4.38
  12   3  -1   68.14    4.82
 -13  -3   0    0.58    1.51
 -13   3   0    0.40    1.43
  13  -3   0    1.09    1.58
  13  -3   0    0.65    1.03
  13   3   0    1.02    1.54
 -14  -3  -1   91.52    5.92
 -14   3  -1  229.98    8.56
  14  -3   1  238.80    8.89
  14  -3   1  231.43    7.98
  14   3   1  101.41    6.32
 -15  -3  -2   72.42    5.58
 -15   3  -2   41.21    4.00
  15  -3   2   40.28    4.18
  15  -3   2   36.69    3.76
  15   3   2   65.80    5.42
 -16  -3  -3   49.00    4.93
 -16   3  -3   -0.11    1.58
  16  -3   3    2.20    2.07
  16  -3   3    0.84    1.51
  16   3   3   48.57    5.14
 -17  -3  -4    0.25    1.80
 -17   3  -4   41.15    4.38
  17  -3   4   39.69    4.52
  17   3   4    0.83    2.11
  -2   5  11    1.08    2.14
   2  -5 -11    0.44    1.87
   2   5 -11    3.00    1.41
  -3  -5  10    5.63    2.51
  -3   5  10    9.69    2.92
   3  -5 -10    9.25    2.74
   3   5 -10    9.01    1.88
  -4  -5   9    6.64    2.54
  -4   5   9    0.58    1.84
   4  -5  -9    1.65    1.75
   4   5  -9    7.43    1.79
   4   5  -9    9.01    2.08
  -5  -5   8   19.78    2.83
  -5  -5   8   17.65    3.28
  -5   5   8   11.30    2.72
   5  -5  -8   14.82    2.99
   5   5  -8   17.00    2.45
   5   5  -8   16.60    2.34
  -6  -5   7   30.71    3.05
  -6  -5   7   31.68    3.62
  -6   5   7   28.02    3.48
   6  -5  -7   21.34    3.37
   6   5  -7   32.88    2.90
   6   5  -7   30.93    2.40
  -7  -5   6   18.55    2.74
  -7  -5   6   24.01    3.57
  -7   5   6    5.04    2.20
   7  -5  -6    5.37    2.12
   7   5  -6   23.94    2.58
   7   5  -6   22.96    2.64
   7   5  -6   20.62    1.62
  -8  -5   5  244.16    7.70
  -8  -5   5  223.31    8.10
  -8   5   5    2.03    1.52
  -8   5   5    1.22    1.57
   8  -5  -5    0.51    1.39
   8   5  -5  248.02    7.39
   8   5  -5  233.92    7.28
  -9  -5   4  259.23    8.07
  -9  -5   4  243.19    8.21
  -9   5   4    0.38    1.30
   9  -5  -4   -0.52    1.19
   9   5  -4  257.02    7.88
 -10  -5   3  393.12   10.28
 -10  -5   3  364.02    9.78
 -10   5   3  491.79   11.65
  10  -5  -3  479.77   11.62
  10   5  -3  352.07    9.55
 -11  -5   2   30.28    3.32
 -11   5   2  183.77    7.29
  11  -5  -2  187.95    7.47
  11  -5  -2  188.20    5.22
  11   5  -2   24.69    3.02
 -12  -5   1   86.80    5.54
 -12   5   1    5.01    1.86
  12  -5  -1    7.02    2.24
  12   5  -1   97.37    5.70
 -13  -5   0    0.75    1.59
 -13   5   0    0.48    1.41
  13  -5   0   -0.07    1.36
  13   5   0    0.34    1.54
 -14  -5  -1    6.28    2.32
 -14   5  -1    5.26    2.02
  14  -5   1    8.03    2.51
  14  -5   1    5.41    1.96
  14   5   1    3.79    2.12
 -15  -5  -2  268.13   10.57
 -15   5  -2  328.78   10.26
  15  -5   2  342.69   10.99
  15  -5   2  335.85   10.84
  15   5   2  249.67   10.31
 -16  -5  -3    3.18    2.19
 -16   5  -3    6.76    2.38
  16  -5   3    6.56    2.38
  16   5   3    4.14    2.40
  -3  -7  10    5.89    2.51
  -3   7  10    7.34    2.77
   3  -7 -10    8.12    2.84
   3   7 -10    6.12    1.21
  -4  -7   9  269.82   10.58
  -4   7   9   -0.62    1.61
   4  -7  -9   -0.48    1.56
   4   7  -9  261.73    5.91
  -5  -7   8   72.43    5.55
  -5   7   8    0.27    1.63
   5  -7  -8    0.00    1.60
   5   7  -8   65.19    3.40
  -6  -7   7    3.69    1.59
  -6  -7   7    1.62    1.72
  -6   7   7  147.24    7.37
   6  -7  -7  149.85    7.40
   6   7  -7    0.90    1.12
  -7  -7   6    1.39    1.36
  -7  -7   6    0.99    1.61
  -7   7   6    1.63    1.67
   7  -7  -6    1.75    1.57
   7   7  -6    0.91    1.18
  -8  -7   5    0.37    1.27
  -8  -7   5    0.28    1.33
  -8   7   5   31.52    3.54
   8  -7  -5   29.00    3.53
   8   7  -5    1.59    1.16
   8   7  -5    0.20    1.07
  -9  -7   4    4.77    1.84
  -9  -7   4    4.50    1.91
  -9   7   4   31.18    3.56
   9  -7  -4   28.34    3.45
   9   7  -4    4.89    1.74
 -10  -7   3   24.30    3.00
 -10   7   3  139.93    6.57
  10  -7  -3  141.20    6.65
  10   7  -3   20.15    3.00
 -11  -7   2   42.84    3.92
 -11   7   2 1165.49   18.18
  11  -7  -2 1137.39   18.29
  11  -7  -2 1158.45   13.04
  11   7  -2   40.49    3.83
 -12  -7   1    5.79    2.19
 -12   7   1    6.86    2.09
  12  -7  -1    7.79    2.29
  12  -7  -1    9.13    1.39
  12   7  -1    7.65    2.26
 -13  -7   0    0.77    1.63
 -13   7   0    0.48    1.47
  13  -7   0   -1.33    1.10
  13   7   0    0.41    1.51
 -14  -7  -1  122.91    7.27
 -14   7  -1   10.25    2.46
  14  -7   1    9.12    2.57
  14  -7   1    6.62    2.38
  14   7   1  120.61    7.18
 -15  -7  -2   20.05    3.92
 -15   7  -2   16.53    3.00
  15  -7   2   18.89    3.45
  15   7   2   22.21    4.05
 -16  -7  -3    0.96    2.18
 -16   7  -3   49.51    4.34
  16   7   3    1.86    2.18
  -3  -9  10  265.03   11.20
  -3   9  10    3.43    2.41
   3  -9 -10    2.60    2.18
  -4  -9   9    0.45    1.81
  -4   9   9    1.80    2.01
   4  -9  -9    0.10    1.69
  -5  -9   8    0.62    1.85
  -5   9   8    6.63    2.53
   5  -9  -8    6.87    2.56
   5   9  -8    0.16    0.80
  -6  -9   7   43.44    4.64
  -6   9   7   16.91    3.52
   6  -9  -7   15.05    3.20
   6   9  -7   41.01    2.73
  -7  -9   6   16.28    2.65
  -7  -9   6   16.29    3.30
  -7   9   6  343.24   11.14
   7  -9  -6  322.19   10.92
   7   9  -6   15.56    2.26
  -8  -9   5  153.12    6.36
  -8  -9   5  136.22    7.17
  -8   9   5   -0.62    1.50
  -8   9   5    0.88    1.59
   8  -9  -5    0.14    1.45
   8   9  -5  125.83    5.30
  -9  -9   4   11.64    2.50
  -9   9   4    8.84    2.52
   9  -9  -4   10.29    2.56
   9   9  -4    9.30    2.14
 -10  -9   3   34.31    3.53
 -10   9   3   10.61    2.56
  10  -9  -3    9.79    2.56
  10   9  -3   32.02    3.32
 -11  -9   2    6.65    2.22
 -11   9   2   33.65    3.58
  11  -9  -2   34.16    3.80
  11   9  -2    7.15    2.25
 -12  -9   1    0.93    1.70
 -12   9   1  217.74    8.07
  12  -9  -1  220.03    8.49
  12   9  -1   -0.73    1.44
 -13  -9   0    1.09    1.80
 -13   9   0   -0.24    1.34
  13  -9   0   -0.86    1.38
  13   9   0    1.40    1.85
 -14  -9  -1    6.16    2.65
 -14   9  -1    1.99    1.67
  14  -9   1    2.94    1.97
  14   9   1    5.50    2.42
 -15  -9  -2  141.81    8.36
 -15   9  -2    1.41    1.63
  15   9   2  126.92    7.89
  -4 -11   9   15.34    3.68
  -4  11   9    0.60    1.98
   4 -11  -9    0.54    2.04
  -5 -11   8   22.39    4.12
  -5  11   8    1.25    1.91
   5 -11  -8    1.10    1.96
  -6 -11   7   16.91    3.57
  -6  11   7    2.59    2.01
   6 -11  -7    1.97    1.94
   6  11  -7   11.35    1.41
  -7 -11   6  302.51   11.23
  -7  11   6   19.15    3.58
   7 -11  -6   13.85    3.15
   7  11  -6  250.04    6.31
  -8 -11   5   11.90    2.99
  -8  11   5  164.00    7.95
   8 -11  -5  150.68    7.71
   8  11  -5   11.32    2.12
  -9 -11   4   18.66    3.15
  -9  11   4   26.46    3.95
   9 -11  -4   28.58    4.21
   9  11  -4   18.63    2.84
 -10 -11   3    0.27    1.46
 -10  11   3    4.61    1.98
  10 -11  -3    5.63    2.26
  10  11  -3    0.00    1.29
 -11 -11   2   16.61    3.20
 -11  11   2   20.92    3.35
  11 -11  -2   17.58    3.20
  11  11  -2   15.43    3.01
 -12 -11   1  180.35    8.46
 -12  11   1   26.35    3.66
  12 -11  -1   30.07    4.11
  12  11  -1  168.02    7.91
 -13 -11   0    0.43    1.68
 -13  11   0   -0.14    1.40
  13  11   0   -0.04    1.76
 -14 -11  -1   16.75    3.87
 -14  11  -1   35.44    3.60
  14  11   1   20.52    4.00
  -5 -13   8   -0.60    1.89
   5 -13  -8    0.41    2.11
  -6 -13   7  117.29    7.72
  -6  13   7    1.95    2.15
   6 -13  -7    1.66    2.09
  -7 -13   6    1.31    2.07
  -7  13   6    4.09    2.36
   7 -13  -6    1.84    2.07
   7  13  -6    1.72    1.04
  -8  13   5    3.58    2.15
  -8  13   5    5.02    2.39
   8 -13  -5    4.29    2.26
   8  13  -5    3.91    1.49
  -9  13   4    2.74    1.97
   9 -13  -4    3.92    2.14
   9  13  -4   -0.13    1.22
 -10  13   3    7.93    2.46
  10 -13  -3    7.60    2.60
  10  13  -3    3.02    1.79
 -11  13   2   23.73    3.65
  11  13  -2  129.21    6.73
 -12 -13   1   12.07    3.27
 -12  13   1    9.99    2.50
  12  13  -1   10.57    2.80
 -13 -13   0    2.10    2.18
 -13  13   0    1.50    1.69
  13  13   0   -0.04    1.71
  -8  15   5   12.30    3.26
  -8  15   5   17.35    3.59
   8 -15  -5   15.23    3.68
   8  15  -5   -0.32    1.06
  -9  15   4    4.55    2.25
   9  15  -4    3.23    1.68
 -10  15   3  108.85    6.52
  10  15  -3   59.66    4.53
   3   0 -11    1.47    1.68
  -4   0  10    4.04    2.12
   4   0 -10    6.91    2.22
  -5   0   9  224.99    8.58
   5   0  -9  226.07    8.27
   5   0  -9  196.28    7.48
  -6   0   8   15.17    2.97
  -6   0   8   11.69    2.64
   6   0  -8   12.68    2.54
  -7   0   7   23.67    3.38
  -7   0   7   21.56    3.34
   7   0  -7   23.36    3.27
  -8   0   6    4.12    1.85
  -8   0   6    3.19    1.68
   8   0  -6    3.59    1.81
  -9   0   5    9.88    2.31
  -9   0   5    7.76    2.06
   9   0  -5    7.83    2.12
 -10   0   4  758.22   14.39
 -10   0   4  702.43   12.58
  10   0  -4  742.15   14.18
 -11   0   3   29.78    3.31
 -11   0   3   23.35    2.56
  11   0  -3   28.94    3.25
 -12   0   2   30.82    3.52
 -12   0   2   29.60    2.61
  12   0  -2   29.58    3.50
  12   0  -2   27.52    2.21
 -13   0   1   -0.65    1.28
 -13   0   1    0.89    0.97
  13   0  -1    1.09    1.54
  13   0  -1   -0.42    0.78
 -14   0   0   55.29    4.71
 -14   0   0   50.30    2.88
  14   0   0   48.76    4.41
  14   0   0   47.97    3.28
 -15   0  -1  177.16    8.07
 -15   0  -1  179.71    4.67
  15   0   1  180.56    8.26
  15   0   1  181.90    6.67
 -16   0  -2    1.43    1.81
  16   0   2   -0.06    1.58
  16   0   2    0.71    1.36
 -17   0  -3   -0.27    1.68
  17   0   3    0.53    1.83
  17   0   3    0.22    1.46
  -3   2  11    0.24    1.70
   3  -2 -11    0.90    1.65
   3   2 -11    1.38    1.62
  -4   2  10    0.32    1.68
   4  -2 -10    0.02    1.52
   4   2 -10    0.97    1.34
  -5  -2   9    3.79    2.00
  -5  -2   9    3.23    1.85
  -5  -2   9    4.85    2.24
  -5   2   9    0.94    1.63
   5  -2  -9    0.35    1.47
   5   2  -9    4.23    1.80
   5   2  -9    4.70    1.70
  -6  -2   8    1.85    1.56
  -6  -2   8    1.35    1.52
  -6  -2   8    0.01    1.49
  -6   2   8  223.06    8.66
   6  -2  -8  226.16    8.50
   6   2  -8    1.94    1.42
   6   2  -8    0.73    1.08
  -7  -2   7   29.89    3.26
  -7  -2   7   31.80    3.56
  -7   2   7   32.74    3.56
  -7   2   7   28.36    3.34
   7  -2  -7   29.34    3.46
   7   2  -7   35.54    3.42
   7   2  -7   33.86    3.31
   7   2  -7   25.61    2.31
  -8  -2   6   19.49    3.01
  -8  -2   6   16.83    2.93
  -8   2   6    0.03    1.40
   8  -2  -6    0.74    1.41
   8   2  -6   12.29    2.40
  -9  -2   5  309.77    9.14
  -9  -2   5  282.30    8.77
  -9   2   5    7.61    2.25
   9  -2  -5    6.27    2.00
   9   2  -5  278.75    8.51
 -10  -2   4   38.61    3.55
 -10  -2   4   38.61    3.36
 -10   2   4  263.26    8.73
 -10   2   4  230.43    7.16
  10  -2  -4  259.95    8.69
  10   2  -4   38.68    3.51
 -11  -2   3  258.09    8.62
 -11  -2   3  219.19    7.15
 -11   2   3  453.62   11.40
 -11   2   3  372.87    8.40
  11  -2  -3  419.89   11.01
  11   2  -3  221.37    7.95
  11   2  -3  223.86    3.95
 -12  -2   2   30.80    3.46
 -12  -2   2   31.63    2.91
 -12   2   2   24.87    3.55
 -12   2   2   18.24    2.12
  12  -2  -2   22.45    3.34
  12   2  -2   20.07    3.15
  12   2  -2   29.77    1.79
 -13  -2   1    0.57    1.61
 -13  -2   1    0.10    1.06
 -13   2   1   13.41    2.77
 -13   2   1   10.55    1.64
  13  -2  -1   17.22    3.22
  13  -2  -1   13.20    2.13
  13   2  -1    0.72    1.48
  13   2  -1   -0.11    0.72
 -14  -2   0  181.60    8.10
 -14  -2   0  185.17    5.96
 -14   2   0    4.42    1.96
  14  -2   0    4.93    2.12
  14  -2   0    4.08    1.55
  14   2   0  169.12    7.79
  14   2   0  155.04    5.06
 -15  -2  -1   16.91    3.31
 -15  -2  -1   16.06    2.26
 -15   2  -1    9.47    2.57
  15  -2   1    7.11    2.40
  15  -2   1    6.51    1.95
  15   2   1   15.09    3.19
  15   2   1   15.01    2.33
 -16  -2  -2    8.91    2.89
 -16   2  -2    0.52    1.60
  16  -2   2    1.14    1.87
  16  -2   2    1.73    1.63
  16   2   2   11.82    3.21
 -17  -2  -3    1.77    2.01
 -17   2  -3    9.19    2.83
  17  -2   3    9.31    3.07
  17  -2   3    6.42    2.25
  17   2   3    3.86    2.41
  -3   4  11    1.22    2.09
   3  -4 -11    0.08    1.66
   3   4 -11   71.21    4.30
  -4  -4  10    0.60    1.90
  -4   4  10    0.51    1.79
   4  -4 -10    0.32    1.59
   4   4 -10    3.43    1.65
  -5  -4   9    1.47    1.85
  -5   4   9    7.48    2.59
   5  -4  -9    5.63    2.23
   5   4  -9    1.69    1.42
   5   4  -9    2.01    1.35
  -6  -4   8   12.75    2.55
  -6  -4   8   12.55    2.91
  -6   4   8   35.74    4.06
   6  -4  -8   34.69    3.81
   6   4  -8   15.23    2.51
   6   4  -8   10.59    1.93
  -7  -4   7  112.65    5.58
  -7  -4   7  103.54    6.06
  -7   4   7  161.35    7.43
   7  -4  -7  155.40    7.20
   7   4  -7  106.23    5.19
   7   4  -7   97.01    3.88
  -8  -4   6    4.95    1.81
  -8  -4   6    5.25    1.98
  -8   4   6    7.81    2.36
  -8   4   6    7.47    2.29
   8  -4  -6    7.83    2.39
   8   4  -6    7.80    1.99
   8   4  -6    3.85    1.65
   8   4  -6    4.51    0.98
  -9  -4   5   91.53    5.15
  -9  -4   5   88.51    5.34
  -9   4   5    7.23    2.17
   9  -4  -5    8.81    2.26
   9   4  -5   83.29    4.73
   9   4  -5   83.12    1.86
 -10  -4   4   33.14    3.45
 -10  -4   4   31.68    3.29
 -10   4   4  182.34    7.49
  10  -4  -4  170.69    7.29
  10   4  -4   30.40    3.27
 -11  -4   3    4.36    1.86
 -11  -4   3    4.55    1.80
 -11   4   3    5.16    2.04
  11  -4  -3    5.69    2.03
  11   4  -3    5.63    1.90
 -12  -4   2   13.31    2.83
 -12  -4   2   12.39    2.37
 -12   4   2    4.71    1.88
  12  -4  -2    4.84    2.03
  12   4  -2   14.85    2.84
 -13  -4   1  150.95    7.33
 -13   4   1   60.65    4.55
  13  -4  -1   62.50    4.83
  13   4  -1  158.64    7.43
 -14  -4   0   26.47    3.95
 -14   4   0  323.64   10.23
  14  -4   0  333.53   10.62
  14  -4   0  317.22    9.35
  14   4   0   22.76    3.69
 -15  -4  -1   75.62    5.87
 -15   4  -1   48.27    4.30
  15  -4   1   57.52    4.96
  15  -4   1   49.81    4.13
  15   4   1   81.99    6.11
 -16  -4  -2   37.95    4.50
 -16   4  -2    4.56    2.06
  16  -4   2    4.98    2.37
  16  -4   2    2.64    1.79
  16   4   2   47.69    5.15
 -17  -4  -3   21.60    4.26
 -17   4  -3   50.89    4.76
  17  -4   3   47.24    4.78
  17   4   3   17.14    3.94
  -3  -6  11   21.42    4.24
  -3   6  11   89.92    6.96
   3  -6 -11   97.81    6.99
   3   6 -11   23.53    2.32
  -4  -6  10   14.35    3.38
  -4   6  10   -1.02    1.55
   4  -6 -10    0.42    1.65
   4   6 -10   13.47    2.11
  -5  -6   9    3.54    2.16
  -5   6   9   32.27    4.59
   5  -6  -9   34.52    4.21
   5   6  -9    2.14    1.33
  -6  -6   8   13.13    2.48
  -6  -6   8   10.08    2.91
  -6   6   8    9.84    2.76
   6  -6  -8   10.86    2.77
   6   6  -8   12.71    2.24
   6   6  -8   12.37    2.00
  -7  -6   7  193.38    7.10
  -7  -6   7  188.25    8.37
  -7   6   7    0.76    1.67
   7  -6  -7   -0.88    1.38
   7   6  -7  189.80    6.49
  -8  -6   6   11.97    2.46
  -8  -6   6   10.72    2.64
  -8   6   6   32.70    3.73
   8  -6  -6   37.25    4.02
   8   6  -6   12.19    2.28
  -9  -6   5  244.63    8.08
  -9   6   5    3.92    1.88
   9  -6  -5    2.13    1.65
   9   6  -5  226.53    7.56
 -10  -6   4   17.60    2.93
 -10  -6   4   16.02    2.89
 -10   6   4   17.84    3.11
  10  -6  -4   18.46    3.26
  10   6  -4   16.35    2.76
 -11  -6   3   36.09    3.76
 -11  -6   3   30.20    3.37
 -11   6   3    1.90    1.66
  11  -6  -3    2.08    1.69
  11   6  -3   29.91    3.27
 -12  -6   2   35.99    3.79
 -12   6   2   43.64    4.07
  12  -6  -2   42.35    4.13
  12   6  -2   29.28    3.43
 -13  -6   1    5.49    2.28
 -13   6   1  165.73    7.25
  13  -6  -1  164.72    7.44
  13   6  -1    5.63    2.22
 -14  -6   0    2.03    1.88
 -14   6   0   50.49    4.33
  14  -6   0   49.99    4.61
  14  -6   0   49.18    4.30
  14   6   0    5.57    2.30
 -15  -6  -1    1.29    1.85
 -15   6  -1    4.36    2.10
  15  -6   1    3.97    2.29
  15  -6   1    6.07    2.14
  15   6   1    0.00    1.71
 -16  -6  -2    1.84    2.05
 -16   6  -2    0.04    1.60
  16  -6   2    0.91    1.58
  16   6   2    0.09    1.85
 -17  -6  -3   73.39    6.50
 -17   6  -3   36.87    4.13
  17   6   3   60.85    5.97
  -4  -8  10   -0.91    1.67
  -4   8  10    0.03    1.67
   4  -8 -10    1.17    1.90
  -5  -8   9   34.38    4.89
  -5   8   9    7.69    2.77
   5  -8  -9    6.92    2.75
   5   8  -9   29.02    2.29
  -6  -8   8  304.61   11.25
  -6   8   8    6.42    2.55
   6  -8  -8    8.13    2.75
   6   8  -8  309.80    7.14
  -7  -8   7    3.81    2.17
  -7   8   7   12.73    3.10
   7  -8  -7   11.76    2.95
   7   8  -7    2.43    1.34
  -8  -8   6   42.53    3.69
  -8  -8   6   39.12    4.22
  -8   8   6   33.38    3.91
  -8   8   6   31.69    3.94
   8  -8  -6   35.62    3.99
   8   8  -6   39.03    3.25
  -9  -8   5    0.90    1.40
  -9  -8   5    1.06    1.65
  -9   8   5  126.72    6.83
   9  -8  -5  123.05    6.76
   9   8  -5    1.09    1.28
 -10  -8   4    4.47    1.88
 -10  -8   4    1.45    1.66
 -10   8   4   38.63    3.92
  10  -8  -4   33.44    3.78
  10   8  -4    3.24    1.65
 -11  -8   3  115.92    6.22
 -11   8   3    4.06    1.97
  11  -8  -3    2.64    1.82
  11   8  -3   97.53    5.58
 -12  -8   2    2.41    1.91
 -12   8   2   11.06    2.66
  12  -8  -2   13.56    2.99
  12   8  -2    3.99    1.96
 -13  -8   1   50.46    4.70
 -13   8   1   86.51    5.45
  13  -8  -1   83.34    5.60
  13   8  -1   43.00    4.29
 -14  -8   0   36.91    4.35
 -14   8   0  274.98    9.36
  14  -8   0  286.65   10.00
  14   8   0   27.14    4.22
 -15  -8  -1    2.80    2.36
 -15   8  -1    6.77    2.28
  15  -8   1    3.36    2.01
  15   8   1    3.04    2.18
 -16  -8  -2   17.78    3.96
 -16   8  -2    6.69    2.31
  16   8   2   17.19    3.87
  -5 -10   9  123.11    7.85
  -5  10   9   60.62    5.88
   5 -10  -9   66.03    5.93
  -6 -10   8   28.54    4.62
  -6  10   8    5.52    2.58
   6 -10  -8    7.76    2.67
   6  10  -8   26.23    1.95
  -7 -10   7    0.89    1.86
  -7  10   7    7.94    2.78
   7 -10  -7    8.08    2.67
   7  10  -7    1.59    1.20
  -8 -10   6    1.94    1.91
  -8  10   6    2.97    2.13
  -8  10   6    4.66    2.27
   8 -10  -6    3.38    2.14
   8  10  -6    4.16    1.60
  -9 -10   5   13.90    3.19
  -9  10   5   55.27    4.94
  -9  10   5   59.48    5.08
   9 -10  -5   50.98    4.84
   9  10  -5   12.05    2.32
 -10 -10   4  496.80   12.34
 -10  10   4  425.36   12.20
  10 -10  -4  417.62   12.39
  10  10  -4  420.00   10.74
 -11 -10   3    3.89    1.96
 -11  10   3    1.15    1.65
  11 -10  -3    0.43    1.55
  11  10  -3    2.72    1.75
 -12 -10   2   53.97    4.79
 -12  10   2    7.43    2.31
  12 -10  -2   12.99    2.99
  12  10  -2   42.98    4.23
 -13 -10   1    6.75    2.68
 -13  10   1    5.82    2.18
  13 -10  -1    4.50    2.29
  13  10  -1    5.59    2.29
 -14 -10   0    3.30    2.27
 -14  10   0   52.96    4.50
  14  10   0    3.20    2.16
 -15 -10  -1  105.67    7.49
 -15  10  -1   74.77    5.14
  15  10   1   93.26    6.94
  -6 -12   8   82.11    6.63
  -6  12   8  108.20    7.55
   6 -12  -8   97.00    7.12
  -7 -12   7   49.04    5.19
  -7  12   7    2.91    2.10
   7 -12  -7    0.57    1.94
   7  12  -7   33.90    2.18
  -8 -12   6   35.81    5.05
  -8  12   6   -0.73    1.67
  -8  12   6    0.63    1.86
   8 -12  -6    2.32    2.15
   8  12  -6   28.98    2.67
  -9 -12   5   44.89    4.86
  -9  12   5   19.08    3.63
  -9  12   5   23.76    3.99
   9 -12  -5   18.96    3.78
   9  12  -5   33.31    3.21
 -10  12   4   11.70    2.88
  10 -12  -4   14.01    3.20
  10  12  -4    9.80    2.38
 -11  12   3   37.63    4.10
  11 -12  -3   39.59    4.32
  11  12  -3   -0.16    1.49
 -12 -12   2    0.98    1.82
 -12  12   2   -1.36    1.32
  12  12  -2    1.85    1.76
 -13 -12   1    9.70    3.11
 -13  12   1   11.46    2.75
  13  12  -1    9.47    2.84
 -14 -12   0  184.14    9.52
 -14  12   0    2.52    1.82
  14  12   0  170.92    8.89
  -8 -14   6    2.15    2.45
  -8  14   6    3.86    2.30
  -8  14   6    1.99    2.17
   8 -14  -6   -0.62    2.02
   8  14  -6    2.17    1.16
  -9  14   5    3.50    2.28
  -9  14   5    6.32    2.61
   9 -14  -5    1.94    2.11
   9  14  -5    0.26    1.24
 -10  14   4    0.75    1.76
  10  14  -4   83.56    5.01
 -11  14   3  130.88    7.17
  11  14  -3   21.24    3.48
 -12  14   2    3.53    1.96
  12  14  -2   25.45    3.93
   4  -1 -11    0.24    1.56
   4   1 -11    5.77    2.22
  -5  -1  10    0.92    1.85
  -5   1  10    1.52    1.86
   5  -1 -10   -0.66    1.35
   5   1 -10    1.68    1.64
  -6  -1   9    7.82    2.38
  -6  -1   9    9.35    2.54
  -6   1   9   25.90    3.86
   6  -1  -9   28.79    3.55
   6   1  -9    7.46    2.19
   6   1  -9    9.86    2.19
  -7  -1   8   33.02    3.55
  -7  -1   8   30.19    3.76
  -7   1   8   30.62    3.77
  -7   1   8   32.36    3.78
   7  -1  -8   32.63    3.54
   7   1  -8   29.98    3.25
   7   1  -8   27.17    2.79
  -8  -1   7   12.43    2.67
  -8  -1   7   13.76    2.88
  -8   1   7  211.15    8.30
   8  -1  -7  214.91    8.16
   8   1  -7   16.06    2.81
  -9  -1   6    2.81    1.74
  -9  -1   6    1.79    1.62
  -9   1   6   64.08    4.78
  -9   1   6   56.55    4.32
   9  -1  -6   65.48    4.67
   9   1  -6    1.45    1.46
 -10  -1   5    1.18    1.48
 -10  -1   5    1.04    1.39
 -10   1   5   -0.75    1.24
 -10   1   5    0.22    1.30
  10  -1  -5    0.57    1.40
  10   1  -5   -0.05    1.37
 -11  -1   4   56.38    4.41
 -11  -1   4   55.63    4.01
 -11   1   4   -0.16    1.36
 -11   1   4    0.55    1.18
  11  -1  -4   -0.94    1.36
  11   1  -4   60.25    4.50
 -12  -1   3  350.23   10.50
 -12  -1   3  316.75    8.51
 -12   1   3   14.26    2.90
 -12   1   3   16.04    2.48
  12  -1  -3   13.84    2.85
  12   1  -3  336.13   10.21
 -13  -1   2   50.34    4.40
 -13  -1   2   43.63    3.32
 -13   1   2 1072.20   18.46
 -13   1   2  966.47   13.09
  13  -1  -2 1118.49   18.93
  13   1  -2   44.85    4.18
  13   1  -2   43.95    2.52
 -14  -1   1    0.09    1.54
 -14  -1   1    1.58    1.22
 -14   1   1    4.44    2.09
 -14   1   1    4.25    1.32
  14  -1  -1    5.12    2.28
  14  -1  -1    3.89    1.39
  14   1  -1    0.89    1.63
  14   1  -1    0.65    0.92
 -15  -1   0   -0.46    1.49
 -15  -1   0   -0.26    0.92
 -15   1   0   -0.21    1.52
 -15   1   0    0.10    0.81
  15  -1   0    0.03    1.66
  15  -1   0   -0.04    1.10
  15   1   0    0.47    1.72
  15   1   0    0.25    1.01
 -16  -1  -1    7.61    2.58
 -16   1  -1   14.37    3.22
  16  -1   1   17.41    3.58
  16  -1   1   17.06    2.80
  16   1   1   11.62    3.11
  16   1   1    8.99    1.96
 -17  -1  -2  161.44    8.51
 -17   1  -2   23.39    4.01
  17  -1   2   19.33    3.88
  17  -1   2   23.56    3.46
  17   1   2  156.87    8.60
  17   1   2  148.73    6.62
 -18  -1  -3   46.26    5.04
 -18   1  -3   80.81    6.17
  18  -1   3   80.29    6.47
  18  -1   3   77.29    5.56
  18   1   3   58.73    5.75
  -4   3  11   61.71    5.63
   4  -3 -11   63.64    5.41
   4   3 -11    2.03    1.59
  -5  -3  10    9.83    2.95
  -5   3  10    8.88    2.89
   5  -3 -10    6.16    2.33
   5   3 -10   11.21    2.45
  -6  -3   9  379.76   10.79
  -6  -3   9  354.94   11.94
  -6   3   9    4.48    2.33
   6  -3  -9    2.96    1.90
   6   3  -9  364.31    9.91
   6   3  -9  326.07    8.90
  -7  -3   8    1.91    1.49
  -7  -3   8    2.18    1.89
  -7   3   8   12.02    2.95
   7  -3  -8   10.86    2.64
   7   3  -8    1.18    1.46
   7   3  -8    1.38    1.10
  -8  -3   7   12.66    2.57
  -8  -3   7    6.87    2.42
  -8   3   7   45.48    4.28
   8  -3  -7   39.53    3.98
   8   3  -7   12.87    2.54
   8   3  -7    8.99    1.56
  -9  -3   6   37.39    3.70
  -9  -3   6   32.85    3.60
  -9   3   6 1516.83   21.96
   9  -3  -6 1386.29   20.86
   9   3  -6   34.64    3.45
   9   3  -6   32.95    2.02
 -10  -3   5   12.42    2.66
 -10  -3   5   11.88    2.56
 -10   3   5    2.38    1.79
  10  -3  -5    2.29    1.72
  10   3  -5   10.64    2.38
  10   3  -5   10.65    1.00
 -11  -3   4    2.21    1.64
 -11  -3   4    1.00    1.39
 -11   3   4    2.37    1.80
  11  -3  -4    2.91    1.82
  11   3  -4    2.39    1.69
 -12  -3   3   52.32    4.47
 -12  -3   3   53.23    3.93
 -12   3   3   20.86    3.33
  12  -3  -3   17.07    3.11
  12   3  -3   37.22    3.86
 -13  -3   2   58.65    4.75
 -13  -3   2   56.35    3.94
 -13   3   2    1.51    1.75
  13  -3  -2    3.08    1.92
  13   3  -2   55.00    4.55
 -14  -3   1   93.05    6.00
 -14  -3   1   98.98    4.97
 -14   3   1  227.77    8.82
  14  -3  -1  234.98    9.13
  14  -3  -1  226.09    7.46
  14   3  -1  101.89    6.24
 -15  -3   0   -0.33    1.48
 -15  -3   0   -0.50    1.05
 -15   3   0    0.70    1.59
  15  -3   0   -0.20    1.64
  15  -3   0   -0.06    1.17
  15   3   0   -0.62    1.47
 -16  -3  -1  263.12   10.53
 -16   3  -1    5.48    2.30
  16  -3   1    6.19    2.51
  16  -3   1    4.26    1.80
  16   3   1  266.26   10.64
 -17  -3  -2   28.05    4.48
 -17   3  -2    5.38    2.37
  17  -3   2    2.30    2.24
  17  -3   2    3.76    2.00
  17   3   2   24.52    4.54
  -4  -5  11   21.94    4.25
  -4   5  11   -0.37    1.79
   4  -5 -11    0.65    1.89
   4   5 -11   21.60    2.69
  -5  -5  10  174.86    9.02
  -5   5  10  137.29    7.99
   5  -5 -10  144.80    7.98
   5   5 -10  179.65    6.50
  -6  -5   9   36.14    4.31
  -6   5   9    3.99    2.20
   6  -5  -9    0.96    1.70
   6   5  -9   31.46    3.13
  -7  -5   8    0.52    1.43
  -7  -5   8   -0.24    1.57
  -7   5   8   55.05    5.03
   7  -5  -8   52.87    4.75
   7   5  -8    0.77    1.29
   7   5  -8   -0.04    0.85
  -8  -5   7    4.20    1.85
  -8  -5   7    3.22    2.00
  -8   5   7    7.26    2.50
  -8   5   7    6.50    2.29
   8  -5  -7    5.53    2.27
   8   5  -7    2.48    1.55
   8   5  -7    5.38    1.12
  -9  -5   6    4.97    1.91
  -9  -5   6    4.75    2.19
  -9   5   6    3.34    2.00
  -9   5   6    4.79    2.04
   9  -5  -6    5.67    2.23
   9   5  -6    3.74    1.69
 -10  -5   5 1100.05   17.75
 -10  -5   5 1051.06   18.19
 -10   5   5  178.66    7.80
  10  -5  -5  176.36    7.78
  10   5  -5  895.48   15.58
 -11  -5   4   85.28    5.32
 -11  -5   4   86.69    5.38
 -11   5   4    8.80    2.44
  11  -5  -4   10.67    2.69
  11   5  -4   81.35    5.12
 -12  -5   3   -0.15    1.49
 -12  -5   3   -0.67    1.16
 -12   5   3    2.84    1.79
  12  -5  -3    1.98    1.81
  12   5  -3    0.50    1.49
 -13  -5   2    1.06    1.64
 -13  -5   2    0.28    1.39
 -13   5   2    1.58    1.67
  13  -5  -2    2.41    1.94
  13   5  -2    1.34    1.59
 -14  -5   1    4.75    2.21
 -14   5   1    6.46    2.32
  14  -5  -1    6.75    2.32
  14   5  -1    4.24    2.10
 -15  -5   0   -1.30    1.59
 -15   5   0   -0.79    1.29
  15  -5   0    1.31    1.79
  15  -5   0    0.80    1.32
  15   5   0   -2.44    1.31
 -16  -5  -1   14.39    3.50
 -16   5  -1   39.62    4.20
  16  -5   1   43.19    4.68
  16  -5   1   41.22    4.10
  16   5   1   12.84    3.30
 -17  -5  -2    9.78    3.28
 -17   5  -2   -1.61    1.36
  17  -5   2    1.60    1.80
  17   5   2    9.61    3.25
  -5  -7  10    4.46    2.48
  -5   7  10   14.91    3.57
   5  -7 -10   15.90    3.64
   5   7 -10    2.76    1.38
  -6  -7   9    8.22    2.83
  -6   7   9   43.32    4.93
   6  -7  -9   45.67    4.77
   6   7  -9    7.00    1.78
  -7  -7   8    0.15    1.60
  -7   7   8    1.74    2.06
   7  -7  -8    0.92    1.72
   7   7  -8    1.75    1.32
  -8  -7   7   15.48    2.79
  -8  -7   7   15.64    3.38
  -8   7   7    1.07    1.81
  -8   7   7    4.04    2.21
   8  -7  -7    1.22    1.75
   8   7  -7   14.99    2.53
  -9  -7   6  445.06   11.20
  -9  -7   6  421.27   12.46
  -9   7   6   10.21    2.84
  -9   7   6   10.94    2.78
   9  -7  -6   11.39    2.82
   9   7  -6  405.09   10.06
 -10  -7   5   16.07    2.95
 -10  -7   5   20.30    3.58
 -10   7   5   21.03    3.51
  10  -7  -5   20.97    3.57
  10   7  -5   13.06    2.57
 -11  -7   4    0.73    1.65
 -11  -7   4    2.08    1.83
 -11   7   4   27.06    3.92
  11  -7  -4   23.94    3.73
  11   7  -4    2.32    1.59
 -12  -7   3   85.40    5.69
 -12  -7   3   90.51    5.79
 -12   7   3    2.59    1.88
  12  -7  -3    2.66    1.86
  12   7  -3   75.23    5.19
 -13  -7   2   63.39    5.19
 -13   7   2   14.15    2.99
  13  -7  -2   15.37    3.11
  13   7  -2   54.49    4.77
 -14  -7   1  112.85    6.94
 -14   7   1    7.60    2.42
  14  -7  -1    9.29    2.71
  14   7  -1  112.61    6.84
 -15  -7   0    0.25    1.91
 -15   7   0    1.68    1.71
  15  -7   0    0.31    1.60
  15  -7   0   -0.02    1.38
  15   7   0    0.39    1.67
 -16  -7  -1   14.60    3.66
 -16   7  -1   81.85    5.62
  16  -7   1   84.97    6.05
  16   7   1   15.39    3.56
 -17  -7  -2    6.62    2.98
 -17   7  -2   63.11    5.19
  17   7   2    7.71    3.10
  -6  -9   9   33.77    4.95
  -6   9   9   13.34    3.53
   6  -9  -9   12.72    3.31
   6   9  -9   38.63    2.53
  -7  -9   8   -1.58    1.48
  -7   9   8    0.50    1.74
   7  -9  -8    2.44    2.19
   7   9  -8    0.90    1.16
  -8  -9   7  339.49   12.00
  -8   9   7    3.73    2.28
   8  -9  -7    0.39    1.76
   8   9  -7  340.76    8.50
  -9  -9   6    2.71    2.11
  -9   9   6    2.73    2.22
  -9   9   6    4.22    2.27
   9  -9  -6    3.98    2.15
   9   9  -6    2.95    1.58
 -10  -9   5   74.81    5.11
 -10  -9   5   67.57    5.60
 -10   9   5   13.30    3.14
  10  -9  -5   13.33    3.06
  10   9  -5   68.47    4.63
 -11  -9   4   29.56    4.05
 -11  -9   4   30.71    4.37
 -11   9   4   20.28    3.58
  11  -9  -4   16.92    3.34
  11   9  -4   24.98    3.51
 -12  -9   3    5.16    2.22
 -12   9   3  359.22   11.25
  12  -9  -3  369.39   11.73
  12   9  -3    4.82    2.07
 -13  -9   2  310.59   10.97
 -13   9   2    7.63    2.37
  13  -9  -2    9.03    2.67
  13   9  -2  289.08   10.31
 -14  -9   1    4.14    2.37
 -14   9   1    0.74    1.58
  14  -9  -1    0.18    1.61
  14   9  -1    5.71    2.41
 -15  -9   0    0.53    1.95
 -15   9   0    0.57    1.62
  15   9   0   -1.17    1.75
 -16  -9  -1    1.61    2.26
 -16   9  -1   56.33    4.84
  16   9   1    3.82    2.46
  -7 -11   8   13.56    3.62
  -7  11   8   -1.28    1.63
   7 -11  -8    0.21    2.02
   7  11  -8    9.10    1.49
  -8 -11   7   10.11    3.08
   8 -11  -7   92.81    6.83
   8  11  -7    9.09    1.89
  -9 -11   6    6.29    2.72
  -9  11   6    6.84    2.74
  -9  11   6    5.95    2.46
   9 -11  -6    9.05    2.93
   9  11  -6    6.04    1.85
 -10 -11   5    7.38    2.71
 -10  11   5    4.31    2.27
  10 -11  -5    4.15    2.36
  10  11  -5    6.65    2.07
 -11  11   4    1.31    1.83
  11 -11  -4    2.26    2.06
  11  11  -4    0.69    1.54
 -12 -11   3   43.10    4.61
 -12  11   3   -0.26    1.42
  12 -11  -3   -0.27    1.65
  12  11  -3   32.31    3.76
 -13 -11   2   26.25    4.33
 -13  11   2  158.53    7.65
  13 -11  -2  152.86    7.96
  13  11  -2   18.56    3.50
 -14 -11   1   14.92    3.60
 -14  11   1   36.49    4.10
  14  11  -1   13.60    3.26
 -15 -11   0   -0.67    1.97
 -15  11   0   -0.55    1.55
  15  11   0   -0.06    1.97
  -9 -13   6   91.24    7.14
  -9  13   6   91.12    6.74
  -9  13   6  111.74    7.28
   9 -13  -6   99.25    7.07
   9  13  -6   75.15    4.14
 -10 -13   5    5.25    2.73
 -10  13   5   14.93    3.37
  10 -13  -5   12.46    3.29
  10  13  -5    2.09    1.58
 -11  13   4    1.80    1.95
  11 -13  -4    3.72    2.35
  11  13  -4    0.53    1.45
 -12  13   3   10.01    2.80
  12  13  -3    6.44    2.36
 -13  13   2   31.55    4.31
  13  13  -2   22.87    3.94
   5   0 -11   65.87    5.16
  -6   0  10   -0.81    1.68
  -6   0  10   -0.81    1.51
   6   0 -10   -0.86    1.30
  -7   0   9    4.79    2.19
  -7   0   9    6.59    2.32
   7   0  -9    4.16    2.00
   7   0  -9    7.41    2.07
  -8   0   8    2.52    1.82
   8   0  -8   -0.64    1.30
  -9   0   7    7.83    2.36
  -9   0   7    9.67    2.57
   9   0  -7    8.10    2.34
 -10   0   6   27.10    3.82
 -10   0   6   24.12    3.42
  10   0  -6   28.45    3.40
 -11   0   5   50.12    4.32
 -11   0   5   43.56    3.78
  11   0  -5   47.55    4.30
 -12   0   4    2.49    1.76
 -12   0   4    3.35    1.64
  12   0  -4    2.90    1.80
 -13   0   3   24.43    3.81
 -13   0   3   21.18    2.85
  13   0  -3   24.71    3.80
 -14   0   2    0.17    1.73
 -14   0   2    2.25    1.32
  14   0  -2    0.49    1.68
  14   0  -2   -0.35    0.83
 -15   0   1  192.87    8.65
 -15   0   1  162.87    5.47
  15   0  -1  181.83    8.38
  15   0  -1  178.43    5.89
 -16   0   0   51.35    4.84
  16   0   0   53.56    5.00
  16   0   0   52.11    3.67
 -17   0  -1    8.43    2.84
  17   0   1    8.11    2.83
  17   0   1    8.18    2.08
 -18   0  -2   12.84    3.41
  18   0   2   11.56    3.38
  -5   2  11    1.50    2.24
   5  -2 -11    1.01    1.76
   5   2 -11    2.15    1.74
  -6   2  10    0.37    1.93
   6  -2 -10    0.43    1.62
   6   2 -10   -0.18    1.44
  -7  -2   9    1.60    1.65
  -7  -2   9    1.88    1.95
  -7   2   9    6.67    2.56
  -7   2   9   11.61    2.96
   7  -2  -9    7.90    2.41
   7   2  -9    3.35    1.71
   7   2  -9    2.87    1.46
  -8  -2   8    3.69    1.87
  -8  -2   8    1.52    1.73
  -8   2   8   -1.16    1.48
  -8   2   8   -0.88    1.46
   8  -2  -8    1.03    1.62
   8   2  -8    0.87    1.51
   8   2  -8    2.44    1.21
  -9  -2   7   94.78    5.73
  -9  -2   7   89.99    5.80
  -9   2   7   18.36    3.40
   9  -2  -7   14.01    2.96
   9   2  -7   92.70    5.48
   9   2  -7   76.17    3.57
 -10  -2   6    7.35    2.40
 -10  -2   6    7.36    2.20
 -10   2   6    0.16    1.53
  10  -2  -6    0.28    1.45
  10   2  -6    7.79    2.27
 -11  -2   5    3.92    1.85
 -11  -2   5    1.30    1.48
 -11   2   5  239.03    9.04
  11  -2  -5  235.01    8.95
  11   2  -5    2.47    1.75
 -12  -2   4   45.27    4.20
 -12  -2   4   50.03    3.96
 -12   2   4    3.44    1.92
 -12   2   4    3.99    1.58
  12  -2  -4    2.57    1.76
  12   2  -4   53.55    4.43
 -13  -2   3  115.69    6.47
 -13  -2   3  100.95    5.25
 -13   2   3   16.71    3.26
 -13   2   3   14.40    2.40
  13  -2  -3   16.69    3.25
  13   2  -3  110.70    6.31
  13   2  -3  106.92    3.00
 -14  -2   2   25.20    3.95
 -14  -2   2   21.41    2.64
 -14   2   2   18.93    3.37
  14  -2  -2   19.85    3.54
  14   2  -2   21.68    3.61
  14   2  -2   23.80    1.79
 -15  -2   1   14.48    3.25
 -15  -2   1   14.05    2.35
 -15   2   1   10.27    2.83
  15  -2  -1    5.87    2.40
  15  -2  -1    5.57    1.74
  15   2  -1   12.94    3.05
  15   2  -1   12.59    1.76
 -16  -2   0   38.25    4.41
 -16   2   0  362.34   11.80
  16  -2   0  372.19   12.17
  16  -2   0  350.44    9.71
  16   2   0   38.86    4.59
  16   2   0   33.66    2.74
 -17  -2  -1    1.26    2.20
 -17   2  -1    2.09    2.03
  17  -2   1    1.59    1.99
  17  -2   1    2.42    1.69
  17   2   1    2.45    2.36
 -18  -2  -2   19.94    4.07
 -18   2  -2    2.25    2.23
  18  -2   2    3.38    2.38
  18  -2   2    3.14    1.93
  18   2   2   22.64    4.46
  -5  -4  11    0.03    1.95
  -5   4  11   21.29    4.28
   5  -4 -11   18.24    3.78
   5   4 -11    0.58    1.39
  -6  -4  10   -0.14    1.84
  -6   4  10    9.11    3.09
   6  -4 -10   12.70    3.14
   6   4 -10    1.60    1.53
  -7  -4   9   -0.72    1.77
  -7   4   9  217.86    9.49
   7  -4  -9  205.53    9.06
   7   4  -9    0.77    1.36
  -8  -4   8  576.97   13.29
  -8  -4   8  540.29   14.49
  -8   4   8   30.01    4.27
   8  -4  -8   32.94    4.03
   8   4  -8  542.88   12.20
   8   4  -8  525.17    9.43
  -9  -4   7   19.51    3.25
  -9  -4   7   19.66    3.47
  -9   4   7   46.06    4.47
   9  -4  -7   40.70    4.20
   9   4  -7   20.69    3.13
   9   4  -7   23.07    1.84
 -10  -4   6   62.12    4.66
 -10  -4   6   55.06    4.66
 -10   4   6    6.02    2.24
  10  -4  -6    3.76    1.97
  10   4  -6   62.22    4.57
  10   4  -6   56.16    1.91
 -11  -4   5   56.16    4.50
 -11  -4   5   54.28    4.51
 -11   4   5    0.99    1.66
  11  -4  -5    1.55    1.66
  11   4  -5   54.27    4.40
 -12  -4   4    6.03    2.32
 -12  -4   4    7.18    2.13
 -12   4   4  213.59    8.66
  12  -4  -4  215.33    8.73
  12   4  -4    5.10    2.05
 -13  -4   3  153.05    7.46
 -13  -4   3  151.48    6.74
 -13   4   3    6.92    2.38
  13  -4  -3    6.21    2.29
  13   4  -3  152.01    7.37
 -14  -4   2   35.04    4.02
 -14  -4   2   39.65    3.66
 -14   4   2    3.10    2.10
  14  -4  -2    1.54    1.83
  14   4  -2   35.12    4.12
 -15  -4   1   81.61    5.95
 -15  -4   1   75.05    4.68
 -15   4   1   55.91    4.83
  15  -4  -1   51.19    4.90
  15  -4  -1   56.39    4.25
  15   4  -1   78.36    5.90
 -16  -4   0   14.84    3.37
 -16  -4   0   15.46    2.72
 -16   4   0  267.53   10.14
  16  -4   0  271.38   10.50
  16  -4   0  258.49    9.00
  16   4   0   11.57    3.19
 -17  -4  -1   49.98    5.33
 -17   4  -1  126.06    7.26
  17  -4   1  120.19    7.33
  17  -4   1  125.09    6.76
  17   4   1   53.05    5.52
 -18  -4  -2    3.03    2.49
 -18   4  -2    4.28    2.38
  18  -4   2    2.53    2.04
  18   4   2    1.75    2.52
  -6  -6  10    1.88    2.17
  -6   6  10    0.20    1.83
   6  -6 -10    0.77    1.78
   6   6 -10    0.77    1.36
  -7  -6   9   57.97    5.43
  -7   6   9    7.97    2.81
   7  -6  -9    6.63    2.63
   7   6  -9   66.40    4.25
  -8  -6   8   11.32    3.04
  -8   6   8  235.98    9.91
   8  -6  -8  251.85   10.20
   8   6  -8   13.49    2.56
  -9  -6   7   23.43    3.49
  -9  -6   7   18.65    3.55
  -9   6   7   38.21    4.45
  -9   6   7   34.82    4.15
   9  -6  -7   35.24    4.10
   9   6  -7   28.06    3.16
 -10  -6   6   48.32    4.26
 -10  -6   6   43.16    4.38
 -10   6   6    0.44    1.71
  10  -6  -6    0.46    1.64
  10   6  -6   48.64    4.01
 -11  -6   5   93.91    5.72
 -11  -6   5   85.46    5.81
 -11   6   5   33.00    4.00
  11  -6  -5   31.92    3.83
  11   6  -5   81.61    5.19
 -12  -6   4  368.99   11.23
 -12  -6   4  362.55   11.09
 -12   6   4  118.32    6.67
  12  -6  -4  120.22    6.81
  12   6  -4  332.61   10.34
 -13  -6   3   -0.79    1.58
 -13  -6   3   -0.28    1.40
 -13   6   3  238.25    9.33
  13  -6  -3  232.01    9.29
  13   6  -3    1.04    1.59
 -14  -6   2    4.88    2.28
 -14  -6   2    3.38    1.81
 -14   6   2   24.39    3.84
  14  -6  -2   26.01    4.01
  14   6  -2    4.04    2.14
 -15  -6   1    1.39    2.02
 -15   6   1    5.57    2.31
  15  -6  -1    4.02    2.14
  15   6  -1    0.80    1.87
 -16  -6   0    5.15    2.46
 -16   6   0   68.56    5.39
  16  -6   0   73.73    5.87
  16  -6   0   72.36    5.31
  16   6   0    5.37    2.75
 -17  -6  -1   97.54    7.23
 -17   6  -1   21.74    3.81
  17  -6   1   22.12    3.74
  17   6   1   87.29    6.78
  -6  -8  10   17.64    3.91
  -6   8  10    0.09    2.16
   6  -8 -10    1.75    2.24
   6   8 -10   15.72    2.16
  -7  -8   9   25.10    4.52
  -7   8   9    3.40    2.38
   7  -8  -9    4.93    2.50
   7   8  -9   23.41    2.59
  -8  -8   8   15.76    3.45
  -8   8   8   11.55    3.20
   8  -8  -8   10.23    3.07
   8   8  -8   12.75    2.37
  -9  -8   7    3.41    2.12
  -9   8   7  253.29   10.33
  -9   8   7  318.77   11.56
   9  -8  -7  297.02   11.22
   9   8  -7    2.21    1.52
 -10  -8   6    2.31    1.80
 -10  -8   6    1.00    1.78
 -10   8   6    5.55    2.35
  10  -8  -6    2.22    1.96
  10   8  -6    2.43    1.65
 -11  -8   5  196.79    8.22
 -11  -8   5  187.57    8.65
 -11   8   5   14.89    3.20
  11  -8  -5   14.87    3.22
  11   8  -5  172.86    7.32
 -12  -8   4    6.88    2.37
 -12  -8   4    7.79    2.50
 -12   8   4   39.81    4.39
  12  -8  -4   29.27    4.28
  12   8  -4    5.92    2.15
 -13  -8   3   28.99    4.20
 -13  -8   3   32.05    3.90
 -13   8   3    7.71    2.53
  13  -8  -3    7.47    2.63
  13   8  -3   34.60    4.01
 -14  -8   2   10.81    2.98
 -14   8   2    2.95    2.03
  14  -8  -2    6.69    2.51
  14   8  -2   11.05    2.95
 -15  -8   1    3.13    2.34
 -15   8   1    4.24    2.17
  15  -8  -1    5.24    2.49
  15   8  -1    2.65    2.08
 -16  -8   0  187.97    9.57
 -16   8   0   -0.27    1.62
  16  -8   0    1.98    1.93
  16   8   0  195.95    9.69
  -7 -10   9    0.80    2.25
  -7  10   9    0.06    2.12
   7 -10  -9    1.82    2.11
   7  10  -9    0.22    1.00
  -8 -10   8    5.81    2.69
  -8  10   8   -0.22    1.79
   8 -10  -8   -0.08    1.99
   8  10  -8    7.68    1.82
  -9 -10   7    1.08    1.95
  -9  10   7    7.40    2.89
  -9  10   7    7.40    2.77
   9 -10  -7    5.94    2.52
   9  10  -7   -0.37    1.27
 -10 -10   6    0.11    1.74
 -10  10   6    0.67    1.89
  10 -10  -6    0.76    1.92
  10  10  -6    0.19    1.36
 -11 -10   5    7.90    2.90
 -11  10   5    6.87    2.51
  11 -10  -5    8.18    2.73
  11  10  -5    4.59    1.93
 -12 -10   4   13.00    3.13
 -12 -10   4   15.11    3.46
 -12  10   4    7.51    2.63
  12 -10  -4   11.59    3.09
  12  10  -4   15.85    3.14
 -13 -10   3    8.88    2.84
 -13  10   3    2.39    1.96
  13 -10  -3    4.12    2.28
  13  10  -3    6.46    2.39
 -14 -10   2   21.95    4.17
 -14  10   2    4.22    2.16
  14 -10  -2    0.60    1.92
  14  10  -2   22.22    3.87
 -15 -10   1   96.70    6.97
 -15  10   1   72.57    5.49
  15  10  -1   87.66    6.55
  -9 -12   7  104.55    7.61
  -9  12   7    3.41    2.50
  -9  12   7    1.45    2.05
   9 -12  -7    0.17    2.06
   9  12  -7   86.77    4.34
 -10 -12   6   12.55    3.59
 -10  12   6    2.94    2.34
  10 -12  -6    3.02    2.40
  10  12  -6   12.83    2.46
 -11 -12   5   20.51    4.17
 -11  12   5   74.28    5.93
  11 -12  -5   69.75    6.01
  11  12  -5   15.31    2.88
 -12  12   4    9.01    2.81
  12 -12  -4    9.04    2.93
  12  12  -4    8.72    2.50
 -13  12   3    7.73    2.62
  13  12  -3    6.97    2.46
 -14  12   2   43.55    4.64
  14  12  -2    4.27    2.30
   6  -1 -11    1.23    1.77
   6   1 -11    0.40    1.55
  -7  -1  10  189.90    8.71
  -7   1  10    2.69    2.16
  -7   1  10    2.43    2.00
   7  -1 -10    2.61    1.89
   7   1 -10  176.38    7.91
  -8  -1   9   29.72    4.17
  -8  -1   9   27.20    4.25
  -8   1   9  248.91    9.94
   8  -1  -9  248.65    9.61
   8   1  -9   29.76    3.61
   8   1  -9   28.46    2.99
  -9  -1   8    7.01    2.40
  -9  -1   8    8.01    2.63
  -9   1   8   37.24    4.15
   9  -1  -8   32.22    3.80
   9   1  -8    6.51    2.19
 -10  -1   7   36.46    3.95
 -10  -1   7   30.68    3.75
 -10   1   7   -0.32    1.44
  10  -1  -7    1.16    1.57
  10   1  -7   29.27    3.52
 -11  -1   6   60.08    4.84
 -11  -1   6   52.16    4.44
 -11   1   6    1.20    1.64
 -11   1   6   -0.55    1.35
  11  -1  -6   -0.67    1.57
  11   1  -6   55.93    4.58
 -12  -1   5  168.61    7.77
 -12  -1   5  147.38    6.73
 -12   1   5    3.37    2.00
 -12   1   5    1.79    1.46
  12  -1  -5    2.98    2.02
  12   1  -5  157.50    7.49
 -13  -1   4    5.69    2.30
 -13  -1   4    3.58    1.80
 -13   1   4   41.48    4.26
 -13   1   4   34.80    3.34
  13  -1  -4   41.25    4.36
  13   1  -4    2.04    1.83
 -14  -1   3   12.59    2.98
 -14  -1   3   19.49    2.93
 -14   1   3    6.37    2.44
 -14   1   3    5.42    1.68
  14  -1  -3    6.65    2.46
  14   1  -3   15.98    3.27
  14   1  -3   16.52    1.67
 -15  -1   2    7.71    2.65
 -15  -1   2   10.65    2.21
 -15   1   2    3.94    2.15
 -15   1   2    2.86    1.39
  15  -1  -2    2.75    2.01
  15  -1  -2    2.55    1.30
  15   1  -2   10.71    2.88
  15   1  -2   10.68    1.67
 -16  -1   1   12.46    3.25
 -16   1   1   19.71    3.73
  16  -1  -1   15.47    3.38
  16  -1  -1   18.23    2.61
  16   1  -1    9.14    2.92
  16   1  -1   10.10    1.83
 -17  -1   0   -1.39    1.54
 -17   1   0    1.31    1.88
  17  -1   0   -0.98    1.58
  17  -1   0    0.78    1.25
  17   1   0   -0.21    1.91
 -18  -1  -1    2.61    2.38
 -18   1  -1   36.04    5.10
  18  -1   1   34.77    5.06
  18   1   1    3.91    2.49
  -6   3  11   15.57    3.80
   6  -3 -11   14.91    3.33
   6   3 -11  119.67    6.32
  -7  -3  10   10.79    3.22
  -7   3  10    4.87    2.44
  -7   3  10    2.26    2.06
   7  -3 -10    2.42    1.97
   7   3 -10   14.72    2.90
  -8  -3   9    3.05    1.99
  -8  -3   9    0.79    1.87
  -8   3   9   14.64    3.37
  -8   3   9   16.22    3.40
   8  -3  -9   19.50    3.61
   8   3  -9    3.60    1.91
  -9  -3   8    5.52    2.19
  -9  -3   8    6.06    2.39
  -9   3   8    0.00    1.61
  -9   3   8    0.63    1.67
   9  -3  -8   -0.44    1.47
   9   3  -8    7.09    2.23
 -10  -3   7    0.17    1.60
 -10  -3   7   -0.13    1.57
 -10   3   7    3.72    2.15
  10  -3  -7    5.08    2.19
  10   3  -7   -0.20    1.20
 -11  -3   6  353.74   10.99
 -11  -3   6  312.12   10.38
 -11   3   6   38.97    4.28
  11  -3  -6   37.55    4.10
  11   3  -6  325.32   10.30
  11   3  -6  297.57    4.87
 -12  -3   5    0.89    1.63
 -12  -3   5    0.80    1.55
 -12   3   5   12.83    2.88
  12  -3  -5   11.03    2.77
  12   3  -5   -0.15    1.47
 -13  -3   4   29.55    4.14
 -13  -3   4   28.51    3.29
 -13   3   4    9.86    2.72
  13  -3  -4   12.27    3.03
  13   3  -4   25.90    3.82
 -14  -3   3    1.49    1.77
 -14  -3   3   -0.53    1.26
 -14   3   3  221.95    9.22
  14  -3  -3  195.81    8.77
  14   3  -3   -0.95    1.41
 -15  -3   2   74.37    5.82
 -15  -3   2   60.28    4.37
 -15   3   2   29.71    4.30
  15  -3  -2   31.86    4.52
  15   3  -2   58.86    5.23
 -16  -3   1  275.68   10.88
 -16  -3   1  255.60    8.11
 -16   3   1    5.46    2.36
  16  -3  -1    6.96    2.73
  16  -3  -1    3.86    1.67
  16   3  -1  243.33   10.24
 -17  -3   0    0.54    1.79
 -17   3   0    0.11    1.66
  17  -3   0    0.60    1.93
  17  -3   0   -0.02    1.32
  17   3   0   -0.54    1.74
 -18  -3  -1   41.07    5.62
 -18   3  -1   32.35    4.76
  18  -3   1   32.19    4.91
  18  -3   1   31.39    3.75
  18   3   1   35.23    5.21
  -7  -5  10   22.52    4.29
  -7   5  10    0.99    2.24
   7  -5 -10    1.98    2.10
   7   5 -10   19.81    3.05
  -8  -5   9    8.37    2.84
  -8   5   9   28.38    4.49
   8  -5  -9   23.29    4.02
   8   5  -9    9.24    2.35
  -9  -5   8    9.70    2.65
  -9  -5   8   11.31    3.03
  -9   5   8    1.96    2.02
  -9   5   8    1.10    1.88
   9  -5  -8    0.49    1.61
   9   5  -8    7.12    2.16
 -10  -5   7  225.60    8.76
 -10  -5   7  208.23    9.14
 -10   5   7   97.24    6.54
  10  -5  -7   82.09    5.94
  10   5  -7  198.81    7.83
 -11  -5   6    1.79    1.74
 -11  -5   6    2.50    1.93
 -11   5   6   57.34    5.04
  11  -5  -6   60.25    5.23
  11   5  -6   -0.02    1.29
 -12  -5   5    5.37    2.32
 -12  -5   5    7.12    2.46
 -12   5   5    7.16    2.42
  12  -5  -5    7.36    2.51
  12   5  -5    3.47    1.86
 -13  -5   4    5.22    2.40
 -13  -5   4    5.54    2.09
 -13   5   4    1.26    1.82
  13  -5  -4    2.79    2.01
  13   5  -4    6.67    2.49
 -14  -5   3    1.93    1.89
 -14  -5   3    2.95    1.78
 -14   5   3   46.41    4.55
  14  -5  -3   38.97    4.34
  14   5  -3    0.84    1.83
 -15  -5   2  273.39   10.63
 -15  -5   2  270.83    9.19
 -15   5   2  348.90   11.63
  15  -5  -2  327.33   11.44
  15   5  -2  260.28   10.33
 -16  -5   1   12.05    3.17
 -16  -5   1   17.64    3.12
 -16   5   1   37.69    4.27
  16  -5  -1   44.02    4.68
  16  -5  -1   43.06    4.09
  16   5  -1   13.71    3.43
 -17  -5   0   -0.66    1.67
 -17  -5   0   -0.42    1.35
 -17   5   0    1.61    1.91
  17  -5   0   -0.26    1.90
  17  -5   0    1.07    1.59
  17   5   0   -0.40    1.78
  18  -5   1    1.73    2.06
  18   5   1   -1.27    1.93
  -7  -7  10   37.28    5.58
  -7   7  10   28.96    4.93
   7  -7 -10   29.63    4.79
   7   7 -10   37.94    3.30
  -8  -7   9    5.27    2.70
   8  -7  -9   17.24    3.73
   8   7  -9    5.83    1.99
  -9  -7   8    1.95    1.97
  -9   7   8    0.36    1.99
  -9   7   8   -0.83    1.56
   9  -7  -8    1.34    1.83
   9   7  -8    1.60    1.50
 -10  -7   7    7.84    2.80
 -10   7   7    1.04    1.98
  10  -7  -7    1.30    2.01
  10   7  -7   12.28    2.59
 -11  -7   6   23.87    3.78
 -11  -7   6   20.50    3.76
 -11   7   6  281.98   10.75
  11  -7  -6  266.80   10.52
  11   7  -6   20.83    3.34
 -12  -7   5    4.94    2.27
 -12  -7   5    7.82    2.59
 -12   7   5    3.00    2.02
  12  -7  -5    2.56    2.00
  12   7  -5    5.07    2.13
 -13  -7   4   16.60    3.37
 -13  -7   4   16.30    3.36
 -13   7   4    1.82    1.89
  13  -7  -4    2.30    2.02
  13   7  -4   16.38    3.20
 -14  -7   3  395.29   12.56
 -14  -7   3  374.15   11.63
 -14   7   3   18.41    3.51
  14  -7  -3   27.17    4.32
  14   7  -3  357.13   11.71
 -15  -7   2   20.82    3.88
 -15  -7   2   22.04    3.62
 -15   7   2   12.96    3.17
  15  -7  -2   11.95    3.25
  15   7  -2   20.63    3.86
 -16  -7   1   13.80    3.49
 -16   7   1   93.29    6.32
  16  -7  -1   81.19    6.18
  16   7  -1   18.45    3.76
 -17  -7   0    1.10    2.10
 -17   7   0    0.69    1.87
  17  -7   0    2.80    2.02
  17   7   0    1.26    2.03
  -8  -9   9  108.80    7.65
  -8   9   9    8.76    3.28
   8  -9  -9   12.46    3.53
   8   9  -9   92.24    4.58
  -9  -9   8    1.70    2.20
  -9   9   8    2.29    2.39
  -9   9   8    2.25    2.19
   9  -9  -8    1.85    2.08
   9   9  -8    3.92    1.71
 -10  -9   7    8.87    2.97
 -10   9   7   -0.08    1.82
 -10   9   7    0.25    1.89
  10  -9  -7    0.37    1.78
  10   9  -7    6.85    2.11
 -11  -9   6    9.40    3.03
 -11   9   6    5.71    2.54
  11  -9  -6    6.45    2.70
  11   9  -6    9.38    2.51
 -12  -9   5   25.61    3.95
 -12  -9   5   20.93    3.90
 -12   9   5   38.24    4.42
  12  -9  -5   45.76    4.95
  12   9  -5   26.22    3.80
 -13  -9   4    3.97    2.14
 -13  -9   4    3.88    2.24
 -13   9   4    0.58    1.73
  13  -9  -4   -1.44    1.69
  13   9  -4    3.48    2.06
 -14  -9   3    1.49    2.10
 -14  -9   3    5.06    2.36
 -14   9   3    5.85    2.34
  14  -9  -3    3.24    2.32
  14   9  -3    3.59    2.15
 -15  -9   2  136.90    8.05
 -15   9   2    1.04    1.76
  15  -9  -2   -0.24    1.82
  15   9  -2  121.55    7.37
 -16  -9   1    6.22    2.83
 -16   9   1   57.55    5.16
  16   9  -1    2.73    2.36
 -10 -11   7   -0.38    2.05
 -10  11   7    4.33    2.58
 -10  11   7    4.40    2.47
  10 -11  -7    4.51    2.56
  10  11  -7    0.25    1.38
 -11 -11   6    3.60    2.53
 -11  11   6    4.21    2.40
  11 -11  -6    1.64    2.11
  11  11  -6    3.56    1.90
 -12 -11   5   95.05    7.01
 -12  11   5   15.47    3.45
  12 -11  -5   12.68    3.35
  12  11  -5   83.43    5.47
 -13 -11   4    3.63    2.42
 -13  11   4    0.01    1.70
  13 -11  -4    0.11    1.82
  13  11  -4    3.01    2.01
 -14  11   3   25.70    4.10
  14 -11  -3   28.54    4.67
  14  11  -3  121.62    7.18
   7   0 -11   12.22    3.03
  -8   0  10    6.93    2.60
   8   0 -10    6.07    2.40
  -9   0   9   34.82    4.30
   9   0  -9   30.43    4.23
 -10   0   8  295.22   10.70
 -10   0   8  268.80   10.35
  10   0  -8  285.36   10.29
 -11   0   7    2.66    1.97
 -11   0   7    2.53    2.06
  11   0  -7    2.57    2.01
 -12   0   6   16.60    3.32
 -12   0   6   13.75    2.97
  12   0  -6   10.83    2.84
 -13   0   5    9.83    2.85
 -13   0   5    8.01    2.24
  13   0  -5    8.88    2.63
 -14   0   4   38.22    4.43
 -14   0   4   38.13    3.60
  14   0  -4   41.10    4.55
 -15   0   3  373.60   12.23
 -15   0   3  315.14    8.87
  15   0  -3  349.62   11.83
  15   0  -3  348.56    7.51
 -16   0   2   -0.76    1.62
 -16   0   2    1.31    1.28
  16   0  -2    0.74    1.82
  16   0  -2   -0.19    0.90
 -17   0   1    6.67    2.70
  17   0  -1    8.32    2.90
 -18   0   0   10.20    3.11
  18   0   0   10.42    3.35
  -7   2  11    3.34    2.41
  -8  -2  10    0.94    1.92
  -8   2  10    3.34    2.28
  -8   2  10    4.23    2.41
   8  -2 -10    4.82    2.30
   8   2 -10    1.63    1.73
  -9  -2   9   32.01    3.91
  -9  -2   9   36.67    4.50
  -9   2   9    7.36    2.70
   9  -2  -9    7.30    2.58
   9   2  -9   26.53    3.84
 -10  -2   8   28.31    4.16
 -10  -2   8   30.78    4.49
 -10   2   8    5.51    2.51
  10  -2  -8    3.30    2.22
  10   2  -8   29.16    3.64
 -11  -2   7   15.51    3.27
 -11  -2   7   14.40    3.23
 -11   2   7  104.24    6.62
  11  -2  -7   96.29    6.37
  11   2  -7   14.00    3.00
 -12  -2   6   42.37    4.52
 -12  -2   6   39.80    4.23
 -12   2   6   13.93    3.15
  12  -2  -6   14.48    3.28
  12   2  -6   38.11    4.08
 -13  -2   5    4.60    2.35
 -13  -2   5    5.15    2.17
 -13   2   5   48.92    4.86
  13  -2  -5   50.14    4.86
  13   2  -5    4.88    2.19
 -14  -2   4  545.79   14.51
 -14  -2   4  467.35   11.82
 -14   2   4   12.77    3.06
  14  -2  -4   15.56    3.28
  14   2  -4  494.18   13.65
 -15  -2   3   31.64    4.61
 -15  -2   3   29.40    3.28
 -15   2   3    9.83    2.87
  15  -2  -3   11.62    3.15
  15   2  -3   28.69    4.27
 -16  -2   2   11.54    3.23
 -16  -2   2   10.84    2.36
 -16   2   2    1.38    1.82
  16  -2  -2    1.31    1.95
  16  -2  -2    1.89    1.28
  16   2  -2   10.18    2.99
 -17  -2   1    2.54    2.23
 -17   2   1    3.09    2.27
  17  -2  -1    3.53    2.29
  17  -2  -1    3.82    1.70
  17   2  -1   -0.02    1.94
 -18  -2   0   10.38    3.24
 -18   2   0    0.38    1.86
  18  -2   0   -0.51    1.77
  18   2   0    9.61    3.18
  -8  -4  10    0.06    1.90
  -8   4  10    1.57    2.33
  -8   4  10    0.44    1.96
   8  -4 -10   -0.20    1.82
   8   4 -10    1.42    1.62
  -9  -4   9    3.34    2.29
  -9   4   9    2.35    2.15
  -9   4   9    1.96    2.14
   9  -4  -9    0.31    1.67
   9   4  -9    1.40    1.63
 -10  -4   8    0.52    1.80
 -10  -4   8    1.61    1.99
 -10   4   8    3.15    2.27
  10  -4  -8    2.20    1.88
  10   4  -8    0.79    1.57
 -11  -4   7    4.26    2.11
 -11  -4   7    3.22    2.06
 -11   4   7   37.97    4.38
  11  -4  -7   33.58    4.68
  11   4  -7    4.34    1.99
 -12  -4   6    3.14    2.07
 -12  -4   6    0.86    1.78
 -12   4   6    2.03    2.08
  12  -4  -6    0.83    1.85
  12   4  -6    2.18    1.77
 -13  -4   5  184.05    8.49
 -13  -4   5  172.25    7.87
 -13   4   5   12.53    3.08
  13  -4  -5   17.12    3.57
  13   4  -5  182.86    8.28
 -14  -4   4   33.44    4.66
 -14  -4   4   37.00    3.97
 -14   4   4   12.82    3.11
  14  -4  -4   16.27    3.51
  14   4  -4   35.19    4.19
 -15  -4   3    3.69    2.18
 -15  -4   3    3.99    1.90
 -15   4   3    6.10    2.50
  15  -4  -3   10.64    3.02
  15   4  -3    2.81    2.15
 -16  -4   2   53.05    5.20
 -16  -4   2   49.78    4.22
 -16   4   2    4.70    2.29
  16  -4  -2    4.49    2.38
  16  -4  -2    4.92    1.94
  16   4  -2   49.47    4.97
 -17  -4   1   52.50    5.37
 -17  -4   1   42.65    3.88
 -17   4   1  133.65    7.77
  17  -4  -1  129.24    7.86
  17  -4  -1  121.76    6.35
  17   4  -1   53.84    5.50
 -18  -4   0  268.84   11.61
 -18   4   0   17.65    3.77
  18  -4   0   17.67    3.97
  18  -4   0   18.36    3.31
  18   4   0  257.25   11.38
  -8  -6  10    0.72    2.07
  -8   6  10   15.70    3.69
   8  -6 -10   11.85    3.39
   8   6 -10    1.80    1.65
  -9  -6   9   18.43    3.89
  -9   6   9   37.44    5.39
  -9   6   9   35.43    5.22
   9  -6  -9   31.88    4.89
   9   6  -9   15.14    2.89
 -10  -6   8    6.58    2.76
 -10   6   8   27.42    4.58
  10  -6  -8   23.36    4.11
  10   6  -8    7.55    2.23
 -11  -6   7    4.55    2.20
 -11  -6   7    5.85    2.44
 -11   6   7   16.76    3.62
  11  -6  -7   12.84    3.27
  11   6  -7    3.72    2.01
 -12  -6   6    3.81    2.18
 -12  -6   6    4.16    2.36
 -12   6   6   12.70    3.22
  12  -6  -6   12.38    3.31
  12   6  -6    5.48    2.14
 -13  -6   5   12.00    3.10
 -13  -6   5   10.32    2.93
 -13   6   5  234.80    9.94
  13  -6  -5  225.50    9.87
  13   6  -5    6.77    2.36
 -14  -6   4   53.97    5.18
 -14  -6   4   53.89    4.88
 -14   6   4    9.25    2.86
  14  -6  -4    8.44    2.86
  14   6  -4   50.87    4.87
 -15  -6   3   18.29    3.74
 -15  -6   3   17.40    3.30
 -15   6   3    1.82    2.07
  15  -6  -3   -0.06    1.73
  15   6  -3   16.57    3.51
 -16  -6   2    2.67    2.17
 -16  -6   2    3.30    1.90
 -16   6   2    1.04    2.01
  16  -6  -2    1.53    2.13
  16   6  -2    1.90    2.14
 -17  -6   1   98.63    7.29
 -17  -6   1   93.12    5.85
 -17   6   1   19.66    3.81
  17  -6  -1   23.66    4.35
  17  -6  -1   24.12    3.76
  17   6  -1   89.31    6.80
  -9  -8   9   10.19    3.36
  -9   8   9   82.57    6.73
   9  -8  -9   70.76    6.26
   9   8  -9   13.83    2.64
 -10  -8   8    2.08    2.17
 -10   8   8    4.57    2.61
 -10   8   8    6.00    2.80
  10  -8  -8    5.33    2.52
  10   8  -8    0.51    1.52
 -11  -8   7  118.59    7.61
 -11   8   7    9.50    3.08
  11  -8  -7   11.41    3.29
  11   8  -7  116.93    6.17
 -12  -8   6    1.92    2.16
 -12   8   6   33.09    4.78
  12  -8  -6   30.58    4.61
  12   8  -6    0.81    1.59
 -13  -8   5    3.48    2.25
 -13  -8   5    4.54    2.39
 -13   8   5    6.16    2.62
  13  -8  -5    3.62    2.31
  13   8  -5    7.04    2.40
 -14  -8   4    0.66    1.96
 -14  -8   4    0.01    1.82
 -14   8   4  144.34    7.95
  14  -8  -4  148.68    8.34
  14   8  -4    3.39    1.98
 -15  -8   3    0.12    1.86
 -15  -8   3   -0.69    1.66
 -15   8   3   13.69    3.35
  15  -8  -3   11.85    3.37
  15   8  -3   -0.44    1.75
 -16  -8   2   16.58    3.84
 -16  -8   2   19.59    3.73
 -16   8   2    8.01    2.76
  16  -8  -2    8.57    2.97
  16   8  -2   18.82    3.90
 -11 -10   7    5.04    2.72
 -11  10   7    0.66    1.92
  11 -10  -7    1.09    1.95
  11  10  -7    5.02    2.04
 -12 -10   6    4.06    2.65
 -12  10   6    9.82    3.04
  12 -10  -6   12.18    3.51
  12  10  -6    2.00    1.87
 -13 -10   5   15.00    3.80
 -13  10   5    6.22    2.67
  13 -10  -5    7.17    2.84
  13  10  -5   17.78    3.43
 -14 -10   4    1.74    2.08
 -14  10   4  100.20    6.83
  14 -10  -4  115.95    7.65
  14  10  -4   -1.25    1.52
 -15 -10   3  123.66    7.93
 -15 -10   3  113.15    7.38
 -15  10   3   82.72    6.29
  15 -10  -3   89.70    6.86
  15  10  -3  107.92    7.03
  -9   1  10   17.17    3.69
   9  -1 -10   18.97    3.74
   9   1 -10   -0.41    1.62
 -10  -1   9    8.62    2.86
 -10  -1   9    9.18    3.01
 -10   1   9    1.52    2.00
  10  -1  -9    2.23    2.04
  10   1  -9    6.29    2.34
 -11  -1   8    0.78    1.74
 -11  -1   8    0.15    1.76
 -11   1   8    7.65    2.63
  11  -1  -8    2.96    2.05
  11   1  -8   -0.90    1.55
 -12  -1   7  421.52   12.97
 -12  -1   7  376.63   12.03
 -12   1   7   15.91    3.49
  12  -1  -7   13.86    3.22
  12   1  -7  394.39   12.30
 -13  -1   6   11.78    3.03
 -13  -1   6   11.32    2.88
 -13   1   6  325.17   11.54
 -13   1   6  285.04    9.88
  13  -1  -6  326.92   11.53
  13   1  -6   10.75    2.98
 -14  -1   5   20.08    3.80
 -14  -1   5   12.03    2.71
 -14   1   5   67.95    5.62
 -14   1   5   59.78    4.59
  14  -1  -5   69.26    5.63
  14   1  -5   12.56    3.08
 -15  -1   4    1.21    2.10
 -15  -1   4    2.89    1.68
 -15   1   4   27.20    4.32
 -15   1   4   22.66    3.27
  15  -1  -4   25.25    4.32
  15   1  -4    0.89    2.04
 -16  -1   3    2.49    2.24
 -16  -1   3    1.43    1.44
 -16   1   3    1.86    2.04
 -16   1   3    1.39    1.44
  16  -1  -3    2.69    2.14
  16   1  -3    1.31    2.08
 -17  -1   2  171.31    8.93
 -17  -1   2  165.42    6.52
 -17   1   2   23.89    4.29
  17  -1  -2   23.21    4.25
  17   1  -2  170.64    8.92
 -18  -1   1    4.06    2.48
 -18   1   1   32.44    4.89
  18  -1  -1   31.64    4.91
  18   1  -1    4.13    2.65
  -9  -3  10    4.15    2.70
  -9   3  10  249.59   10.91
   9  -3 -10  225.33   10.15
   9   3 -10    3.73    2.09
 -10  -3   9    8.46    3.10
 -10   3   9   -0.86    1.68
  10  -3  -9    0.59    1.71
  10   3  -9    5.65    2.25
 -11  -3   8    1.14    1.88
 -11  -3   8    1.37    2.05
 -11   3   8    2.14    2.03
  11  -3  -8    3.11    2.24
  11   3  -8    0.45    1.52
 -12  -3   7   56.20    5.18
 -12  -3   7   54.48    5.05
 -12   3   7   -0.71    1.79
  12  -3  -7   -0.41    1.72
  12   3  -7   55.27    4.89
 -13  -3   6   26.19    4.14
 -13  -3   6   20.00    3.54
 -13   3   6    4.24    2.33
  13  -3  -6    3.15    2.28
  13   3  -6   25.36    4.05
 -14  -3   5    6.13    2.64
 -14  -3   5    7.32    2.45
 -14   3   5  246.04   10.32
  14  -3  -5  249.17   10.30
  14   3  -5    4.29    2.18
 -15  -3   4   -1.40    1.70
 -15  -3   4   -0.16    1.48
 -15   3   4   -1.32    1.73
  15  -3  -4    1.74    2.07
  15   3  -4   -0.89    1.46
 -16  -3   3   44.25    4.99
 -16  -3   3   44.26    4.06
 -16   3   3   -0.35    1.67
  16  -3  -3    1.16    2.16
  16   3  -3   41.89    4.69
 -17  -3   2   30.62    4.78
 -17  -3   2   27.71    3.35
 -17   3   2    4.14    2.43
  17  -3  -2    5.93    2.66
  17  -3  -2    5.46    1.92
  17   3  -2   28.63    4.68
 -18  -3   1   38.65    5.46
 -18   3   1   38.58    4.67
  18  -3  -1   33.22    5.13
  18   3  -1   46.03    5.40
 -10  -5   9   88.08    6.84
 -10   5   9  119.99    7.79
  10  -5  -9  113.21    7.54
  10   5  -9   99.37    6.02
 -11  -5   8   -1.04    1.91
 -11   5   8   17.94    3.78
  11  -5  -8   16.29    3.59
  11   5  -8   -0.42    1.48
 -12  -5   7    0.88    1.89
 -12  -5   7    0.90    2.09
 -12   5   7    0.70    2.01
  12  -5  -7    0.97    1.87
  12   5  -7    2.13    1.81
 -13  -5   6    1.93    1.92
 -13  -5   6    0.15    1.72
 -13   5   6    1.84    1.96
  13  -5  -6    0.65    1.99
  13   5  -6    1.03    1.69
 -14  -5   5    3.81    2.33
 -14  -5   5    5.68    2.41
 -14   5   5   19.63    3.79
  14  -5  -5   19.77    3.96
  14   5  -5    4.02    2.18
 -15  -5   4    1.76    2.17
 -15  -5   4    5.29    2.25
 -15   5   4    0.59    1.96
  15  -5  -4   -0.76    1.63
  15   5  -4    3.43    2.16
 -16  -5   3    5.40    2.57
 -16  -5   3    3.47    2.01
 -16   5   3    4.99    2.46
  16  -5  -3    5.87    2.75
  16   5  -3    3.19    2.42
 -17  -5   2    8.76    2.98
 -17  -5   2   12.11    2.82
 -17   5   2    0.68    2.04
  17  -5  -2   -0.98    1.65
  17  -5  -2    0.76    1.51
  17   5  -2    9.75    3.08
 -18   5   1    3.24    2.38
  18  -5  -1    4.57    2.79
  18  -5  -1    3.96    2.00
  18   5  -1    0.36    2.04
 -10  -7   9   -0.17    2.10
 -10   7   9   -0.01    1.97
 -10   7   9   -1.97    1.67
  10  -7  -9    1.61    2.12
  10   7  -9    0.03    1.51
 -11  -7   8   -1.07    1.72
 -11   7   8   11.38    3.32
  11  -7  -8   12.21    3.41
  11   7  -8    0.28    1.58
 -12  -7   7    3.85    2.38
 -12   7   7   40.76    4.79
  12  -7  -7   41.67    4.85
  12   7  -7    2.81    1.92
 -13  -7   6    3.94    2.37
 -13  -7   6    3.92    2.34
 -13   7   6    3.68    2.30
  13  -7  -6    2.05    2.29
  13   7  -6    2.67    1.96
 -14  -7   5  153.60    8.20
 -14  -7   5  147.45    8.14
 -14   7   5   -1.24    1.70
  14  -7  -5   -0.28    1.98
  14   7  -5  142.04    7.61
 -15  -7   4    7.46    2.86
 -15  -7   4    6.19    2.59
 -15   7   4   34.83    5.03
  15  -7  -4   32.90    4.90
  15   7  -4    3.78    2.35
 -16  -7   3    2.22    2.11
 -16  -7   3    2.43    1.89
 -16   7   3   54.94    5.45
  16  -7  -3   50.37    5.45
  16   7  -3    2.11    2.07
 -17  -7   2    5.53    2.74
 -17  -7   2    6.97    2.61
 -17   7   2   69.44    6.02
  17  -7  -2   65.01    6.11
  17   7  -2    5.93    2.85
 -12  -9   7    1.95    2.11
 -12   9   7   93.92    7.13
  12  -9  -7   93.17    7.18
  12   9  -7    0.46    1.55
 -13  -9   6  123.15    7.90
 -13   9   6   81.40    6.60
  13  -9  -6   87.68    6.84
  13   9  -6  120.82    6.82
 -14  -9   5    6.75    2.88
 -14   9   5    0.63    1.96
  14  -9  -5    0.31    1.97
  14   9  -5    6.28    2.46
 -15  -9   4    8.42    3.02
 -15  -9   4   11.62    3.30
 -15   9   4    5.15    2.53
  15  -9  -4    6.36    3.00
  15   9  -4    7.56    2.68
 -10   0  10   -0.38    1.94
  10   0 -10    1.72    1.93
 -11   0   9    1.12    2.03
  11   0  -9    1.84    2.04
 -12   0   8   72.84    5.92
  12   0  -8   66.28    5.68
 -13   0   7   10.17    3.09
 -13   0   7   12.02    3.08
  13   0  -7   11.27    3.00
 -14   0   6   25.90    4.42
 -14   0   6   26.56    3.95
  14   0  -6   23.96    4.14
 -15   0   5   34.25    4.90
 -15   0   5   34.64    3.83
  15   0  -5   35.84    5.08
 -16   0   4   -1.24    1.85
 -16   0   4   -0.88    1.19
  16   0  -4    0.15    1.84
 -17   0   3   -0.02    1.83
 -17   0   3   -0.20    1.32
  17   0  -3    1.40    2.10
 -18   0   2    9.60    3.22
  18   0  -2    6.17    2.90
 -10  -2  10   11.42    3.45
 -10   2  10    1.18    2.21
  10  -2 -10    0.42    1.81
  10   2 -10    9.17    2.86
 -11  -2   9   58.59    5.48
 -11  -2   9   59.66    5.81
 -11   2   9  113.56    7.54
  11  -2  -9  114.99    7.41
  11   2  -9   59.78    5.17
 -12  -2   8   -0.44    1.77
 -12  -2   8    0.35    1.96
 -12   2   8    3.54    2.29
  12  -2  -8    1.64    2.08
  12   2  -8    1.48    1.83
 -13  -2   7    5.09    2.39
 -13  -2   7    0.89    1.82
 -13   2   7   -0.22    1.75
  13  -2  -7   -1.00    1.59
  13   2  -7    2.16    2.09
 -14  -2   6    1.37    1.99
 -14  -2   6    0.56    1.64
 -14   2   6   29.19    4.69
  14  -2  -6   30.32    4.62
  14   2  -6   -0.73    1.70
 -15  -2   5    3.26    2.34
 -15  -2   5    3.62    1.99
 -15   2   5   48.13    5.06
  15  -2  -5   50.19    5.17
  15   2  -5    3.96    2.25
 -16  -2   4   16.88    3.79
 -16  -2   4   14.20    2.91
 -16   2   4  167.80    8.86
  16  -2  -4  151.68    8.49
  16   2  -4   10.47    3.05
 -17  -2   3    0.85    1.94
 -17  -2   3    2.03    1.66
 -17   2   3    5.82    2.67
  17  -2  -3    9.29    3.25
  17   2  -3    1.66    2.16
 -18  -2   2   19.87    4.20
 -18   2   2    2.97    2.40
  18  -2  -2    5.53    2.82
  18   2  -2   17.93    3.93
 -11  -4   9    4.49    2.71
 -11   4   9   15.01    3.64
  11  -4  -9   12.52    3.45
  11   4  -9   -1.04    1.62
 -12  -4   8   23.43    4.12
 -12  -4   8   18.77    3.95
 -12   4   8  222.98   10.31
  12  -4  -8  217.26   10.10
  12   4  -8   19.41    3.56
 -13  -4   7  172.29    8.76
 -13  -4   7  144.85    8.09
 -13   4   7    0.33    1.96
  13  -4  -7    0.10    1.87
  13   4  -7  151.06    7.79
 -14  -4   6   -0.56    1.64
 -14  -4   6   -0.52    1.57
 -14   4   6    1.40    2.16
  14  -4  -6    0.48    1.98
  14   4  -6    1.48    1.91
 -15  -4   5   11.45    3.21
 -15  -4   5   10.36    2.89
 -15   4   5    1.21    2.17
  15  -4  -5    1.00    1.98
  15   4  -5   10.28    2.97
 -16  -4   4   23.83    4.28
 -16  -4   4   24.37    3.82
 -16   4   4   27.81    4.63
  16  -4  -4   31.19    4.98
  16   4  -4   17.29    3.75
 -17  -4   3   22.20    4.39
 -17  -4   3   22.21    3.62
 -17   4   3   45.92    5.23
  17  -4  -3   46.79    5.43
  17   4  -3   17.91    3.85
 -18  -4   2    1.19    2.10
 -18   4   2    2.32    2.39
  18  -4  -2    2.95    2.61
  18   4  -2    1.82    2.15
 -12  -6   8  118.19    7.81
 -12   6   8   70.77    6.24
  12  -6  -8   63.41    5.93
  12   6  -8  123.53    6.88
 -13  -6   7    4.04    2.37
 -13   6   7  114.89    7.62
  13  -6  -7  111.50    7.65
  13   6  -7    4.56    2.21
 -14  -6   6    0.88    2.06
 -14  -6   6    1.72    1.99
 -14   6   6    0.37    1.92
  14  -6  -6   -0.92    1.75
  14   6  -6    0.08    1.70
 -15  -6   5    0.70    2.05
 -15  -6   5    0.82    1.80
 -15   6   5   16.90    3.76
  15  -6  -5   17.37    3.92
  15   6  -5    1.41    1.88
 -16  -6   4    5.51    2.65
 -16  -6   4    3.45    2.07
 -16   6   4    0.88    1.97
  16  -6  -4   -0.06    1.92
  16   6  -4    5.34    2.54
 -17  -6   3   78.27    6.68
 -17  -6   3   71.29    5.63
 -17   6   3   40.79    5.53
  17  -6  -3   31.85    5.06
  17   6  -3   76.79    6.34
 -14  -8   6    4.58    2.56
 -14   8   6    1.33    1.98
  14  -8  -6    2.18    2.29
  14   8  -6    6.29    2.48
 -15  -8   5   13.71    3.45
 -15  -8   5   17.30    3.80
 -15   8   5    0.41    1.98
  15  -8  -5    0.05    2.06
  15   8  -5   12.65    3.19
 -12  -1   9  134.21    8.07
 -12  -1   9  114.07    7.61
 -12   1   9    2.78    2.24
  12  -1  -9    0.25    1.87
  12   1  -9  119.10    7.33
 -13  -1   8    2.15    2.15
 -13  -1   8    3.78    2.37
 -13   1   8   15.04    3.71
  13  -1  -8   16.88    3.70
  13   1  -8    6.16    2.64
 -14  -1   7   16.46    3.71
 -14  -1   7   11.36    3.19
 -14   1   7   18.44    4.06
  14  -1  -7   15.41    3.66
  14   1  -7   15.08    3.55
 -15  -1   6   36.76    5.20
 -15  -1   6   30.05    4.38
 -15   1   6   -0.44    1.99
  15  -1  -6    1.72    2.04
  15   1  -6   26.60    4.50
 -16  -1   5   18.93    3.96
 -16  -1   5   17.68    3.38
 -16   1   5    3.03    2.31
  16  -1  -5    0.72    2.04
  16   1  -5   17.15    3.82
 -17  -1   4    2.56    2.40
 -17  -1   4    2.36    1.77
 -17   1   4    1.01    2.14
  17  -1  -4    1.41    2.22
  17   1  -4    1.41    2.23
 -18  -1   3   53.47    5.76
 -18   1   3   87.75    6.93
  18  -1  -3   78.27    6.78
  18   1  -3   49.20    5.39
 -13  -3   8    3.33    2.57
 -13  -3   8    5.74    2.63
 -13   3   8    2.75    2.29
  13  -3  -8    1.60    2.18
  13   3  -8    4.03    2.29
 -14  -3   7    0.00    1.82
 -14  -3   7    0.10    1.94
 -14   3   7   90.77    6.86
  14  -3  -7   83.45    6.59
  14   3  -7    0.64    1.96
 -15  -3   6   14.67    3.72
 -15  -3   6   15.02    3.40
 -15   3   6   50.19    5.32
  15  -3  -6   50.83    5.51
  15   3  -6   14.61    3.40
 -16  -3   5   82.66    6.69
 -16  -3   5   70.14    5.50
 -16   3   5   25.79    4.55
  16  -3  -5   26.24    4.64
  16   3  -5   69.50    5.92
 -17  -3   4    1.18    2.19
 -17  -3   4   -0.18    1.56
 -17   3   4   43.48    5.11
  17  -3  -4   39.97    5.69
  17   3  -4    0.41    2.04
 -13  -5   8    3.87    2.45
 -13   5   8   -1.25    1.89
  13  -5  -8    1.97    2.15
  13   5  -8    1.36    1.88
 -14  -5   7    1.92    2.33
 -14  -5   7    3.53    2.34
 -14   5   7   13.61    3.69
  14  -5  -7   10.12    3.28
  14   5  -7    1.54    1.93
 -15  -5   6  145.86    8.52
 -15  -5   6  123.31    7.62
 -15   5   6  249.60   11.22
  15  -5  -6  249.30   11.26
  15   5  -6  127.78    7.72
 -16  -5   5   11.53    3.27
 -16  -5   5    7.75    2.74
 -16   5   5    1.01    2.08
  16  -5  -5    0.36    2.12
  16   5  -5   10.64    3.20
 -15   0   7   97.87    7.33
 -15   0   7   86.74    6.32
  15   0  -7   95.78    7.09
 -16   0   6   15.61    3.74
 -16   0   6   14.87    3.27
  16   0  -6   13.64    3.71
 -17   0   5    0.93    2.10
 -17   0   5    0.66    1.65
  17   0  -5    2.26    2.43
 -15  -2   7    0.58    2.27
 -15  -2   7    0.20    1.99
 -15   2   7    3.29    2.48
  15  -2  -7    3.58    2.46
  15   2  -7    0.24    1.79
 -16  -2   6    3.48    2.45
 -16  -2   6    3.45    2.15
 -16   2   6    0.77    2.25
  16  -2  -6    2.18    2.24
  16   2  -6    2.71    2.49
   0   0   0    0.00    0.00
;
_shelx_hkl_checksum              29024
loop_
_space_group_symop_operation_xyz
'x, y, z'
'-y+1/4, x+3/4, z+3/4'
'y+1/4, -x+1/4, z+1/4'
'-x, -y+1/2, z'
'x+1/2, y+1/2, z+1/2'
'-y+3/4, x+5/4, z+5/4'
'y+3/4, -x+3/4, z+3/4'
'-x+1/2, -y+1, z+1/2'
'-x, -y, -z'
'y-1/4, -x-3/4, -z-3/4'
'-y-1/4, x-1/4, -z-1/4'
'x, y-1/2, -z'
'-x+1/2, -y+1/2, -z+1/2'
'y+1/4, -x-1/4, -z-1/4'
'-y+1/4, x+1/4, -z+1/4'
'x+1/2, y, -z+1/2'
loop_
_atom_site_label
_atom_site_type_symbol
_atom_site_fract_x
_atom_site_fract_y
_atom_site_fract_z
_atom_site_U_iso_or_equiv
_atom_site_adp_type
_atom_site_occupancy
_atom_site_site_symmetry_order
_atom_site_calc_flag
_atom_site_refinement_flags_posn
_atom_site_refinement_flags_adp
_atom_site_refinement_flags_occupancy
_atom_site_disorder_assembly
_atom_site_disorder_group
I1 I 0.30340(2) 0.14472(3) 0.12291(4) 0.0213(2) Uani 1 1 d . . . . .
I2 I 0.500000 0.250000 -0.125000 0.0350(3) Uani 1 4 d S T P . .
I3 I 0.43701(12) 0.37643(13) 0.2172(2) 0.0149(5) Uiso 0.25 1 d . . P A 4
Cu1 Cu 0.33123(8) 0.26383(8) 0.31263(14) 0.0229(4) Uani 0.625 1 d . . P . .
Cu2 Cu 0.45266(11) 0.22801(11) 0.12175(17) 0.0242(4) Uani 0.5 1 d . . P A .
Cu3 Cu 0.41435(15) 0.10802(14) 0.3218(2) 0.0255(5) Uani 0.375 1 d . . P A .
S1 S 0.44660(13) 0.35722(16) 0.2444(2) 0.0107(6) Uiso 0.75 1 d . . P A .
C1A C 0.4073(10) 0.4154(5) 0.1230(9) 0.050(3) Uiso 0.25 1 d D U P A -2
N1A N 0.3299(13) 0.4238(12) 0.0734(19) 0.050(3) Uiso 0.25 1 d D U P A -2
C2A C 0.4664(8) 0.4727(8) 0.0476(11) 0.050(3) Uiso 0.25 1 d D U P A -2
C1B C 0.3943(5) 0.4276(16) 0.1477(10) 0.050(3) Uiso 0.25 1 d D U P A -3
N1B N 0.3505(9) 0.4092(19) 0.0383(15) 0.050(3) Uiso 0.25 1 d D U P A -3
C2B C 0.4012(13) 0.5176(17) 0.197(3) 0.050(3) Uiso 0.25 1 d D U P A -3
C1C C 0.4289(5) 0.4481(8) 0.1584(9) 0.050(3) Uiso 0.25 1 d D U P A -4
N1C N 0.4664(8) 0.4727(8) 0.0476(11) 0.050(3) Uiso 0.25 1 d D U P A -4
C2C C 0.3628(11) 0.5067(15) 0.216(3) 0.050(3) Uiso 0.25 1 d D U P A -4
loop_
_atom_site_aniso_label
_atom_site_aniso_U_11
_atom_site_aniso_U_22
_atom_site_aniso_U_33
_atom_site_aniso_U_23
_atom_site_aniso_U_13
_atom_site_aniso_U_12
I1 0.0159(3) 0.0207(3) 0.0272(4) -0.00391(16) -0.00235(16) 0.00267(15)
I2 0.0445(4) 0.0445(4) 0.0159(5) 0.000 0.000 0.000
Cu1 0.0193(7) 0.0210(7) 0.0283(8) 0.0014(5) 0.0007(6) 0.0029(5)
Cu2 0.0263(10) 0.0211(9) 0.0252(9) 0.0005(7) 0.0007(7) 0.0045(7)
Cu3 0.0279(12) 0.0168(11) 0.0317(13) -0.0012(9) 0.0035(10) -0.0014(9)
loop_
_atom_type_symbol
_atom_type_description
_atom_type_scat_dispersion_real
_atom_type_scat_dispersion_imag
_atom_type_scat_source
C C 0.0033 0.0016 'International Tables Vol C Tables 4.2.6.8 and 6.1.1.4'
H H 0.0000 0.0000 'International Tables Vol C Tables 4.2.6.8 and 6.1.1.4'
Cu Cu 0.3201 1.2651 'International Tables Vol C Tables 4.2.6.8 and 6.1.1.4'
I I -0.4742 1.8119 'International Tables Vol C Tables 4.2.6.8 and 6.1.1.4'
N N 0.0061 0.0033 'International Tables Vol C Tables 4.2.6.8 and 6.1.1.4'
S S 0.1246 0.1234 'International Tables Vol C Tables 4.2.6.8 and 6.1.1.4'
loop_
_geom_angle_atom_site_label_1
_geom_angle_atom_site_label_2
_geom_angle_atom_site_label_3
_geom_angle
_geom_angle_site_symmetry_1
_geom_angle_site_symmetry_3
Cu3 I1 Cu1 37.09(6) 2_544 13
Cu3 I1 Cu2 142.33(6) 2_544 .
Cu1 I1 Cu2 115.85(5) 13 .
Cu3 I1 Cu1 102.30(6) 2_544 .
Cu1 I1 Cu1 65.22(5) 13 .
Cu2 I1 Cu1 61.53(5) . .
Cu3 I1 Cu3 142.82(10) 2_544 .
Cu1 I1 Cu3 117.04(6) 13 .
Cu2 I1 Cu3 62.87(6) . .
Cu1 I1 Cu3 61.87(6) . .
Cu2 I2 Cu2 154.17(5) 4_655 11_655
Cu2 I2 Cu2 154.17(5) 4_655 14_565
Cu2 I2 Cu2 36.85(8) 11_655 14_565
Cu2 I2 Cu2 36.85(8) 4_655 .
Cu2 I2 Cu2 154.17(5) 11_655 .
Cu2 I2 Cu2 154.17(5) 14_565 .
C1C I3 N1C 26.8(5) . .
C1C I3 C2C 35.0(7) . .
N1C I3 C2C 61.8(7) . .
C1C I3 Cu2 130.5(4) . .
N1C I3 Cu2 107.9(3) . .
C2C I3 Cu2 147.8(6) . .
Cu3 I3 Cu2 97.33(10) 14_566 .
C1C I3 Cu3 101.2(3) . 4_655
N1C I3 Cu3 93.1(3) . 4_655
C2C I3 Cu3 111.7(6) . 4_655
Cu3 I3 Cu3 97.61(9) 14_566 4_655
Cu2 I3 Cu3 98.74(10) . 4_655
C1C I3 Cu2 117.4(4) . 4_655
N1C I3 Cu2 90.7(3) . 4_655
C2C I3 Cu2 152.4(7) . 4_655
Cu3 I3 Cu2 118.57(11) 14_566 4_655
Cu2 I3 Cu2 37.50(8) . 4_655
Cu3 I3 Cu2 66.30(8) 4_655 4_655
C1C I3 Cu1 102.1(4) . 14_566
N1C I3 Cu1 111.0(3) . 14_566
C2C I3 Cu1 90.7(6) . 14_566
Cu3 I3 Cu1 65.67(8) 14_566 14_566
Cu2 I3 Cu1 120.66(10) . 14_566
Cu3 I3 Cu1 37.69(7) 4_655 14_566
Cu2 I3 Cu1 99.42(9) 4_655 14_566
C1C I3 Cu1 134.6(4) . .
N1C I3 Cu1 146.8(3) . .
C2C I3 Cu1 106.0(6) . .
Cu3 I3 Cu1 37.87(7) 14_566 .
Cu2 I3 Cu1 64.79(7) . .
Cu3 I3 Cu1 119.72(11) 4_655 .
Cu2 I3 Cu1 97.58(8) 4_655 .
Cu1 I3 Cu1 99.31(8) 14_566 .
Cu3 Cu1 S1 68.98(10) 14_566 11_656
Cu3 Cu1 S1 66.22(10) 14_566 .
S1 Cu1 S1 100.96(13) 11_656 .
Cu3 Cu1 I3 70.40(10) 14_566 11_656
S1 Cu1 I3 8.90(6) 11_656 11_656
S1 Cu1 I3 109.10(11) . 11_656
Cu3 Cu1 I3 68.43(10) 14_566 .
S1 Cu1 I3 109.56(11) 11_656 .
S1 Cu1 I3 8.99(6) . .
I3 Cu1 I3 117.49(10) 11_656 .
Cu3 Cu1 I1 70.43(9) 14_566 13
S1 Cu1 I1 111.56(8) 11_656 13
S1 Cu1 I1 109.74(7) . 13
I3 Cu1 I1 104.65(7) 11_656 13
I3 Cu1 I1 103.33(6) . 13
Cu3 Cu1 I1 174.70(11) 14_566 .
S1 Cu1 I1 108.84(7) 11_656 .
S1 Cu1 I1 110.08(7) . .
I3 Cu1 I1 108.23(6) 11_656 .
I3 Cu1 I1 108.55(6) . .
I1 Cu1 I1 114.78(5) 13 .
Cu3 Cu1 Cu2 116.21(11) 14_566 .
S1 Cu1 Cu2 100.70(8) 11_656 .
S1 Cu1 Cu2 54.03(7) . .
I3 Cu1 Cu2 108.23(7) 11_656 .
I3 Cu1 Cu2 56.26(6) . .
I1 Cu1 Cu2 146.70(6) 13 .
I1 Cu1 Cu2 59.03(5) . .
Cu3 Cu1 Cu3 117.08(12) 14_566 .
S1 Cu1 Cu3 52.83(8) 11_656 .
S1 Cu1 Cu3 101.00(9) . .
I3 Cu1 Cu3 56.01(7) 11_656 .
I3 Cu1 Cu3 108.09(8) . .
I1 Cu1 Cu3 148.20(7) 13 .
I1 Cu1 Cu3 59.17(6) . .
Cu2 Cu1 Cu3 61.09(7) . .
Cu3 Cu1 Cu1 128.83(12) 14_566 13
S1 Cu1 Cu1 129.79(10) 11_656 13
S1 Cu1 Cu1 129.19(10) . 13
I3 Cu1 Cu1 121.70(9) 11_656 13
I3 Cu1 Cu1 120.66(9) . 13
I1 Cu1 Cu1 58.41(4) 13 13
I1 Cu1 Cu1 56.38(5) . 13
Cu2 Cu1 Cu1 106.48(8) . 13
Cu3 Cu1 Cu1 107.38(8) . 13
Cu2 Cu2 S1 71.09(11) 4_655 .
Cu2 Cu2 S1 68.78(10) 4_655 4_655
S1 Cu2 S1 103.92(14) . 4_655
Cu2 Cu2 I3 72.54(11) 4_655 .
S1 Cu2 I3 9.42(6) . .
S1 Cu2 I3 112.66(12) 4_655 .
Cu2 Cu2 I3 69.95(11) 4_655 4_655
S1 Cu2 I3 112.48(12) . 4_655
S1 Cu2 I3 9.24(6) 4_655 4_655
Cu2 Cu2 I2 71.57(4) 4_655 .
S1 Cu2 I2 112.76(9) . .
S1 Cu2 I2 111.57(9) 4_655 .
I3 Cu2 I2 105.20(8) . .
I3 Cu2 I2 104.08(7) 4_655 .
Cu2 Cu2 I1 175.74(15) 4_655 .
S1 Cu2 I1 112.32(8) . .
S1 Cu2 I1 107.51(8) 4_655 .
I3 Cu2 I1 111.25(7) . .
I3 Cu2 I1 106.04(7) 4_655 .
I2 Cu2 I1 108.62(6) . .
Cu2 Cu2 Cu1 122.84(9) 4_655 .
S1 Cu2 Cu1 55.99(7) . .
S1 Cu2 Cu1 102.59(9) 4_655 .
I3 Cu2 Cu1 58.94(6) . .
I3 Cu2 Cu1 109.97(8) 4_655 .
I2 Cu2 Cu1 145.84(7) . .
I1 Cu2 Cu1 59.44(5) . .
Cu2 Cu2 Cu3 118.48(10) 4_655 .
S1 Cu2 Cu3 101.50(10) . .
S1 Cu2 Cu3 53.62(8) 4_655 .
I3 Cu2 Cu3 109.27(9) . .
I3 Cu2 Cu3 56.84(7) 4_655 .
I2 Cu2 Cu3 145.52(8) . .
I1 Cu2 Cu3 58.87(6) . .
Cu1 Cu2 Cu3 59.85(6) . .
Cu1 Cu3 S1 72.81(11) 11_656 11_656
Cu1 Cu3 S1 70.20(11) 11_656 4_655
S1 Cu3 S1 104.61(15) 11_656 4_655
Cu1 Cu3 I3 73.71(10) 11_656 11_656
S1 Cu3 I3 9.09(7) 11_656 11_656
S1 Cu3 I3 112.98(13) 4_655 11_656
Cu1 Cu3 I3 71.92(10) 11_656 4_655
S1 Cu3 I3 113.30(13) 11_656 4_655
S1 Cu3 I3 9.03(7) 4_655 4_655
Cu1 Cu3 I1 72.48(9) 11_656 3
S1 Cu3 I1 114.24(11) 11_656 3
S1 Cu3 I1 113.30(11) 4_655 3
I3 Cu3 I1 106.56(10) 11_656 3
I3 Cu3 I1 106.24(9) 4_655 3
Cu1 Cu3 I1 176.23(14) 11_656 .
S1 Cu3 I1 110.91(10) 11_656 .
S1 Cu3 I1 107.75(10) 4_655 .
I3 Cu3 I1 110.07(9) 11_656 .
I3 Cu3 I1 105.55(9) 4_655 .
I1 Cu3 I1 105.96(8) 3 .
Cu1 Cu3 Cu1 124.31(13) 11_656 .
S1 Cu3 Cu1 55.25(8) 11_656 .
S1 Cu3 Cu1 102.64(10) 4_655 .
I3 Cu3 Cu1 58.32(7) 11_656 .
I3 Cu3 Cu1 109.30(9) 4_655 .
I1 Cu3 Cu1 144.01(10) 3 .
I1 Cu3 Cu1 58.96(6) . .
Cu1 Cu3 Cu2 121.03(12) 11_656 .
S1 Cu3 Cu2 100.93(10) 11_656 .
S1 Cu3 Cu2 54.50(8) 4_655 .
I3 Cu3 Cu2 108.44(10) 11_656 .
I3 Cu3 Cu2 56.87(7) 4_655 .
I1 Cu3 Cu2 144.83(10) 3 .
I1 Cu3 Cu2 58.26(6) . .
Cu1 Cu3 Cu2 59.06(6) . .
C1A S1 Cu2 96.4(3) . .
C1B S1 Cu2 106.7(6) . .
C1C S1 Cu2 117.9(3) . .
Cu3 S1 Cu2 107.80(12) 14_566 .
C1A S1 Cu3 117.2(5) . 4_655
C1B S1 Cu3 118.9(5) . 4_655
C1C S1 Cu3 97.0(3) . 4_655
Cu3 S1 Cu3 109.06(11) 14_566 4_655
Cu2 S1 Cu3 109.07(11) . 4_655
C1A S1 Cu1 122.3(3) . 14_566
C1B S1 Cu1 114.2(7) . 14_566
C1C S1 Cu1 98.0(3) . 14_566
Cu3 S1 Cu1 71.92(9) 14_566 14_566
Cu2 S1 Cu1 137.82(13) . 14_566
Cu3 S1 Cu1 40.83(8) 4_655 14_566
C1A S1 Cu2 100.6(4) . 4_655
C1B S1 Cu2 113.3(4) . 4_655
C1C S1 Cu2 108.7(3) . 4_655
Cu3 S1 Cu2 135.45(14) 14_566 4_655
Cu2 S1 Cu2 40.13(9) . 4_655
Cu3 S1 Cu2 71.88(9) 4_655 4_655
Cu1 S1 Cu2 110.02(10) 14_566 4_655
C1A S1 Cu1 105.2(5) . .
C1B S1 Cu1 101.1(4) . .
C1C S1 Cu1 122.0(3) . .
Cu3 S1 Cu1 40.97(8) 14_566 .
Cu2 S1 Cu1 69.97(8) . .
Cu3 S1 Cu1 137.08(14) 4_655 .
Cu1 S1 Cu1 110.30(10) 14_566 .
Cu2 S1 Cu1 107.28(10) 4_655 .
N1A C1A C2A 108.9(14) . .
N1A C1A S1 132.9(12) . .
C2A C1A S1 118.2(12) . .
N1B C1B C2B 121(2) . .
N1B C1B S1 126(2) . .
C2B C1B S1 113.3(13) . .
I3 C1C N1C 127.1(11) . .
I3 C1C C2C 115.8(13) . .
N1C C1C C2C 116.8(15) . .
I3 C1C S1 5.08(16) . .
N1C C1C S1 127.2(10) . .
C2C C1C S1 116.0(13) . .
C1C N1C I3 26.1(6) . .
C1C C2C I3 29.2(7) . .
loop_
_geom_bond_atom_site_label_1
_geom_bond_atom_site_label_2
_geom_bond_distance
_geom_bond_site_symmetry_2
I1 Cu3 2.584(2) 2_544
I1 Cu1 2.6155(13) 13
I1 Cu2 2.6639(18) .
I1 Cu1 2.6754(14) .
I1 Cu3 2.681(2) .
I2 Cu2 2.5736(17) 4_655
I2 Cu2 2.5736(17) 11_655
I2 Cu2 2.5736(17) 14_565
I2 Cu2 2.5736(17) .
I3 C1C 1.265(12) .
I3 N1C 2.297(11) .
I3 C2C 2.336(19) .
I3 Cu3 2.506(3) 14_566
I3 Cu2 2.510(3) .
I3 Cu3 2.549(3) 4_655
I3 Cu2 2.549(2) 4_655
I3 Cu1 2.572(2) 14_566
I3 Cu1 2.586(2) .
Cu1 Cu3 1.654(3) 14_566
Cu1 S1 2.380(3) 11_656
Cu1 S1 2.410(2) .
Cu1 Cu2 2.731(2) .
Cu1 Cu3 2.754(3) .
Cu1 Cu1 2.852(3) 13
Cu2 Cu2 1.627(3) 4_655
Cu2 S1 2.353(3) .
Cu2 S1 2.388(3) 4_655
Cu2 Cu3 2.788(3) .
Cu3 S1 2.308(3) 11_656
Cu3 S1 2.361(3) 4_655
S1 C1A 1.625(12) .
S1 C1B 1.667(19) .
S1 C1C 1.675(12) .
C1A N1A 1.308(10) .
C1A C2A 1.484(9) .
C1B N1B 1.311(10) .
C1B C2B 1.491(10) .
C1C N1C 1.300(9) .
C1C C2C 1.490(10) .
