#------------------------------------------------------------------------------
#$Date: 2019-11-24 21:10:04 +0200 (Sun, 24 Nov 2019) $
#$Revision: 239425 $
#$URL: file:///home/coder/svn-repositories/cod/cif/4/51/66/4516648.cif $
#------------------------------------------------------------------------------
#
# This file is available in the Crystallography Open Database (COD),
# http://www.crystallography.net/
#
# All data on this site have been placed in the public domain by the
# contributors.
#
data_4516648
loop_
_publ_author_name
'Benmansour, Samia'
'Abherv\'e, Alexandre'
'G\'omez-Claramunt, Patricia'
'Vall\'es-Garc\'ia, Cristina'
'G\'omez-Garc\'ia, Carlos J'
_publ_section_title
;
 Nanosheets of Two-Dimensional Magnetic and Conducting Fe(II)/Fe(III)
 Mixed-Valence Metal-Organic Frameworks.
;
_journal_issue                   31
_journal_name_full               'ACS applied materials &amp; interfaces'
_journal_page_first              26210
_journal_page_last               26218
_journal_paper_doi               10.1021/acsami.7b08322
_journal_volume                  9
_journal_year                    2017
_chemical_formula_sum            'C54 H24 Cl6 Fe2 N6 O26'
_chemical_formula_weight         1497.19
_space_group_crystal_system      trigonal
_space_group_IT_number           162
_space_group_name_Hall           '-P 3 2'
_space_group_name_H-M_alt        'P -3 1 m'
_atom_sites_solution_hydrogens   geom
_audit_creation_method           SHELXL-2014/7
_cell_angle_alpha                90
_cell_angle_beta                 90
_cell_angle_gamma                120
_cell_formula_units_Z            1
_cell_length_a                   13.6909(3)
_cell_length_b                   13.6909(3)
_cell_length_c                   9.1968(3)
_cell_measurement_reflns_used    1328
_cell_measurement_temperature    120(2)
_cell_measurement_theta_max      24.9579
_cell_measurement_theta_min      2.9697
_cell_volume                     1492.90(7)
_computing_data_collection
;
CrysAlisPro, Agilent Technologies,
Version 1.171.35.19 (release 27-10-2011 CrysAlis171 .NET)
(compiled Oct 27 2011,15:02:11)
;
_computing_structure_refinement  'SHELXL-2014/7 (Sheldrick, 2014)'
_diffrn_ambient_temperature      120(2)
_diffrn_measured_fraction_theta_full 0.997
_diffrn_measured_fraction_theta_max 0.997
_diffrn_measurement_device_type
'SuperNova, Single source at offset), Sapphire3'
_diffrn_measurement_method       '\w scans'
_diffrn_radiation_type           MoK\a
_diffrn_radiation_wavelength     0.71073
_diffrn_reflns_av_R_equivalents  0.0317
_diffrn_reflns_av_unetI/netI     0.0333
_diffrn_reflns_Laue_measured_fraction_full 0.997
_diffrn_reflns_Laue_measured_fraction_max 0.997
_diffrn_reflns_limit_h_max       16
_diffrn_reflns_limit_h_min       -10
_diffrn_reflns_limit_k_max       4
_diffrn_reflns_limit_k_min       -16
_diffrn_reflns_limit_l_max       10
_diffrn_reflns_limit_l_min       -7
_diffrn_reflns_number            3381
_diffrn_reflns_point_group_measured_fraction_full 0.997
_diffrn_reflns_point_group_measured_fraction_max 0.997
_diffrn_reflns_theta_full        25.000
_diffrn_reflns_theta_max         25.012
_diffrn_reflns_theta_min         2.976
_diffrn_source                   'SuperNova (Mo) X-ray Source'
_exptl_absorpt_coefficient_mu    0.847
_exptl_absorpt_correction_T_max  0.9589
_exptl_absorpt_correction_T_min  0.9126
_exptl_absorpt_correction_type   multi-scan
_exptl_absorpt_process_details
;
CrysAlisPro, Agilent Technologies,
Version 1.171.35.19 (release 27-10-2011 CrysAlis171 .NET)
(compiled Oct 27 2011,15:02:11)
Empirical absorption correction using spherical harmonics,
 implemented in SCALE3 ABSPACK scaling algorithm.
;
_exptl_crystal_colour            Black
_exptl_crystal_density_diffrn    1.665
_exptl_crystal_description       Hexagonal_prism
_exptl_crystal_F_000             752
_exptl_crystal_size_max          0.110
_exptl_crystal_size_mid          0.050
_exptl_crystal_size_min          0.050
_refine_diff_density_max         0.351
_refine_diff_density_min         -0.548
_refine_diff_density_rms         0.069
_refine_ls_extinction_method     none
_refine_ls_goodness_of_fit_ref   1.093
_refine_ls_hydrogen_treatment    constr
_refine_ls_matrix_type           full
_refine_ls_number_parameters     78
_refine_ls_number_reflns         963
_refine_ls_number_restraints     0
_refine_ls_restrained_S_all      1.093
_refine_ls_R_factor_all          0.0497
_refine_ls_R_factor_gt           0.0381
_refine_ls_shift/su_max          0.000
_refine_ls_shift/su_mean         0.000
_refine_ls_structure_factor_coef Fsqd
_refine_ls_weighting_details
'w=1/[\s^2^(Fo^2^)+(0.0499P)^2^+1.6046P] where P=(Fo^2^+2Fc^2^)/3'
_refine_ls_weighting_scheme      calc
_refine_ls_wR_factor_gt          0.1034
_refine_ls_wR_factor_ref         0.1107
_reflns_Friedel_coverage         0.000
_reflns_number_gt                770
_reflns_number_total             963
_reflns_threshold_expression     'I > 2\s(I)'
_cod_data_source_file            am7b08322_si_001.cif
_cod_data_source_block           shelx_SBML142
_cod_original_cell_volume        1492.90(8)
_cod_database_code               4516648
_shelx_shelxl_version_number     2014/7
_shelx_space_group_comment
;
The symmetry employed for this shelxl refinement is uniquely defined
by the following loop, which should always be used as a source of
symmetry information in preference to the above space-group names.
They are only intended as comments.
;
_shelx_estimated_absorpt_t_min   0.913
_shelx_estimated_absorpt_t_max   0.959
_shelx_res_file
;

    shelx.res created by SHELXL-2014/7

TITL SIR92 run in space group P -3 1 m
CELL  0.71073  13.6909  13.6909   9.1968   90.000   90.000  120.000
ZERR     1.00   0.0003   0.0003   0.0003    0.000    0.000    0.000
LATT   1
SYMM  - Y,   X - Y,   Z
SYMM  - X + Y, - X,   Z
SYMM  - Y, - X, - Z
SYMM    X,   X - Y, - Z
SYMM  - X + Y,   Y, - Z
SFAC  C    H    N    O    CL   FE
UNIT  54 24 6 26 6 2
MERG   2
FMAP   2
PLAN   25
ACTA    50.00
BOND   $H
CONF
L.S.  20
TEMP   -153
Size 0.11 0.05  0.05
WGHT    0.049900    1.604600
FVAR       3.19005
FE1   6    0.666667    0.333333    0.500000    10.16667    0.01199    0.01199 =
         0.02402    0.00000    0.00000    0.00600
O2    4    0.657754    0.198377    0.388353    11.00000    0.01397    0.01481 =
         0.02535    0.00136    0.00481    0.00467
C2    1    0.587804    0.101721    0.437666    11.00000    0.01289    0.01769 =
         0.01685   -0.00008   -0.00287    0.00809
C1    1    0.573551    0.000000    0.386769    10.50000    0.01466    0.01910 =
         0.01764    0.00000    0.00319    0.00955
CL1   5    0.663042    0.000000    0.253105    10.50000    0.01996    0.02118 =
         0.02257    0.00000    0.00666    0.01059
N11   3    0.559318    0.118636    0.000000    10.50000    0.02926    0.03269 =
         0.02151    0.00000   -0.00413    0.01635
C12   1    0.467545    0.060559    0.084737    11.00000    0.02728    0.02954 =
         0.02051   -0.00112   -0.00563    0.01515
C13   1    0.429495    0.118947    0.175076    11.00000    0.03657    0.03434 =
         0.02587   -0.00386   -0.00686    0.02201
AFIX  43
H13   2    0.468263    0.199055    0.175624    11.00000   -1.20000
AFIX   0
C14   1    0.337314    0.059626    0.260767    11.00000    0.03606    0.04609 =
         0.02994   -0.00394   -0.00107    0.02635
AFIX  43
H14   2    0.312533    0.098988    0.321711    11.00000   -1.20000
AFIX   0
O1W   4    0.666667    0.333333    0.000000    10.16667    0.08544    0.08544 =
         0.20916    0.00000    0.00000    0.04272
O2W   4    0.947255    0.052745    0.500000    10.50000    0.29384    0.29384 =
         0.62228    0.04339    0.04339    0.18102
O3W   4    0.924533    0.000000   -0.028247    10.50000    0.40416    0.97921 =
         0.66457    0.00000   -0.11591    0.48961
HKLF    4

REM  SIR92 run in space group P -3 1 m
REM R1 =  0.0381 for     770 Fo > 4sig(Fo)  and  0.0497 for all     963 data
REM     78 parameters refined using      0 restraints

END

WGHT      0.0497      1.6157

REM Highest difference peak  0.351,  deepest hole -0.548,  1-sigma level  0.069
Q1    1   0.5456  0.0912  0.5000  10.50000  0.05    0.28
Q2    1   0.4203  0.0000  0.0531  10.50000  0.05    0.24
Q3    1   0.9168  0.0000  0.0330  10.50000  0.05    0.24
Q4    1   1.0000  0.0000 -0.2682  10.16667  0.05    0.22
Q5    1   0.9421  0.0580  0.0000  10.50000  0.05    0.22
Q6    1   0.9352  0.0000 -0.1285  10.50000  0.05    0.21
Q7    1   0.6347  0.0000  0.3782  10.50000  0.05    0.21
Q8    1   0.2209  0.0000  0.4231  10.50000  0.05    0.21
Q9    1   0.6222  0.2405  0.0396  11.00000  0.05    0.20
Q10   1   0.8107  0.0000  0.2512  10.50000  0.05    0.20
Q11   1   0.5857  0.0000  0.3299  10.50000  0.05    0.18
Q12   1   0.1985  0.0000  0.2048  10.50000  0.05    0.17
Q13   1   0.6997  0.2189  0.3171  11.00000  0.05    0.17
Q14   1   0.2243  0.1319  0.2520  11.00000  0.05    0.17
Q15   1   0.7592 -0.1204  0.0000  10.50000  0.05    0.17
Q16   1   0.2314  0.0000  0.3065  10.50000  0.05    0.17
Q17   1   0.6058  0.0000  0.1680  10.50000  0.05    0.17
Q18   1   0.5647  0.2506  0.1427  11.00000  0.05    0.17
Q19   1   0.2757  0.0773  0.2870  11.00000  0.05    0.16
Q20   1   0.2252  0.0456  0.4591  11.00000  0.05    0.16
Q21   1   0.5634  0.0494  0.3762  11.00000  0.05    0.16
Q22   1   0.4247  0.0798  0.1050  11.00000  0.05    0.16
Q23   1   0.7725  0.0519  0.2877  11.00000  0.05    0.16
Q24   1   0.2604  0.1007  0.3803  11.00000  0.05    0.16
Q25   1   0.3438  0.0000 -0.0161  10.50000  0.05    0.16
;
_shelx_res_checksum              10273
_shelx_hkl_file
;
   0   0   2 10595.1 311.820   1
   0   0  -2 10620.5 314.600   1
   0   0   3 606.210 109.740   1
   0   0  -3 800.816 118.750   1
   0   0  -4 41265.4 870.791   1
   0   0   4 40238.4 863.191   1
   0   0   5 14057.3 569.532   1
   0   0  -5 13950.4 565.745   1
   0   0  -6 35363.1 983.192   1
   0   0   6 34175.3 982.793   1
   0   0   7 19.5144 100.066   1
   0   0   8 39098.7 1225.27   1
   0   0   9 18212.0 892.385   1
   0   0  10 89.1343 145.824   1
   0   1  10 1380.96 285.598   1
   1  -1  10 1699.59 329.807   1
  -1   0   9 1292.75 233.690   1
   1  -1   9 785.718 211.697   1
   0   1   9 956.921 240.418   1
   0   1   8 779.989 217.753   1
  -1   0   8 1118.27 203.798   1
   1  -1   8 831.508 208.645   1
  -1   0   7 1071.05 195.170   1
   0   1   7 781.489 178.482   1
   1  -1   7 311.542 125.811   1
  -1   0   6-4.90126 82.1529   1
   1   0  -6 85.1639 84.6606   1
   1  -1   6 21.8547 81.6701   1
   0   1   6 9.52813 80.3420   1
  -1   0   5 2907.29 244.375   1
  -1   1  -5 3241.81 294.261   1
   0  -1  -5 3233.51 293.555   1
   1   0  -5 2713.52 228.288   1
   1  -1   5 3048.83 289.225   1
   0   1   5 3250.31 292.859   1
  -1   1  -4 2388.91 226.835   1
   0   1   4 2286.50 223.154   1
   1  -1   4 2102.91 223.470   1
  -1   0   4 2042.85 178.369   1
   1   0  -4 2105.90 178.502   1
   0  -1  -4 2448.38 239.228   1
  -1   0   3 250.504 65.9440   1
   0  -1  -3 264.904 91.5468   1
   1   0  -3 368.138 76.9230   1
  -1   1  -3 470.826 109.801   1
   1  -1   3 213.445 95.6668   1
   0   1   3 316.364 95.6349   1
   0   1   2 11065.4 353.311   1
  -1   0   2 10918.3 249.010   1
   0  -1  -2 10377.5 347.674   1
  -1   1  -2 10651.4 357.080   1
   1   0  -2 10803.8 240.771   1
   1  -1   2 11061.7 368.148   1
   0  -1   2 10784.2 311.712   1
  -1   1   2 11000.9 290.194   1
   1  -1  -2 10779.2 292.542   1
  -1   0  -2 11313.4 387.508   1
   1   0   2 10557.9 370.079   1
   1  -1  -3 270.216 74.6398   1
  -1   0  -3 304.719 93.2242   1
   0   1  -3 182.846 73.1067   1
   0  -1   3 215.941 80.9908   1
  -1   1   3 247.999 73.6202   1
   1   0   3 197.288 87.2348   1
   1  -1  -4 2271.31 196.491   1
   0   1  -4 2707.68 221.605   1
  -1   0  -4 2138.52 228.810   1
   0  -1   4 2140.64 205.879   1
  -1   1   4 2236.31 195.363   1
   1   0   4 2569.95 248.934   1
   0   1  -5 3080.06 261.797   1
  -1   0  -5 3083.74 300.263   1
   0  -1   5 2858.17 262.948   1
   1  -1  -5 3268.36 267.377   1
   1   0   5 3483.94 307.897   1
  -1   1   5 2754.00 244.169   1
   1  -1  -6-9.58050 62.8751   1
   0  -1   6-8.22270 78.2278   1
   0   1  -6 120.567 78.5372   1
  -1   1   6 141.236 93.3462   1
   1   0   6 11.1599 101.272   1
   1   0   7 671.285 177.099   1
  -1   1   7 843.515 177.642   1
   0  -1   7 879.145 180.153   1
  -1   1   8 1303.52 233.180   1
   1   0   8 1370.74 264.481   1
   0  -1   8 511.613 147.734   1
  -1   1   9 1820.00 308.553   1
   0  -1   9 992.098 231.541   1
   1   0   9 761.296 208.871   1
   1   0  10 1580.36 304.949   1
   1   1  10 14762.4 914.266   1
   1  -2  10 13031.6 828.927   1
   1  -2   9 1671.66 293.173   1
   1   1   9 1680.56 319.544   1
  -2   1   9 1346.13 233.817   1
  -2   1   8 1989.26 252.205   1
   1  -2   8 2496.22 332.757   1
   1   1   8 1729.34 297.866   1
  -2   1   7 37085.0 969.415   1
   1   1   7 38685.6 1235.36   1
   2  -1  -7 36203.2 959.903   1
   1  -2   7 36369.9 1141.44   1
   2  -1  -6 41908.4 937.018   1
   1  -2   6 42897.3 1157.85   1
   1   1   6 42604.2 1204.70   1
  -2   1   6 40319.3 916.103   1
   2  -1  -5 8286.16 376.358   1
   1   1   5 8472.61 499.894   1
   1  -2   5 8315.32 478.197   1
  -1  -1  -5 7795.80 494.158   1
  -2   1   5 8782.64 384.589   1
  -1   2  -5 8919.72 469.529   1
  -1   2  -4 5573.01 343.464   1
  -1  -1  -4 5062.03 359.910   1
  -2   1   4 5105.68 255.471   1
   1   1   4 5127.34 355.646   1
   2  -1  -4 5526.37 267.001   1
   1  -2   4 5669.18 352.869   1
  -2   1   3 14731.4 338.859   1
   1  -2   3 15063.8 500.892   1
   2  -1  -3 14663.7 348.128   1
  -1  -1  -3 14768.2 538.600   1
   1   1   3 14611.7 537.354   1
   1  -2   2 47072.1 776.716   1
  -1   2  -2 48046.8 806.592   2
  -1  -1  -2 48935.5 856.354   1
   1   1   2 48518.9 849.109   1
   2  -1  -2 47581.4 450.309   1
   1  -2   1 31241.3 528.346   2
  -1   2  -1 30069.6 520.107   2
  -1  -1  -1 30916.8 579.454   1
   1   1   1 30017.5 567.440   1
   2  -1   0 4383.93 167.764   1
  -1  -1   0 4098.25 172.054   1
  -2   1  -1 58438.7 776.888   1
   1   1  -1 59778.1 627.213   2
   2  -1   1 57706.7 786.230   1
  -2   1  -1 58284.6 624.122   2
  -2   1  -2 518283. 2773.87   1
   1  -2  -2 509940. 2408.78   1
   2  -1   2 511725. 2811.36   1
   1  -2  -3 59.6566 63.3504   1
  -1   2   3 176.285 75.6797   1
  -1  -1   3 249.072 70.3362   1
   2  -1   3 210.789 97.5917   1
  -2   1  -3 201.053 94.7005   1
  -2   1  -4 477.660 135.278   1
  -1  -1   4 443.407 95.2209   1
   1  -2  -4 566.617 124.494   1
   2  -1   4 483.536 130.593   1
  -1   2   4 653.671 125.331   1
   2  -1   5 15088.6 673.932   1
  -1   2   5 15069.7 593.874   1
   1  -2  -5 14909.0 599.357   1
  -1  -1   5 15214.8 535.759   1
  -1  -1   6 27168.3 798.962   1
   1  -2  -6 27017.8 886.196   1
  -1   2   6 27389.9 871.786   1
   2  -1   6 28996.2 1005.84   1
  -1  -1   7 1218.73 202.190   1
  -1   2   7 881.401 183.132   1
   2  -1   7 785.536 207.913   1
  -1  -1   8 14.6622 80.8473   1
  -1   2   8 152.258 140.935   1
   2  -1   8 144.818 139.037   1
   2  -1   9 17295.1 958.638   1
  -1   2   9 16177.3 822.969   1
  -1  -1   9 15505.0 765.569   1
   2  -1  10 3824.53 483.626   1
   0   2  10 88.5555 152.863   1
   2  -2  10-64.8385 155.200   1
   0   2   9 2943.66 389.562   1
   2  -2   9 3501.68 437.968   1
   0   2   8 3002.02 371.117   1
   2  -2   8 2498.67 351.968   1
  -2   0   8 2633.00 280.740   1
   2   0  -7 1672.94 203.130   1
   0   2   7 2025.90 299.587   1
   2  -2   7 1698.17 279.520   1
  -2   0   7 1912.23 227.785   1
   2  -2   6 9748.59 586.518   1
   0   2   6 10478.0 586.530   1
   2   0  -6 8868.71 412.554   1
  -2   0   6 9633.31 439.142   1
  -2   0   5 3642.08 238.447   1
   0   2   5 3716.54 328.561   1
   2  -2   5 4137.99 364.373   1
   2   0  -5 4044.82 248.050   1
   0  -2  -5 3985.79 338.518   1
   0  -2  -4 8227.02 441.968   1
   2  -2   4 8798.80 471.163   1
  -2   0   4 8273.45 297.189   1
   0   2   4 8304.23 440.374   1
  -2   2  -4 8271.62 448.127   1
   2   0  -4 8635.15 298.828   1
   0   2   3 3796.59 272.427   1
   0  -2  -3 4504.99 298.695   1
   2  -2   3 4521.32 308.289   1
  -2   2  -3 4098.91 285.490   1
  -2   0   3 4334.82 167.831   1
  -2   2  -2 39825.2 774.208   1
   0  -2  -2 41116.4 772.600   1
   2  -2   2 40614.6 790.000   1
  -2   2  -2 40001.6 727.287   2
   0   2   2 41064.9 768.213   1
   2  -2   1 9726.92 297.022   2
   2  -2   1 9890.05 337.002   1
  -2   2  -1 9978.44 299.113   2
  -2   0   0 99321.7 844.149   1
   2   0   0 98076.9 836.482   1
   2   0   1 9965.12 346.986   1
   0  -2   1 9906.09 303.053   2
  -2   0  -1 9953.00 347.991   1
   0   2  -1 10239.0 305.565   2
  -2   0  -2 40817.9 821.622   1
   0   2  -2 40411.3 733.404   2
   2   0   2 39930.0 812.211   1
   2  -2  -3 4292.07 225.165   1
   0  -2   3 4023.21 244.497   1
  -2   0  -3 4533.77 321.057   1
   2   0   3 3897.48 299.290   1
  -2   2   4 8406.37 354.897   1
   2   0   4 8271.15 464.812   1
   0  -2   4 7190.01 364.895   1
  -2   0  -4 8229.71 471.321   1
   2  -2  -4 7858.69 351.683   1
   0  -2   5 3417.37 283.629   1
   2   0   5 3783.81 350.259   1
  -2   2   5 3835.17 274.131   1
   2  -2  -5 3705.74 281.385   1
   2  -2  -6 9702.90 492.590   1
   2   0   6 9882.17 604.201   1
  -2   2   6 9277.28 468.565   1
   0  -2   6 9420.37 513.090   1
   0  -2   7 1942.38 257.571   1
   2  -2  -7 1367.16 202.329   1
   2   0   7 1964.24 301.760   1
  -2   2   7 1727.30 233.872   1
  -2   2   8 2562.25 296.200   1
   2   0   8 2159.44 326.885   1
   0  -2   8 2101.65 286.065   1
  -2   2   9 3086.74 342.815   1
   0  -2   9 3430.26 387.878   1
   2   0   9 3673.15 444.961   1
   2   0  10-167.542 150.488   1
   2   1  10 1919.67 359.830   1
   1  -3   9 646.861 195.549   1
   2   1   9 373.139 193.689   1
   2   1   8 3327.57 412.586   1
   1  -3   8 3536.12 394.866   1
   2   1   7 5236.17 488.623   1
   3  -2  -7 5120.46 354.426   1
   1  -3   7 5199.44 446.219   1
   1  -3   6 339.617 130.061   1
   3  -2  -6 593.224 119.683   1
   2   1   6 386.615 143.113   1
   1  -3   5 598.415 158.939   1
   3  -2  -5 820.248 126.895   1
   2   1   5 1041.67 211.380   1
   1  -3   4 267.244 99.0521   1
  -2  -1  -4 200.212 122.911   1
   2   1   4 95.8746 98.0813   1
   3  -2  -4 175.736 53.5982   1
  -2  -1  -3 942.712 162.092   1
   2   1   3 991.430 171.441   1
   1  -3   3 856.596 141.431   1
  -1   3  -3 764.881 137.142   2
   3  -2  -3 868.359 90.5583   1
  -2  -1  -2 4758.06 307.515   1
  -1   3  -2 4944.09 278.755   2
   2   1   2 4740.54 304.130   1
   1  -3   2 5192.04 293.140   2
   1  -3   1 2293.97 179.714   2
   2   1   1 2381.64 203.651   1
  -2  -1  -1 1833.82 172.140   1
   2   1   0 1775.42 157.127   1
   3  -2   0 1910.99 143.938   1
  -2  -1   0 1431.84 144.972   1
  -3   2  -1 13739.1 354.269   2
   2   1  -1 14179.7 303.140   2
   3  -2   1 13384.5 437.594   1
  -3   2  -1 13708.2 436.888   1
   3  -2   1 14085.8 361.206   2
   3  -2   2 118155. 1489.47   1
  -3   2  -2 128270. 1307.32   2
  -3   2  -2 123392. 1482.66   1
   1  -3  -2 120942. 1373.70   1
   3  -2   3-36.8021 102.811   1
  -2  -1   3 66.9861 39.4254   1
   1  -3  -3 36.3467 67.6848   1
  -3   2  -3-26.7084 78.9981   1
   1  -3  -4 12342.0 535.830   1
  -2  -1   4 12104.6 367.645   1
  -3   2  -4 11412.0 563.018   1
   3  -2   4 12069.8 590.931   1
   3  -2   5 4822.29 411.098   1
   1  -3  -5 5468.08 388.268   1
  -1   3   5 5324.44 377.173   1
  -2  -1   5 5021.63 275.868   1
  -2  -1   6 89.3652 67.6640   1
   3  -2   6 154.104 132.179   1
  -1   3   6-58.1293 96.1707   1
  -1   3   7 102.554 115.495   1
   3  -2   7 144.337 141.331   1
  -2  -1   7-32.1299 65.0603   1
  -2  -1   8 96.9108 94.0588   1
  -1   3   8 37.7225 104.499   1
   3  -2   8 365.550 180.908   1
  -1   3   9 796.674 203.032   1
   3  -2   9 1183.62 283.543   1
   3  -2  10 243.492 153.188   1
   2  -3  10 1564.44 327.325   1
   1   2  10 1282.80 307.323   1
   2  -3   9 114.682 119.871   1
   1   2   9 275.575 154.203   1
   1   2   8 3937.62 447.661   1
  -3   1   8 3400.93 292.739   1
   2  -3   8 3757.87 423.130   1
  -3   1   7 5264.17 330.600   1
   3  -1  -7 5017.24 322.914   1
   2  -3   7 4510.52 433.908   1
   1   2   7 5420.24 483.578   1
   3  -1  -6 530.966 107.924   1
   1   2   6 425.083 146.120   1
  -3   1   6 607.982 108.011   1
   2  -3   6 361.239 141.475   1
   3  -1  -5 851.014 106.779   1
  -3   1   5 749.008 98.9466   1
   2  -3   5 1119.62 200.123   1
   1   2   5 785.709 185.738   1
  -1  -2  -4 79.0347 83.3684   1
   2  -3   4 145.440 101.618   1
   1   2   4 253.022 123.408   1
  -3   1   4 273.323 53.6371   1
   3  -1  -4 176.561 43.6664   1
   1   2   3 949.009 171.724   1
  -2   3  -3 905.138 146.269   2
  -1  -2  -3 748.819 150.312   1
   2  -3   3 756.632 154.760   1
  -1  -2  -2 4734.26 300.800   1
   2  -3   2 5170.93 293.954   2
  -2   3  -2 5132.77 285.613   2
   1   2   2 5042.74 307.215   1
  -1  -2  -1 2308.83 198.526   1
   2  -3   1 2202.25 178.322   2
   3  -1  -1 2318.50 115.415   1
  -3   1   0 1580.15 129.656   1
   3  -1   0 1597.63 129.608   1
  -3   1  -1 13612.0 300.654   2
   3  -1   1 13752.0 450.076   1
  -3   1  -1 13062.6 431.935   1
   1   2  -1 13013.1 345.141   2
  -1  -2   1 12997.1 343.570   2
   3  -1   2 117663. 1509.15   1
  -3   1  -2 122736. 1497.47   1
   3  -1   3 62.1264 91.7177   1
   2  -3  -3 18.7279 65.3300   1
   1   2  -3 157.677 77.4587   2
  -3   1  -3 75.8654 88.8522   1
  -3   1  -4 11700.6 573.192   1
   2  -3  -4 11619.8 478.155   1
   3  -1   4 11976.7 588.488   1
  -1  -2   4 11392.6 419.191   1
   3  -1   5 5149.39 423.445   1
   2  -3  -5 5138.37 350.729   1
  -1  -2   5 5284.95 323.090   1
  -1  -2   6-65.8220 64.3386   1
   2  -3  -6 114.992 100.045   1
   3  -1   6-18.5386 93.2702   1
   3  -1   7-8.83125 125.056   1
  -1  -2   7-86.3043 98.3232   1
   3  -1   8-51.8384 144.249   1
  -1  -2   8 96.2137 103.528   1
   3  -1   9 1394.10 290.893   1
  -1  -2   9 732.309 172.767   1
   3  -1  10-114.420 198.969   1
   3  -3  10 2211.05 391.842   1
   0   3  10 2867.78 413.191   1
   3  -3   9 11060.8 788.100   1
   0   3   9 10243.3 721.871   1
   3  -3   8 34968.7 1314.17   1
  -3   0   8 34705.3 890.678   1
   0   3   8 35057.0 1248.48   1
   0   3   7 4811.36 447.091   1
  -3   0   7 4310.60 287.299   1
   3  -3   7 5379.77 493.244   1
   3  -3   6 7164.38 534.356   1
   0   3   6 7166.93 506.948   1
  -3   0   6 6712.99 313.200   1
  -3   0   5 29492.0 552.935   1
   3  -3   5 29117.8 989.110   1
   0   3   5 29395.4 938.897   1
   0   3   4 122479. 1781.58   1
  -3   0   4 119706. 879.558   1
  -3   3  -4 123329. 1825.89   1
   0  -3  -4 123822. 1814.25   1
   3  -3   4 121356. 1846.23   1
   3  -3   3 10872.2 504.596   1
  -3   3  -3 10835.4 466.877   2
   0   3   3 11180.9 496.466   1
   0  -3  -3 11490.9 508.631   1
   3  -3   2 66008.8 1122.18   1
   0  -3  -2 64644.6 1099.25   1
   3  -3   2 63278.0 1016.73   2
  -3   3  -2 63564.4 990.621   2
   3  -3   1 9972.47 351.992   2
   3   0  -1 10725.9 262.330   1
  -3   0   1 10313.8 256.498   1
  -3   0   0 178155. 1386.55   1
   3   0   0 175549. 1382.56   1
   0  -3   1 10626.9 363.121   2
  -3   0  -1 10543.7 410.811   1
   3   0   1 9748.19 394.953   1
  -3   0  -2 64516.6 1150.64   1
   0   3  -2 64435.8 986.714   2
   0  -3   2 62705.9 1000.13   2
   3   0   2 61541.6 1115.05   1
  -3   0  -3 10271.2 514.061   1
   3   0   3 10180.8 512.624   1
   0   3  -3 11016.7 472.350   2
   3  -3  -3 10520.0 366.488   1
   0  -3   4 123067. 1552.86   1
   3  -3  -4 122223. 1400.31   1
   3   0   4 123234. 1918.30   1
   3  -3  -5 27933.7 741.121   1
   3   0   5 28363.2 1002.95   1
   0  -3   5 28827.8 824.038   1
   3  -3  -6 6265.71 388.381   1
   0  -3   6 7315.58 456.801   1
   3   0   6 6312.28 517.685   1
   0  -3   7 4401.19 394.250   1
   3   0   7 4951.19 495.136   1
   3  -3  -7 4749.48 372.234   1
   0  -3   8 35263.1 1145.83   1
   3   0   8 34301.2 1348.65   1
   3   0   9 9984.74 775.346   1
   0  -3   9 11363.5 696.118   1
   3   0  10 2930.17 455.821   1
   3   1  10 126.218 159.932   1
   1  -4   9 5093.50 495.469   1
   3   1   9 5501.25 587.348   1
   3   1   8 703.814 221.537   1
   1  -4   8 247.603 136.007   1
   3   1   7 9890.16 695.183   1
   4  -3  -7 9384.97 463.520   1
   1  -4   7 8331.86 565.160   1
   1  -4   6 1746.61 242.105   1
   4  -3  -6 1985.74 201.757   1
   3   1   6 1393.80 253.928   1
   1  -4   5 8273.08 483.065   1
   4  -3  -5 7861.65 347.263   1
   3   1   5 8589.10 567.031   1
   3   1   4 9858.34 572.120   1
   1  -4   4 10053.5 493.852   1
   4  -3  -4 10025.9 354.535   1
   3   1   3 830.976 173.129   1
  -3  -1  -3 933.676 179.096   1
  -1   4  -3 1282.16 181.992   2
   1  -4   2 2664.22 236.637   2
  -1   4  -2 2504.59 221.990   2
  -3  -1  -2 2687.86 255.284   1
   3   1   2 2309.79 239.877   1
   1  -4   1 8497.91 364.721   2
   3   1   1 8481.93 393.573   1
  -3  -1  -1 8349.61 389.332   1
  -3  -1   0 2806.23 207.570   1
   3   1   0 2573.26 197.641   1
   4  -3   1 6126.62 338.423   1
   4  -3   1 6985.93 293.479   2
  -3  -1   1 6772.85 262.318   1
   3   1  -1 6093.98 194.563   2
  -4   3  -2 2861.12 258.857   1
   4  -3   2 3136.20 234.357   2
  -3  -1   2 2968.26 148.651   1
  -4   3  -2 3073.24 221.845   2
   4  -3   2 2754.02 254.570   1
   4  -3   3 41734.6 1062.17   1
  -4   3  -3 42750.1 927.567   2
   1  -4  -3 42829.6 1004.29   1
  -4   3  -3 41523.1 1029.84   1
   4  -3   4 3850.03 360.317   1
   1  -4  -4 3753.02 326.957   1
  -3  -1   4 3799.08 176.256   1
   4  -3   5 9019.24 583.364   1
  -3  -1   5 8493.79 308.199   1
  -3  -1   6 1694.84 159.701   1
   4  -3   6 2330.26 330.817   1
   4  -3   7 4199.21 460.320   1
  -3  -1   7 4530.92 290.878   1
   4  -3   8 3043.42 415.025   1
   4  -3   9 427.228 172.163   1
   4  -3  10 285.102 193.353   1
   2  -4  10 8658.22 711.031   1
   2   2  10 7709.25 709.214   1
   2  -4   9 4813.97 511.101   1
   2   2   9 5694.23 590.728   1
   2   2   8 1.60074 108.854   1
   2  -4   8 130.915 122.188   1
   2  -4   7 6577.25 530.111   1
   4  -2  -7 5065.51 301.297   1
   2   2   7 5621.95 518.086   1
   2   2   6 28828.9 1080.33   1
   4  -2  -6 29105.1 637.033   1
   2  -4   6 29652.7 1029.68   1
   2  -4   5 47687.9 1194.73   1
   4  -2  -5 48986.1 718.165   1
   2   2   5 49954.0 1328.61   1
   2   2   4 212.468 145.080   1
   2  -4   4 30.8264 77.3664   1
   4  -2  -4 3.10173 24.4549   1
  -2   4  -3 26981.7 774.375   2
   2   2   3 26706.2 834.223   1
   4  -2  -3 26832.9 365.681   1
  -2  -2  -3 26851.3 840.317   1
   2   2   2 4535.54 327.317   1
  -2   4  -2 4086.94 276.197   2
   2  -4   2 4313.63 291.619   2
  -2  -2  -2 4082.17 313.181   1
   4  -2  -1 20662.8 427.202   1
  -2  -2  -1 20567.1 606.643   1
   2   2   1 21298.7 608.549   1
   2  -4   1 20764.4 570.882   2
   4  -2   0 3737.33 225.878   1
  -2  -2   0 3776.03 238.906   1
  -4   2   0 3968.19 229.135   1
   2   2  -1 623.315 84.9320   2
   4  -2   1 431.359 114.593   1
  -2  -2   1 322.190 64.4952   2
   4  -2   1 459.564 70.3406   2
  -4   2  -1 426.916 70.9407   2
  -4   2  -1 473.340 108.799   1
  -4   2  -2 315986. 2047.55   2
  -4   2  -2 308759. 2564.11   1
   2   2  -2 308549. 2018.38   2
   4  -2   2 309877. 2609.66   1
   4  -2   3 123436. 1843.01   1
  -4   2  -3 127986. 1538.72   2
  -4   2  -3 123819. 1789.70   1
   2  -4  -3 125331. 1585.34   1
   2   2  -3 126177. 1518.60   2
  -2  -2   4 7219.79 310.193   1
   2  -4  -4 6639.10 400.277   1
   4  -2   4 6800.91 477.111   1
   4  -2   5 5883.33 478.841   1
   2  -4  -5 5467.90 398.759   1
  -2  -2   5 5230.50 294.228   1
   4  -2   6 11190.3 695.554   1
  -2  -2   6 11007.4 477.227   1
   4  -2   7 11816.8 762.544   1
  -2  -2   7 11654.5 527.266   1
  -2  -2   8 729.283 153.119   1
   4  -2   8 671.644 191.977   1
   4  -2   9 1857.12 360.061   1
   4  -2  10 2530.52 436.685   1
   1   3  10 436.863 213.317   1
   3  -4  10 346.684 179.481   1
   1   3   9 5408.66 559.533   1
   3  -4   9 6294.88 600.149   1
   3  -4   8 463.252 164.763   1
   1   3   8 278.753 160.759   1
   1   3   7 8938.81 632.292   1
   3  -4   7 9406.37 653.819   1
   3  -4   6 1061.52 217.521   1
   1   3   6 1447.99 243.423   1
   3  -4   5 7783.75 524.323   1
   1   3   5 8254.74 536.966   1
   3  -4   4 9543.29 531.257   1
   1   3   4 9814.75 546.712   1
  -3   4  -3 951.857 156.682   2
  -1  -3  -3 1373.17 208.392   1
   1   3   3 975.538 182.264   1
   3  -4   3 792.578 163.153   1
  -3   4  -2 2642.19 224.768   2
  -1  -3  -2 2562.77 245.397   1
   3  -4   2 2735.41 238.669   2
   4  -1  -1 8473.38 264.958   1
   3  -4   1 8141.75 355.820   2
  -4   1   1 8706.36 264.491   1
  -1  -3  -1 8806.54 411.443   1
   4  -1   0 2697.41 193.109   1
  -4   1   0 2558.23 187.449   1
   4  -1   1 6174.96 335.047   1
  -1  -3   1 6463.44 281.671   2
  -4   1  -1 6308.56 338.165   1
  -4   1  -1 6404.85 202.657   2
   4  -1   2 3055.09 275.476   1
  -4   1  -2 2793.52 258.344   1
  -1  -3   2 3024.67 226.267   2
   1   3  -2 3006.40 217.661   2
  -4   1  -3 42512.6 1066.16   1
   4  -1   3 41887.0 1075.72   1
   1   3  -3 42005.2 923.475   2
   3  -4  -4 3687.19 283.588   1
   4  -1   4 3927.96 369.198   1
  -1  -3   4 4099.78 274.207   1
   4  -1   5 7449.97 536.300   1
   3  -4  -5 8476.88 457.812   1
  -1  -3   5 8100.76 415.918   1
   4  -1   6 1966.73 314.049   1
   3  -4  -6 2606.56 275.258   1
  -1  -3   6 1725.20 211.311   1
  -1  -3   7 5283.92 402.780   1
   4  -1   7 4944.20 500.507   1
   4  -1   8 2808.64 407.389   1
  -1  -3   8 2402.97 289.733   1
   4  -1   9 10.1355 149.194   1
   4  -1  10 46.9165 155.248   1
   4  -4  10 255.822 186.783   1
   4  -4   9-246.889 165.780   1
   0   4   8 237.128 154.281   1
   4  -4   8 10.7914 160.539   1
   4  -4   7 309.704 159.031   1
   0   4   7 309.325 148.310   1
  -4   0   7 201.246 61.9444   1
   4  -4   6 3405.38 388.474   1
  -4   0   6 4027.73 182.219   1
   0   4   6 4413.18 420.161   1
   4  -4   5 293.922 138.123   1
   4  -4   4 7333.21 487.236   1
   4  -4   3 5823.78 405.959   1
  -4   4  -3 6260.90 379.070   2
   0  -4  -3 5458.70 389.995   1
  -4   0   2 8725.88 215.571   1
   4  -4   2 8827.65 459.483   1
   4  -4   2 9038.20 416.171   2
   0  -4  -2 8719.24 450.068   1
  -4   4  -2 8873.73 403.768   2
  -4   0   1 160.263 58.7389   1
   4  -4   1 328.943 88.0617   2
   4   0  -1 255.594 69.8597   1
  -4   0   0 26982.6 626.894   1
   4   0   0 26531.2 627.414   1
   0  -4   1 275.521 98.2196   2
   4   0   1 209.352 99.5404   1
  -4   0  -1 243.793 110.760   1
  -4   0  -2 9316.73 477.891   1
   0   4  -2 9657.24 423.282   2
   0  -4   2 9702.32 428.923   2
   4   0   2 8697.50 462.301   1
   4   0   3 6234.52 436.821   1
  -4   0  -3 5442.93 405.995   1
   0   4  -3 5884.06 361.954   2
   4  -4  -4 7350.78 358.894   1
   4   0   4 7808.13 524.112   1
   4  -4  -5 108.671 90.1902   1
   0  -4   5 49.8554 73.5058   1
   4   0   5-18.1826 107.093   1
   0  -4   6 4609.56 373.549   1
   4  -4  -6 4760.57 340.939   1
   4   0   6 4199.02 443.604   1
   4   0   7 328.334 170.682   1
   0  -4   7 154.073 103.642   1
   4  -4  -7 419.435 128.307   1
   4   0   8 184.715 162.649   1
   0  -4   8 194.519 102.107   1
   4   0   9 410.684 174.729   1
   0  -4   9 37.7740 92.8720   1
   4   0  10 93.5931 130.426   1
   4   1  10 985.649 313.842   1
   1  -5   9 676.575 195.505   1
   4   1   9 718.325 233.169   1
   4   1   8 1927.39 347.930   1
   1  -5   8 1907.31 302.855   1
   1  -5   7 31695.0 1108.95   1
   4   1   7 34546.1 1353.24   1
   4   1   6 39892.6 1369.13   1
   1  -5   6 40056.7 1173.21   1
   5  -4  -6 41669.8 882.642   1
   1  -5   5 90.0182 85.0983   1
   4   1   5 160.152 149.989   1
   5  -4  -5 96.7467 60.8865   1
   4   1   4 3284.22 356.068   1
   5  -4  -4 3350.44 218.757   1
   1  -5   3 67256.6 1326.59   2
   4   1   3 70364.3 1480.59   1
   1  -5   2 48518.7 1025.20   2
   4   1   2 46801.9 1116.30   1
  -4  -1  -2 49027.9 1133.87   1
   1  -5   1 57730.0 1050.90   2
  -4  -1  -1 58279.3 1124.39   1
   4   1   1 58037.1 1115.19   1
  -4  -1   0 162.738 83.9649   1
   4   1   0 260.573 92.0121   1
   4   1  -1 71391.9 645.419   2
   5  -4   1 70912.6 1241.76   1
   5  -4   1 70873.4 1049.64   2
  -4  -1   1 71364.6 984.296   1
   4   1  -2 51857.8 770.250   2
  -4  -1   2 51907.7 698.152   1
  -5   4  -2 54092.3 987.862   2
   5  -4   2 51928.0 992.293   2
   5  -4   2 51506.4 1162.32   1
  -5   4  -3 16638.7 602.510   2
  -4  -1   3 16563.6 332.903   1
   5  -4   3 16936.9 718.335   1
   1  -5  -3 16974.7 692.422   1
   5  -4   4 104.396 109.939   1
  -4  -1   4 57.4634 22.8074   1
  -4  -1   5 33198.4 461.892   1
   5  -4   5 34433.4 1187.31   1
   5  -4   6 22229.2 1025.26   1
  -4  -1   6 20495.3 425.684   1
   5  -4   7 2965.50 411.178   1
  -4  -1   7 2937.66 187.334   1
   5  -4   8 4406.02 520.333   1
   5  -4   9 6771.49 670.613   1
   5  -4  10 9496.47 834.802   1
   3   2  10-130.424 168.545   1
   2  -5  10 20.6460 152.721   1
   2  -5   9-178.883 143.930   1
   3   2   9 72.2100 168.901   1
   3   2   8 2859.34 414.514   1
   2  -5   8 2719.47 372.166   1
   2  -5   7-48.8512 137.268   1
   3   2   7 147.068 131.479   1
   2  -5   6 7273.28 524.489   1
   5  -3  -6 7728.90 321.164   1
   3   2   6 8402.16 616.455   1
   5  -3  -5 7306.14 279.745   1
   2  -5   5 7015.90 490.746   1
   3   2   5 7455.58 551.443   1
   2  -5   4 1872.67 245.416   1
   3   2   4 1480.32 249.806   1
   5  -3  -4 1725.52 126.642   1
   2  -5   3 405.728 127.389   2
   3   2   3 127.659 115.308   1
   2  -5   2 272.470 111.061   2
  -3  -2  -2 151.025 84.0358   1
   3   2   2 198.374 125.457   1
   2  -5   1 8439.81 405.263   2
   5  -3  -1 8372.08 331.907   1
  -3  -2  -1 7755.17 410.299   1
   3   2   1 7238.34 396.860   1
   5  -3   0 9003.10 388.750   1
  -3  -2   0 9308.32 408.795   1
  -3  -2   1 14991.7 364.286   2
  -5   3  -1 15042.5 552.554   1
   5  -3   1 14428.4 543.160   1
  -3  -2   1 15037.2 462.526   1
   5  -3   1 14951.7 426.327   2
  -5   3  -2 43122.4 1019.84   1
  -5   3  -2 41168.1 794.512   2
   3   2  -2 41260.7 730.021   2
   5  -3   2 39474.0 1008.76   1
   5  -3   3 15917.2 696.027   1
  -5   3  -3 14914.3 548.807   2
   3   2  -3 16078.1 545.544   2
   2  -5  -3 16542.2 641.221   1
   5  -3   4 57529.8 1443.29   1
   3   2  -4 62762.4 1222.97   2
  -3  -2   4 61224.9 826.308   1
   2  -5  -4 61252.3 1323.96   1
   5  -3   5 313.092 162.181   1
  -3  -2   5 314.362 73.2334   1
   5  -3   6 762.733 198.296   1
  -3  -2   6 968.044 131.011   1
   5  -3   7 120.737 131.122   1
  -3  -2   7 181.191 98.8893   1
   5  -3   8 190.179 175.633   1
   5  -3   9 2.41855 158.744   1
   5  -3  10 506.874 241.121   1
   2   3  10 142.047 175.298   1
   3  -5  10 28.9050 130.794   1
   2   3   9 14.2209 145.502   1
   3  -5   9 53.3761 145.759   1
   2   3   8 2868.57 416.899   1
   3  -5   8 2245.21 352.488   1
   3  -5   7-36.3736 113.225   1
   2   3   7-25.0528 134.581   1
   3  -5   6 8502.03 593.440   1
   2   3   6 8656.01 611.675   1
   2   3   5 7026.56 521.925   1
   3  -5   5 7094.52 507.378   1
   3  -5   4 2062.00 261.908   1
   2   3   4 1940.40 272.607   1
   2   3   3 436.182 154.959   1
   3  -5   3 302.798 111.465   2
   2   3   2 120.609 103.698   1
   5  -2  -2 265.615 48.8260   1
   3  -5   2 319.776 118.269   2
  -2  -3  -2 285.635 113.886   1
   5  -2  -1 7837.67 303.015   1
  -2  -3  -1 8103.22 425.284   1
   3  -5   1 8587.04 415.253   2
  -2  -3   0 8943.72 412.730   1
  -5   2   0 8824.10 370.969   1
   5  -2   0 8967.95 379.908   1
   5  -2   1 14990.5 565.394   1
  -2  -3   1 14660.3 421.437   2
  -5   2  -1 14969.0 548.429   1
   5  -2   1 14407.1 367.579   2
  -5   2  -2 43545.8 750.844   2
   2   3  -2 41636.8 797.192   2
   5  -2   2 41372.8 1031.81   1
  -5   2  -2 42081.5 1010.93   1
   2   3  -3 15411.0 554.358   2
  -5   2  -3 15102.1 528.938   2
   5  -2   3 14406.8 673.959   1
   5  -2   4 63508.1 1503.35   1
   3  -5  -4 61509.0 1236.84   1
   5  -2   5 256.969 161.290   1
   3  -5  -5 109.492 82.2172   1
  -2  -3   5 244.588 75.8509   1
   5  -2   6 901.584 231.940   1
  -2  -3   6 1017.67 155.617   1
   5  -2   7 124.079 121.917   1
  -2  -3   7 256.856 95.1694   1
   5  -2   8 347.076 203.261   1
  -2  -3   8 576.667 149.915   1
   5  -2   9-86.2222 186.927   1
   5  -2  10 271.935 221.843   1
   4  -5  10 795.308 275.665   1
   4  -5   9 912.173 254.856   1
   1   4   9 821.605 265.213   1
   1   4   8 1739.05 339.438   1
   4  -5   8 1838.75 330.302   1
   1   4   7 31695.0 1225.13   1
   4  -5   7 33206.3 1282.46   1
   1   4   6 40531.2 1304.36   1
   4  -5   6 41106.8 1340.07   1
   1   4   5-3.24379 111.262   1
   4  -5   5 257.245 139.333   1
   4  -5   4 3388.54 343.242   1
   4  -5   3 68747.4 1415.76   1
   4  -5   3 70361.8 1360.48   2
   4  -5   2 47599.6 1011.22   2
   5  -1  -2 47274.0 541.315   1
  -1  -4  -2 47345.1 1116.48   1
   5  -1  -1 59382.3 824.767   1
  -1  -4  -1 60038.7 1176.60   1
   4  -5   1 58200.6 1046.95   2
  -5   1   1 56597.4 794.182   1
   5  -1   0 149.695 97.1751   1
  -5   1   0 255.933 89.5151   1
   5  -1   1 72747.0 1251.06   1
  -5   1  -1 73154.1 1234.03   1
  -5   1  -1 70617.7 657.464   2
  -1  -4   1 70805.4 1050.25   2
  -5   1  -2 51278.4 1154.39   1
   1   4  -2 53296.5 976.251   2
   5  -1   2 51126.2 1159.27   1
  -5   1  -2 53578.6 783.093   2
  -1  -4   2 51039.4 976.871   2
   5  -1   3 17111.7 737.506   1
   1   4  -3 17463.0 624.071   2
   5  -1   4 19.4298 120.254   1
   4  -5  -4 152.869 64.0927   1
   5  -1   5 34875.4 1210.64   1
   4  -5  -5 33240.0 907.024   1
  -1  -4   5 33904.7 892.325   1
   4  -5  -6 22130.8 797.818   1
   5  -1   6 22247.7 1036.26   1
  -1  -4   6 20883.6 747.380   1
   5  -1   7 3344.34 449.656   1
  -1  -4   7 2854.64 301.597   1
  -1  -4   8 3485.95 358.154   1
   5  -1   8 4040.44 507.986   1
   5  -1   9 6577.14 677.217   1
   5  -1  10 10151.0 881.924   1
   5  -5  10-81.7191 161.011   1
   5  -5   9 283.270 185.321   1
   5  -5   8 242.805 174.974   1
   5  -5   7 352.404 190.166   1
   5  -5   6 2717.67 367.178   1
   5  -5   5 4040.71 426.004   1
   5  -5   4 18090.1 810.649   1
   5  -5   3 12888.2 577.881   2
   5  -5   3 12373.2 633.458   1
   0  -5  -2 1159.58 189.669   1
  -5   0   2 1233.12 108.072   1
   5  -5   2 1135.86 165.295   2
   5  -5   2 1364.35 216.032   1
   5  -5   1 155.653 79.8495   2
  -5   0   1 331.811 86.2074   1
   5   0  -1 240.211 74.7394   1
   5   0  -1 196.517 34.8681   2
  -5   0   0 23432.4 659.443   1
   5   0   0 22085.4 638.680   1
   0  -5   1 208.875 90.6791   2
   5   0   1 169.918 109.048   1
  -5   0  -1 202.652 35.2418   2
  -5   0  -1 79.7695 87.8885   1
   5   0   2 1231.35 203.158   1
  -5   0  -2 1353.27 201.988   1
   0  -5   2 1204.33 174.996   2
   0  -5   3 13431.2 590.295   2
   5   0   3 12381.2 645.101   1
   5   0   4 17785.5 829.705   1
   5  -5  -5 4525.09 316.130   1
   0  -5   5 4546.23 361.906   1
   5   0   5 4936.10 477.232   1
   5   0   6 3092.25 410.609   1
   0  -5   6 3333.37 335.242   1
   5  -5  -6 3465.64 296.434   1
   5   0   7 250.855 129.688   1
   0  -5   7 503.061 166.998   1
   5   0   8-35.5308 142.902   1
   0  -5   8 246.928 132.021   1
   5   0   9 227.530 193.066   1
   5   0  10-62.4930 250.814   1
   5   1  10 501.006 269.426   1
   5   1   9 4487.73 577.201   1
   1  -6   9 3574.19 441.310   1
   1  -6   8 1247.57 259.945   1
   5   1   8 1381.96 331.559   1
   5   1   7 5629.55 577.409   1
   1  -6   7 6117.88 504.407   1
   6  -5  -6 1133.15 163.699   1
   1  -6   6 1328.52 234.676   1
   5   1   6 1848.45 326.394   1
   1  -6   5 297.905 144.812   1
   6  -5  -5 247.537 82.9038   1
   5   1   5 425.770 174.902   1
   5   1   4 1375.21 231.609   1
   1  -6   3 343.294 118.822   2
   5   1   3 364.923 144.033   1
   1  -6   2 2279.87 250.371   2
   5   1   2 2901.61 310.748   1
   1  -6   1 556.431 138.431   2
   5   1   1 831.958 173.054   1
  -5  -1  -1 827.754 163.453   1
  -5  -1   0 2804.28 250.283   1
   5   1   0 2713.56 244.553   1
   6  -5   1 15090.5 634.550   1
   6  -5   1 14633.9 530.280   2
  -5  -1   1 14681.8 499.189   1
   5   1  -2 531.798 85.8319   2
  -5  -1   2 625.269 97.1925   1
   6  -5   2 834.836 179.027   1
   6  -5   2 500.416 116.814   2
   6  -5   3 3799.90 369.955   1
   6  -5   3 3535.47 311.770   2
  -5  -1   3 3516.15 171.916   1
   6  -5   4-81.3123 111.677   1
   6  -5   5 4186.83 442.955   1
   6  -5   6 2387.39 365.089   1
   6  -5   7 4211.34 514.703   1
   6  -5   8 1691.61 338.682   1
   6  -5   9 3537.68 512.042   1
   6  -5  10 1004.07 307.183   1
   4   2  10 342.991 222.916   1
   2  -6   9 1539.34 310.210   1
   4   2   9 1389.19 341.095   1
   2  -6   8 135.987 131.119   1
   4   2   8 372.919 209.268   1
   2  -6   7 7833.56 590.036   1
   4   2   7 8134.73 680.592   1
   6  -4  -6 4329.54 246.329   1
   2  -6   6 4513.32 430.398   1
   4   2   6 4923.51 504.173   1
   2  -6   5 4828.83 416.048   1
   4   2   5 5079.04 482.218   1
   6  -4  -5 5464.90 261.837   1
   6  -4  -4 17693.6 455.607   1
   4   2   4 16938.6 812.554   1
   2  -6   3 2225.67 266.007   2
   4   2   3 2003.45 272.384   1
   2  -6   2 35727.9 944.425   2
   4   2   2 36719.0 1036.39   1
  -4  -2  -1 800.632 160.819   1
   6  -4  -1 1137.40 150.638   1
   4   2   1 833.409 169.656   1
   2  -6   1 1015.88 174.637   2
   6  -4   0 12136.8 504.202   1
  -4  -2   0 12610.0 286.335   2
  -4  -2   0 13024.2 529.425   1
   6  -4   1 14244.1 598.242   1
  -4  -2   1 15140.8 514.556   1
   6  -4   1 14361.1 474.607   2
  -4  -2   2 37711.0 734.002   1
   4   2  -2 37768.0 682.835   2
   6  -4   2 38123.9 1045.26   1
   6  -4   2 38846.8 862.252   2
   6  -4   3-77.8760 121.285   1
  -6   4  -3 5.07601 69.0247   2
   4   2  -3-12.9084 59.7450   2
   6  -4   4 99.2685 119.683   1
   4   2  -4 189.682 84.5659   2
  -4  -2   5 1392.54 123.791   1
   6  -4   5 1161.13 246.513   1
  -4  -2   6 1693.35 143.391   1
   6  -4   6 1762.30 315.118   1
   6  -4   7 3416.65 461.089   1
   6  -4   8-181.892 215.679   1
   6  -4   9 212.019 178.661   1
   6  -4  10 3851.05 545.071   1
   3  -6  10 10494.0 825.466   1
   3   3  10 9031.56 804.702   1
   3   3   9 50.4714 149.294   1
   3  -6   9-25.1792 176.520   1
   3   3   8 39066.0 1512.11   1
   3  -6   8 37846.0 1410.02   1
   3  -6   7-69.3849 148.485   1
   3   3   7-1.98389 148.916   1
   3   3   6 5712.73 528.237   1
   3  -6   6 5696.84 492.953   1
   3  -6   5 41426.8 1243.23   1
   3   3   5 38240.5 1272.55   1
   3  -6   4 85666.0 1688.87   1
   3   3   4 88921.4 1818.65   1
   6  -3  -3 5470.89 207.113   1
   3   3   3 5642.02 437.936   1
   3  -6   3 6034.33 423.667   2
   3  -6   2 6360.56 402.639   2
   3   3   2 6013.93 424.743   1
   6  -3  -2 6332.04 271.382   1
   3  -6   1 9248.63 462.389   2
   6  -3  -1 9100.78 370.600   1
  -3  -3  -1 9875.42 504.739   1
  -3  -3   0 83031.0 1339.99   1
   6  -3   0 82659.0 1276.13   1
  -3  -3   1 33568.3 634.402   2
   6  -3   1 33569.4 905.848   1
  -6   3  -1 34052.8 885.350   1
  -3  -3   1 33951.8 793.959   1
   6  -3   1 33751.5 637.423   2
   6  -3   2 15771.5 686.741   1
  -6   3  -2 16740.1 503.984   2
   3   3  -2 16916.1 506.421   2
  -6   3  -2 16034.3 665.691   1
  -6   3  -3 37610.6 864.776   2
   6  -3   3 34381.5 1088.27   1
   3   3  -3 34950.8 826.947   2
   6  -3   4 261853. 3241.16   1
  -3  -3   5 69.5559 61.0519   1
   6  -3   5 187.641 155.609   1
   6  -3   6 18805.6 977.140   1
  -3  -3   6 17327.6 574.967   1
  -3  -3   7 2604.65 242.786   1
   6  -3   7 2981.86 426.184   1
   6  -3   8 7391.99 692.176   1
   6  -3   9 1084.57 305.963   1
   6  -3  10 467.906 232.837   1
   4  -6  10 404.206 166.214   1
   2   4  10 274.580 203.611   1
   2   4   9 1858.26 363.338   1
   4  -6   9 1565.39 317.224   1
   4  -6   8 6.37092 121.504   1
   2   4   8 93.0127 145.631   1
   4  -6   7 7444.87 620.910   1
   2   4   7 7257.83 617.631   1
   4  -6   6 5079.69 483.897   1
   2   4   6 4503.14 460.967   1
   4  -6   5 5443.65 481.721   1
   2   4   5 6675.83 535.898   1
   4  -6   4 17579.0 788.805   1
   2   4   4 18404.2 826.829   1
   4  -6   3 2894.09 302.969   2
   4  -6   2 36707.4 957.869   2
   6  -2  -2 37934.7 596.895   1
   4  -6   1 1279.68 199.823   2
   6  -2  -1 1032.63 136.607   1
  -2  -4  -1 1300.08 207.156   1
  -6   2   1 1200.71 132.848   1
  -6   2   0 12913.6 495.398   1
   6  -2   0 12562.0 503.187   1
   6  -2   0 12687.4 289.409   2
   6  -2   1 14224.1 591.770   1
  -6   2  -1 14347.5 581.804   1
  -2  -4   1 14574.6 474.787   2
  -6   2  -2 37225.6 1013.14   1
   6  -2   2 37816.2 1055.12   1
  -2  -4   2 35895.4 823.393   2
  -6   2  -2 37392.0 686.485   2
  -6   2  -3 135.198 80.3996   2
   6  -2   3 39.8459 120.834   1
   2   4  -3 123.213 87.3245   2
   6  -2   4 195.749 138.099   1
   4  -6  -4 5.58685 87.2022   1
  -6   2  -4 39.6152 69.0121   2
   6  -2   5 1735.13 298.270   1
  -2  -4   5 1509.12 192.942   1
   6  -2   6 1845.81 333.413   1
  -2  -4   6 1379.59 189.644   1
  -2  -4   7 3191.74 304.933   1
   6  -2   7 3277.93 453.794   1
   6  -2   8-120.139 154.309   1
   6  -2   9-78.4188 218.962   1
   6  -2  10 3897.35 576.586   1
   5  -6  10 1412.55 357.290   1
   5  -6   9 4923.89 592.119   1
   5  -6   8 533.611 186.333   1
   5  -6   7 5871.29 569.211   1
   5  -6   6 1751.31 316.634   1
   5  -6   5 313.843 142.486   1
   5  -6   4 1233.73 230.820   1
   5  -6   3 444.150 147.766   1
   5  -6   3 456.901 146.424   2
   5  -6   2 2775.66 273.477   2
  -6   1   2 2298.25 149.464   1
   6  -1  -2 2401.86 156.215   1
  -6   1   1 708.384 110.087   1
   5  -6   1 711.214 152.480   2
   6  -1  -1 740.506 114.896   1
   6  -1   0 2956.93 255.589   1
  -6   1   0 3312.93 262.821   1
   6  -1   1 14026.6 599.174   1
  -6   1  -1 14391.1 599.124   1
  -1  -5   1 13862.0 518.261   2
   6  -1   2 467.240 145.088   1
  -6   1  -2 718.081 93.4124   2
  -1  -5   2 471.384 118.047   2
  -1  -5   3 4083.45 335.272   2
   6  -1   3 3669.38 369.907   1
   6  -1   4 142.041 113.794   1
   6  -1   5 3292.56 398.533   1
   5  -6  -5 3573.23 312.907   1
   6  -1   6 1556.91 302.957   1
  -1  -5   6 1830.36 247.329   1
   6  -1   7 3525.07 459.655   1
  -1  -5   7 3096.28 325.446   1
  -1  -5   8 1974.99 287.190   1
   6  -1   8 2359.03 418.629   1
   6  -1   9 3876.24 541.850   1
   6  -1  10 925.396 298.312   1
   6  -6   9 7801.34 760.247   1
   6  -6   8 27930.7 1351.48   1
   6  -6   7 3410.24 454.345   1
   6  -6   6 1939.78 340.908   1
   6  -6   5 3729.80 423.109   1
   6  -6   4 34195.8 1183.48   1
   6  -6   3 2791.88 298.540   2
  -6   0   3 2582.83 116.989   1
   6  -6   3 2337.15 306.879   1
  -6   0   2 13526.3 401.872   1
   6  -6   2 14023.8 596.015   2
   6  -6   2 14076.3 675.995   1
   6  -6   1 33122.4 868.742   2
  -6   0   1 33551.4 769.348   1
   6   0  -1 34089.3 762.965   1
  -6   0   0 47072.3 1031.87   1
   6   0   0 48266.2 1030.47   1
   0  -6   1 33392.1 877.814   2
  -6   0  -1 34369.0 967.690   1
   6   0   1 34121.6 963.723   1
   0  -6   2 12936.9 578.633   2
   6   0   2 13017.8 656.948   1
   6   0   3 3331.51 358.584   1
   0  -6   3 3617.85 332.056   2
   6   0   4 35394.4 1228.10   1
   6   0   5 3674.82 439.687   1
   6  -6  -5 3815.58 306.056   1
   0  -6   6 2632.04 316.190   1
   6  -6  -6 1951.30 232.863   1
   6   0   6 2304.07 366.164   1
   0  -6   7 3373.05 367.756   1
   6   0   7 3176.06 451.860   1
   0  -6   8 27217.7 1074.94   1
   6   0   8 28210.5 1373.75   1
   6   0   9 8501.12 805.112   1
   6   1   9 1029.97 324.289   1
   1  -7   8 2794.18 380.295   1
   6   1   8 2010.69 391.819   1
   1  -7   7-45.8682 131.152   1
   6   1   7 13.9187 162.397   1
   1  -7   6 3117.51 364.186   1
   6   1   6 3298.20 437.644   1
   7  -6  -5-42.3796 67.6398   1
   6   1   5 465.472 190.121   1
   1  -7   4 3868.08 383.063   2
   6   1   4 4607.21 464.830   1
   1  -7   3 99.8377 97.7208   2
   6   1   3-39.3889 95.1271   1
   6   1   2 4929.18 421.505   1
   1  -7   2 4895.66 384.615   2
   1  -7   1 38408.3 1007.29   2
   6   1   1 37351.1 1052.59   1
  -6  -1   0 7240.70 427.713   1
   6   1   0 6880.46 416.435   1
  -6  -1   1 255.777 96.8209   1
   7  -6   1 215.781 93.5794   2
   6   1  -1 121.451 71.1693   1
   7  -6   1 191.476 100.928   1
  -6  -1   2 6704.72 323.464   1
   7  -6   2 6430.75 409.048   2
   6   1  -2 7131.18 266.135   2
   7  -6   2 6707.50 488.746   1
   7  -6   3-41.6486 126.807   1
   7  -6   3 110.696 84.2924   2
   6   1  -3 224.564 75.5386   2
  -6  -1   3 132.022 44.6907   1
   7  -6   4 179.233 131.317   1
   7  -6   5 3075.14 406.881   1
   7  -6   6 2903.26 408.604   1
   7  -6   7 810.184 267.733   1
   7  -6   8 4186.12 546.403   1
   7  -6   9 743.176 285.201   1
   2  -7   9 10493.0 776.015   1
   5   2   9 11969.9 941.901   1
   2  -7   8 956.871 244.019   1
   5   2   8 1196.58 298.843   1
   5   2   7 151.696 196.538   1
   2  -7   7 481.092 163.006   1
   5   2   6 15623.3 921.865   1
   2  -7   6 16151.7 826.060   1
   2  -7   5 32047.1 1107.26   1
   7  -5  -5 31246.7 684.021   1
   5   2   5 30617.2 1208.55   1
   2  -7   4 2185.01 293.875   2
   5   2   4 1996.30 310.288   1
   2  -7   3 11042.6 609.186   2
   5   2   3 10659.1 640.068   1
   2  -7   2 20229.7 764.896   2
   5   2   2 19902.7 811.471   1
   2  -7   1 78387.0 1440.37   2
   7  -5  -1 78388.5 1306.14   1
   5   2   1 81951.2 1524.31   1
  -5  -2  -1 81098.2 1530.50   1
  -5  -2   0 7433.21 204.759   2
   7  -5   0 7018.54 419.431   1
   5   2   0 7266.95 420.629   1
  -5  -2   0 7932.66 446.151   1
   7  -5   1 1871.69 197.474   2
   7  -5   1 1886.89 245.572   1
  -5  -2   1 1754.76 198.095   1
   7  -5   2 41411.4 1176.40   1
   7  -5   2 44428.3 996.049   2
   5   2  -2 43013.8 720.551   2
  -5  -2   2 42595.9 854.718   1
   5   2  -3 27450.7 691.489   2
   7  -5   3 27432.5 1022.11   1
  -5  -2   3 26528.4 597.933   1
   7  -5   4 710.480 206.291   1
  -5  -2   4 678.588 89.8565   1
   5   2  -4 593.119 139.015   2
   7  -5   5 4281.83 476.768   1
  -5  -2   5 3256.27 158.207   1
  -5  -2   5 3049.71 160.737   1
   7  -5   6 2011.65 349.729   1
   7  -5   7 15726.0 990.088   1
   7  -5   8 2562.95 435.452   1
   7  -5   9-127.126 162.485   1
   4   3   9 106.147 172.521   1
   3  -7   9 72.7111 139.064   1
   3  -7   8 1997.79 352.879   1
   4   3   8 1509.79 336.147   1
   3  -7   7-12.3059 123.426   1
   4   3   7 76.4833 196.227   1
   3  -7   6 5936.49 523.419   1
   4   3   6 7125.46 621.658   1
   7  -4  -5 1328.10 97.7772   1
   3  -7   5 1699.86 272.226   1
   4   3   5 1377.43 280.264   1
   3  -7   4 4503.42 411.688   2
   7  -4  -4 4293.62 200.843   1
   4   3   4 4731.37 461.378   1
   3  -7   3-48.6428 106.525   2
   7  -4  -3 163.169 65.0267   1
   4   3   3 62.7299 87.6404   1
   4   3   2 65.8440 122.204   1
   7  -4  -2 116.431 65.6582   1
   3  -7   2 108.003 90.3766   2
   7  -4  -1 240.391 96.0043   1
   7  -4   0 4697.44 334.220   1
  -4  -3   0 4200.26 209.771   2
  -4  -3   0 4812.61 356.009   1
  -4  -3   1 294.455 101.612   1
   7  -4   1 325.044 93.8179   2
  -4  -3   1 326.157 76.3501   2
   7  -4   1 310.076 131.380   1
   7  -4   2 12281.6 635.568   1
  -4  -3   2 12893.4 496.964   1
   7  -4   2 12099.0 484.573   2
   7  -4   3 11312.4 662.813   1
   4   3  -3 11585.4 476.275   2
  -7   4  -3 11241.3 503.002   2
   7  -4   4 22619.7 997.357   1
  -4  -3   5 293.156 67.9432   1
   7  -4   5 314.046 172.725   1
   7  -4   6 7184.19 635.878   1
  -4  -3   6 5719.10 299.821   1
   7  -4   7 197.279 162.503   1
   7  -4   8 1299.11 327.421   1
   7  -4   9 287.419 199.118   1
   4  -7   9-83.0657 183.781   1
   3   4   9 148.620 196.227   1
   4  -7   8 1783.73 326.763   1
   3   4   8 1866.27 344.618   1
   4  -7   7 231.728 186.617   1
   3   4   7-36.0724 141.287   1
   3   4   6 7469.81 619.805   1
   4  -7   6 6598.10 564.512   1
   3   4   5 1392.07 274.764   1
   4  -7   5 1697.95 283.093   1
   4  -7   4 4534.35 413.625   2
   3   4   4 4485.96 433.354   1
   4  -7   4 4917.79 439.050   1
   4  -7   3 21.9719 88.6178   2
   7  -3  -3 89.7984 37.3732   1
   4  -7   2 100.367 103.794   2
   7  -3  -2 220.127 73.8168   1
   7  -3  -1 370.013 91.1605   1
   7  -3   0 4324.41 319.133   1
  -7   3   0 4241.45 307.046   1
   7  -3   0 4434.96 212.965   2
  -3  -4   0 4703.79 354.383   1
   7  -3   1 131.067 102.014   1
  -7   3  -1 105.749 66.2277   1
   7  -3   1 333.225 77.5930   2
  -3  -4   1 314.594 79.3103   2
  -3  -4   2 11533.1 464.646   2
   7  -3   2 12936.1 656.341   1
  -7   3  -2 11826.4 422.883   2
   7  -3   3 10561.3 646.899   1
  -7   3  -3 10965.2 464.013   2
   3   4  -3 12039.4 516.298   2
   7  -3   4 23470.7 1009.49   1
   7  -3   5 431.580 188.876   1
   7  -3   6 6395.49 598.931   1
  -3  -4   6 6353.83 381.413   1
  -3  -4   7 335.498 99.5355   1
   7  -3   7 285.977 191.310   1
   7  -3   8 357.321 156.355   1
   7  -3   9-272.452 255.916   1
   5  -7   9 10284.6 846.263   1
   5  -7   8 1196.91 294.729   1
   5  -7   7 514.821 198.890   1
   5  -7   6 15780.2 880.546   1
   5  -7   5 32024.5 1201.62   1
   5  -7   4 1920.56 290.089   1
   5  -7   4 1983.65 280.683   2
   5  -7   3 10681.6 597.639   2
   7  -2  -3 8181.16 208.650   1
   5  -7   2 20277.4 768.406   2
   7  -2  -2 21435.9 512.755   1
   7  -2  -1 80314.6 1196.62   1
   5  -7   1 77853.0 1444.83   2
  -7   2   1 80823.3 1163.75   1
   7  -2   0 8187.57 436.786   1
   7  -2   0 7372.40 207.376   2
  -7   2   0 7139.13 397.994   1
   7  -2   1 1609.82 222.700   1
  -2  -5   1 1827.55 196.987   2
  -7   2  -1 1937.40 239.957   1
   7  -2   2 42259.4 1179.66   1
  -2  -5   2 44958.3 992.586   2
  -7   2  -2 43573.6 740.496   2
   7  -2   3 25175.3 987.449   1
  -7   2  -3 26513.5 691.138   2
   7  -2   4 1041.12 246.951   1
  -7   2  -4 576.970 133.229   2
   7  -2   5 3871.53 449.409   1
   7  -2   6 2027.25 343.885   1
  -2  -5   6 2228.78 255.387   1
  -2  -5   7 14727.5 664.725   1
   7  -2   7 16608.2 1014.07   1
   7  -2   8 1833.49 394.227   1
   7  -2   9-321.267 274.367   1
   6  -7   9 1808.78 404.526   1
   6  -7   8 2487.94 433.289   1
   6  -7   7-1.46869 176.452   1
   6  -7   6 4272.44 482.234   1
   6  -7   5 132.373 147.870   1
   6  -7   4 4888.34 431.313   2
   6  -7   4 4271.29 439.616   1
   6  -7   3-64.8799 129.972   1
   6  -7   3 21.2237 99.2082   2
   6  -7   2 5065.40 384.352   2
  -7   1   2 5029.89 252.496   1
   7  -1  -2 4474.04 245.778   1
  -7   1   1 37043.8 820.945   1
   6  -7   1 36881.5 992.279   2
   7  -1  -1 35909.9 819.372   1
  -7   1   0 7137.26 412.850   1
   7  -1   0 7328.19 427.677   1
   7  -1   1 198.115 126.143   1
  -7   1  -1 139.199 82.3792   1
  -1  -6   1 194.442 96.9884   2
   7  -1   2 7371.47 510.010   1
  -1  -6   2 6842.55 419.877   2
  -7   1  -2 6407.89 257.544   2
   7  -1   3 92.5311 136.261   1
  -7   1  -3 261.014 84.5216   2
  -1  -6   3 156.558 105.855   2
   7  -1   4-48.6928 115.092   1
   7  -1   5 3291.69 414.638   1
   7  -1   6 2674.34 409.133   1
  -1  -6   6 3088.10 324.377   1
  -1  -6   7 1594.74 253.183   1
   7  -1   7 893.221 270.176   1
   7  -1   8 3791.56 545.263   1
   7  -1   9 1143.72 304.018   1
   7  -7   9 323.124 250.819   1
   7  -7   8 806.505 286.704   1
   7  -7   7 2813.09 440.190   1
   7  -7   6 2547.21 396.047   1
   7  -7   5 5714.79 540.438   1
   7  -7   4 1291.65 261.044   1
   7  -7   3 755.334 168.886   2
   7  -7   3 732.652 197.094   1
  -7   0   3 797.848 86.9775   1
  -7   0   2 1926.74 173.260   1
   7   0  -2 2026.79 135.754   2
   7  -7   2 2119.32 260.838   2
   7  -7   2 1904.12 283.735   1
  -7   0   1 13104.9 531.602   1
   7  -7   1 13596.1 604.124   2
   7   0  -1 13545.9 533.256   1
  -7   0   0 3437.68 313.191   1
   7   0   0 3409.65 305.088   1
   0  -7   1 13649.2 609.960   2
   7   0   1 13410.9 644.301   1
  -7   0  -2 2172.25 144.472   2
   0  -7   2 2342.90 269.199   2
   7   0   2 2305.87 305.646   1
   0  -7   3 504.314 144.648   2
   7   0   3 427.855 155.476   1
   7   0   4 1345.49 282.335   1
   7  -7  -5 4898.83 361.398   1
   7   0   5 5749.34 566.017   1
   0  -7   6 2495.37 320.223   1
   7   0   6 2206.50 379.884   1
   0  -7   7 3001.51 371.757   1
   7   0   7 2564.85 426.860   1
   0  -7   8 871.266 219.618   1
   7   0   8 1007.66 323.688   1
   7   0   9-96.9350 168.789   1
   7   1   9 335.924 259.363   1
   7   1   8 1334.36 353.522   1
   1  -8   8 1482.70 285.203   1
   1  -8   7 33037.4 1250.55   1
   7   1   7 37040.2 1572.70   1
   1  -8   6 5604.17 503.643   1
   7   1   6 6144.77 615.688   1
   7   1   5 8254.00 679.911   1
   1  -8   4-42.5901 136.106   2
   7   1   4 269.937 168.661   1
   1  -8   3 37891.7 1173.71   2
   7   1   3 38242.5 1290.24   1
   1  -8   2 39854.2 1138.52   2
   7   1   2 42724.5 1281.41   1
   7   1   1 804.563 187.191   1
   1  -8   1 1106.87 197.549   2
  -7  -1   0 9416.14 527.411   1
   7   1   0 9959.68 531.916   1
  -7  -1   1 74312.6 1335.85   1
   8  -7   1 78806.2 1670.97   1
   8  -7   1 75863.1 1429.08   2
  -7  -1   2 28439.7 733.552   1
   8  -7   2 28886.2 1069.31   1
   7   1  -2 28398.8 488.311   2
   8  -7   2 28438.7 909.085   2
  -7  -1   3 14043.8 438.559   1
   8  -7   3 14522.8 805.412   1
   7   1  -3 15040.7 475.835   2
   8  -7   3 13214.4 665.007   2
   7   1  -4 13370.8 544.333   2
   8  -7   4 13452.6 809.692   1
   8  -7   5 13994.6 880.022   1
   8  -7   6 6258.74 620.948   1
   8  -7   7 1117.74 320.807   1
   8  -7   8 790.085 277.452   1
   8  -7   9 19436.0 1259.47   1
   2  -8   9 687.213 223.053   1
   6   2   9 850.740 274.373   1
   2  -8   8 80.8209 113.584   1
   6   2   8 280.821 238.094   1
   2  -8   7 7205.77 605.120   1
   6   2   7 7426.84 710.878   1
   6   2   6 1458.66 308.667   1
   2  -8   6 1156.28 250.862   1
   8  -6  -5 1585.97 168.826   1
   6   2   5 1905.01 337.895   1
   2  -8   4 5470.56 483.328   2
   6   2   4 5394.85 516.071   1
   6   2   3 77.3148 119.553   1
   2  -8   3-29.8180 103.132   2
   2  -8   2 6213.81 458.099   2
   6   2   2 6235.13 486.220   1
   8  -6  -1 2803.86 277.269   1
   6   2   1 1500.01 237.104   1
   2  -8   1 1991.26 259.712   2
  -6  -2   0 24423.4 835.408   1
   8  -6   0 24422.1 850.221   1
   6   2   0 23122.6 804.632   1
   8  -6   1 3217.68 277.778   2
   8  -6   1 3014.12 326.300   1
  -6  -2   1 2720.15 262.048   1
   8  -6   2 13241.1 716.034   1
   8  -6   2 13082.2 579.047   2
  -6  -2   2 13202.6 514.046   1
   8  -6   3 2212.39 265.352   2
   6   2  -3 2559.85 212.462   2
   8  -6   3 2115.75 313.553   1
  -6  -2   3 2604.66 205.439   1
   6   2  -4 2473.17 246.294   2
   8  -6   4 2562.75 368.224   1
  -6  -2   4 2684.05 177.826   1
   8  -6   5 25.1947 110.958   1
   8  -6   6 647.216 247.022   1
   8  -6   7 86.8787 149.547   1
   8  -6   8 757.136 265.119   1
   8  -6   9 1084.17 341.762   1
   3  -8   9 1420.44 326.249   1
   5   3   9 1316.79 338.682   1
   3  -8   8 2031.65 365.855   1
   5   3   8 1349.14 341.899   1
   3  -8   7-15.8959 134.032   1
   5   3   7 52.5873 155.178   1
   3  -8   6 936.281 223.901   1
   5   3   6 746.388 266.118   1
   5   3   5 5626.71 543.838   1
   8  -5  -5 5566.01 250.569   1
   5   3   4 56.0165 128.587   1
   8  -5  -4 46.0120 51.5138   1
   3  -8   4-98.7551 125.137   2
   3  -8   3 7677.16 526.111   2
   8  -5  -3 8160.14 369.855   1
   5   3   3 8596.13 599.225   1
   8  -5  -2 3217.56 256.561   1
   5   3   2 3358.71 359.018   1
   3  -8   2 2972.94 325.971   2
   8  -5  -1 4998.20 350.882   1
   8  -5   0 2803.60 287.355   1
  -5  -3   0 2809.95 163.683   2
  -5  -3   0 2646.29 283.579   1
   8  -5   1 207.039 83.7354   2
   8  -5   1 89.4734 116.532   1
  -5  -3   1 106.002 95.2165   1
   8  -5   2 234.589 134.656   1
   8  -5   2 93.3713 69.7517   2
  -5  -3   2 131.491 80.3926   1
   8  -5   3 444.955 177.752   1
  -5  -3   3 557.532 106.002   1
   5   3  -3 413.657 104.125   2
   8  -5   4 3412.44 404.868   1
  -5  -3   4 3681.83 245.054   1
   8  -5   5 6400.82 594.240   1
  -5  -3   5 6095.33 292.252   1
   8  -5   6 657.870 222.084   1
   8  -5   7 9333.00 790.464   1
   8  -5   8 422.486 206.454   1
   8  -5   9 884.407 283.578   1
   4  -8   9 3709.15 510.071   1
   4   4   9 2091.99 411.569   1
   4  -8   8 72.3968 145.792   1
   4   4   8 33.2360 155.398   1
   4  -8   7 11982.9 810.325   1
   4   4   7 11561.5 850.921   1
   4  -8   6 16873.2 916.504   1
   4   4   6 15793.9 943.430   1
   4  -8   5 12000.3 737.398   1
   4   4   5 13197.5 817.259   1
   4  -8   4 215.238 115.870   2
   4   4   4 203.824 155.883   1
   8  -4  -4 314.493 53.6940   1
   8  -4  -3 95294.6 1107.19   1
   4  -8   3 93672.2 1825.40   2
   4   4   3 93002.6 1943.77   1
   8  -4  -2 12400.9 471.379   1
   4  -8   2 12573.8 645.659   2
   8  -4  -1 20497.4 672.693   1
   8  -4   0 8335.38 477.714   1
   8  -4   0 9166.00 356.606   2
  -4  -4   0 8929.97 350.913   2
   8  -4   1 20106.9 792.498   1
   8  -4   1 18945.0 543.934   2
  -4  -4   1 19761.6 546.033   2
  -4  -4   1 18208.8 701.384   1
   8  -4   2 29971.7 1052.73   1
  -4  -4   2 30310.7 851.690   1
  -8   4  -3 2097.83 217.830   2
   4   4  -3 2194.49 223.379   2
   8  -4   3 1939.67 304.083   1
   8  -4   4 8602.40 649.747   1
   8  -4   5 57677.5 1747.51   1
   8  -4   6 84249.0 2221.82   1
  -4  -4   6 82666.7 1272.44   1
   8  -4   7 304.049 208.167   1
   8  -4   8 861.283 302.321   1
   8  -4   9 10222.3 906.606   1
   5  -8   9 1454.35 351.726   1
   5  -8   8 1455.06 334.408   1
   5  -8   7 107.614 168.703   1
   5  -8   6 951.404 269.668   1
   5  -8   5 5929.07 533.650   1
   5  -8   4 27.4263 102.859   2
   5  -8   4 53.0196 131.890   1
   8  -3  -3 8076.91 279.188   1
   5  -8   3 7488.27 527.548   2
   8  -3  -2 3063.11 227.891   1
   5  -8   2 3239.50 335.628   2
   8  -3  -1 4849.43 327.986   1
   5  -8   1 4943.94 397.542   2
   8  -3   0 2674.35 275.997   1
   8  -3   0 3024.04 172.973   2
  -8   3   0 3012.37 277.112   1
   8  -3   1 52.6314 84.7855   1
  -3  -5   1 116.374 66.3359   2
  -3  -5   2 87.4761 78.8389   2
   8  -3   2 176.670 127.017   1
  -8   3  -3 601.185 124.215   2
   8  -3   3 611.904 174.963   1
   8  -3   4 3645.99 428.308   1
   8  -3   5 6874.22 604.808   1
   8  -3   6 478.601 217.496   1
  -3  -5   6 754.394 147.567   1
   8  -3   7 6825.50 683.773   1
   8  -3   8 449.436 240.054   1
   8  -3   9 1364.49 380.289   1
   6  -8   9 673.537 289.000   1
   6  -8   8 7.13347 156.201   1
   6  -8   7 6782.97 650.970   1
   6  -8   6 1122.68 284.096   1
   6  -8   5 1648.57 302.471   1
   6  -8   4 5816.28 494.183   2
   6  -8   4 5758.78 522.670   1
   6  -8   3 35.4643 98.9398   2
   8  -2  -3 105.422 41.5591   1
   6  -8   2 5817.05 436.943   2
   8  -2  -2 5647.09 304.036   1
   8  -2  -1 1902.10 205.417   1
  -8   2   1 2079.41 210.824   1
   6  -8   1 1583.43 229.787   2
   8  -2   0 23798.4 794.778   1
  -8   2   0 23884.6 780.939   1
   8  -2   1 3154.80 326.319   1
  -2  -6   1 3411.83 288.086   2
   8  -2   2 14791.0 742.268   1
  -2  -6   2 13134.4 577.736   2
   8  -2   3 2221.67 317.877   1
  -8   2  -3 2666.44 215.026   2
  -2  -6   3 2813.52 290.745   2
  -8   2  -4 2561.24 252.098   2
   8  -2   4 2854.61 389.769   1
   8  -2   5 16.9818 140.346   1
   8  -2   6 530.718 214.179   1
  -2  -6   6 418.946 139.471   1
   8  -2   7 72.0307 142.498   1
  -2  -6   7 410.396 135.468   1
   8  -2   8 101.996 172.208   1
   8  -2   9 981.420 305.172   1
   7  -8   9 261.861 231.103   1
   7  -8   8 1141.74 325.853   1
   7  -8   7 34922.4 1499.32   1
   7  -8   6 4899.30 548.522   1
   7  -8   5 8412.05 668.544   1
   7  -8   4 228.829 118.142   2
   7  -8   4 6.23207 137.575   1
   7  -8   3 38926.1 1190.79   2
   7  -8   3 39263.7 1302.80   1
  -8   1   2 41211.7 815.885   1
   7  -8   2 50218.8 1285.52   2
   8  -1  -2 42135.2 844.850   1
  -8   1   1 1248.88 170.755   1
   7  -8   1 896.887 183.125   2
   8  -1  -1 1141.66 167.228   1
  -8   1   0 10680.0 539.797   1
   8  -1   0 10545.0 547.693   1
  -1  -7   1 77481.4 1435.06   2
   8  -1   1 76578.6 1597.74   1
  -8   1  -2 28643.6 508.432   2
  -1  -7   2 28644.5 908.139   2
   8  -1   2 27919.4 1037.95   1
  -1  -7   3 14358.0 688.744   2
  -8   1  -3 13730.6 463.073   2
   8  -1   3 12597.6 754.063   1
  -8   1  -4 13010.2 538.593   2
   8  -1   4 13149.3 808.544   1
   8  -1   5 15861.1 941.546   1
   8  -1   6 6279.56 636.936   1
   8  -1   7 997.223 266.480   1
  -1  -7   7 1448.67 259.126   1
   8  -1   8 683.997 287.949   1
   8  -1   9 18864.1 1258.72   1
   8  -8   9 4682.24 647.097   1
   8  -8   8 1996.84 419.776   1
   8  -8   7 1374.95 329.488   1
   8  -8   6 917.719 266.462   1
   8  -8   5-58.2770 144.307   1
   8  -8   4 43.7620 132.316   1
   8  -8   4 87.3997 98.9967   2
   8   0  -3-11.7017 51.1564   2
   8  -8   3-44.0922 112.009   2
   8  -8   3-53.2790 121.094   1
  -8   0   3 10.1491 31.1417   1
   8  -8   2 3303.44 381.443   1
  -8   0   2 2765.33 231.789   1
   8   0  -2 2736.59 135.503   2
   8  -8   2 2785.77 309.165   2
  -8   0   1 534.747 123.789   1
   8   0  -1 844.286 159.870   1
   8  -8   1 931.163 179.678   2
   8   0   0 30090.9 946.271   1
   0  -8   1 632.276 158.392   2
   8   0   1 1141.42 228.396   1
  -8   0  -2 2575.75 137.778   2
   0  -8   2 2725.44 308.862   2
   8   0   2 2505.93 332.205   1
  -8   0  -3 16.1748 42.8981   2
   0  -8   3 115.847 91.5200   2
   8   0   3-80.6101 109.791   1
   0  -8   4-9.47793 108.392   2
   8   0   4 638.787 242.620   1
   8   0   5 324.790 184.556   1
   8   0   6 1008.62 283.446   1
   8   0   7 1132.74 308.181   1
   0  -8   7 1878.24 307.452   1
   8   0   8 1486.62 392.629   1
   8   0   9 3821.28 608.095   1
   1  -9   8 791.193 228.019   1
   8   1   8 757.682 268.449   1
   1  -9   7 148.144 114.726   1
   8   1   7 637.508 257.808   1
   8   1   6 8687.71 758.646   1
   8   1   5 178.137 161.553   1
   1  -9   4 204.393 142.796   2
   8   1   4 229.470 201.613   1
   1  -9   3 5824.69 491.965   2
   8   1   3 5355.54 518.849   1
   1  -9   2 16021.0 774.917   2
   8   1   2 16242.3 834.753   1
  -8  -1  -2 14427.9 316.639   2
   1  -9   1 6906.50 496.295   2
   8   1   1 6893.92 516.463   1
   9  -8   0 10661.0 636.324   1
   8   1   0 9830.76 562.177   1
  -8  -1   1 10224.6 542.266   1
   9  -8   1 11400.2 594.314   2
   9  -8   1 10881.9 670.597   1
   9  -8   2 214.743 134.441   1
   9  -8   2 174.022 99.0304   2
  -8  -1   2 309.921 107.505   1
   9  -8   3 856.424 221.737   1
   9  -8   3 643.101 170.360   2
   8   1  -3 753.688 109.166   2
  -8  -1   3 767.332 118.997   1
   9  -8   4 173.420 170.774   1
   9  -8   5 5944.59 610.956   1
   9  -8   6 284.024 179.455   1
   9  -8   7 77.2661 175.468   1
   9  -8   8 615.371 278.845   1
   7   2   8 125.149 204.227   1
   2  -9   8 64.2465 112.985   1
   7   2   7 3994.58 556.633   1
   2  -9   7 3340.52 435.746   1
   2  -9   6 527.907 169.679   1
   7   2   6 628.901 218.287   1
   7   2   5 383.820 189.351   1
   2  -9   4 89.5492 116.531   2
   7   2   4 233.011 187.317   1
   2  -9   3 3704.31 390.378   2
   7   2   3 3685.52 432.201   1
   7   2   2 3871.46 409.642   1
   2  -9   2 3622.57 374.131   2
   7   2   1 1129.66 220.837   1
   9  -7  -1 1146.94 196.953   1
   2  -9   1 1048.32 213.649   2
   9  -7   0 714.778 169.543   1
  -7  -2   1 7518.50 462.347   1
   9  -7   1 7075.82 441.794   2
   9  -7   1 6648.22 517.216   1
   9  -7   2 520.585 172.884   1
  -7  -2   2 188.297 89.9022   1
   9  -7   2 180.424 82.6181   2
   9  -7   3 828.377 179.166   2
   7   2  -3 822.571 115.120   2
  -7  -2   3 980.519 139.346   1
   9  -7   3 1516.16 286.193   1
   9  -7   4-128.098 141.800   1
   7   2  -4 170.510 90.9554   2
   9  -7   5 12142.8 846.351   1
   9  -7   6 1388.67 332.363   1
   9  -7   7 2503.34 466.395   1
   9  -7   8 1193.95 347.862   1
   3  -9   9 4544.68 554.947   1
   6   3   9 4691.69 641.752   1
   3  -9   8 6136.32 610.024   1
   6   3   8 5863.99 677.451   1
   3  -9   7 986.270 264.149   1
   6   3   7 1126.42 317.889   1
   3  -9   6 3726.47 443.791   1
   6   3   6 3005.12 453.199   1
   9  -6  -5 14147.2 458.769   1
   6   3   5 14680.1 911.321   1
   3  -9   4 23599.0 1024.06   2
   9  -6  -4 23560.8 653.652   1
   6   3   4 22135.3 1061.44   1
   9  -6  -3 6172.54 365.919   1
   6   3   3 5775.03 522.987   1
   3  -9   3 6137.27 498.472   2
   6   3   2 101.015 130.409   1
   3  -9   2-33.1355 92.6741   2
   9  -6  -2-55.0991 79.9708   1
   3  -9   1 12401.8 664.066   2
   9  -6  -1 12441.9 598.285   1
  -6  -3   0 53892.0 666.579   2
   9  -6   0 54160.5 1320.75   1
   9  -6   1 120.128 78.7700   2
   9  -6   1 335.822 136.958   1
  -6  -3   1 259.326 99.2686   1
   9  -6   2 2960.40 280.352   2
   9  -6   2 2353.79 321.932   1
  -6  -3   2 3329.26 293.244   1
   9  -6   3 12092.5 751.808   1
   6   3  -3 11758.6 464.724   2
  -6  -3   3 12041.9 506.607   1
   9  -6   4 27271.5 1186.91   1
  -6  -3   4 26449.3 671.509   1
   9  -6   5 10765.2 799.047   1
   9  -6   6 2291.85 402.962   1
   9  -6   7 9796.51 843.942   1
   9  -6   8 11746.7 963.718   1
   9  -6   9 1137.22 355.504   1
   4  -9   9-86.3740 156.028   1
   5   4   9 106.370 218.858   1
   5   4   8-210.483 186.915   1
   4  -9   8 258.108 175.751   1
   4  -9   7 995.110 258.133   1
   5   4   7 1135.02 317.571   1
   4  -9   6 2062.31 344.855   1
   5   4   6 2149.83 386.973   1
   5   4   5 303.828 188.584   1
   9  -5  -4 4304.74 237.420   1
   5   4   4 4367.86 477.071   1
   4  -9   4 4139.34 439.345   2
   9  -5  -3 4817.82 295.748   1
   4  -9   3 5103.42 458.599   2
   5   4   3 5691.42 509.106   1
   9  -5  -2 3236.79 268.552   1
   4  -9   2 2822.65 330.339   2
   9  -5  -1 214.015 82.9506   1
   4  -9   1-55.7333 120.684   2
   9  -5   0-194.798 96.0273   1
   9  -5   0-13.2652 51.3713   2
  -5  -4   0 12.9150 41.0878   2
   9  -5   1 341.330 155.530   1
  -5  -4   1 210.702 64.4537   2
   9  -5   1 71.8094 52.0065   2
   9  -5   2 1104.41 161.117   2
   9  -5   2 829.531 193.172   1
  -5  -4   2 681.190 152.259   1
  -5  -4   3 2250.73 237.820   1
   9  -5   3 3038.59 392.617   1
  -5  -4   4 3314.62 270.100   1
   9  -5   4 3079.83 411.353   1
   9  -5   5 7767.75 682.763   1
   9  -5   6 13118.9 929.429   1
   9  -5   7 12.6441 142.099   1
   9  -5   8 1533.55 346.826   1
   9  -5   9 219.402 209.032   1
   5  -9   9 148.720 162.770   1
   5  -9   8 707.369 251.046   1
   5  -9   7 654.015 232.905   1
   5  -9   6 2366.53 375.592   1
   5  -9   5 278.958 162.970   1
   5  -9   4 5032.30 476.017   2
   9  -4  -4 3881.96 150.368   1
   9  -4  -3 5513.78 290.866   1
   5  -9   3 4868.17 448.640   2
   9  -4  -2 3352.38 267.405   1
   5  -9   2 2876.01 335.038   2
   5  -9   1-43.2631 100.553   2
   9  -4  -1-34.9813 60.5255   1
   9  -4   0 48.5179 46.2082   2
  -4  -5   0 18.4499 47.5212   2
   9  -4   0 39.9693 83.0359   1
   9  -4   1 23.4111 50.5052   2
  -4  -5   1 114.161 69.1228   2
   9  -4   1 129.155 101.333   1
  -4  -5   2 566.811 123.289   2
   9  -4   2 949.796 227.446   1
   9  -4   3 2915.42 380.065   1
   9  -4   4 2954.59 407.265   1
   9  -4   5 9064.01 725.537   1
   9  -4   6 13714.9 940.723   1
  -4  -5   6 13129.3 566.797   1
   9  -4   7 865.264 322.371   1
   9  -4   8 1573.52 377.471   1
   9  -4   9 238.999 255.224   1
   6  -9   9 5249.59 637.105   1
   6  -9   8 5612.13 635.139   1
   6  -9   7 1076.59 290.889   1
   6  -9   6 4139.74 501.885   1
   6  -9   5 14984.8 893.438   1
   6  -9   4 22501.2 996.575   2
   6  -9   4 23762.2 1070.47   1
   6  -9   3 5755.13 484.248   2
   9  -3  -3 6050.80 270.362   1
   9  -3  -2-37.6712 63.8355   1
   6  -9   2 2.27305 106.117   2
   9  -3  -1 13038.3 569.592   1
   6  -9   1 13311.5 680.559   2
   9  -3   0 55172.1 1282.68   1
   9  -3   0 53402.9 674.872   2
  -3  -6   1 276.710 104.455   2
   9  -3   1 230.239 127.059   1
  -3  -6   2 3083.41 282.987   2
   9  -3   2 3749.06 398.650   1
   9  -3   3 13763.1 799.285   1
  -9   3  -3 12035.0 476.348   2
   9  -3   4 29387.2 1228.28   1
   9  -3   5 10756.5 794.048   1
   9  -3   6 2153.59 392.540   1
   9  -3   7 9573.43 832.550   1
   9  -3   8 15035.6 1099.12   1
   9  -3   9 1050.12 332.528   1
   7  -9   8 184.256 193.038   1
   7  -9   7 4335.99 549.367   1
   7  -9   6 1034.23 265.333   1
   7  -9   5-22.2458 157.180   1
   7  -9   4-24.5722 118.590   2
   7  -9   4-154.304 152.330   1
   7  -9   3 2954.58 356.530   2
   9  -2  -3 3366.82 193.754   1
   7  -9   2 3206.91 351.241   2
   9  -2  -2 3902.83 276.821   1
   9  -2  -1 924.080 152.082   1
   7  -9   1 934.371 195.060   2
  -9   2   1 1270.88 181.506   1
   9  -2   0 475.261 134.842   1
   9  -2   1 6996.77 502.212   1
  -2  -7   1 6586.66 425.866   2
   9  -2   2 101.099 135.115   1
  -2  -7   2 279.991 124.923   2
   9  -2   3 605.313 216.040   1
  -2  -7   3 714.200 172.817   2
  -9   2  -3 938.214 130.142   2
   9  -2   4-129.069 155.004   1
  -9   2  -4 105.824 67.9010   2
   9  -2   5 12497.5 856.216   1
   9  -2   6 910.070 279.395   1
   9  -2   7 2047.32 401.675   1
   9  -2   8 1005.80 328.337   1
   8  -9   8 785.485 284.270   1
   8  -9   7-56.7536 170.070   1
   8  -9   6 8958.04 753.437   1
   8  -9   5 24.0857 135.391   1
   8  -9   4-59.1083 109.902   2
   8  -9   4 109.157 148.260   1
   8  -9   3 4919.58 450.776   2
   8  -9   3 6634.09 583.232   1
   9  -1  -2 14704.2 295.755   2
  -9   1   2 14824.5 540.254   1
   8  -9   2 16482.5 778.953   2
   9  -1  -2 15389.1 548.107   1
   8  -9   1 7067.98 503.128   2
  -9   1   1 5718.03 381.655   1
   9  -1  -1 7244.79 438.403   1
   9  -1   0 10201.3 570.982   1
  -1  -8   1 10841.8 586.838   2
   9  -1   1 11165.7 654.805   1
   9  -1   2-25.6469 130.600   1
  -1  -8   2 215.763 142.859   2
   9  -1   3 511.538 199.975   1
  -1  -8   3 750.689 189.691   2
  -9   1  -3 525.251 93.3302   2
   9  -1   4-64.8069 157.578   1
   9  -1   5 6427.28 634.491   1
   9  -1   6 259.187 204.381   1
  -1  -8   7-3.53552 113.617   1
   9  -1   7-169.711 193.348   1
   9  -1   8 379.496 227.766   1
   9  -9   8 23153.9 1396.90   1
   9  -9   7-23.7664 221.249   1
   9  -9   6 170.628 187.215   1
   9  -9   5 983.717 284.788   1
   9  -9   4 18833.5 921.178   2
   9  -9   4 17238.5 990.070   1
   9  -9   3 430.268 147.205   2
   9  -9   3 368.850 163.337   1
  -9   0   2-9.58713 69.3504   1
   9  -9   2 40.5973 83.4236   2
   9  -9   2-13.2194 129.080   1
  -9   0   1 10860.0 558.764   1
   9  -9   1 11314.8 632.623   2
   9  -9   1 11018.2 699.055   1
   9   0  -1 12433.0 592.962   1
   9   0   0 105830. 1885.78   1
   9   0   1 11413.1 677.680   1
   0  -9   1 9663.15 588.151   2
   0  -9   2 17.3396 94.0834   2
   9   0   2 223.660 135.274   1
   0  -9   3 302.182 118.296   2
   9   0   3 640.676 214.047   1
   0  -9   4 18454.2 903.198   2
   9   0   4 17397.6 992.425   1
   9   0   5 1816.09 351.810   1
   9   0   6 292.843 209.875   1
   0  -9   7 372.774 159.068   1
   9   0   7 185.793 187.457   1
   9   0   8 21933.0 1353.39   1
   9   1   8 633.125 295.462   1
   9   1   7 675.868 324.585   1
   1 -10   7 339.016 184.339   1
   9   1   6 60.2321 171.277   1
   9   1   5 342.194 238.081   1
   1 -10   4 604.672 194.725   2
   9   1   4 664.234 237.799   1
   1 -10   3-24.4543 119.755   2
   9   1   3 556.363 214.893   1
   1 -10   2 150.571 123.355   2
   9   1   2-17.3037 117.366   1
   9   1   1 3763.19 406.507   1
   1 -10   1 3522.49 390.289   2
  10  -9   0 4914.06 467.224   1
   9   1   0 5478.86 454.021   1
  10  -9   1 1391.96 226.818   2
  10  -9   1 978.009 245.212   1
  -9  -1   2 7939.29 462.787   1
  10  -9   2 9255.75 592.010   2
  10  -9   2 10149.5 719.737   1
  10  -9   3 5991.72 505.491   2
  10  -9   3 5937.58 576.756   1
  10  -9   4 4212.44 442.754   2
  10  -9   4 4307.72 513.871   1
  10  -9   5 153.777 155.500   1
  10  -9   6 1604.86 351.719   1
  10  -9   7 64.7601 199.898   1
  10  -9   8 315.769 233.616   1
   2 -10   8-385.068 201.985   1
   8   2   8 77.5484 203.683   1
   2 -10   7 5627.14 573.565   1
   8   2   7 5232.52 646.238   1
   8   2   6 6594.44 681.236   1
   8   2   5 18971.6 1093.51   1
   2 -10   4 22.2688 122.159   2
   8   2   4 117.286 159.658   1
   2 -10   3 344.535 143.178   2
   8   2   3 305.788 161.136   1
   2 -10   2 24369.0 1009.74   2
  10  -8  -2 25147.3 911.519   1
   8   2   2 24847.5 1062.35   1
   2 -10   1 42525.9 1289.56   2
  10  -8  -1 42859.2 1236.42   1
   8   2   1 42063.4 1298.18   1
  10  -8   0 7199.66 535.411   1
  10  -8   1 457.360 164.010   1
  10  -8   1 354.252 126.315   2
  -8  -2   2 12670.0 582.657   1
  10  -8   2 13250.7 668.979   2
  10  -8   2 14390.7 832.286   1
  10  -8   3 25829.4 1155.54   1
  10  -8   3 26318.7 993.097   2
  10  -8   4 5866.40 598.286   1
  10  -8   5 3790.87 516.523   1
  10  -8   6 3420.66 515.865   1
  10  -8   7 14396.1 1069.91   1
  10  -8   8 215.159 188.351   1
   3 -10   8 1232.63 281.669   1
   7   3   8 1448.00 381.858   1
   7   3   7 30.8008 201.870   1
   3 -10   7 92.4763 165.303   1
   3 -10   6 163.231 176.841   1
   7   3   6 395.985 209.058   1
   7   3   5 7055.96 666.236   1
   3 -10   5 6893.44 613.786   2
   3 -10   4 2893.86 389.623   2
   7   3   4 2597.49 391.183   1
  10  -7  -4 2754.56 256.070   1
  10  -7  -3 2905.71 280.918   1
   3 -10   3 2757.80 362.371   2
   7   3   3 3200.45 421.691   1
   7   3   2 991.325 236.547   1
   3 -10   2 776.075 192.832   2
  10  -7  -2 926.341 180.088   1
  10  -7  -1 476.005 145.102   1
  -7  -3  -1 654.575 74.2176   2
   3 -10   1 662.814 189.933   2
  10  -7   0 4936.19 361.409   2
  10  -7   0 5532.20 458.825   1
  10  -7   1 359.313 121.521   2
  10  -7   1 136.359 101.431   1
  10  -7   2 6010.40 531.743   1
  10  -7   2 6307.96 433.826   2
  -7  -3   2 5364.00 389.391   1
  -7  -3   3 360.341 101.509   1
  10  -7   3 284.796 139.962   1
  10  -7   3 436.181 130.681   2
  10  -7   4 12051.2 832.813   1
  10  -7   5 444.048 227.926   1
  10  -7   6-91.7453 183.627   1
  10  -7   7 932.903 286.252   1
  10  -7   8-201.835 235.781   1
   6   4   8 475.641 251.800   1
   4 -10   8-137.010 156.832   1
   4 -10   7 703.744 259.979   1
   6   4   7 419.641 219.151   1
   4 -10   6 261.583 155.330   1
   6   4   6 394.854 222.982   1
   4 -10   5 2276.84 359.589   2
   6   4   5 2833.16 435.308   1
   4 -10   4 628.211 212.179   2
   6   4   4 83.2681 134.346   1
  10  -6  -4 378.796 95.7869   1
  10  -6  -3 3944.48 300.052   1
   4 -10   3 3813.91 410.086   2
   6   4   3 4313.84 468.159   1
  10  -6  -2 4395.39 343.202   1
   4 -10   2 4314.80 434.048   2
  10  -6  -1 5552.80 415.161   1
   4 -10   1 5249.09 465.163   2
  10  -6   0 4093.61 385.168   1
  -6  -4   0 3990.38 221.778   2
  10  -6   0 4579.45 319.650   2
  10  -6   1 3853.84 407.605   1
  10  -6   1 3291.88 281.540   2
  10  -6   2 3191.41 392.526   1
  10  -6   2 2760.63 273.285   2
  10  -6   3 6563.23 584.713   1
  -6  -4   3 6048.46 403.342   1
  10  -6   4 118.867 151.966   1
  10  -6   5 11.7811 142.665   1
  10  -6   6 266.405 211.094   1
  10  -6   7 4901.14 625.435   1
  10  -6   8-51.5219 187.350   1
   5 -10   8 1435.16 362.390   1
   5 -10   7 4307.67 530.666   1
   5 -10   6 5335.50 570.969   1
   5 -10   5 12295.2 811.270   2
   5 -10   5 12191.4 822.179   1
   5 -10   4 14717.3 849.325   2
  10  -5  -4 13349.8 407.277   1
   5 -10   3 361.138 152.586   2
  10  -5  -3 190.398 72.9575   1
  10  -5  -2 29740.5 854.819   1
   5 -10   2 30280.8 1111.43   2
  10  -5  -1 37465.6 1050.42   1
   5 -10   1 37664.1 1217.80   2
  10  -5   0 68.1147 85.4685   1
  10  -5   0-33.9638 57.5758   2
  -5  -5   0 20.7444 51.3852   2
  10  -5   1 5138.03 464.038   1
  10  -5   1 4662.90 301.849   2
  -5  -5   1 5261.00 313.803   2
  10  -5   2 2538.38 354.369   1
  10  -5   3 36498.1 1355.96   1
  10  -5   4 3644.32 468.792   1
  10  -5   5 1421.53 333.327   1
  10  -5   6 27216.0 1352.77   1
  10  -5   7 21415.5 1270.04   1
  10  -5   8 7341.41 784.364   1
   6 -10   8 44.9164 137.027   1
   6 -10   7 207.487 148.249   1
   6 -10   6 267.298 173.836   1
   6 -10   5 2338.14 375.233   1
   6 -10   5 2764.33 399.157   2
   6 -10   4 153.078 147.833   2
  10  -4  -3 4372.01 263.985   1
   6 -10   3 4535.98 458.818   2
  10  -4  -2 4204.66 313.714   1
   6 -10   2 4684.25 452.028   2
  10  -4  -1 5348.21 396.275   1
   6 -10   1 4987.45 459.804   2
  10  -4   0 3823.00 367.727   1
  10  -4   0 4165.08 229.162   2
  -4  -6   0 3993.68 303.555   2
  10  -4   1 2831.79 343.789   1
  -4  -6   1 3120.83 271.055   2
  -4  -6   2 2817.13 276.476   2
  10  -4   2 2702.63 362.186   1
  10  -4   3 6799.02 590.970   1
  10  -4   4-73.5223 178.713   1
  10  -4   5-157.458 186.676   1
  10  -4   6 107.030 184.904   1
  10  -4   7 5434.08 653.024   1
  10  -4   8 77.3992 203.796   1
   7 -10   8 1154.19 323.342   1
   7 -10   7 191.082 177.498   1
   7 -10   6-10.0292 165.985   1
   7 -10   5 6444.03 590.348   2
   7 -10   5 7332.60 661.091   1
   7 -10   4 3042.44 393.235   2
   7 -10   4 2763.27 404.277   1
   7 -10   3 3039.71 381.604   2
  10  -3  -3 2845.02 202.576   1
  10  -3  -2 850.921 148.952   1
   7 -10   2 979.115 222.999   2
  10  -3  -1 503.288 118.057   1
  10  -3  -1 638.881 73.9827   2
   7 -10   1 846.033 202.089   2
  10  -3   0 5454.42 434.847   1
  10  -3   1 8.24170 103.211   1
  -3  -7   1 134.786 78.4269   2
  10  -3   2 6158.61 528.275   1
  -3  -7   2 6473.17 437.927   2
  -3  -7   3 296.961 128.054   2
  10  -3   3 276.434 163.646   1
  10  -3   4 13111.9 868.408   1
  10  -3   5 128.266 152.043   1
  10  -3   6 351.450 208.721   1
  10  -3   7 674.347 243.741   1
  10  -3   8 119.000 195.684   1
   8 -10   8-532.051 265.604   1
   8 -10   7 4013.10 560.744   1
   8 -10   6 5656.60 621.292   1
   8 -10   5 19296.5 1098.87   1
   8 -10   4 31.1618 116.447   2
   8 -10   4 112.555 140.483   1
   8 -10   3 456.979 179.433   1
   8 -10   3 891.739 211.093   2
   8 -10   2 24301.3 999.864   2
  10  -2  -2 25080.1 744.753   1
 -10   2   1 38908.9 1028.00   1
   8 -10   1 41358.4 1271.24   2
  10  -2  -1 39949.4 1072.34   1
  10  -2   0 6863.58 495.223   1
  10  -2   1 327.581 151.004   1
  -2  -8   1 527.835 152.966   2
  -2  -8   2 12598.6 645.996   2
  10  -2   2 13078.8 774.474   1
  -2  -8   3 26489.8 991.030   2
  10  -2   3 26265.7 1167.50   1
  10  -2   4 5136.89 557.037   1
  10  -2   5 4219.85 547.462   1
  10  -2   6 3446.74 520.519   1
  10  -2   7 16773.6 1156.16   1
  10  -2   8 179.641 212.631   1
   9 -10   8 872.628 331.719   1
   9 -10   7-47.2221 208.042   1
   9 -10   6 254.816 181.053   1
   9 -10   5-27.4390 159.586   1
   9 -10   4 652.888 195.143   2
   9 -10   4 828.762 262.497   1
   9 -10   3 484.448 177.520   2
   9 -10   3-10.5131 153.508   1
   9 -10   2 0.63369 130.731   1
  10  -1  -2 54.6614 75.5897   1
   9 -10   2-48.4036 101.293   2
   9 -10   1 3711.01 389.347   2
  10  -1  -1 3775.82 345.196   1
  10  -1   0 5980.68 472.121   1
  -1  -9   1 1112.23 217.012   2
  10  -1   1 872.662 222.374   1
  -1  -9   2 9533.26 605.703   2
  10  -1   2 10257.5 704.725   1
  -1  -9   3 5900.66 494.490   2
  10  -1   3 6606.36 608.045   1
  -1  -9   4 3440.78 402.474   2
  10  -1   4 4519.71 538.608   1
  10  -1   5 185.509 212.538   1
  10  -1   6 747.421 247.880   1
  10  -1   7 75.2178 212.921   1
  10  -1   8 55.6541 197.609   1
  10 -10   7 2466.28 478.382   1
  10 -10   6 800.667 282.674   1
  10 -10   5 1340.91 331.565   1
  10 -10   4 3402.32 477.110   1
  10 -10   4 3973.33 460.510   2
  10 -10   3 210.001 174.430   2
  10 -10   3 200.036 175.995   1
  10 -10   2-155.962 135.449   1
  10 -10   2 62.6719 99.2644   2
  10   0  -1 233.067 111.940   1
  10 -10   1 159.237 137.884   2
  10 -10   1-82.9940 156.726   1
  10   0   0 1645.92 262.389   1
   0 -10   1 146.941 110.931   2
  10   0   1 233.980 147.576   1
   0 -10   2-33.6197 95.6872   2
  10   0   2-41.7723 127.558   1
   0 -10   3-106.330 163.455   2
  10   0   3 137.360 164.959   1
   0 -10   4 3137.94 410.129   2
  10   0   4 3640.49 492.202   1
  10   0   5 1722.64 364.901   1
  10   0   6 627.175 286.672   1
  10   0   7 2642.47 494.356   1
   0 -10   7 1859.08 327.851   1
   1 -11   7 28736.8 1328.23   1
  10   1   7 27019.9 1520.99   1
  10   1   6 9450.12 870.988   1
  10   1   5 597.632 236.735   1
   1 -11   4 908.507 239.014   2
  10   1   4 664.967 256.401   1
   1 -11   3 6518.77 575.809   2
  10   1   3 5665.87 587.651   1
   1 -11   2 3743.62 423.463   2
  10   1   2 4517.81 504.579   1
   1 -11   1 17945.8 897.918   2
  11 -10  -1 17094.5 875.799   1
  10   1   1 17127.6 892.713   1
  11 -10   0 341.240 150.920   1
  10   1   0 380.022 170.828   1
  11 -10   1 22123.7 949.784   2
  11 -10   1 22224.3 1075.79   1
  11 -10   2 40005.4 1295.47   2
  11 -10   2 38888.3 1477.80   1
  11 -10   3 1230.91 298.071   1
  11 -10   3 965.093 223.392   2
  11 -10   4 2054.54 339.542   2
  11 -10   4 1621.26 342.930   1
  11 -10   5 33926.2 1568.62   1
  11 -10   6 9169.11 852.457   1
  11 -10   7 1490.52 384.746   1
   2 -11   7 2788.08 431.086   1
   9   2   7 3009.40 509.275   1
   9   2   6 779.552 280.703   1
   2 -11   5 2756.75 406.403   2
   9   2   5 2645.61 445.246   1
   2 -11   4 36.4297 155.031   2
   9   2   4 59.3813 168.026   1
   2 -11   3 92.7368 131.931   2
   9   2   3 190.078 159.146   1
   9   2   2 162.155 157.868   1
   2 -11   2 61.5062 138.116   2
  11  -9  -2 360.950 135.067   1
   9   2   1 762.014 205.692   1
  11  -9  -1 576.978 166.097   1
   2 -11   1 972.311 231.856   2
  11  -9   0 1416.42 236.193   2
  11  -9   0 947.542 219.303   1
  11  -9   1 2191.22 343.209   1
  11  -9   1 1730.83 254.153   2
  11  -9   2 2585.71 383.252   1
  11  -9   2 3070.30 352.376   2
  11  -9   3 11613.3 819.251   1
  11  -9   3 10214.4 658.318   2
  11  -9   4-30.4626 165.839   1
  11  -9   5 2554.21 441.595   1
  11  -9   6 198.639 192.077   1
  11  -9   7 365.846 264.307   1
   3 -11   7 1104.35 299.318   1
   8   3   7 651.739 299.680   1
   8   3   6 717.562 296.570   1
   3 -11   5 588.284 212.577   2
   8   3   5 807.018 292.634   1
  11  -8  -4 865.044 163.844   1
   3 -11   4 841.678 236.761   2
   8   3   4 1100.98 304.665   1
  11  -8  -3 2219.79 269.954   1
   8   3   3 2323.31 377.263   1
   3 -11   3 1535.75 288.341   2
   3 -11   2 8916.24 646.491   2
  11  -8  -2 9921.18 587.512   1
   8   3   2 9320.43 683.394   1
  11  -8  -1 13303.7 718.447   1
   3 -11   1 13833.1 784.966   2
  11  -8   0 672.142 179.771   1
  11  -8   0 561.390 151.844   2
  11  -8   1 3981.61 358.216   2
  11  -8   1 3656.14 415.888   1
  11  -8   2 115.351 92.0994   2
  11  -8   2 6.03820 120.023   1
  11  -8   3 531.946 198.022   1
  11  -8   3 610.930 162.808   2
  11  -8   4-52.7820 166.120   1
  11  -8   5 521.381 231.460   1
  11  -8   6 1767.21 384.459   1
  11  -8   7 665.408 284.892   1
   4 -11   7 9639.47 798.723   1
   7   4   7 10425.7 907.905   1
   4 -11   6 7031.00 664.881   1
   7   4   6 6380.36 688.778   1
   4 -11   5 564.342 222.117   2
   7   4   5 543.039 250.112   1
   7   4   4 2228.94 383.940   1
   4 -11   4 2289.70 372.567   2
  11  -7  -3 65410.1 1336.54   1
   4 -11   3 64613.9 1765.42   2
  11  -7  -2 33470.5 1024.66   1
   4 -11   2 34013.0 1249.96   2
  -7  -4  -1 310.747 68.5415   2
  11  -7  -1 130.218 98.6146   1
   4 -11   1 280.481 146.126   2
  -7  -4   0 1023.02 107.096   2
  11  -7   0 1394.76 251.609   1
  11  -7   0 752.119 147.577   2
  11  -7   1 34908.5 1259.05   1
  11  -7   1 33001.2 944.476   2
  11  -7   2 23838.5 1090.93   1
  11  -7   2 23985.4 847.438   2
  11  -7   3 11762.4 815.243   1
  11  -7   4 224.314 191.753   1
  11  -7   5 22102.2 1232.46   1
  11  -7   6 15762.1 1095.62   1
  11  -7   7 278.938 156.163   1
   5 -11   8 339.147 201.037   1
   5 -11   7-138.701 203.540   1
   5 -11   6 138.441 149.188   1
   5 -11   5 993.136 250.339   2
   5 -11   4 7403.68 638.858   2
  11  -6  -3 247.162 98.7330   1
   5 -11   3 319.900 161.746   2
  11  -6  -2 7874.29 481.780   1
   5 -11   2 7609.47 599.587   2
  11  -6  -1 2544.28 301.677   1
   5 -11   1 1602.41 287.888   2
  11  -6   0 756.334 188.472   1
  -6  -5   0 636.931 109.354   2
  11  -6   0 975.524 154.780   2
  -6  -5   1 76.0748 66.6805   2
  11  -6   1 8.72156 59.3306   2
  11  -6   2 212.373 164.129   1
  11  -6   3 92.2695 137.383   1
  11  -6   4 1522.97 330.514   1
  11  -6   5 5220.50 612.975   1
  11  -6   6 6030.09 675.521   1
  11  -6   7 692.680 257.381   1
  11  -6   8 2848.56 526.231   1
   6 -11   8-6.55236 171.264   1
   6 -11   7 254.586 181.936   1
   6 -11   6 136.884 186.651   1
   6 -11   5 1482.26 313.215   2
   6 -11   5 1540.59 321.109   1
   6 -11   4 6863.55 608.560   2
  11  -5  -3 193.959 61.8026   1
   6 -11   3 161.072 106.832   2
  11  -5  -2 8491.58 484.384   1
   6 -11   2 8607.87 632.973   2
  11  -5  -1 1854.27 256.736   1
   6 -11   1 2306.99 341.523   2
  11  -5   0 897.694 129.964   2
  -5  -6   0 705.390 136.077   2
  11  -5   0 1005.83 215.346   1
  11  -5   1 16.5585 58.4455   2
  -5  -6   1 31.2898 65.3104   2
  11  -5   1 17.4803 112.058   1
  11  -5   2 500.865 201.056   1
  11  -5   3-72.9529 176.210   1
  11  -5   4 988.628 274.516   1
  11  -5   5 4120.06 537.011   1
  11  -5   6 6300.49 696.177   1
  11  -5   7 700.075 302.813   1
  11  -5   8 1696.27 399.881   1
   7 -11   7 11236.8 907.745   1
   7 -11   6 5450.42 619.225   1
   7 -11   5 1043.50 280.198   2
   7 -11   5 1115.92 298.687   1
   7 -11   4 2077.99 344.047   2
   7 -11   3 66486.6 1794.61   2
  11  -4  -3 66478.8 1094.78   1
  11  -4  -2 35926.7 948.724   1
   7 -11   2 33780.4 1245.29   2
  11  -4  -1 215.662 119.300   1
  11  -4  -1 263.196 63.4720   2
   7 -11   1 381.894 172.341   2
  11  -4   0 710.861 92.3602   2
  11  -4   0 1161.40 218.178   1
  -4  -7   0 795.412 154.579   2
  11  -4   1 35881.4 1236.74   1
  -4  -7   1 35433.6 966.258   2
  11  -4   2 23132.6 1064.61   1
  -4  -7   2 24191.6 840.635   2
  11  -4   3 11432.6 786.613   1
  11  -4   4 150.317 143.356   1
  11  -4   5 25089.7 1296.84   1
  11  -4   6 14159.6 1024.35   1
  11  -4   7 446.102 240.647   1
   8 -11   7 681.894 248.542   1
   8 -11   6 738.883 252.239   1
   8 -11   5 576.187 210.407   2
   8 -11   5 636.594 225.502   1
   8 -11   4 1217.60 281.707   2
   8 -11   4 834.483 257.604   1
   8 -11   3 1992.92 333.787   2
   8 -11   2 9596.82 667.870   2
  11  -3  -2 8399.49 462.302   1
   8 -11   1 13000.9 759.279   2
  11  -3  -1 13698.4 666.072   1
  11  -3   0 750.451 175.119   1
  -3  -8   0 656.062 167.403   2
  11  -3   1 3450.36 398.336   1
  -3  -8   1 3117.02 312.998   2
  11  -3   2 58.1071 115.230   1
  -3  -8   2 76.6361 106.457   2
  11  -3   3 160.606 132.813   1
  -3  -8   3 438.531 154.143   2
  11  -3   4 199.160 189.664   1
  11  -3   5 153.156 207.542   1
  11  -3   6 1255.80 367.301   1
  11  -3   7 259.424 189.217   1
   9 -11   7 4186.73 590.430   1
   9 -11   6 1188.73 295.675   1
   9 -11   5 1926.39 356.095   2
   9 -11   5 2979.16 463.474   1
   9 -11   4 379.999 215.900   1
   9 -11   4-13.5303 145.547   2
   9 -11   3 150.081 129.915   1
   9 -11   3 141.892 129.503   2
   9 -11   2 368.181 174.949   2
  11  -2  -2 88.5166 83.6265   1
   9 -11   1 911.067 222.278   2
  11  -2  -1 1155.66 206.857   1
  11  -2   0 1239.10 237.422   1
  11  -2   1 1850.35 307.402   1
  -2  -9   1 2174.99 295.543   2
  11  -2   2 3047.79 407.090   1
  -2  -9   2 3579.62 376.392   2
  -2  -9   3 11906.5 701.734   2
  11  -2   3 10842.1 788.927   1
  11  -2   4-30.5508 182.034   1
  11  -2   5 3009.93 472.432   1
  11  -2   6 422.173 243.477   1
  11  -2   7 73.9722 247.172   1
  10 -11   7 30042.1 1586.11   1
  10 -11   6 8610.45 815.717   1
  10 -11   5 88.4730 193.016   1
  10 -11   4 459.983 187.895   2
  10 -11   4 152.085 169.662   1
  10 -11   3 5916.84 545.680   2
  10 -11   3 7168.59 662.987   1
  10 -11   2 4403.94 504.613   1
  10 -11   2 3075.32 383.460   2
  11  -1  -2 3862.21 327.000   1
  10 -11   1 17977.6 901.411   2
  11  -1  -1 18407.0 790.480   1
  11  -1   0 339.028 149.553   1
  -1 -10   1 22947.0 963.814   2
  11  -1   1 22790.7 1023.14   1
  -1 -10   2 38780.0 1273.03   2
  11  -1   2 38868.8 1417.27   1
  -1 -10   3 740.348 209.988   2
  11  -1   3 880.235 253.600   1
  -1 -10   4 1681.52 300.562   2
  11  -1   4 1854.77 352.354   1
  11  -1   5 32116.0 1512.66   1
  11  -1   6 9141.93 851.574   1
  11  -1   7 1215.85 343.208   1
  11 -11   6 1632.80 385.542   1
  11 -11   5 2675.01 464.313   1
  11 -11   4 378.228 174.259   1
  11 -11   4 475.559 215.463   2
  11 -11   3 5733.25 624.199   1
  11 -11   3 4530.38 488.799   2
  11 -11   2 1883.23 340.103   1
  11 -11   2 1864.17 312.895   2
  11 -11   1 6.23359 131.227   1
  11   0  -1 123.906 122.831   1
  11 -11   1 72.2188 129.177   2
  11   0   0 412.818 162.549   1
   0 -11   1-32.6733 101.664   2
  11   0   1 220.681 125.704   1
   0 -11   2 2063.89 322.319   2
  11   0   2 1441.25 305.280   1
   0 -11   3 5166.57 518.692   2
  11   0   3 4170.42 524.333   1
   0 -11   4 653.754 241.705   2
  11   0   4 673.597 260.399   1
  11   0   5 2023.52 407.260   1
  11   0   6 1581.22 389.273   1
  11   1   6 2342.31 478.294   1
  11   1   5 84.7518 156.609   1
   1 -12   4-219.352 126.131   2
  11   1   4-77.5319 160.445   1
   1 -12   3 738.416 210.293   2
  11   1   3 837.374 287.113   1
   1 -12   2 934.581 255.613   2
  11   1   2 1708.49 330.773   1
  12 -11  -1 127.147 120.508   1
  11   1   1-80.6830 127.150   1
   1 -12   1 137.562 156.422   2
  12 -11   0 361.178 177.183   1
  12 -11   0 133.578 122.088   2
  11   1   0 18.1056 123.788   1
  12 -11   1 4797.54 466.731   2
  12 -11   1 4012.45 497.873   1
  12 -11   2 6156.19 543.947   2
  12 -11   2 6030.32 627.968   1
  12 -11   3 2100.57 387.000   1
  12 -11   3 1936.72 326.901   2
  12 -11   4 1318.71 271.898   2
  12 -11   4 1045.97 330.116   1
  12 -11   5 677.689 266.255   1
  12 -11   6 195.003 194.154   1
  10   2   6 2781.62 490.903   1
   2 -12   5 2191.51 374.200   2
  10   2   5 1552.14 355.385   1
   2 -12   4 2468.07 391.905   2
  10   2   4 1692.50 347.887   1
   2 -12   3 228.362 151.305   2
  10   2   3-3.40555 141.366   1
  12 -10  -3 3.30483 93.6645   1
  10   2   2 609.834 226.734   1
   2 -12   2 751.198 233.134   2
  12 -10  -2 889.740 221.067   1
  12 -10  -1 2802.45 372.309   1
   2 -12   1 2319.91 352.102   2
  10   2   1 2024.79 330.659   1
  12 -10   0 422.601 182.226   1
  12 -10   0 866.505 204.274   2
  12 -10   1 279.729 168.684   1
  12 -10   1 225.850 118.422   2
  12 -10   2 1569.41 332.874   1
  12 -10   2 966.155 221.613   2
  12 -10   3 727.344 197.231   2
  12 -10   3 553.689 227.688   1
  12 -10   4 10011.5 849.975   1
  12 -10   5 3172.77 515.200   1
  12 -10   6 42.6682 230.655   1
   3 -12   7 2640.61 445.980   1
   9   3   7 3735.04 590.806   1
   9   3   6 190.177 170.578   1
   3 -12   5 6982.08 669.957   2
   9   3   5 5086.13 627.643   1
   3 -12   4 18139.5 1029.25   2
   9   3   4 20510.1 1162.40   1
   9   3   3-72.6768 164.967   1
   3 -12   3 112.456 121.523   2
  12  -9  -3 160.355 117.728   1
   3 -12   2 7755.94 635.757   2
  12  -9  -2 9182.50 611.389   1
   9   3   2 9073.55 708.993   1
  12  -9  -1 3895.45 424.008   1
   3 -12   1 3257.87 417.108   2
  12  -9   0 17562.9 916.812   1
  12  -9   0 16988.1 765.322   2
  12  -9   1 4175.90 391.144   2
  12  -9   1 4097.01 467.302   1
  12  -9   2-59.9365 116.891   2
  12  -9   2 115.708 156.659   1
  12  -9   3 20088.3 1124.25   1
  12  -9   3 19659.9 910.651   2
  12  -9   4 25944.2 1329.36   1
  12  -9   5 4996.78 629.111   1
  12  -9   6 825.121 299.047   1
  12  -9   7 826.768 357.456   1
   4 -12   7 1871.24 380.129   1
   8   4   7 1394.69 391.793   1
   8   4   6 1410.60 380.423   1
   4 -12   5 169.896 143.170   2
   8   4   5 1246.05 313.026   1
   4 -12   4 559.270 230.575   2
   8   4   4 230.801 215.646   1
   4 -12   3 1113.70 284.533   2
  12  -8  -3 853.394 180.616   1
   4 -12   2 100.029 144.613   2
  12  -8  -2-61.7034 119.432   1
   4 -12   1 230.234 151.697   2
  12  -8  -1-44.2777 97.3896   1
  12  -8   0 1304.16 251.005   1
  12  -8   0 1571.81 227.736   2
  12  -8   1 3367.09 329.388   2
  12  -8   1 3931.25 459.335   1
  12  -8   2 1579.99 313.067   1
  12  -8   2 1575.94 240.096   2
  12  -8   3 3509.14 473.433   1
  12  -8   4 4163.69 531.113   1
  12  -8   5 4938.52 616.868   1
  12  -8   6 1094.99 356.722   1
  12  -8   7 268.981 210.770   1
   5 -12   7 898.994 289.462   1
   5 -12   6 1663.21 357.054   1
   5 -12   5 838.010 273.141   2
   5 -12   4 3237.77 442.966   2
  12  -7  -3 17422.3 710.644   1
   5 -12   3 15929.2 929.643   2
  12  -7  -2 2071.58 278.240   1
   5 -12   2 1487.69 296.446   2
  12  -7  -1 1423.86 243.281   1
  -7  -5  -1 1101.58 136.233   2
   5 -12   1 2140.45 340.915   2
  12  -7   0 7486.56 575.893   1
  -7  -5   0 8089.63 339.635   2
  12  -7   0 8405.84 466.056   2
  12  -7   1 136.565 121.115   1
  12  -7   1 379.073 113.474   2
  12  -7   2 3947.38 475.499   1
  12  -7   2 2990.13 298.098   2
  12  -7   3 100.722 144.765   1
  12  -7   4 292.235 160.183   1
  12  -7   5 325.997 186.396   1
  12  -7   6 16.3413 171.664   1
  12  -7   7-63.5710 186.902   1
   6 -12   7 90.8443 174.096   1
   6 -12   6 663.438 230.191   1
   6 -12   5 9754.04 787.492   2
   6 -12   4 46849.1 1641.04   2
   6 -12   3 4890.88 518.171   2
  12  -6  -2 3238.68 329.535   1
   6 -12   2 3987.65 459.099   2
  12  -6  -1 9061.39 585.725   1
  12  -6  -1 7742.81 402.309   2
   6 -12   1 9695.45 689.826   2
  12  -6   0 30261.5 1146.83   1
  12  -6   0 31609.7 792.087   2
  -6  -6   0 30747.3 777.599   2
  12  -6   1 6553.08 570.540   1
  12  -6   1 8397.42 428.967   2
  -6  -6   1 7847.42 413.448   2
  12  -6   2 1249.44 275.914   1
  12  -6   3 74.4111 149.216   1
  12  -6   4 20035.3 1146.84   1
  12  -6   5 3333.53 515.194   1
  12  -6   6 3.91295 149.023   1
  12  -6   7 3948.44 603.154   1
   7 -12   7 1199.84 369.588   1
   7 -12   6 516.141 243.610   1
   7 -12   5 1630.51 352.240   1
   7 -12   5 1265.14 315.877   2
   7 -12   4 4893.11 544.746   2
   7 -12   3 16881.8 956.027   2
  12  -5  -2 1645.46 230.367   1
   7 -12   2 1459.44 293.987   2
  12  -5  -1 1431.27 237.917   1
   7 -12   1 1503.73 292.836   2
  12  -5   0 7152.15 548.643   1
  -5  -7   0 7603.12 443.620   2
  12  -5   1 441.996 175.663   1
  -5  -7   1 403.250 108.464   2
  -5  -7   2 2929.91 294.756   2
  12  -5   2 3689.25 461.275   1
  12  -5   3 579.661 234.953   1
  12  -5   4 134.872 194.656   1
  12  -5   5 423.480 225.357   1
  12  -5   6 20.5428 162.912   1
  12  -5   7-257.244 233.760   1
   8 -12   7 966.179 289.707   1
   8 -12   6 1605.22 357.003   1
   8 -12   5 404.896 197.929   2
   8 -12   5 179.892 189.977   1
   8 -12   4 597.927 256.526   1
   8 -12   4 652.542 236.283   2
   8 -12   3 536.757 195.645   2
  12  -4  -2-195.823 104.075   1
   8 -12   2 95.0766 131.615   2
  12  -4  -1 15.9378 95.4526   1
   8 -12   1 143.937 165.093   2
  12  -4   0 1378.62 260.845   1
  -4  -8   0 1239.35 200.647   2
  12  -4   1 3062.70 388.744   1
  -4  -8   1 3547.13 342.134   2
  12  -4   2 1580.21 291.299   1
  -4  -8   2 1910.75 269.592   2
  12  -4   3 3586.86 486.954   1
  12  -4   4 3739.44 516.378   1
  12  -4   5 4903.31 606.393   1
  12  -4   6 1042.38 324.695   1
  12  -4   7-116.167 163.636   1
   9 -12   7 3957.38 590.974   1
   9 -12   6 16.0301 223.107   1
   9 -12   5 6268.57 640.722   2
   9 -12   5 5749.36 649.219   1
   9 -12   4 20900.5 1102.29   2
   9 -12   4 19266.9 1142.82   1
   9 -12   3 114.073 167.607   2
   9 -12   2 7739.45 627.195   2
  12  -3  -2 7028.20 448.358   1
   9 -12   1 3832.21 452.186   2
  12  -3  -1 3600.51 369.352   1
  -3  -9   0 16255.3 752.594   2
  12  -3   0 18218.6 874.989   1
  12  -3   1 3473.19 418.359   1
  -3  -9   1 3395.28 358.796   2
  12  -3   2 18.5004 155.438   1
  -3  -9   2 28.0801 106.043   2
  -3  -9   3 20769.3 920.193   2
  12  -3   3 19525.9 1091.18   1
  12  -3   4 24654.3 1286.89   1
  12  -3   5 3473.97 533.172   1
  12  -3   6 1324.34 346.885   1
  12  -3   7-109.913 224.747   1
  10 -12   6 2892.73 502.164   1
  10 -12   5 1463.44 341.757   2
  10 -12   5 2507.76 450.080   1
  10 -12   4 2150.03 401.574   1
  10 -12   4 2638.39 410.408   2
  10 -12   3 215.758 185.111   1
  10 -12   3 515.004 220.523   2
  10 -12   2 460.559 210.340   2
  10 -12   1 2101.94 342.180   2
  12  -2  -1 2469.75 314.573   1
  -2 -10   0 781.404 201.906   2
  12  -2   0 420.201 169.809   1
  -2 -10   1 125.389 115.319   2
  12  -2   1 42.7171 135.822   1
  -2 -10   2 1221.66 246.524   2
  12  -2   2 822.799 251.367   1
  -2 -10   3 460.675 204.087   2
  12  -2   3 572.652 214.301   1
  12  -2   4 8517.49 777.822   1
  12  -2   5 3279.26 517.547   1
  12  -2   6 179.098 215.579   1
  11 -12   6 3329.48 548.566   1
  11 -12   5 560.253 227.487   1
  11 -12   4-80.7252 166.193   1
  11 -12   4-23.2406 129.815   2
  11 -12   3 1434.18 344.214   1
  11 -12   3 1843.73 338.849   2
  11 -12   2 1257.46 306.154   1
  11 -12   2 1296.54 266.586   2
  12  -1  -1 34.4823 104.120   1
  11 -12   1-62.4990 102.035   2
  12  -1   0 281.281 167.816   1
  -1 -11   0 44.1404 105.278   2
  -1 -11   1 4311.81 448.145   2
  12  -1   1 4822.20 505.331   1
  -1 -11   2 5496.41 518.999   2
  12  -1   2 6177.25 604.513   1
  -1 -11   3 1826.16 324.524   2
  12  -1   3 1823.20 356.527   1
  -1 -11   4 502.552 223.453   2
  12  -1   4 740.993 274.257   1
  12  -1   5 524.317 244.876   1
  12  -1   6-122.632 177.426   1
  12 -12   5 2309.65 447.801   1
  12 -12   4 18727.5 1054.59   2
  12 -12   4 17576.9 1155.47   1
  12 -12   3 3111.65 481.817   1
  12 -12   3 2864.96 414.118   2
  12 -12   2 124.587 114.523   2
  12 -12   2 312.001 172.075   1
  12 -12   1 9769.52 710.343   2
  12 -12   1 9297.77 761.603   1
  12 -12   0 28681.1 1188.29   2
   0 -12   0 27904.6 1168.40   2
  12 -12   0 28967.4 1292.48   1
  12   0   0 29257.1 1159.30   1
   0 -12   1 8892.63 675.929   2
  12   0   1 7966.87 660.551   1
   0 -12   2 241.064 134.198   2
  12   0   2 447.957 204.861   1
   0 -12   3 2656.72 400.619   2
  12   0   3 2769.62 447.892   1
   0 -12   4 16601.4 995.763   2
  12   0   4 16361.6 1088.49   1
  12   0   5 2172.06 448.958   1
  12   1   5 1072.41 356.920   1
   1 -13   4 1559.11 326.562   2
  12   1   4 1338.78 373.095   1
   1 -13   3 3917.25 498.652   2
  12   1   3 3906.74 543.040   1
  13 -12  -3 4500.16 487.251   1
  13 -12  -2-0.33847 143.911   1
  12   1   2 130.657 178.328   1
   1 -13   2 56.4258 137.319   2
  12   1   1 4519.49 508.332   1
   1 -13   1 4273.83 504.559   2
  13 -12  -1 4326.13 503.812   1
  13 -12   0 445.436 201.784   1
  13 -12   0 154.534 99.9671   2
   1 -13   0 358.211 190.738   2
  13 -12   1 181.965 129.304   2
  13 -12   1 184.766 190.007   1
  13 -12   2 555.828 218.461   1
  13 -12   2 767.772 228.398   2
  13 -12   3 1441.95 300.608   2
  13 -12   3 830.514 288.441   1
  13 -12   4 865.413 238.718   2
  13 -12   4 1059.58 315.435   1
  13 -12   5 534.675 285.537   1
   2 -13   5 20039.1 1163.67   2
  11   2   5 18165.7 1206.33   1
   2 -13   4 91.0574 147.079   2
  11   2   4 343.254 246.851   1
   2 -13   3 180.745 135.967   2
  11   2   3 260.847 162.359   1
  13 -11  -3 339.634 146.653   1
  13 -11  -2 1222.49 259.533   1
  11   2   2 1322.52 311.756   1
   2 -13   2 1499.04 306.963   2
  13 -11  -1 7065.59 614.799   1
   2 -13   1 7759.29 668.488   2
  13 -11   0 541.416 202.779   1
  13 -11   0 520.997 177.003   2
  13 -11   1 767.475 227.350   1
  13 -11   1 1240.47 263.336   2
  13 -11   2 12457.3 913.019   1
  13 -11   2 13565.1 797.237   2
  13 -11   3 25816.0 1346.54   1
  13 -11   3 25434.9 1143.81   2
  13 -11   4 3802.37 557.504   1
  13 -11   5 235.531 229.797   1
  10   3   6 797.974 356.180   1
   3 -13   5 205.011 227.457   2
  10   3   5 262.372 193.238   1
   3 -13   4 3179.27 472.109   2
  10   3   4 2715.99 459.904   1
  10   3   3 3682.99 507.707   1
   3 -13   3 4690.10 532.394   2
  13 -10  -2 1615.84 281.633   1
   3 -13   2 1406.64 295.665   2
  13 -10  -1 7653.42 616.119   1
   3 -13   1 7244.34 638.753   2
  13 -10   0 3335.36 370.973   2
  13 -10   0 2515.39 372.087   1
  13 -10   1 562.155 172.692   2
  13 -10   1 132.580 136.098   1
  13 -10   2 156.463 95.7206   2
  13 -10   2 379.390 186.816   1
  13 -10   3 5003.91 485.847   2
  13 -10   3 4569.95 566.858   1
  13 -10   4 659.049 259.634   1
  13 -10   5 733.193 301.401   1
  13 -10   6 189.221 220.284   1
   9   4   6 1336.14 374.793   1
   4 -13   5 713.404 243.858   2
   9   4   5 850.684 309.963   1
   4 -13   4 185.709 169.418   2
   4 -13   3 1613.42 323.203   2
   4 -13   2 124.168 120.269   2
  13  -9  -2 100.608 110.863   1
  13  -9  -1 1574.93 279.375   1
   4 -13   1 976.699 267.484   2
  13  -9   0 3735.96 363.824   2
  13  -9   0 3881.40 449.399   1
  13  -9   1 1570.04 317.628   1
  13  -9   1 1759.71 256.326   2
  13  -9   2 2775.31 423.724   1
  13  -9   2 2210.53 291.683   2
  13  -9   3 4063.84 540.766   1
  13  -9   4 61.0701 173.588   1
  13  -9   5 233.727 231.861   1
  13  -9   6 265.222 183.989   1
   5 -13   6 9044.37 819.470   1
   5 -13   5 16665.0 1069.43   2
   5 -13   4 894.888 269.376   2
   5 -13   3 1059.30 281.939   2
  13  -8  -2 4563.17 423.192   1
   5 -13   2 4573.04 523.424   2
  13  -8  -1 11567.4 714.557   1
   5 -13   1 12663.6 837.927   2
  13  -8  -1 12459.7 617.615   2
  13  -8   0 3627.87 430.389   1
  13  -8   0 4285.74 364.008   2
  13  -8   1 566.364 205.924   1
  13  -8   1 844.975 177.981   2
  13  -8   2 11474.0 832.406   1
  13  -8   2 11489.6 614.592   2
  13  -8   3 26102.5 1319.27   1
  13  -8   4 2918.41 481.752   1
  13  -8   5 512.618 260.550   1
  13  -8   6 2794.68 512.291   1
   6 -13   6 172.754 173.128   1
   6 -13   5 514.559 236.754   2
   6 -13   4 1707.12 350.819   2
   6 -13   3-51.8010 129.289   2
   6 -13   2 2881.45 415.262   2
  13  -7  -2 2161.32 289.650   1
   6 -13   1 173.119 188.238   2
  13  -7  -1-429.267 161.074   1
  13  -7   0 2657.02 374.775   1
  13  -7   1 200.640 145.228   1
  13  -7   2 244.322 133.228   1
  13  -7   3 393.388 188.028   1
  13  -7   4 346.399 232.682   1
  13  -7   5-129.560 182.159   1
  13  -7   6 655.230 261.354   1
   7 -13   6 315.363 232.992   1
   7 -13   5 411.419 204.852   2
   7 -13   5 175.798 192.895   1
   7 -13   4 1679.05 354.737   2
   7 -13   3 263.435 182.405   2
  13  -6  -2 2420.03 289.818   1
   7 -13   2 2185.22 355.054   2
  13  -6  -1 140.588 111.587   1
  -6  -7  -1 3.36266 89.8283   2
   7 -13   1-136.957 154.134   2
  13  -6   0 2726.48 367.555   1
  -6  -7   0 2395.65 245.099   2
  13  -6   1-68.2178 127.083   1
  13  -6   2 16.2318 116.060   1
  13  -6   3 481.113 195.054   1
  13  -6   4 1545.33 377.193   1
  13  -6   5 103.779 161.750   1
  13  -6   6 1075.24 319.466   1
   8 -13   6 10169.0 895.822   1
   8 -13   5 17278.9 1092.56   2
   8 -13   5 16840.3 1114.67   1
   8 -13   4 411.532 159.153   2
   8 -13   3 561.925 211.065   2
   8 -13   2 4094.39 489.908   2
  13  -5  -1 12622.3 704.439   1
   8 -13   1 13057.3 849.143   2
  13  -5   0 2927.05 372.979   1
  -5  -8   0 3252.94 317.471   2
  13  -5   1 702.163 218.560   1
  -5  -8   1 622.577 150.654   2
  13  -5   2 11178.3 812.950   1
  -5  -8   2 12210.5 634.820   2
  13  -5   3 21756.2 1179.95   1
  13  -5   4 3559.83 518.662   1
  13  -5   5 1208.92 340.785   1
  13  -5   6 1996.38 448.424   1
   9 -13   6 1742.42 418.261   1
   9 -13   5 1617.18 377.062   1
   9 -13   5 793.528 259.934   2
   9 -13   4 88.7833 147.620   2
   9 -13   4 483.919 202.283   1
   9 -13   3 841.081 256.278   2
   9 -13   2 41.7781 124.397   2
  13  -4  -1 1241.81 231.238   1
   9 -13   1 945.153 269.133   2
  13  -4   0 3682.51 417.902   1
  -4  -9   0 3596.97 359.452   2
  13  -4   1 1650.45 293.276   1
  -4  -9   1 1953.72 276.641   2
  13  -4   2 1832.19 338.808   1
  -4  -9   2 2016.34 289.388   2
  13  -4   3 4769.80 561.377   1
  13  -4   4 319.253 231.636   1
  13  -4   5-32.0571 176.961   1
  13  -4   6-194.949 243.770   1
  10 -13   6-369.746 221.438   1
  10 -13   5 551.947 272.453   2
  10 -13   5 865.023 326.422   1
  10 -13   4 2860.74 442.911   2
  10 -13   4 2993.41 490.687   1
  10 -13   3 3853.93 491.293   2
  10 -13   3 3130.34 477.484   1
  10 -13   2 1373.92 304.942   2
  10 -13   1 7172.76 635.057   2
  13  -3  -1 8073.18 563.740   1
  -3 -10   0 3102.22 361.212   2
  13  -3   0 2856.52 373.929   1
  -3 -10   1 638.902 190.157   2
  13  -3   1 681.187 219.208   1
  13  -3   2 166.447 149.687   1
  -3 -10   2 402.859 170.262   2
  13  -3   3 5732.33 627.468   1
  -3 -10   3 4744.66 470.557   2
  13  -3   4 587.570 273.812   1
  13  -3   5 469.315 240.113   1
  13  -3   6-472.468 264.673   1
  11 -13   5 17950.4 1105.61   2
  11 -13   5 17191.3 1191.54   1
  11 -13   4 524.427 218.767   2
  11 -13   4 368.009 204.508   1
  11 -13   3 96.4347 147.680   2
  11 -13   3 453.866 222.464   1
  11 -13   2 1803.59 335.513   2
  11 -13   2 1683.10 373.442   1
  11 -13   1 7097.54 638.919   2
  -2 -11   0 368.189 172.061   2
  11 -13   0 343.833 149.324   2
  13  -2   0 824.983 212.530   1
  -2 -11   1 1300.12 256.035   2
  13  -2   1 1371.09 278.039   1
  -2 -11   2 13206.6 790.672   2
  13  -2   2 12599.4 872.855   1
  -2 -11   3 22168.0 1055.70   2
  13  -2   3 25461.2 1306.60   1
  13  -2   4 3872.26 559.921   1
  13  -2   5 63.1882 197.098   1
  12 -13   5 1447.00 379.775   1
  12 -13   4 1425.11 358.308   1
  12 -13   4 2153.43 386.395   2
  12 -13   3 3538.07 469.592   2
  12 -13   3 3547.65 530.464   1
  12 -13   2-119.300 184.911   1
  12 -13   2-9.54959 148.530   2
  12 -13   1 5524.01 592.541   2
  12 -13   1 2931.05 458.307   1
  13  -1   0 405.286 175.413   1
  -1 -12   0 193.810 129.578   2
  12 -13   0 251.787 153.823   2
  -1 -12   1 212.864 172.670   2
  13  -1   1-13.7454 118.414   1
  -1 -12   2 713.848 240.151   2
  13  -1   2 610.616 224.948   1
  -1 -12   3 1538.38 309.977   2
  13  -1   3 1154.66 290.784   1
  -1 -12   4 798.538 232.294   2
  13  -1   4 837.768 314.268   1
  13  -1   5 1111.91 354.829   1
  13 -13   4 1061.38 291.634   2
  13 -13   4 1432.21 365.219   1
  13 -13   3 64.4378 139.480   1
  13 -13   3 381.989 192.697   2
  13 -13   2 433.370 195.861   2
  13 -13   2 6.89897 172.944   1
  13 -13   1 2937.36 465.669   1
  13 -13   1 3068.80 424.198   2
  13 -13   0 9507.28 722.574   2
   0 -13   0 11356.8 796.933   2
  13 -13   0 10185.1 809.713   1
  13   0   0 11030.6 747.285   1
  13   0   1 2683.99 410.687   1
   0 -13   1 4029.25 482.384   2
  13 -13  -1 4287.61 521.022   1
   0 -13   2 495.586 206.840   2
  13   0   2 112.259 141.364   1
   0 -13   3 474.137 210.195   2
  13   0   3 759.963 280.887   1
   0 -13   4 1116.93 278.349   2
  13   0   4 1710.05 394.576   1
   1 -14   3 15205.5 1002.98   2
  13   1   3 15607.1 1081.16   1
   1 -14   2 7132.31 676.382   2
  14 -13  -2 6825.93 636.575   1
  13   1   2 6601.46 676.026   1
  14 -13  -1-173.966 151.770   1
   1 -14   1 58.7505 142.942   2
  13   1   1-0.37739 143.972   1
  14 -13   0 627.314 200.735   2
   1 -14   0 1260.76 307.818   2
  14 -13   0 1074.14 269.546   1
  14 -13   1 18581.8 1018.01   2
  14 -13   1 18383.9 1150.33   1
  14 -13   2 15012.7 932.930   2
  14 -13   2 14266.1 1055.61   1
  14 -13   3 28.9343 126.172   2
  14 -13   3-18.7735 156.042   1
   2 -14   4 53.3685 168.977   2
  12   2   4 50.8151 175.031   1
  12   2   3 1365.24 331.782   1
   2 -14   3 1253.11 320.219   2
   2 -14   2 111.995 170.527   2
  12   2   2 178.905 169.715   1
  14 -12  -2 264.885 146.999   1
  14 -12  -1 376.369 177.985   1
   2 -14   1 353.013 194.290   2
  14 -12   0 79.0490 125.636   1
  14 -12   0 156.707 145.101   2
   2 -14   0 98.3507 120.612   2
  14 -12   1 307.914 188.576   1
  14 -12   1 311.280 158.741   2
  14 -12   2 1974.76 338.565   2
  14 -12   2 1722.14 361.006   1
  14 -12   3 1709.74 335.477   2
  14 -12   3 2296.91 444.825   1
  14 -12   4 1590.37 392.432   1
  11   3   4 249.960 206.675   1
   3 -14   4 489.967 235.259   2
   3 -14   3 84.4640 167.648   2
  14 -11  -2 1794.38 308.156   1
   3 -14   2 1759.94 333.990   2
  14 -11  -1 394.018 181.215   1
   3 -14   1 261.507 234.818   2
  14 -11  -1 780.416 216.879   2
  14 -11   0 196.508 113.085   2
   3 -14   0 153.884 190.776   2
  14 -11   0 63.1963 119.719   1
  14 -11   1-7.02496 111.931   2
  14 -11   1 21.4782 137.011   1
  14 -11   2 783.717 200.162   2
  14 -11   2 1262.41 394.576   1
  14 -11   3 1600.20 373.867   1
  14 -11   3 1547.13 297.490   2
  14 -11   4-101.225 181.013   1
   4 -14   5 49.8745 171.389   2
   4 -14   4-5.56950 147.346   2
   4 -14   3 13734.2 941.881   2
  14 -10  -2 8368.33 626.273   1
   4 -14   2 8534.17 735.860   2
   4 -14   1 5445.78 580.433   2
  14 -10  -1 5383.42 468.335   2
  14 -10  -1 4959.79 505.700   1
  14 -10   0 69.1987 106.950   1
  14 -10   0 146.993 138.525   2
  14 -10   1 20923.0 1135.14   1
  14 -10   1 19919.8 890.979   2
  14 -10   2 15370.9 1033.23   1
  14 -10   2 14278.2 783.280   2
  14 -10   3-235.892 188.612   1
  14 -10   4 213.606 175.025   1
  14 -10   5 10428.1 963.270   1
   5 -14   5 4552.20 588.614   2
   5 -14   4 1413.95 337.507   2
   5 -14   3 4000.54 507.519   2
   5 -14   2 3842.53 499.576   2
  14  -9  -1 211.411 130.145   1
   5 -14   1 202.791 176.243   2
  14  -9   0-27.3415 137.494   1
  14  -9   1 48.4128 170.389   1
  14  -9   2 331.744 227.034   1
  14  -9   3 459.095 206.864   1
  14  -9   4 380.648 222.796   1
  14  -9   5 348.555 213.696   1
   6 -14   5 686.648 269.606   2
   6 -14   4 531.957 257.994   2
   6 -14   3 1028.15 302.385   2
   6 -14   2 175.507 147.456   2
  14  -8  -1 9490.02 673.566   1
   6 -14   1 10688.1 804.156   2
  14  -8   0 275.098 152.204   1
  14  -8   1 6256.94 616.777   1
  14  -8   2 8180.77 743.682   1
  14  -8   3 2863.07 461.332   1
  14  -8   4 181.777 205.811   1
  14  -8   5-42.3595 164.583   1
   7 -14   5 15594.8 1075.86   2
   7 -14   4 2872.44 476.305   2
   7 -14   3 5850.12 619.913   2
   7 -14   2 13625.3 920.500   2
  14  -7  -1 1932.61 306.250   1
   7 -14   1 1699.03 341.412   2
  14  -7   0 3618.07 435.260   1
  14  -7   1 43459.6 1576.97   1
  14  -7   2 15865.0 999.171   1
  14  -7   3 1265.92 331.007   1
  14  -7   4 1237.59 348.958   1
  14  -7   5 6385.72 737.520   1
   8 -14   5-507.587 239.440   2
   8 -14   5-170.963 215.496   1
   8 -14   4 499.975 251.886   2
   8 -14   3 2361.01 411.958   2
   8 -14   2-263.708 177.904   2
  14  -6  -1 10503.0 674.895   1
   8 -14   1 10554.3 797.939   2
  14  -6   0 1100.55 261.023   1
  14  -6   1 6126.93 592.028   1
  14  -6   2 8695.54 739.378   1
  14  -6   3 2246.06 412.416   1
  14  -6   4 206.997 217.665   1
  14  -6   5-10.2709 216.131   1
   9 -14   5 5424.89 634.318   2
   9 -14   5 5904.08 701.398   1
   9 -14   4 1416.41 355.850   1
   9 -14   4 1118.05 303.453   2
   9 -14   3 4501.95 547.574   2
   9 -14   2 3613.17 484.287   2
   9 -14   1 49.1127 141.111   2
  14  -5   0 29.7505 132.315   1
  14  -5   1 84.6374 132.802   1
  14  -5   2 53.7846 184.051   1
  14  -5   3-13.2619 191.897   1
  14  -5   4 706.241 264.559   1
  14  -5   5 468.044 226.659   1
  10 -14   5 22.4826 180.384   1
  10 -14   5-203.051 187.434   2
  10 -14   4 665.789 271.660   1
  10 -14   4 280.127 151.525   2
  10 -14   3 12957.1 923.854   2
  10 -14   2 8414.74 735.693   2
  10 -14   1 5521.18 594.504   2
  -4 -10  -1 5461.09 464.530   2
  14  -4   0 43.3670 130.946   1
  -4 -10   0-11.7018 91.7014   2
  -4 -10   1 18538.8 857.896   2
  14  -4   1 20445.7 1072.76   1
  -4 -10   2 15003.3 797.463   2
  14  -4   2 14884.2 977.154   1
  14  -4   3-203.795 231.675   1
  14  -4   4 52.7225 186.484   1
  14  -4   5 12001.0 1014.49   1
  11 -14   4 24.3422 175.507   1
  11 -14   4 14.6456 174.367   2
  11 -14   3 62.4931 183.480   2
  11 -14   3 187.549 177.837   1
  11 -14   2 1867.97 360.680   2
  11 -14   1 791.387 258.816   2
  -3 -11   0 160.734 119.184   2
  11 -14   0-27.4739 147.319   2
  14  -3   0 124.069 132.102   1
  -3 -11   1 54.8655 104.300   2
  14  -3   1 65.1390 131.884   1
  -3 -11   2 995.606 251.458   2
  14  -3   2 797.200 262.123   1
  -3 -11   3 1440.58 287.156   2
  14  -3   3 1409.31 350.848   1
  14  -3   4-159.555 185.340   1
  12 -14   4 99.4745 180.606   2
  12 -14   4 64.5498 155.263   1
  12 -14   3 1062.23 334.302   1
  12 -14   3 1357.47 333.199   2
  12 -14   2 551.066 205.851   1
  12 -14   2 878.999 273.372   2
  12 -14   1 880.566 272.105   2
  -2 -12   0 150.576 136.240   2
  12 -14   0 10.0464 148.552   2
  -2 -12   1 341.633 167.295   2
  14  -2   1 186.494 157.609   1
  -2 -12   2 2055.41 344.122   2
  14  -2   2 2454.69 422.460   1
  -2 -12   3 1211.04 267.796   2
  14  -2   3 1077.48 307.956   1
  14  -2   4 2421.07 480.971   1
  13 -14   3 15377.4 1011.95   2
  13 -14   3 15587.8 1141.08   1
  13 -14   2 7375.48 688.382   2
  13 -14   2 7872.58 784.853   1
  13 -14   1-62.2408 137.079   2
  13 -14   1 359.867 196.396   1
  13 -14   0 1158.07 308.298   1
  -1 -13   0 1281.01 292.544   2
  13 -14   0 1115.49 277.147   2
  -1 -13   1 20264.3 1058.90   2
  14  -1   1 19399.5 1079.29   1
  -1 -13   2 15420.8 945.306   2
  14  -1   2 14440.8 982.768   1
  -1 -13   3 106.756 147.581   2
  14  -1   3-49.5387 148.739   1
  14 -14   1 28.8868 111.332   2
  14 -14   1 72.3873 182.147   1
  14 -14   0-22.5342 150.519   1
  14 -14   0-9.82489 104.425   2
   0 -14   0-23.4474 136.005   2
  14 -14  -1 85.0680 142.687   1
   0 -14   1 376.840 193.861   2
  14 -14  -1-329.725 172.032   2
  15 -13   0 1973.05 397.663   1
  15 -13   0 2599.83 384.960   2
   2 -15   0 2081.00 379.865   2
   3 -15   2 153.784 176.390   2
   3 -15   1-25.4474 157.281   2
  15 -12  -1-192.188 149.627   1
  15 -12   0 14639.5 976.354   1
   3 -15   0 15171.0 1003.24   2
  15 -12   1 760.417 271.919   1
  15 -12   2 1573.60 366.001   1
   4 -15   3 1.75486 158.871   2
   4 -15   2 2195.78 406.643   2
  15 -11  -1 16.1187 97.9224   1
   4 -15   1-123.078 190.701   2
  15 -11   0 495.965 228.236   1
   4 -15   0-132.249 167.722   2
  15 -11   1 2205.23 405.894   1
  15 -11   2 2349.68 441.691   1
  15 -11   3-158.441 217.422   1
   5 -15   3 1155.68 306.539   2
   5 -15   2 199.040 187.895   2
  15 -10  -1 87.4654 124.624   1
   5 -15   1 412.150 216.446   2
  15 -10   0 2753.46 418.201   1
   5 -15   0 2736.43 440.968   2
  15 -10   1 6610.53 668.659   1
  15 -10   2 1015.17 319.070   1
  15 -10   3 1349.99 360.911   1
   6 -15   4 5244.78 632.067   2
   6 -15   3 926.367 306.432   2
   6 -15   2 378.784 198.662   2
   6 -15   1 10831.1 848.106   2
  15  -9   0 18645.7 1049.64   1
   6 -15   0 20165.8 1144.78   2
  15  -9   1 8124.03 738.455   1
  15  -9   2 441.747 194.190   1
  15  -9   3 1273.39 338.637   1
  15  -9   4 15172.3 1138.24   1
   7 -15   4-182.889 227.827   2
   7 -15   3 464.869 228.611   2
   7 -15   2 1610.80 346.923   2
   7 -15   1-71.2508 156.911   2
  15  -8   0 5111.11 558.215   1
  15  -8   1 2129.39 391.059   1
  15  -8   2-34.0982 130.688   1
  15  -8   3-48.9363 153.831   1
  15  -8   4 59.3484 201.352   1
   8 -15   4-143.951 203.852   2
   8 -15   3 366.225 231.862   2
   8 -15   2 1350.90 331.089   2
   8 -15   1 202.273 150.487   2
  15  -7   0 4479.82 502.063   1
  15  -7   1 1860.95 359.882   1
  15  -7   2-169.801 172.440   1
  15  -7   3 178.257 149.881   1
  15  -7   4-129.180 200.833   1
   9 -15   4 6366.22 697.808   2
   9 -15   3 1869.52 382.476   2
   9 -15   2 221.982 202.291   2
   9 -15   1 12914.5 929.522   2
  15  -6   0 17603.7 971.174   1
   9 -15   0 20669.5 1154.39   2
  15  -6   1 8154.11 713.490   1
  15  -6   2 79.8319 157.847   1
  15  -6   3 2476.41 453.939   1
  15  -6   4 16840.4 1166.24   1
  10 -15   3 254.612 159.668   2
  10 -15   2 232.174 165.584   2
  10 -15   1 67.7094 181.292   2
  10 -15   0 3084.50 457.294   2
  15  -5   1 5866.18 600.702   1
  15  -5   2 901.057 278.494   1
  15  -5   3 727.340 247.687   1
  11 -15   3-121.715 186.406   2
  11 -15   3 70.5084 140.865   1
  11 -15   2 2276.80 420.362   2
  11 -15   1-255.509 229.245   2
  11 -15   0 149.150 154.063   2
  15  -4   1 1619.09 320.028   1
  15  -4   2 2398.16 424.983   1
  15  -4   3 42.6434 239.989   1
  12 -15   2 200.369 184.115   1
  12 -15   2 674.628 285.285   2
  12 -15   1-349.112 199.354   2
  -3 -12  -1 291.227 184.192   2
  -3 -12   0 13510.0 817.922   2
  12 -15   0 13888.0 952.860   2
  15  -3   1 189.938 163.145   1
  15  -3   2 1276.15 317.503   1
  -2 -13   0 2014.88 351.628   2
  13 -15   0 1867.14 377.421   2
   6 -16   1 4282.66 575.608   2
   6 -16   0 2875.98 472.577   2
  16 -10   0 2264.97 410.031   1
  16 -10   1 445.780 215.414   1
   7 -16   1 1554.63 348.559   2
   7 -16   0-68.1923 139.738   2
  16  -9   1 4279.96 556.559   1
   8 -16   2 5404.67 642.890   2
   8 -16   1 14399.4 1021.22   2
   8 -16   0 1737.89 387.254   2
  16  -8   1-6.66327 138.522   1
  16  -8   2 7565.06 759.142   1
   9 -16   1 2239.95 416.326   2
   9 -16   0-132.338 173.548   2
  16  -7   1 5549.95 608.917   1
  10 -16   1 5359.13 642.442   2
  10 -16   0 2850.79 468.117   2
  16  -6   1-81.7900 164.873   1
   0   0   0    0.00    0.00   0
;
_shelx_hkl_checksum              61346
loop_
_space_group_symop_operation_xyz
'x, y, z'
'-y, x-y, z'
'-x+y, -x, z'
'-y, -x, -z'
'x, x-y, -z'
'-x+y, y, -z'
'-x, -y, -z'
'y, -x+y, -z'
'x-y, x, -z'
'y, x, z'
'-x, -x+y, z'
'x-y, -y, z'
loop_
_atom_site_label
_atom_site_type_symbol
_atom_site_fract_x
_atom_site_fract_y
_atom_site_fract_z
_atom_site_U_iso_or_equiv
_atom_site_adp_type
_atom_site_occupancy
_atom_site_site_symmetry_order
_atom_site_calc_flag
_atom_site_refinement_flags_posn
_atom_site_refinement_flags_adp
_atom_site_refinement_flags_occupancy
Fe1 Fe 0.6667 0.3333 0.5000 0.0160(3) Uani 1 6 d S T P
O2 O 0.65775(15) 0.19838(16) 0.3884(2) 0.0192(5) Uani 1 1 d . . .
C2 C 0.5878(2) 0.1017(2) 0.4377(3) 0.0156(6) Uani 1 1 d . . .
C1 C 0.5736(3) 0.0000 0.3868(4) 0.0166(8) Uani 1 2 d S T P
Cl1 Cl 0.66304(7) 0.0000 0.25310(10) 0.0211(3) Uani 1 2 d S T P
N11 N 0.55932(15) 0.1186(3) 0.0000 0.0274(9) Uani 1 2 d S T P
C12 C 0.4675(3) 0.0606(2) 0.0847(3) 0.0254(7) Uani 1 1 d . . .
C13 C 0.4295(3) 0.1189(3) 0.1751(3) 0.0304(8) Uani 1 1 d . . .
H13 H 0.4683 0.1991 0.1756 0.036 Uiso 1 1 calc R U .
C14 C 0.3373(3) 0.0596(3) 0.2608(3) 0.0348(8) Uani 1 1 d . . .
H14 H 0.3125 0.0990 0.3217 0.042 Uiso 1 1 calc R U .
O1W O 0.6667 0.3333 0.0000 0.127(4) Uani 1 6 d S T P
O2W O 0.9473(7) 0.0527(7) 0.5000 0.388(13) Uani 1 2 d S T P
O3W O 0.9245(18) 0.0000 -0.028(10) 0.62(3) Uani 1 2 d S T P
loop_
_atom_site_aniso_label
_atom_site_aniso_U_11
_atom_site_aniso_U_22
_atom_site_aniso_U_33
_atom_site_aniso_U_23
_atom_site_aniso_U_13
_atom_site_aniso_U_12
Fe1 0.0120(4) 0.0120(4) 0.0240(6) 0.000 0.000 0.00600(18)
O2 0.0140(10) 0.0148(10) 0.0253(10) 0.0014(8) 0.0048(8) 0.0047(8)
C2 0.0129(13) 0.0177(15) 0.0169(13) -0.0001(12) -0.0029(12) 0.0081(12)
C1 0.0147(14) 0.019(2) 0.0176(19) 0.000 0.0032(14) 0.0096(10)
Cl1 0.0200(4) 0.0212(5) 0.0226(5) 0.000 0.0067(4) 0.0106(3)
N11 0.0293(15) 0.033(2) 0.0215(18) 0.000 -0.0041(15) 0.0163(10)
C12 0.0273(17) 0.0295(17) 0.0205(15) -0.0011(14) -0.0056(13) 0.0152(14)
C13 0.0366(19) 0.0343(18) 0.0259(16) -0.0039(15) -0.0069(15) 0.0220(16)
C14 0.0361(19) 0.046(2) 0.0299(17) -0.0039(16) -0.0011(15) 0.0264(16)
O1W 0.085(5) 0.085(5) 0.209(13) 0.000 0.000 0.043(2)
O2W 0.29(3) 0.29(3) 0.62(2) 0.043(15) 0.043(15) 0.18(3)
O3W 0.404(19) 0.98(10) 0.66(6) 0.000 -0.12(3) 0.49(5)
loop_
_atom_type_symbol
_atom_type_description
_atom_type_scat_dispersion_real
_atom_type_scat_dispersion_imag
_atom_type_scat_source
C C 0.0033 0.0016 'International Tables Vol C Tables 4.2.6.8 and 6.1.1.4'
H H 0.0000 0.0000 'International Tables Vol C Tables 4.2.6.8 and 6.1.1.4'
N N 0.0061 0.0033 'International Tables Vol C Tables 4.2.6.8 and 6.1.1.4'
O O 0.0106 0.0060 'International Tables Vol C Tables 4.2.6.8 and 6.1.1.4'
Cl Cl 0.1484 0.1585 'International Tables Vol C Tables 4.2.6.8 and 6.1.1.4'
Fe Fe 0.3463 0.8444 'International Tables Vol C Tables 4.2.6.8 and 6.1.1.4'
loop_
_geom_angle_atom_site_label_1
_geom_angle_atom_site_label_2
_geom_angle_atom_site_label_3
_geom_angle
_geom_angle_site_symmetry_1
_geom_angle_site_symmetry_3
O2 Fe1 O2 97.39(7) 4_666 6_656
O2 Fe1 O2 78.30(10) 4_666 2_655
O2 Fe1 O2 174.13(10) 6_656 2_655
O2 Fe1 O2 97.39(7) 4_666 5_556
O2 Fe1 O2 97.39(7) 6_656 5_556
O2 Fe1 O2 87.19(10) 2_655 5_556
O2 Fe1 O2 174.13(10) 4_666 3_665
O2 Fe1 O2 87.19(10) 6_656 3_665
O2 Fe1 O2 97.39(7) 2_655 3_665
O2 Fe1 O2 78.30(10) 5_556 3_665
O2 Fe1 O2 87.19(10) 4_666 .
O2 Fe1 O2 78.30(10) 6_656 .
O2 Fe1 O2 97.39(7) 2_655 .
O2 Fe1 O2 174.13(10) 5_556 .
O2 Fe1 O2 97.39(7) 3_665 .
C2 O2 Fe1 115.62(16) . .
O2 C2 C1 125.5(3) . .
O2 C2 C2 115.01(15) . 6_656
C1 C2 C2 119.47(17) . 6_656
C2 C1 C2 120.8(3) . 12
C2 C1 Cl1 119.60(17) . .
C2 C1 Cl1 119.60(17) 12 .
C12 N11 C12 118.6(4) . 6_655
N11 C12 C13 120.1(3) . .
N11 C12 C12 120.70(18) . 12
C13 C12 C12 119.17(19) . 12
C14 C13 C12 119.7(3) . .
C14 C13 H13 120.2 . .
C12 C13 H13 120.2 . .
C13 C14 C14 121.2(2) . 12
C13 C14 H14 119.4 . .
C14 C14 H14 119.4 12 .
O2W O2W O2W 120.004(1) 9_546 8_666
O3W O3W O3W 101(10) 8_665 9_545
O3W O3W O3W 39(5) 8_665 3_765
O3W O3W O3W 90.002(7) 9_545 3_765
O3W O3W O3W 90.002(3) 8_665 2_645
O3W O3W O3W 39(5) 9_545 2_645
O3W O3W O3W 60.001(3) 3_765 2_645
loop_
_geom_bond_atom_site_label_1
_geom_bond_atom_site_label_2
_geom_bond_distance
_geom_bond_site_symmetry_2
Fe1 O2 2.0634(19) 4_666
Fe1 O2 2.0634(19) 6_656
Fe1 O2 2.0634(19) 2_655
Fe1 O2 2.0634(19) 5_556
Fe1 O2 2.0634(19) 3_665
Fe1 O2 2.0634(19) .
O2 C2 1.268(3) .
C2 C1 1.387(3) .
C2 C2 1.529(5) 6_656
C1 C2 1.387(3) 12
C1 Cl1 1.736(4) .
N11 C12 1.349(3) .
N11 C12 1.349(3) 6_655
C12 C13 1.420(4) .
C12 C12 1.436(6) 12
C13 C14 1.360(5) .
C13 H13 0.9500 .
C14 C14 1.414(7) 12
C14 H14 0.9500 .
O2W O2W 1.251(16) 9_546
O2W O2W 1.251(16) 8_666
O3W O3W 1.16(8) 8_665
O3W O3W 1.16(8) 9_545
O3W O3W 1.79(4) 3_765
O3W O3W 1.79(4) 2_645
loop_
_geom_torsion_atom_site_label_1
_geom_torsion_atom_site_label_2
_geom_torsion_atom_site_label_3
_geom_torsion_atom_site_label_4
_geom_torsion
_geom_torsion_site_symmetry_1
_geom_torsion_site_symmetry_4
Fe1 O2 C2 C1 -175.1(3) . .
Fe1 O2 C2 C2 5.8(3) . 6_656
O2 C2 C1 C2 -172.8(2) . 12
C2 C2 C1 C2 6.4(6) 6_656 12
O2 C2 C1 Cl1 4.8(5) . .
C2 C2 C1 Cl1 -176.0(3) 6_656 .
C12 N11 C12 C13 -179.8(3) 6_655 .
C12 N11 C12 C12 0.000(1) 6_655 12
N11 C12 C13 C14 -179.6(3) . .
C12 C12 C13 C14 0.6(3) 12 .
C12 C13 C14 C14 -0.6(4) . 12
