#------------------------------------------------------------------------------
#$Date: 2019-12-28 00:14:57 +0200 (Sat, 28 Dec 2019) $
#$Revision: 246254 $
#$URL: file:///home/coder/svn-repositories/cod/cif/4/51/72/4517266.cif $
#------------------------------------------------------------------------------
#
# This file is available in the Crystallography Open Database (COD),
# http://www.crystallography.net/
#
# All data on this site have been placed in the public domain by the
# contributors.
#
data_4517266
loop_
_publ_author_name
'Chen, Mao-Long'
'Feng, Yan-Ying'
'Wang, Si-Yuan'
'Cheng, Yuihui'
'Zhou, Zhao-Hui'
_publ_section_title
;
 Metal-organic frameworks with double channels for rapid and reversible
 adsorption of 1,2-ethylenediamine and gases.
;
_journal_name_full               'ACS applied materials &amp; interfaces'
_journal_paper_doi               10.1021/acsami.9b20184
_journal_year                    2019
_chemical_formula_moiety
'0.25(C88 H128 N16 Nd8 O72), C2 H6 N2, O, 4(H2 O)'
_chemical_formula_sum            'C24 H46 N6 Nd2 O23'
_chemical_formula_weight         1075.15
_space_group_crystal_system      tetragonal
_space_group_IT_number           85
_space_group_name_Hall           '-P 4a'
_space_group_name_H-M_alt        'P 4/n :2'
_atom_sites_solution_hydrogens   mixed
_audit_creation_date             2018-09-11
_audit_creation_method
;
  Olex2 1.1
  (compiled 2011.11.01 svn.r2039, GUI svn.r3906)
;
_cell_angle_alpha                90
_cell_angle_beta                 90
_cell_angle_gamma                90
_cell_formula_units_Z            4
_cell_length_a                   19.2977(4)
_cell_length_b                   19.2977(4)
_cell_length_c                   10.0366(8)
_cell_measurement_reflns_used    2980
_cell_measurement_temperature    173(2)
_cell_measurement_theta_max      27.7370
_cell_measurement_theta_min      3.0990
_cell_volume                     3737.6(3)
_computing_molecular_graphics
;
O. V. Dolomanov, L. J. Bourhis, R. J. Gildea, J. A. K. Howard and H. Puschmann,
OLEX2: a complete structure solution, refinement and analysis program.
J. Appl. Cryst. (2009). 42, 339-341.
;
_computing_publication_material
;
O. V. Dolomanov, L. J. Bourhis, R. J. Gildea, J. A. K. Howard and H. Puschmann,
OLEX2: a complete structure solution, refinement and analysis program.
J. Appl. Cryst. (2009). 42, 339-341.
;
_computing_structure_refinement
;
XL, G.M. Sheldrick, Acta Cryst.
(2008). A64, 112-122
;
_diffrn_ambient_temperature      173(2)
_diffrn_measured_fraction_theta_full 0.998
_diffrn_measured_fraction_theta_max 0.977
_diffrn_measurement_device_type  'Xcalibur, Sapphire3, Gemini ultra'
_diffrn_radiation_type           MoK\a
_diffrn_radiation_wavelength     0.71073
_diffrn_reflns_av_R_equivalents  0.0541
_diffrn_reflns_av_unetI/netI     0.0542
_diffrn_reflns_Laue_measured_fraction_full 0.998
_diffrn_reflns_Laue_measured_fraction_max 0.977
_diffrn_reflns_limit_h_max       17
_diffrn_reflns_limit_h_min       -24
_diffrn_reflns_limit_k_max       24
_diffrn_reflns_limit_k_min       -22
_diffrn_reflns_limit_l_max       12
_diffrn_reflns_limit_l_min       -12
_diffrn_reflns_number            15603
_diffrn_reflns_point_group_measured_fraction_full 0.998
_diffrn_reflns_point_group_measured_fraction_max 0.977
_diffrn_reflns_theta_full        25.242
_diffrn_reflns_theta_max         27.499
_diffrn_reflns_theta_min         2.928
_exptl_absorpt_coefficient_mu    2.843
_exptl_absorpt_correction_T_max  1.00000
_exptl_absorpt_correction_T_min  0.97086
_exptl_absorpt_correction_type   multi-scan
_exptl_absorpt_process_details
;
CrysAlisPro, Agilent Technologies,
Version 1.171.36.24 (release 03-12-2012 CrysAlis171 .NET)
(compiled Dec  3 2012,18:21:49)
Empirical absorption correction using spherical harmonics,
 implemented in SCALE3 ABSPACK scaling algorithm.
;
_exptl_crystal_colour            PINK
_exptl_crystal_density_diffrn    1.911
_exptl_crystal_description       TETRAGONAL
_exptl_crystal_F_000             2144
_exptl_crystal_size_max          0.350
_exptl_crystal_size_mid          0.200
_exptl_crystal_size_min          0.150
_refine_diff_density_max         2.110
_refine_diff_density_min         -1.070
_refine_diff_density_rms         0.151
_refine_ls_extinction_method     none
_refine_ls_goodness_of_fit_ref   1.039
_refine_ls_hydrogen_treatment    constr
_refine_ls_matrix_type           full
_refine_ls_number_parameters     267
_refine_ls_number_reflns         4198
_refine_ls_number_restraints     18
_refine_ls_restrained_S_all      1.044
_refine_ls_R_factor_all          0.0689
_refine_ls_R_factor_gt           0.0489
_refine_ls_shift/su_max          0.001
_refine_ls_shift/su_mean         0.000
_refine_ls_structure_factor_coef Fsqd
_refine_ls_weighting_details
'w=1/[\s^2^(Fo^2^)+(0.0375P)^2^+26.7616P] where P=(Fo^2^+2Fc^2^)/3'
_refine_ls_weighting_scheme      calc
_refine_ls_wR_factor_gt          0.1061
_refine_ls_wR_factor_ref         0.1169
_reflns_Friedel_coverage         0.000
_reflns_number_gt                3215
_reflns_number_total             4198
_reflns_threshold_expression     'I > 2\s(I)'
_cod_data_source_file            am9b20184_si_006.cif
_cod_data_source_block           SAD
_cod_original_sg_symbol_H-M      'P 4/n'
_cod_database_code               4517266
_shelx_estimated_absorpt_t_max   0.675
_shelx_estimated_absorpt_t_min   0.436
_shelx_hkl_checksum              70380
_shelx_hkl_file
;
   0   0  -2 1083.20   18.75
   0   0  -3 1921.21   30.88
   0   0  -4  351.56   15.33
   0   0  -5  275.61   15.51
   0   0  -6   43.40    7.24
   0   0  -7   15.75    4.70
   0   0  -8  303.89   21.31
   0   0  -9   84.18   12.04
   0   0 -10   29.95    7.32
   0   0 -11  153.64   17.93
   0   0 -12  106.92   16.28
   1   0  -2    1.24    0.89
   1   0  -2    0.97    0.61
  -1   0  -2    2.09    1.53
   0   1  -2    1.31    1.40
  -1   0   2    0.67    0.60
   1   0  -3    2.68    2.11
  -1   0  -3    1.71    2.06
   0   1  -3   -1.28    1.74
   1   0  -3    0.06    0.54
   0   1  -4  296.51   14.39
  -1   0  -4  292.75   14.30
   1   0  -4  282.03   14.29
   0   1  -4  305.58    7.95
   1   0  -5   76.03    8.06
  -1   0  -5   86.01    8.54
   0  -1  -5   67.66    8.10
   0   1  -5   85.48    4.44
   0   1  -5   82.52    8.38
   1   0  -6   48.33    7.35
  -1   0  -6   51.96    7.40
   0   1  -6   48.64    7.11
   0  -1  -6   60.24    8.35
   0   1  -7   40.74    7.57
   0  -1  -7   31.25    6.81
   1   0  -7   30.83    6.72
  -1   0  -7   41.03    7.49
   0  -1  -8    8.26    3.50
   1   0  -8    4.84    3.24
   0   1  -8    8.38    3.78
  -1   0  -8    6.84    3.43
  -1   0  -9   11.90    5.08
   1   0  -9   10.29    4.86
   0  -1  -9    2.24    1.82
   0   1  -9   10.37    5.22
   1   0 -10    5.39    3.20
  -1   0 -10    0.60    2.42
   0  -1 -10   -0.21    3.14
   0   1 -10   -1.09    2.44
   1   0 -11   -0.89    3.19
   0  -1 -11   -0.17    2.41
  -1   0 -11    3.10    3.07
   0   1 -11    4.92    3.74
  -1   0 -12   11.43    5.58
   0   1 -12    0.37    2.72
   1   0 -12    5.16    4.16
   0  -1 -12    6.03    3.80
   1   1  -2   86.60    5.61
  -1  -1   2   86.74    3.72
  -1   1  -2   89.43    5.56
  -1   1  -3  148.65    8.75
   1   1  -3  146.03    8.77
  -1   1   3  149.32    5.48
  -1  -1   3  148.16    5.12
   1   1  -3  158.67    6.20
   1  -1  -3  132.21    4.72
   1  -1  -4   47.10    2.75
  -1   1   4   48.40    3.29
   1   1  -4   39.69    5.58
  -1  -1   4   51.01    3.21
  -1   1  -4   51.56    6.08
  -1  -1  -4   65.33    6.54
   1   1  -4   61.16    4.15
  -1   1  -5  137.32   10.86
   1   1  -5  145.18   11.61
  -1   1  -5  128.64    4.48
   1   1  -5  148.67    6.81
   1  -1  -5  142.76   11.10
  -1  -1  -5  138.35   10.91
   1  -1  -5  130.68    4.21
   1  -1  -6   40.09    7.13
  -1  -1  -6   46.37    6.89
  -1   1  -6   48.26    7.13
   1   1  -6   42.59    6.80
   1   1  -7   26.69    6.39
  -1  -1  -7   32.19    6.32
  -1   1  -7   28.26    6.22
   1  -1  -7   24.89    5.92
  -1  -1  -8   11.10    4.26
   1  -1  -8   12.14    4.86
   1   1  -8   15.41    5.11
  -1   1  -8   20.31    5.98
  -1   1  -9    4.08    2.94
  -1  -1  -9    3.58    3.27
   1   1  -9    4.04    2.66
   1  -1  -9    6.79    3.73
  -1   1 -10    0.75    2.52
   1  -1 -10    6.86    4.32
   1   1 -10   -2.89    3.42
  -1  -1 -10    7.19    4.20
   1   1 -11    3.24    3.00
  -1   1 -11    2.07    2.48
  -1  -1 -11    4.23    3.82
   1  -1 -11    8.18    5.74
   1   1 -12   10.58    4.66
  -1   1 -12   13.93    5.89
  -1  -1 -12    6.97    4.38
   1  -1 -12   13.97    6.69
   1   2  -1   28.65    2.54
  -1  -2   1   31.44    2.19
  -2   1  -2   49.19    4.18
   1   2  -2   37.41    3.92
   2  -1  -3  393.48    9.99
  -2   1  -3  387.52   13.70
  -1  -2   3  392.65    9.63
  -2   1   3  390.80   10.78
   1   2  -3  359.33   13.94
  -2   1  -4  119.52    8.85
   1   2  -4   98.07    8.47
  -1  -2   4  106.74    5.16
  -2   1   4  104.89    5.81
   2  -1  -4  107.34    5.25
  -2   1  -5  241.81   14.30
   2  -1  -5  245.31    7.74
   1   2  -5  247.67   14.85
  -1  -2   5  255.47    7.99
   1   2  -5  264.56    9.86
  -1  -2  -6  168.48   13.66
  -2   1  -6  177.90   13.74
  -1  -2   6  164.06    6.23
   1   2  -6  164.95    8.07
   2  -1  -6  160.11   13.60
   2  -1  -6  168.65    6.10
   1   2  -6  159.02   13.17
   2  -1  -7  130.07   13.21
   1   2  -7  109.43   11.80
  -2   1  -7  122.99   12.46
  -1  -2  -7  110.45   12.12
  -1  -2  -8  119.27   13.32
   2  -1  -8  146.00   14.72
  -2   1  -8  158.54   15.24
   1   2  -8  131.32   14.02
   2  -1  -9   34.04    7.93
   1   2  -9   44.61    8.72
  -1  -2  -9   43.97    8.97
  -2   1  -9   37.04    7.69
  -2   1 -10   10.13    5.19
  -1  -2 -10    2.00    2.48
   1   2 -10    5.11    4.61
   2  -1 -10   11.45    5.11
   2  -1 -11    0.72    3.24
  -2   1 -11    5.96    3.76
   1   2 -11    1.61    4.20
  -2   1 -12   -1.00    2.58
  -1  -2 -12   -1.40    3.44
   1   2 -12    2.06    3.01
   2  -1 -12    2.59    4.15
   2   0   1 1068.26   12.91
  -2   0  -2  235.83    8.65
   0   2  -2  235.64    9.23
   2   0   2  242.01    5.66
   2   0  -2  237.56    7.22
  -2   0   2  233.54    7.23
  -2   0   3  227.90    8.15
   2   0  -3  237.43    7.46
  -2   0  -3  225.68   10.68
   0   2  -3  214.32   10.63
   0  -2   4   72.01    3.80
   2   0  -4   71.86    4.20
  -2   0  -4   67.72    6.62
   2   0  -4   73.83    7.31
   0   2  -4   68.27    7.02
   2   0  -5    6.82    3.42
  -2   0  -5    8.03    3.00
   0   2  -5    9.77    3.21
   0  -2   5    8.18    1.35
   2   0  -5    8.30    1.50
   0  -2  -6   -1.47    1.92
   2   0  -6    0.09    1.60
   0   2  -6    0.49    0.81
   0  -2   6    0.71    0.43
  -2   0  -6    1.23    1.54
   0   2  -6    4.39    3.24
   0   2  -7   99.89   11.38
   0  -2  -7   74.80   10.19
  -2   0  -7   77.33    9.85
   2   0  -7   77.24   10.34
   2   0  -8   68.98   10.50
   0   2  -8   64.97   10.06
   0  -2  -8   44.07    8.92
  -2   0  -8   71.40   10.17
   2   0  -9   14.12    4.52
   0   2  -9   18.52    5.71
  -2   0  -9   24.28    6.43
   0  -2  -9   21.83    6.31
   2   0 -10   16.99    6.68
   0   2 -10   15.55    5.72
   0  -2 -10   23.04    7.00
  -2   0 -10   16.39    5.67
  -2   0 -11   46.08   10.03
   2   0 -11   39.26    9.46
   0   2 -11   47.44   10.55
   0  -2 -11   64.55   11.94
   0   2 -12   32.11    8.88
   2   0 -12   25.07    7.84
   0  -2 -12   41.60   10.43
  -2   0 -12   41.77   10.02
   2   1  -1  454.61   10.40
   2   1   1  438.54    8.68
  -2  -1   1  439.02   10.24
   2   1  -2   42.74    3.53
  -2  -1   2   31.95    2.75
  -2  -1  -2   31.48    2.16
   2   1   2   32.90    2.21
   2   1  -2   35.42    2.98
  -1   2  -2   33.47    3.70
   2   1  -2   31.14    3.42
  -1   2  -3  827.58   20.91
  -2  -1   3  825.50   14.59
   2   1  -3  831.21   20.78
   2   1  -3  874.45   16.81
   2   1  -3  872.48   14.84
   2   1  -4  820.62   17.24
  -1   2  -4  774.27   23.18
   2   1  -4  777.95   23.26
  -2  -1  -4  721.81   22.08
  -2  -1   4  778.60   14.72
   2   1  -5 1128.36   31.46
  -2  -1  -5 1114.88   30.51
   1  -2   5 1064.96   12.88
  -1   2  -5 1085.99   30.66
  -1   2   5 1119.16   16.66
   1  -2  -5 1070.64   14.32
  -1   2  -6  790.71   28.86
  -2  -1  -6  821.18   29.05
  -1   2  -6  783.98   14.13
   2   1  -6  773.74   28.94
  -1   2  -7  624.08   27.66
   2   1  -7  551.64   26.92
   1  -2  -7  611.63   27.94
  -2  -1  -7  613.33   27.04
   1  -2  -8  454.00   26.19
  -2  -1  -8  401.34   24.12
  -1   2  -8  417.42   24.51
   2   1  -8  437.08   25.68
   1  -2  -9  131.89   15.37
  -2  -1  -9  156.20   16.05
   2   1  -9  147.26   15.90
  -1   2  -9  160.76   16.34
   2   1 -10   63.97   11.07
  -1   2 -10   65.66   11.55
  -2  -1 -10   69.14   11.45
   1  -2 -10   68.71   11.93
  -2  -1 -11   14.90    6.24
   2   1 -11    8.68    5.17
  -1   2 -11    6.50    4.53
   1  -2 -11   14.40    6.34
  -2  -1 -12    2.16    2.46
  -1   2 -12    3.13    3.44
   2   1 -12   -3.64    4.92
   1  -2 -12   -2.43    3.14
   2   2   0   45.44    2.38
  -2   2  -1   18.72    2.28
   2   2  -1   20.26    2.18
  -2  -2   1   17.37    2.09
   2   2  -2  199.92    8.76
  -2  -2   2  209.31    8.34
  -2   2  -2  215.65    8.97
  -2  -2   2  203.79    7.63
  -2  -2  -2  208.09    6.42
  -2  -2  -3   11.21    1.47
  -2  -2   3    9.37    1.74
  -2   2  -3   12.44    2.96
   2   2  -3   12.04    2.92
   2   2  -4    0.47    2.03
   2   2  -4    1.75    1.40
  -2  -2  -4    0.16    0.29
  -2  -2   4   -0.43    0.79
  -2   2  -4    0.11    1.88
   2   2  -5   10.58    3.43
  -2   2  -5   18.79    5.70
  -2  -2   5    9.21    1.94
  -2   2   5   14.90    2.34
   2  -2  -5   14.44    2.08
   2   2  -5   10.79    2.18
   2  -2  -6    5.63    1.14
  -2   2  -6    8.11    3.26
  -2  -2  -6    8.46    3.67
  -2  -2   6    9.23    1.84
   2   2  -6    8.67    3.97
   2  -2  -7   25.57    6.47
   2   2  -7   15.79    5.00
  -2   2  -7   30.50    6.48
   2  -2  -7   20.03    1.92
  -2  -2  -7   20.55    4.88
   2  -2  -8   26.58    6.37
  -2  -2  -8   32.56    6.90
  -2   2  -8   26.95    6.68
   2   2  -8   27.12    6.26
  -2   2  -9   -1.49    2.87
   2  -2  -9    3.68    4.48
  -2  -2  -9   -1.88    3.23
   2   2  -9   -0.02    2.64
   2   2 -10   -2.87    2.57
   2  -2 -10    1.67    2.94
  -2  -2 -10   -3.41    3.88
  -2   2 -10   -2.93    1.82
   2   2 -11    5.05    3.77
  -2   2 -11    4.14    3.14
  -2  -2 -11    0.46    2.75
   2  -2 -11    0.73    2.28
   2  -2 -12   13.44    7.80
  -2   2 -12    2.24    4.33
  -2  -2 -12    8.48    3.99
   2   2 -12    3.24    4.61
  -3   2   0    0.42    0.71
   2   3   0    1.22    0.87
  -3   2   0   -0.01    1.17
   3  -2   1  242.36    7.16
  -3   2  -1  234.38    7.88
   2   3  -1  226.18    7.88
  -2  -3   1  237.11    7.49
  -3   2  -2  157.60    7.66
  -2  -3   2  158.26    7.09
   2   3  -2  158.90    8.07
  -2  -3   3  366.43   12.60
   2   3  -3  402.63   14.97
  -3   2  -3  364.88   13.70
  -2  -3   3  390.39   11.85
  -3   2  -4  261.12   13.32
  -2  -3   4  251.50    9.81
   2   3  -4  237.16   13.28
   3  -2  -4  253.43    9.96
   2   3  -5  247.36   15.07
   3  -2  -5  261.04    9.90
  -3   2   5  256.55   10.82
  -2  -3   5  251.08    9.82
  -3   2  -5  251.62   14.70
  -2  -3  -5  224.60    6.26
   2   3  -6  121.90   11.75
   3  -2  -6  136.69    6.98
  -3   2  -6  137.04   11.82
  -2  -3   6  141.72    7.39
  -3   2   6  141.19    8.13
   3  -2  -7  157.69   14.69
   3  -2  -7  170.41    7.39
   2   3  -7  190.19   15.90
  -3   2  -7  176.87   14.64
  -2  -3   7  194.75    8.47
  -2  -3  -7  197.40   15.57
  -2  -3  -8  145.17   15.03
   2   3  -8  128.37   13.94
  -3   2  -8  139.83   14.28
   3  -2  -8  154.33   15.14
   3  -2  -9    5.22    3.63
  -3   2  -9   13.79    4.79
   2   3  -9   11.83    4.99
  -2  -3  -9   15.15    5.35
   3  -2 -10   26.42    7.28
  -3   2 -10   25.85    6.68
  -2  -3 -10   25.68    7.26
   2   3 -10   25.79    7.25
  -3   2 -11    2.39    3.12
  -2  -3 -11    3.97    4.50
   2   3 -11   -7.73    4.46
   3  -2 -11    2.74    3.49
  -2  -3 -12    8.37    4.92
   3  -2 -12    4.83    4.26
   2   3 -12    0.46    3.84
  -3   2 -12    5.45    4.01
   1   3   0 2401.62   22.92
  -3   1   1 1305.46   21.14
  -3   1  -1 1317.84   15.90
  -1  -3   1 1357.81   14.00
   1   3  -1 1327.31   19.51
  -1  -3   2 1344.33   17.65
   3  -1   2 1354.58   21.32
   3  -1  -2 1308.58   20.69
  -3   1  -2 1400.52   21.25
   1   3  -2 1326.16   23.33
  -3   1   3  898.66   18.79
   3  -1  -3  945.78   17.87
   1   3  -3  892.78   22.27
  -3   1  -3  925.50   21.15
   3  -1  -4  405.55   11.92
   3  -1   4  387.37    8.80
  -3   1  -4  427.28   16.54
  -3   1   4  410.05   13.09
  -1  -3   4  412.31   11.51
   1   3  -4  374.79   16.67
   1   3  -5  150.71   11.75
   3  -1  -5  156.60    7.30
  -1  -3   5  163.67    7.31
  -3   1  -5  159.93   11.48
  -3   1   5  146.25    8.05
  -1  -3   6   -0.39    0.74
  -3   1  -6    3.11    2.69
   1   3  -6    0.51    1.79
   3  -1  -6   -0.07    2.50
   3  -1  -6    1.80    0.97
  -3   1  -7   64.09    8.94
   3  -1  -7   68.37    9.81
  -1  -3   7   72.34    4.52
  -1  -3  -7   57.28    8.86
   1   3  -7   74.91    9.92
   1   3  -8   50.84    9.31
   3  -1  -8   44.74    8.34
  -1  -3  -8   46.48    8.48
  -3   1  -8   42.79    7.84
  -1  -3  -9   82.02   12.13
   3  -1  -9   86.72   12.43
   1   3  -9   78.76   11.82
  -3   1  -9   87.04   12.15
  -3   1 -10  130.32   15.66
   3  -1 -10  139.80   16.66
   1   3 -10  117.92   15.14
  -1  -3 -10  118.20   15.54
  -1  -3 -11  113.69   16.24
   3  -1 -11  111.27   16.51
   1   3 -11  125.84   16.64
  -3   1 -11  113.60   15.71
   3  -1 -12   90.38   14.95
   1   3 -12   59.17   12.20
  -1  -3 -12   79.83   14.11
  -3   1 -12   70.49   13.24
   0   3   0    3.41    1.19
  -3   0  -1    0.50    0.50
   0   3  -1    2.86    1.46
   3   0   1    1.87    1.09
   3   0   1    2.86    0.87
   3   0  -1    1.71    1.03
  -3   0   1   -0.09    1.15
   3   0   2   24.20    2.39
   3   0  -2   21.66    2.71
  -3   0  -2   22.21    2.73
   3   0   2   24.03    2.78
  -3   0   2   22.21    2.72
   0   3  -2   20.91    3.22
   0   3  -3   10.51    2.79
  -3   0   3    9.40    2.23
   3   0   3   10.01    1.48
   3   0  -3    9.61    1.96
  -3   0  -3   11.75    2.68
   3   0   4  301.44    6.65
   0   3  -4  304.40   14.89
   3   0  -4  337.97   15.78
  -3   0   4  320.43   11.63
   3   0  -4  331.85   10.56
  -3   0  -4  314.40   14.30
   0  -3   5   27.36    2.84
   0   3  -5   25.11    4.90
   3   0  -5   23.49    2.87
   3   0  -5   21.53    4.96
  -3   0  -5   26.88    5.18
  -3   0  -6   12.68    4.28
   0  -3   6   12.76    1.84
   0   3  -6   14.15    4.41
   3   0  -6    9.27    3.41
   0   3  -7   29.32    6.46
   3   0  -7   36.49    7.16
   0  -3   7   34.15    2.62
  -3   0  -7   49.56    8.08
   3   0  -8   22.15    6.86
  -3   0  -8   18.50    5.17
   0   3  -8   15.82    5.11
   0  -3  -8   11.52    3.67
  -3   0  -9    2.56    2.87
   3   0  -9    5.45    3.65
   0  -3  -9    3.55    3.03
   0   3  -9    4.99    3.40
   0  -3 -10    3.19    4.16
   3   0 -10    3.96    2.74
   0   3 -10    6.44    3.67
  -3   0 -10    4.41    3.64
  -3   0 -11    8.06    9.17
   0   3 -11    0.13    2.16
   0  -3 -11    0.81    2.58
   3   0 -11    5.09    2.77
   0  -3 -12    5.22    4.93
   3   0 -12    4.88    3.57
  -3   0 -12    5.40    3.96
   0   3 -12    0.43    3.27
   3   1   0  476.89   11.37
  -3  -1   0  488.79   11.55
   3   1   1   64.39    3.95
   3   1  -1   66.43    3.69
   3   1  -1   73.68    4.98
  -1   3  -1   65.75    4.51
   3   1   1   63.85    4.09
  -3  -1   1   69.43    4.83
   3   1  -1   65.56    4.37
  -3  -1  -2  148.49    6.57
  -3  -1   2  133.68    7.50
   3   1  -2  152.36    6.97
  -1   3  -2  153.59    8.03
  -3  -1  -2  143.84    5.75
   3   1   2  149.87    5.83
  -3  -1   2  126.14    6.40
  -3  -1  -2  148.01    5.38
   3   1  -2  150.91    7.50
   3   1  -2  131.15    6.88
  -3  -1  -3   39.43    2.87
   3   1  -3   42.72    3.96
   3   1  -3   43.86    4.37
  -1   3  -3   41.53    4.89
   3   1  -3   41.51    5.09
   3   1   3   41.25    2.86
  -3  -1   3   43.65    3.99
  -3  -1  -3   41.07    4.59
   3   1  -4    3.35    1.74
  -3  -1   4    5.70    1.83
   3   1  -4    3.70    1.99
  -3  -1  -4    1.01    1.39
   3   1  -4    2.12    0.90
  -1   3  -4    3.94    2.11
  -1   3  -5  250.11   14.87
  -3  -1  -5  221.89   13.77
   3   1  -5  216.69   13.81
  -1   3   6    0.88    0.59
  -1   3  -6   -0.23    1.89
  -3  -1  -6    3.02    2.37
   1  -3   6    0.60    0.64
   3   1  -6   -0.63    1.70
   1  -3  -6    1.40    0.77
  -1   3  -7   13.58    4.44
   3   1  -7   11.64    4.02
  -3  -1  -7   11.45    4.22
   3   1  -8    0.48    2.36
   1  -3  -8    0.80    2.26
  -3  -1  -8    2.60    2.35
  -1   3  -8    3.81    3.05
  -3  -1  -9    8.79    4.34
   1  -3  -9   13.95    5.37
   3   1  -9   -0.74    1.91
  -1   3  -9    5.13    3.66
   3   1 -10    2.97    2.22
  -1   3 -10   -0.51    2.47
  -3  -1 -10   -0.36    2.78
   1  -3 -10    4.10    3.15
  -3  -1 -11    0.83    1.94
   3   1 -11    6.43    5.27
  -1   3 -11    0.21    3.00
   1  -3 -11   -0.40    1.99
   3   1 -12    0.96    2.75
  -3  -1 -12   10.81    5.77
   1  -3 -12    1.42    4.30
  -2   3   0    3.27    1.38
   3   2   0    3.71    1.45
   3   2  -1   21.01    2.28
   3   2   1   26.37    3.01
   3   2  -1   25.18    3.04
  -2   3  -1   20.93    2.82
  -3  -2   1   15.89    2.48
   3   2  -2    3.65    1.57
  -2   3  -2    2.23    1.62
  -3  -2   2    1.01    0.96
   3   2  -2    0.01    1.26
   3   2   2    1.97    1.07
  -3  -2  -2    3.67    1.24
   3   2  -2    4.38    1.77
  -3  -2   2    3.95    1.64
   3   2  -3   27.09    3.60
   3   2   3   27.97    2.35
  -3  -2   3   23.50    3.72
   3   2  -3   25.97    4.03
  -2   3  -3   23.10    3.83
  -3  -2  -3   26.85    2.60
  -3  -2   3   23.15    3.10
  -3  -2  -4   20.41    2.07
   3   2  -4   19.62    4.00
  -3  -2   4   26.11    3.35
  -2   3  -4   19.28    4.08
  -3  -2   5    4.01    1.46
  -2   3  -5    1.99    2.07
  -3  -2  -5    6.92    3.15
   3   2  -5    3.02    2.21
   3   2  -6    5.91    3.21
  -2   3  -6    3.76    2.97
  -3  -2   6    2.43    1.06
  -3  -2  -6    7.59    3.26
   2  -3  -6    1.19    0.95
  -2   3   6    2.72    1.29
   3   2  -7    6.89    3.60
   2  -3  -7    3.05    0.95
  -2   3  -7    3.01    2.49
  -3  -2  -7    5.31    3.42
  -2   3  -8   11.42    3.99
   3   2  -8    3.66    3.04
  -3  -2  -8   10.41    4.06
   2  -3  -8   15.17    5.31
  -3  -2  -9    6.17    3.78
   3   2  -9    9.12    4.94
   2  -3  -9    3.29    3.01
  -2   3  -9    2.36    3.19
   3   2 -10    2.80    2.53
  -2   3 -10    1.59    2.35
   2  -3 -10    2.39    2.43
  -3  -2 -10    2.18    1.88
  -2   3 -11    4.89    4.53
  -3  -2 -11    6.89    4.67
   3   2 -11   -5.54    4.01
   2  -3 -11    1.42    2.45
   2  -3 -12    7.05    4.03
   3   2 -12   -1.68    3.64
  -2   3 -12    0.59    3.15
  -3  -2 -12    7.58    5.98
  -3   3   0 1320.29   18.80
  -3   3   0 1329.30   20.13
   3   3   0 1278.85   15.20
  -3   3  -1 1170.10   14.83
  -3   3  -1 1224.75   20.17
   3   3  -1 1148.83   17.57
  -3  -3  -1 1170.07   15.88
  -3  -3   1 1173.72   19.37
   3  -3   1 1226.00   15.36
   3   3  -2  273.70   10.64
  -3   3  -2  283.66   11.03
  -3  -3   2  283.93   10.52
   3   3  -2  300.19   10.81
  -3  -3   2  269.53   10.51
  -3  -3  -2  287.79    9.60
   3   3  -3   37.77    4.89
  -3   3  -3   34.09    4.61
  -3  -3   3   32.98    4.38
  -3  -3   3   31.39    3.80
  -3  -3  -3   35.39    3.39
   3   3  -4  201.56   12.28
  -3   3  -4  232.27   12.90
  -3  -3   4  229.89   10.09
  -3  -3   4  216.60   11.75
   3   3   4  218.14    6.48
  -3  -3  -4  231.02    7.83
  -3   3  -5  196.46   13.16
   3   3  -5  190.34   13.33
  -3  -3   5  183.34    9.23
  -3  -3  -5  174.37    6.18
  -3  -3   6    3.25    1.47
  -3   3   6    3.60    1.36
  -3   3  -6    6.62    3.45
   3   3  -6    3.76    2.34
   3  -3  -6    4.09    1.51
  -3  -3  -6    5.71    3.19
  -3  -3  -7   45.10    7.65
  -3  -3   7   47.44    4.70
  -3   3  -7   40.77    7.36
  -3   3   7   38.76    4.32
   3   3  -7   32.34    6.81
  -3  -3  -8   46.22    8.36
   3   3  -8   52.56    9.20
   3  -3  -8   37.73    8.11
  -3   3  -8   52.32    9.00
   3   3  -9   67.94   10.81
   3  -3  -9   69.49   11.23
  -3   3  -9   50.56    9.28
  -3  -3  -9   56.97    9.90
  -3   3 -10   89.67   13.10
   3   3 -10   57.30   10.96
  -3  -3 -10   71.63   11.84
   3  -3 -10   64.02   12.34
   3  -3 -11   46.77   18.48
  -3   3 -11   85.25   13.71
  -3  -3 -11   43.56   10.16
   3   3 -11   51.73   10.99
  -3  -3 -12   39.02    9.93
   3   3 -12   42.40    9.97
  -3   3 -12   48.78   11.15
   3  -3 -12   43.18   10.51
  -3  -4   0   -0.69    0.62
  -4   3   0    0.69    1.11
   4  -3   0    2.78    1.70
  -4   3   0    0.33    1.21
   4  -3   0    3.53    1.43
   3   4   0    0.23    0.98
  -4   3  -1  693.59   15.53
  -4   3  -1  669.01   13.57
   3   4  -1  701.18   15.28
  -3  -4  -1  697.97   14.16
   4  -3   1  714.38   14.22
  -4   3   1  670.19   17.49
   4  -3   1  707.86   15.66
  -3  -4   2  261.27    9.91
   3   4  -2  234.57   10.38
   3   4  -2  260.35   10.02
  -4   3  -2  249.54   10.49
  -4   3  -3  394.80   14.83
  -3  -4   3  385.58   13.79
  -3  -4   3  386.00   13.50
   3   4  -3  378.11   15.11
  -3  -4   4  445.08   16.26
  -3  -4  -4  473.19   12.69
   3   4  -4  439.71   18.25
  -4   3  -4  467.62   18.19
  -3  -4   4  474.64   15.54
  -3  -4   5  190.39    9.99
  -3  -4  -5  192.10    7.63
   3   4  -5  181.35   12.99
  -3  -4   5  185.02   11.76
   3   4   5  179.26    6.05
  -4   3  -5  170.56   12.17
  -3  -4   6  302.52   12.67
  -4   3   6  310.05   13.68
   3   4  -6  295.85   18.22
  -3  -4  -6  279.76    7.98
  -4   3  -6  297.98   17.68
  -4   3   7   76.23    6.71
  -4   3  -7   79.58    9.92
   3   4  -7   82.19   10.59
  -3  -4   7   93.29    7.04
  -3  -4  -7   95.43   10.88
  -4   3  -8   42.82    8.22
   3   4  -8   54.45    9.31
   4  -3  -8   47.14    9.03
  -3  -4  -8   51.90    8.62
   3   4  -9   61.58   10.63
  -4   3  -9   54.97    9.79
   4  -3  -9   60.03   10.66
  -3  -4  -9   57.35    9.46
   4  -3 -10   24.12    7.25
  -3  -4 -10   20.17    6.56
   3   4 -10   18.28    6.93
  -4   3 -10   28.69    7.73
  -4   3 -11   19.86    7.04
  -3  -4 -11   -0.77    3.06
   3   4 -11   12.86    5.75
   4  -3 -11   12.64    5.52
  -3  -4 -12   -8.47    5.29
   3   4 -12   -0.81    2.62
  -4   3 -12    5.52    4.85
   4  -3 -12    1.77    3.24
  -4   2   0    7.99    1.77
   4  -2   0    8.02    1.55
   2   4   0    4.89    1.52
  -4   2   0    9.48    1.70
  -4   2   1   77.28    5.88
   4  -2   1   90.78    5.21
   4  -2   1   91.52    5.30
   2   4  -1   76.92    4.43
   2   4  -1   76.31    5.17
  -4   2  -1   86.45    4.90
  -4   2  -2   49.28    4.40
   2   4  -2   46.90    4.81
   4  -2   2   53.15    4.61
   2   4  -2   51.03    4.07
  -2  -4   2   44.58    3.80
   2   4  -3   26.17    4.14
  -4   2  -3   31.72    4.07
  -2  -4   3   21.17    3.12
  -2  -4   4    7.77    2.63
  -4   2  -4   10.16    3.19
  -2  -4   4    8.78    2.25
   2   4  -4    9.21    3.09
  -4   2  -5    1.26    2.57
  -4   2   5    2.13    2.02
   2   4  -5    5.59    3.33
  -2  -4   5    1.40    1.26
   4  -2   6   25.63    2.42
  -2  -4   6   24.76    3.41
  -4   2   6   31.90    4.32
  -4   2  -6   20.99    4.73
  -2  -4  -6   26.49    2.31
   2   4  -6   20.11    4.39
  -4   2  -7   47.93    7.95
   4  -2  -7   38.05    7.08
   2   4  -7   49.29    8.05
  -2  -4   7   46.01    4.61
  -2  -4  -8    4.87    3.58
   4  -2  -8    6.95    3.03
   2   4  -8    3.08    2.91
  -4   2  -8    3.66    3.31
  -4   2  -9   26.52    6.61
  -2  -4  -9   26.70    7.09
   4  -2  -9   29.24    7.37
   2   4  -9   15.42    4.98
   4  -2 -10   -0.22    2.86
  -4   2 -10   11.66    5.29
   2   4 -10   11.36    5.81
  -2  -4 -10    5.11    4.82
  -4   2 -11    2.55    3.02
  -2  -4 -11    2.91    3.05
   2   4 -12    3.66    2.30
  -2  -4 -12   15.58    6.72
   4  -2 -12    7.33    6.35
  -4   2 -12    2.15    2.78
   1   4   0    0.39    1.34
   4  -1   0    3.23    1.01
  -4   1   0    3.02    1.78
  -4   1   0    2.78    0.85
   4  -1   1   40.33    2.92
   1   4  -1   30.70    3.52
  -4   1   1   32.46    3.91
  -4   1  -1   38.72    2.84
   1   4  -1   40.06    2.65
  -1  -4   2   73.76    4.01
   4  -1  -2   76.97    5.74
  -4   1  -2   72.70    4.92
   4  -1   2   69.07    4.92
   1   4  -2   65.76    5.62
  -4   1   2   64.39    6.13
  -4   1  -3   76.34    6.05
  -4   1   3   61.94    5.54
   4  -1  -3   75.80    5.81
   1   4  -3   67.81    6.48
   4  -1   3   68.03    4.70
  -1  -4   3   60.72    4.58
  -4   1   4   38.86    4.51
   4  -1   4   35.51    3.19
  -4   1  -4   33.74    4.95
   1   4  -4   34.00    5.26
   4  -1   5    1.81    0.73
  -1  -4   5    1.87    1.46
  -4   1  -5    3.62    2.66
  -4   1   5    3.92    1.76
   1   4  -5    3.33    2.05
   1   4  -6   26.46    5.43
  -1  -4   6   34.09    3.79
   4  -1  -6   36.39    6.69
  -4   1  -6   26.67    5.49
   4  -1  -7   40.11    7.06
  -1  -4   7   53.53    4.51
   1   4  -7   61.13    9.01
  -4   1  -7   58.63    8.60
  -4   1  -8   41.69    7.72
  -1  -4  -8   56.68    9.05
   4  -1  -8   48.10    8.48
   1   4  -8   72.07   10.41
   1   4  -9   23.89    7.02
   4  -1  -9   17.33    5.61
  -1  -4  -9   23.01    6.18
  -4   1  -9   24.55    6.49
   4  -1 -10    3.30    3.57
  -4   1 -10    0.29    2.21
  -1  -4 -10    0.62    2.27
   1   4 -10   -0.93    2.14
  -4   1 -11    0.95    3.44
   4  -1 -11    1.96    3.76
   1   4 -11    0.15    2.53
  -1  -4 -11    0.11    3.57
  -4   1 -12   -4.01    3.62
   4  -1 -12    4.90    5.48
  -1  -4 -12   -0.58    2.54
   1   4 -12    1.54    3.50
  -4   0   0   71.19    4.99
   4   0   0   79.15    5.45
   0   4   0   69.68    4.89
  -4   0  -1    6.51    1.09
   4   0   1    8.66    1.28
  -4   0   1    5.46    1.97
   4   0   1   10.76    2.29
   0   4  -1    7.56    2.09
   4   0  -1    3.55    1.21
   0  -4   2   15.68    1.56
   4   0  -2   16.78    2.93
   4   0   2   19.83    2.74
   0   4  -2   20.42    3.35
  -4   0   2   18.20    2.92
  -4   0  -2   20.76    2.59
   4   0   2   17.60    2.60
  -4   0   2   23.22    3.79
   4   0   3   98.08    5.24
  -4   0   3   98.82    6.99
   0   4  -3   89.94    7.53
   4   0  -3   96.09    6.35
  -4   0  -3   97.60    6.97
  -4   0  -4  136.92    9.34
   4   0   4  152.61    6.02
   0   4  -4  133.53   10.04
  -4   0  -4  141.33    5.41
  -4   0   4  140.83    8.60
  -4   0  -5    6.43    2.81
   4   0  -5    7.85    2.93
   4   0   5    4.97    1.01
   0   4  -5    6.81    3.36
  -4   0  -6    1.55    1.92
   0   4  -6    1.38    2.24
   4   0  -6   -0.60    1.73
   0  -4   6    2.19    1.09
   4   0  -7    4.73    3.27
   0   4  -7    5.49    2.64
   0  -4   7    5.42    1.46
  -4   0  -7    8.49    3.63
   0  -4  -8   -1.39    2.22
   0   4  -8    4.08    3.17
  -4   0  -8    2.88    2.59
   4   0  -8   -0.03    2.65
   0   4  -9   11.35    4.52
  -4   0  -9   16.33    5.76
   0  -4  -9   12.57    4.45
   4   0  -9   14.98    4.76
   4   0 -10    8.61    4.99
   0   4 -10   11.65    5.67
   0  -4 -10    3.99    3.85
  -4   0 -10    5.32    3.52
  -4   0 -11   -1.72    3.79
   0   4 -11    6.74    4.85
   0  -4 -11    0.71    2.75
   4   0 -12   11.73    5.75
   0   4 -12    2.16    3.25
   0  -4 -12    4.33    4.81
  -4   0 -12   15.98    6.57
  -1   4   0    4.98    1.40
   4   1   0    4.53    1.44
  -4  -1   0    0.27    1.47
   4   1   0    1.91    1.36
   4   1  -1   60.53    3.61
  -4  -1   1   61.93    5.07
   4   1  -1   53.04    4.62
  -1   4  -1   57.17    4.94
   4   1   1   61.67    4.70
   4   1   1   57.07    4.47
   4   1  -1   62.67    4.94
  -4  -1   2  723.71   17.28
  -1   4  -2  726.11   18.53
  -4  -1   2  743.59   19.02
   4   1   2  734.44   14.98
   4   1  -2  750.14   17.37
   4   1  -2  757.59   18.59
  -4  -1  -2  743.94   14.35
  -4  -1  -2  716.81   15.13
  -4  -1  -2  705.94   14.32
   4   1  -2  749.28   16.90
   4   1   3  955.92   16.44
   4   1  -3  903.99   22.30
  -4  -1   3  894.53   23.45
  -1   4  -3  931.63   23.77
  -4  -1  -3  880.67   20.22
  -4  -1   3  904.34   19.90
  -4  -1  -3  901.81   16.33
  -4  -1  -3  909.53   14.78
   4   1  -3  939.86   19.93
   4   1   4 1742.99   20.41
  -4  -1   4 1701.18   28.05
  -1   4  -4 1700.25   35.81
  -4  -1  -4 1642.56   32.21
   4   1  -4 1648.07   34.89
  -4  -1  -5  718.19   23.87
  -1   4  -5  715.58   25.58
   4   1  -5  683.20   25.23
   4   1  -6  551.10   24.50
  -1   4  -6  572.24   25.05
  -4  -1  -6  592.95   24.21
  -1   4  -7  584.04   27.38
  -1   4   7  582.96   12.81
   1  -4   7  613.89   13.05
  -4  -1  -7  557.73   25.94
   4   1  -7  574.39   27.09
  -4  -1  -8  384.43   23.47
  -1   4  -8  425.42   25.15
   4   1  -8  385.17   23.97
  -1   4  -9  132.91   14.95
   1  -4  -9  168.72   17.01
  -4  -1  -9  143.60   15.56
   4   1  -9  156.01   16.41
  -4  -1 -10   18.96    6.47
   1  -4 -10   22.90    7.09
   4   1 -10   22.52    7.24
  -1   4 -10   15.52    5.96
   4   1 -11   -2.37    2.49
  -1   4 -11    3.69    3.36
   1  -4 -11    8.29    5.40
  -4  -1 -11    1.53    3.18
   4   1 -12   -0.49    2.69
  -1   4 -12   -4.09    3.65
   1  -4 -12    4.30    4.23
  -4  -1 -12   -3.16    2.23
   4   2   0  118.62    6.88
   4   2   0  107.61    6.58
  -2   4   0  109.21    6.44
   4   2   1  158.45    7.47
  -4  -2   1  145.02    5.77
   4   2  -1  154.44    8.30
  -4  -2   1  146.20    7.70
   4   2  -1  138.59    5.55
  -2   4  -1  141.67    7.56
   4   2   1  139.73    7.23
   4   2  -1  149.20    7.84
  -4  -2   2  382.02   13.52
  -4  -2  -2  411.22   11.78
   4   2  -2  374.34   12.06
   4   2  -2  395.95   13.13
  -4  -2   2  392.43   13.03
  -2   4  -2  427.16   14.41
   4   2   2  397.09   11.18
   4   2   2  416.66   11.90
  -2   4  -3  101.76    7.88
  -4  -2   3  102.40    6.91
  -4  -2   3   92.87    7.64
  -4  -2  -3  100.22    5.67
   4   2   3  101.62    5.25
   4   2  -3   99.40    7.59
  -4  -2  -4  105.55    5.49
  -4  -2   4  106.80    7.23
  -4  -2  -4  113.15    8.59
  -2   4  -4  102.94    8.95
  -4  -2   4   94.05    8.51
   4   2  -4  108.50    9.02
  -2   4  -5  176.77   12.81
   4   2  -5  168.71   12.32
  -4  -2   5  184.78    9.69
  -4  -2  -5  161.78   11.63
  -4  -2   6    3.19    1.80
  -2   4  -6   -0.04    2.00
   4   2  -6    1.46    2.19
  -4  -2  -6    2.30    2.37
  -2   4  -7   62.32    8.92
  -2   4   7   70.70    5.33
   2  -4   7   63.27    4.11
  -4  -2  -7   59.32    8.74
   4   2  -7   57.90    8.67
  -2   4  -8   94.25   11.92
   4   2  -8   79.61   11.38
  -4  -2  -8   77.92   10.49
   4   2  -9   68.25   11.18
  -2   4  -9   72.75   11.14
  -4  -2  -9   63.12   10.89
   2  -4  -9   97.92   13.00
  -2   4 -10   74.74   12.07
   2  -4 -10   64.58   11.98
  -4  -2 -10   93.09   13.10
   4   2 -10   86.90   12.83
   4   2 -11   74.01   12.79
  -2   4 -11   63.41   11.75
   2  -4 -11   77.81   13.50
  -4  -2 -11   79.03   12.84
   2  -4 -12   58.84   12.24
   4   2 -12   34.81    9.13
  -4  -2 -12   46.30   11.41
  -2   4 -12   45.82   10.77
   4   3   0    1.53    1.20
   4   3   0    1.08    0.91
  -3   4   0    1.51    1.52
  -4  -3   0    1.07    0.72
  -3   4   0    2.04    1.15
  -3   4  -1    1.65    0.90
   4   3  -1    1.31    0.85
  -3   4  -1    1.75    1.64
   3  -4   1    1.46    0.99
  -4  -3   1    2.22    1.55
  -4  -3  -1    0.23    0.87
  -4  -3   1    1.79    1.16
  -4  -3   2  505.46   15.43
   3  -4   2  509.28    9.50
  -4  -3   2  512.48   14.72
   4   3  -2  495.88   14.22
  -4  -3   2  465.21   14.74
  -3   4  -2  509.13   15.90
  -4  -3  -2  498.21   13.88
  -4  -3   3  144.45    9.08
  -4  -3   3  150.82    8.68
  -4  -3  -3  154.19    7.50
  -3   4  -3  168.21   10.26
   4   3   3  173.33    7.34
   4   3  -3  168.76    9.79
  -4  -3  -4  726.98   15.46
   4   3  -4  679.38   22.55
   4   3   4  725.60   13.59
  -3   4  -4  697.79   23.00
  -4  -3   4  672.45   21.64
  -4  -3   4  712.88   19.27
  -4  -3   5  319.38   13.18
  -4  -3  -5  317.33    9.57
  -3   4  -5  312.30   16.95
   4   3  -5  301.36   16.82
  -4  -3   5  304.00   15.88
  -4  -3   6  149.66    9.18
   4   3  -6  159.61   13.30
  -4  -3  -6  145.58   12.58
  -3   4  -6  158.12   13.23
  -4  -3  -7  116.52   12.18
   4   3  -7  125.77   12.92
  -3   4  -7  118.74   12.28
  -3   4   7  132.25    8.27
  -4  -3   7  148.43    9.18
  -4  -3  -8   80.06   10.95
   4   3  -8  107.42   13.08
  -3   4  -8   96.44   12.09
   4   3  -9   57.98   10.21
  -4  -3  -9   63.41   10.66
   3  -4  -9   37.24    9.15
  -3   4  -9   75.68   11.31
  -4  -3 -10    8.04    4.28
  -3   4 -10    7.38    3.63
   3  -4 -10   12.11    6.61
   4   3 -10    5.42    3.17
   4   3 -11    5.49    3.64
  -4  -3 -11   -0.60    3.40
  -3   4 -11   -1.35    2.61
   3  -4 -12    0.69    3.55
  -4  -3 -12    3.29    3.20
  -3   4 -12    0.93    2.44
   4   3 -12   -2.98    3.45
  -4   4   0  413.29   12.13
  -4  -4   0  426.45   10.12
   4   4   0  408.46    9.95
  -4   4   0  405.38   12.94
  -4  -4  -1   90.36    4.93
  -4   4  -1   92.61    6.41
   4   4  -1   80.50    5.24
  -4   4  -1   83.54    4.75
   4  -4   1   87.78    4.98
  -4  -4   1   92.42    5.57
  -4  -4   2  506.71   16.49
  -4  -4  -2  492.76   14.78
   4  -4   2  551.86   11.90
  -4  -4   2  486.96   14.95
   4   4  -2  527.80   15.36
  -4   4  -2  507.66   15.98
   4   4  -3   55.07    5.79
  -4   4  -3   58.42    6.28
  -4  -4   3   64.53    6.00
  -4  -4  -3   63.34    5.23
  -4  -4   3   55.93    5.64
   4   4  -4   17.95    3.95
  -4  -4  -4   15.97    2.64
  -4   4  -4   13.79    3.44
  -4  -4   4   16.14    3.64
  -4  -4   4   14.10    2.91
   4   4   5   58.78    3.85
  -4  -4   5   69.34    6.52
   4   4  -5   69.59    8.14
  -4   4  -5   68.50    7.98
  -4  -4  -5   65.79    4.84
  -4  -4   5   57.77    6.95
  -4   4  -6   15.49    4.24
  -4  -4   6   12.35    4.37
   4   4  -6   18.69    4.86
  -4  -4   6   17.28    3.41
  -4  -4  -6   14.21    2.12
   4   4  -7    4.41    3.73
  -4  -4   7    2.79    2.91
  -4   4  -7   -0.61    1.80
  -4  -4   7    1.82    1.46
  -4   4   7    2.52    1.61
  -4  -4  -7    0.78    2.52
  -4  -4  -8   18.51    5.68
   4   4  -8   21.05    6.21
  -4   4  -8   22.28    6.02
   4  -4  -9   28.32    7.12
   4   4  -9   30.34    7.50
  -4   4  -9   20.09    6.50
  -4  -4  -9   25.67    7.17
   4   4 -10   19.36    6.35
  -4   4 -10   17.83    5.78
   4  -4 -10   23.16    7.64
  -4  -4 -10   18.57    6.35
  -4  -4  10   28.06    7.00
  -4  -4  11   27.17    7.38
  -4   4 -11   27.75    7.32
   4   4 -11   38.88    9.94
  -4  -4 -11   21.67    7.22
   4  -4 -11   32.31    8.29
   4   4 -12    6.14    5.62
  -4  -4 -12   23.11    7.74
   4  -4 -12   13.33    6.00
  -4   4 -12   15.55    6.53
  -5   4   0    1.84    1.36
   5  -4   0    3.41    1.70
  -4  -5   0    0.68    0.73
  -5   4   0    4.21    2.19
   4   5   0    4.90    1.72
  -5   4  -1  129.42    7.69
   4   5  -1  110.17    6.70
  -4  -5   1  131.86    7.22
   5  -4   1  132.80    7.02
  -5   4  -1  121.44    6.52
  -4  -5  -1  127.08    6.63
  -5   4   1  130.84    8.58
   4   5  -2   26.14    3.93
  -4  -5   2   33.11    4.64
  -4  -5   2   32.21    4.02
   5  -4   2   30.62    3.42
  -4  -5  -2   31.58    3.65
  -5   4  -2   32.03    4.09
  -4  -5  -3   -0.69    1.34
  -4  -5   3    0.90    1.53
  -4  -5   3    1.47    1.66
  -5   4  -3   -1.77    1.62
   4   5  -3    2.89    2.28
  -4  -5   4    3.70    2.26
  -5   4  -4    4.33    1.87
  -4  -5  -4    5.68    1.90
  -4  -5   4    2.34    1.63
   4   5  -4    5.76    2.93
  -4  -5   5    9.97    3.25
  -5   4  -5    9.39    3.03
   4   5  -5    6.99    3.09
  -4  -5   5    9.65    2.80
  -4  -5  -5    9.16    2.19
   4   5   6    8.21    1.43
  -4  -5   6    6.63    2.20
  -4  -5   6    7.92    3.23
  -5   4  -6    7.94    3.30
  -4  -5  -6    9.65    1.93
   4   5  -6   10.97    3.79
  -5   4  -7   13.40    4.38
  -5   4   7   11.58    3.15
  -4  -5   7   13.18    3.29
   4   5  -7    5.36    3.11
  -4  -5   7   19.36    4.80
  -5   4  -8   11.39    4.35
  -4  -5   8    9.14    4.23
  -5   4   8   14.34    3.63
   4   5  -8   13.53    4.44
  -4  -5  -8    4.27    2.93
  -5   4  -9    9.85    4.70
  -4  -5   9    2.99    2.54
  -4  -5  -9    1.36    2.21
   5  -4  -9    2.67    3.14
   4   5  -9    7.88    4.19
   5  -4 -10    3.94    3.38
  -4  -5 -10   10.96    5.23
  -4  -5  10   13.37    5.02
   4   5 -10    6.23    5.09
  -5   4 -10    9.65    4.92
  -4  -5 -11    8.81    4.26
  -5   4 -11    0.97    2.24
   5  -4 -11   -3.12    3.09
   4   5 -11    4.52    4.21
   5  -4 -12    3.44    3.72
   4   5 -12    5.20    4.62
  -5   4 -12    4.87    3.44
  -4  -5 -12    0.03    2.08
  -5   3   0 2090.21   27.10
   5  -3   0 2231.42   27.83
   5  -3   0 2269.65   31.21
   3   5   0 2074.94   26.78
  -5   3   0 2127.84   29.87
  -3  -5   0 2170.37   27.24
  -3  -5  -1  744.54   16.39
   3   5  -1  711.54   16.96
   5  -3   1  762.72   16.76
  -5   3  -1  700.02   15.89
  -5   3   1  725.03   19.55
   3   5  -1  785.38   16.70
  -3  -5   1  774.13   17.58
   5  -3   1  781.26   17.05
   5  -3  -1  758.77   17.52
  -5   3  -1  710.45   16.08
   5  -3   2  231.91    9.29
  -3  -5   2  208.41    8.91
   3   5  -2  216.02   10.76
  -5   3  -2  220.39    9.95
   3   5  -2  223.16    9.32
   3   5  -3  284.17   13.57
  -5   3  -3  295.15   12.99
  -3  -5   3  302.98   11.71
  -3  -5   4  284.92   12.67
  -3  -5   4  298.25   13.14
   3   5  -4  292.62   15.29
  -5   3  -4  283.57   14.24
  -3  -5   5   26.14    4.46
  -3  -5  -5   33.17    3.68
   3   5  -5   28.90    5.40
  -5   3  -5   25.72    4.75
  -3  -5   5   29.87    4.31
  -3  -5  -6   14.22    2.32
  -5   3  -6   11.08    3.83
   3   5  -6   18.95    5.23
  -3  -5   6   16.31    3.21
  -5   3   6    9.35    2.85
   3   5   6   10.21    1.42
  -3  -5   6   15.78    3.88
  -3  -5  -7   12.06    1.72
  -3  -5   7   11.22    2.73
  -3  -5   7   12.45    3.42
  -5   3   7   14.38    3.42
  -5   3  -7    9.99    4.62
   3   5  -7   17.44    5.22
   5  -3  -8   73.22   10.84
   3   5  -8   61.38    9.75
  -3  -5  -8   58.17    9.63
  -5   3  -8   72.01   10.46
  -3  -5  -9  134.66   15.01
  -5   3  -9  120.46   13.94
   5  -3  -9  139.17   16.42
   3   5  -9  131.98   15.38
  -3  -5 -10   74.31   12.58
   5  -3 -10   86.91   13.44
   3   5 -10   74.93   12.25
  -5   3 -10   83.63   12.70
  -5   3 -11   64.80   11.72
  -3  -5 -11   52.65   10.57
   3   5 -11   73.35   12.96
   5  -3 -11   76.95   13.17
  -5   3 -12   65.84   12.50
   3   5 -12   55.97   11.93
  -3  -5 -12   46.99   10.59
   5  -3 -12   53.67   11.84
  -5   2   0    2.63    1.43
  -5   2   0   -1.94    1.32
   2   5   0    2.60    1.67
   5  -2   0    1.79    1.04
  -5   2   1   50.54    5.39
   2   5  -1   57.24    4.03
  -5   2  -1   58.98    4.18
   2   5  -1   54.81    4.87
   5  -2   1   55.32    4.09
   2   5   1   52.72    4.65
   5  -2   1   57.18    4.85
  -5   2  -2   22.34    3.11
   5  -2   2   31.25    3.57
  -5   2   2   31.13    4.77
  -2  -5   2   27.24    2.91
   2   5  -2   28.33    4.08
   2   5  -2   27.42    2.94
   2   5  -3  296.80   13.90
  -2  -5   3  312.93   10.75
  -5   2  -3  323.56   12.86
  -5   2   4  197.89   11.23
  -5   2  -4  212.43   11.98
   2   5  -4  211.53   13.01
  -2  -5   4  200.70   10.01
   5  -2   5  235.41    9.42
  -2  -5   5  224.28   11.95
  -2  -5   5  261.97   11.91
  -5   2   5  254.32   12.95
  -5   2  -5  249.69   14.38
   2   5  -5  240.01   15.33
  -5   2  -6  110.87   10.74
  -5   2   6  114.92    8.90
   2   5  -6  115.82   11.74
   5  -2   6  105.05    5.70
  -2  -5   6  119.86    8.11
   2   5  -7   44.31    7.79
  -5   2   7   56.33    6.29
  -2  -5  -7   39.31    2.86
  -5   2  -7   53.74    8.00
  -2  -5   7   51.25    5.20
  -5   2  -8   70.28   10.03
   2   5  -8   66.01   10.18
   5  -2  -8   72.57   10.77
  -5   2  -9   46.19    9.21
  -2  -5  -9   53.00    9.71
   2   5  -9   59.64   10.47
   5  -2  -9   52.96   10.32
   5  -2 -10    6.98    4.28
  -5   2 -10   11.50    4.84
  -2  -5 -10   10.94    5.57
   2   5 -10   20.27    6.42
   2   5 -11   -2.65    3.27
  -5   2 -11    5.49    4.16
  -2  -5 -11    2.15    2.08
   5  -2 -11    2.37    4.09
  -2  -5 -12   -3.13    3.65
  -5   2 -12    0.77    3.47
   5  -2 -12    2.42    4.07
   2   5 -12   -0.38    3.28
  -5   1   0  866.13   19.18
   5  -1   0  905.86   13.07
   1   5   0  882.28   18.52
   5  -1   1  902.22   13.93
  -5   1  -1  902.30   13.71
   1   5  -1  864.13   19.27
  -5   1   1  861.23   20.80
   1   5   1  838.01   18.65
   5  -1   1  879.20   19.87
  -5   1  -2 1517.35   22.23
  -5   1   2 1485.34   29.92
   5  -1   2 1534.49   22.70
   5  -1   2 1447.55   24.64
   1   5  -2 1504.36   28.03
  -1  -5   2 1490.77   17.07
   1   5  -2 1526.23   17.90
  -5   1  -3  924.45   20.88
  -5   1   3  929.50   23.37
   1   5  -3  904.31   24.31
  -1  -5   3  928.70   16.58
   5  -1   3  912.64   19.09
  -1  -5   4  365.30   12.54
   1   5  -4  386.21   17.61
  -5   1   4  377.85   15.29
  -5   1  -4  385.63   15.77
   5  -1   4  391.43   11.99
   1   5  -5  150.69   12.10
   5  -1   5  159.93    7.10
  -5   1  -5  159.90   11.41
  -5   1   5  152.96    9.95
  -1  -5   6   -0.16    0.88
   5  -1   6    1.39    0.80
   1   5  -6    3.35    2.08
   5  -1  -6    1.93    1.90
  -5   1  -6    0.69    0.43
  -5   1  -6    2.76    3.31
  -5   1   6    0.13    1.35
   5  -1  -7    7.22    3.35
  -1  -5   7    7.92    2.06
   1   5  -7    6.40    2.62
  -1  -5  -7    6.92    1.34
  -5   1  -7    7.49    4.65
   5  -1  -8   77.00   11.12
  -5   1  -8   70.34   10.03
   1   5  -8   69.92   10.30
   5  -1  -9  171.25   17.74
  -1  -5  -9  173.97   17.28
   1   5  -9  186.09   18.18
  -5   1  -9  183.96   17.39
   5  -1 -10   89.67   13.27
  -5   1 -10  117.54   14.76
  -1  -5 -10   78.30   12.78
   1   5 -10  103.72   14.45
   5  -1 -11  116.86   16.40
  -1  -5 -11  114.47   15.90
  -5   1 -11  124.46   16.33
   1   5 -11  109.17   15.84
   5  -1 -12  107.72   17.16
  -1  -5 -12   72.79   13.44
  -5   1 -12   79.03   13.53
   1   5 -12   68.76   13.28
  -5   0   0    1.81    1.67
   5   0   0    2.36    1.20
   0   5   0   -0.79    1.31
   5   0   1    6.23    1.78
  -5   0  -1    5.88    1.03
  -5   0   1    2.07    1.49
   0   5  -1    5.26    1.98
   0   5   1    6.24    2.09
   5   0   1    7.27    1.20
   5   0   2  233.13    9.66
  -5   0  -2  238.16    8.20
  -5   0   2  245.03   12.00
   5   0   2  239.34    8.36
   0   5  -2  234.12   11.25
  -5   0   2  217.91   10.60
  -5   0  -3  271.26    9.74
   0  -5   3  276.76    8.06
  -5   0   3  255.58   13.54
   0   5  -3  272.66   13.46
  -5   0  -3  273.19   11.17
  -5   0   3  286.58   12.82
   5   0   3  293.94   10.48
  -5   0  -4  232.77    8.34
  -5   0  -4  231.64   12.07
   5   0   4  242.16    8.99
  -5   0   4  215.97   11.53
   0   5  -4  224.81   13.48
   5   0  -5  228.60   14.50
  -5   0  -5  223.28    7.12
  -5   0   5  232.81   12.27
  -5   0  -5  222.70   13.31
   0   5  -5  214.64   14.38
   5   0   5  220.23    7.88
   5   0  -6  268.08   17.31
   0   5  -6  293.36   18.20
  -5   0  -6  303.93   17.16
  -5   0  -7  141.00   12.91
   0   5  -7  142.07   13.74
   0  -5   7  142.42    7.84
   5   0  -7  133.91   13.54
   0   5   7  122.55    5.64
   5   0  -8   73.38   10.57
   0   5  -8   81.07   11.31
  -5   0  -8   93.49   11.32
   5   0  -9   92.52   13.17
   0   5  -9   73.89   11.34
   0  -5  -9   85.15   12.24
  -5   0  -9   71.62   11.06
  -5   0 -10   38.35    8.50
   5   0 -10   37.37    8.65
   0   5 -10   17.49    6.16
   0  -5 -10   17.23    6.11
   5   0 -11   10.75    5.81
  -5   0 -11   14.24    5.87
   0   5 -11   17.42    6.93
   0  -5 -11   20.96    7.25
  -5   0 -12   -8.08    4.65
   0   5 -12    4.36    5.00
   5   0 -12    2.88    4.38
   0  -5 -12   -1.01    2.66
   5   1   0    9.24    2.25
  -1   5   0   11.42    2.49
  -5  -1   0   15.20    3.13
   5   1  -1   94.13    4.57
  -1   5   1   79.81    6.17
  -5  -1  -1   77.81    5.85
  -5  -1   1   86.55    6.71
  -1   5  -1   79.77    6.20
   5   1   1   87.95    6.17
  -5  -1  -2 1051.34   20.82
   5   1  -2 1025.67   19.94
  -5  -1  -2 1036.12   19.77
   5   1   2 1088.48   20.75
  -5  -1  -2 1086.10   16.88
  -1   5  -2 1044.68   23.83
  -5  -1   2 1063.06   24.58
  -5  -1   2 1032.07   22.84
  -5  -1   3  401.59   14.54
  -1   5  -3  410.78   16.51
  -5  -1  -3  408.91   11.64
  -5  -1  -3  422.74   13.60
   5   1  -3  406.98   15.21
  -5  -1   3  395.29   16.47
  -5  -1   3  398.87   15.27
   5   1   3  412.36   12.30
  -5  -1  -3  401.03   12.55
  -5  -1  -4    0.78    1.66
  -1   5  -4    3.89    2.13
  -5  -1   4    3.10    2.49
   5   1   4    4.59    1.46
   5   1  -4    2.13    2.28
  -5  -1   4    1.27    1.14
  -5  -1  -5    6.24    2.63
  -1   5  -5    8.17    3.48
   5   1  -5    1.05    1.70
   5   1  -6   -0.21    1.54
  -5  -1  -6   -0.73    1.96
  -1   5  -6    2.75    2.72
   1  -5   7   29.53    3.48
   5   1  -7   28.61    6.30
  -5  -1  -7   22.01    5.03
  -1   5  -7   28.60    6.34
  -1   5   7   34.41    3.61
   5   1  -8    1.90    2.20
  -1   5  -8    3.89    2.95
  -5  -1  -8    1.99    3.51
   1  -5  -9    2.92    2.23
  -5  -1  -9    3.45    2.34
   5   1  -9    6.19    4.08
  -1   5  -9   14.61    5.42
   5   1 -10    9.11    5.20
  -1   5 -10    3.84    3.51
   1  -5 -10    8.08    3.81
  -5  -1 -10    9.69    4.31
   1  -5 -11   39.39    9.32
  -1   5 -11   27.59    8.17
  -5  -1 -11   35.26    8.78
   5   1 -11   30.96    8.17
  -5  -1 -12   18.39    6.73
   5   1 -12    7.23    3.83
  -1   5 -12   18.10    6.60
   1  -5 -12   18.29    7.87
  -2   5   0    0.70    1.52
  -2   5   1   31.36    4.13
  -2   5  -1   35.11    4.19
   5   2   1   46.76    4.58
   5   2  -1   38.14    3.03
  -5  -2   1   31.26    4.03
  -5  -2  -2   36.26    3.96
   5   2   2   40.62    4.13
  -5  -2   2   37.93    4.43
   5   2  -2   31.02    3.69
  -5  -2   2   37.65    4.72
   5   2   2   37.92    4.06
  -2   5  -2   40.15    4.99
   5   2   3   28.96    3.44
   5   2  -3   28.03    4.35
  -5  -2  -3   27.00    3.38
  -2   5  -3   25.03    4.20
  -5  -2   3   23.73    3.76
  -5  -2  -3   27.84    3.83
  -5  -2   3   23.36    4.22
  -5  -2  -4   87.56    5.73
  -2   5  -4   82.81    8.28
  -5  -2   4   73.94    7.85
  -5  -2   4   84.05    7.03
   5   2  -4   84.22    8.02
  -5  -2  -4   89.28    7.39
  -2   5  -5   11.19    3.63
   5   2  -5    8.34    3.14
  -5  -2   5   10.69    2.89
  -5  -2  -5   12.73    3.08
  -5  -2   5    6.85    2.95
  -2   5  -6   27.49    5.94
  -5  -2   6   23.45    3.80
   5   2  -6   24.65    5.62
  -5  -2  -6   17.65    4.77
  -2   5   7    6.28    2.01
   5   2  -7    4.64    2.67
  -2   5  -7    3.15    3.22
  -5  -2  -7    5.17    2.66
   5   2  -8   29.26    6.93
  -2   5  -8   29.98    6.95
  -5  -2  -8   28.90    7.68
   5   2  -9    3.90    3.67
  -5  -2  -9    5.59    3.57
  -2   5  -9    3.66    2.72
  -2   5 -10    3.94    4.30
   2  -5 -10    1.97    3.34
  -5  -2 -10    3.64    3.74
   5   2 -10   -1.05    2.36
   2  -5 -11    1.35    2.35
  -2   5 -11    7.02    4.81
   5   2 -11    7.10    5.03
  -5  -2 -11    2.69    3.27
   2  -5 -12    1.82    3.76
   5   2 -12    0.56    2.37
  -5  -2  12    0.12    4.44
  -2   5 -12    0.42    2.45
  -5  -2 -12    3.02    1.94
   5   3   0  183.81    5.20
  -5  -3   0  194.51    5.32
  -3   5   0  204.97    9.90
  -3   5  -1   89.47    4.06
   5   3  -1   76.62    4.47
  -3   5   1   92.28    6.96
  -5  -3  -1   80.48    3.67
  -5  -3   1   80.44    6.48
  -5  -3   1   93.02    5.01
  -3   5  -1   83.06    6.43
  -5  -3   2   27.61    4.09
   5   3   2   25.16    3.47
  -5  -3   2   30.10    4.30
   5   3  -2   25.40    3.46
   3  -5   2   24.55    1.94
  -5  -3  -2   23.66    3.44
  -3   5  -2   28.93    4.42
  -5  -3   2   29.21    3.70
  -3   5  -3   10.36    2.91
   5   3   3    8.83    2.11
   5   3  -3    9.23    2.67
  -5  -3   3    4.01    2.38
  -5  -3  -3    7.07    2.27
  -5  -3   3   10.50    2.46
  -5  -3  -4   78.68    5.75
  -5  -3   4   81.40    8.16
   5   3  -4   78.83    7.97
  -3   5  -4   98.23    8.97
   5   3   4   79.76    5.18
  -5  -3   4   89.42    7.47
  -5  -3  -5   99.12    9.21
   5   3  -5  110.66   10.24
  -5  -3  -5   96.74    5.99
  -3   5  -5   91.03    9.51
  -5  -3   5   80.78    8.85
  -5  -3   5  106.10    8.23
  -5  -3   6   26.83    5.66
   5   3  -6   29.22    5.97
  -3   5  -6   24.62    5.59
  -5  -3   6   29.23    4.54
  -5  -3  -6   22.53    4.96
  -3   5  -7   -1.12    2.16
  -5  -3   7    7.71    2.69
  -5  -3  -7    1.31    2.14
  -5  -3   7    7.76    3.92
   5   3  -7    4.44    3.36
  -3   5   7    5.28    1.79
  -5  -3  -8    3.18    3.17
  -5  -3   8    8.74    4.18
  -3   5  -8   -1.45    3.18
   5   3  -8    3.42    2.52
  -3   5  -9    9.35    4.50
  -5  -3   9    0.63    2.62
  -5  -3  -9    3.54    3.50
   5   3  -9    7.41    3.88
   5   3 -10    0.02    3.08
  -3   5 -10    2.82    3.35
  -5  -3  10   -1.44    2.30
  -5  -3 -10    6.39    3.96
   3  -5 -10    4.33    3.48
  -5  -3  11   -3.46    3.03
  -5  -3 -11    0.99    2.98
   3  -5 -11   -1.04    3.39
  -3   5 -11    1.19    2.65
   5   3 -11   -1.96    4.04
   5   3 -12    2.21    3.79
  -3   5 -12    6.24    4.75
   3  -5 -12    3.99    5.01
  -5  -3 -12    2.96    2.88
   5   4   0    1.19    1.01
  -4   5   0    2.17    2.23
  -5  -4   0    0.71    0.72
  -4   5   0    0.25    1.31
  -5  -4   1    5.69    1.63
  -4   5  -1    6.91    2.27
  -4   5  -1    5.76    1.24
   5   4  -1    4.56    1.44
  -5  -4  -1    4.83    1.36
  -5  -4  -2  582.25   17.37
  -4   5  -2  593.44   18.57
  -5  -4   2  611.19   19.14
   5   4  -2  589.92   16.20
  -5  -4   2  576.66   17.79
   4  -5   2  601.43   11.62
  -4   5  -3 1615.56   33.23
  -5  -4   3 1590.42   31.38
  -5  -4   3 1598.85   31.60
  -5  -4  -3 1627.17   28.12
   5   4  -3 1602.15   31.06
   5   4   3 1660.96   27.02
  -5  -4   4 1034.72   25.72
  -4   5  -4 1049.00   29.20
   5   4   4 1051.59   20.11
  -5  -4  -4 1054.79   21.90
   5   4  -4  989.15   27.73
  -5  -4   4 1022.62   27.47
  -5  -4   5  718.39   24.85
   5   4  -5  662.88   25.30
  -4   5  -5  726.13   26.46
   5   4   5  697.58   14.94
  -5  -4  -5  725.52   17.44
  -5  -4   5  747.99   22.34
  -5  -4  -6  616.57   24.82
  -5  -4  -6  612.03   14.90
  -5  -4   6  577.73   24.16
  -5  -4   6  614.96   20.67
  -4   5  -6  598.98   25.90
   5   4  -6  588.20   25.85
  -5  -4  -7  329.01   19.98
  -4   5   7  363.29   15.79
  -5  -4   7  336.56   15.46
   5   4  -7  287.14   19.56
  -4   5  -7  319.65   20.49
  -5  -4   7  327.41   19.70
  -4   5  -8  202.88   17.43
   5   4  -8  192.04   17.25
  -5  -4  -8  174.25   15.56
  -5  -4   8  177.58   15.65
  -4   5  -9   82.72   11.72
  -5  -4  -9   83.77   11.62
  -5  -4   9   75.82   11.10
   5   4  -9   83.68   12.22
  -5  -4  10   49.40    9.62
  -5  -4 -10   38.36    8.52
   4  -5 -10   37.85    8.81
  -4   5 -10   31.29    7.88
   5   4 -10   27.34    7.26
  -5  -4  11    4.49    3.96
  -4   5 -11   13.02    4.97
  -5  -4 -11    2.14    4.33
   5   4 -11    2.68    3.29
   5   4 -12   11.26    4.62
  -5  -4 -12    5.70    5.20
   4  -5 -12    2.21    3.25
  -4   5 -12    3.65    3.66
  -5   5   0  137.05    8.58
  -5  -5   0  146.18    6.65
   5   5   0  140.18    6.64
  -5   5   0  147.88    8.08
  -5  -5  -1   15.47    2.41
  -5   5  -1   13.51    2.25
  -5   5   1   17.18    3.51
   5  -5   1   14.76    2.60
  -5  -5   1   16.99    2.72
  -5   5  -1   19.26    3.59
   5   5  -1   17.69    2.81
  -5  -5  -2   40.84    4.83
  -5  -5   2   34.48    5.06
  -5  -5  -2   34.47    3.80
  -5  -5   2   33.76    4.52
  -5   5  -2   30.00    4.36
   5   5  -2   33.04    4.28
   5  -5   2   39.47    3.61
  -5  -5  -3   79.57    6.66
   5  -5   3   80.00    5.19
  -5  -5   3   62.42    6.45
  -5  -5   3   78.67    7.39
  -5   5  -3   78.70    7.50
   5   5  -3   67.25    6.75
  -5  -5   4    1.33    2.01
  -5   5  -4    1.66    1.61
  -5  -5   4    3.09    1.61
  -5  -5  -4    0.26    1.06
   5   5  -4    1.95    1.76
  -5  -5   5   12.34    3.07
   5   5  -5    6.71    2.72
  -5   5  -5   10.68    3.79
   5   5   5   10.95    2.14
  -5  -5   5    7.45    2.43
  -5  -5  -5   10.46    2.51
  -5   5  -6    8.07    3.23
  -5  -5  -6   14.42    2.62
   5   5  -6    7.75    3.72
  -5  -5   6   11.22    3.14
  -5  -5   6   10.27    3.61
  -5   5   7    4.00    2.15
  -5  -5  -7    6.95    3.67
   5   5  -7    1.36    2.46
  -5  -5   7    3.09    2.49
  -5   5  -7   -1.00    2.46
  -5  -5   7    2.22    1.99
  -5  -5  -8    0.10    1.84
  -5   5  -8    4.62    3.32
   5   5  -8    1.21    2.06
  -5  -5   8   -1.03    1.61
  -5   5  -9    1.52    2.12
  -5  -5   9    1.60    1.90
   5   5  -9    3.75    2.95
  -5  -5  -9    1.55    2.09
   5  -5 -10    4.02    2.94
  -5  -5 -10    3.96    3.83
  -5  -5  10    4.99    3.34
  -5   5 -10   10.22    4.72
   5   5 -10   13.19    5.43
  -5   5 -11    6.63    3.97
   5  -5 -11    9.07    4.65
  -5  -5 -11   -0.05    3.71
   5   5 -11    2.97    2.23
  -5   5 -12    5.14    5.28
  -5  -5 -12    9.76    5.54
   5   5 -12    2.52    4.03
  -6   5   0   -0.24    1.50
   5   6   0   -0.01    1.16
  -6   5   0   -0.93    1.21
  -5  -6   0    0.29    1.06
  -6   5  -1  481.39   16.36
  -6   5   1  440.06   16.84
   6  -5   1  508.37   15.09
  -5  -6  -1  506.77   14.08
   5   6  -1  476.05   14.67
  -6   5  -1  486.26   14.52
  -5  -6   2  857.06   21.91
  -6   5  -2  856.56   22.92
  -5  -6  -2  844.80   23.26
  -5  -6   2  834.67   24.57
   6  -5   2  930.80   19.40
   5   6  -2  848.26   21.70
  -6   5  -3 1098.92   27.84
  -5  -6   3 1073.46   25.49
   5   6  -3 1064.36   27.11
  -5  -6   3 1096.23   28.77
   6  -5   3 1184.73   22.14
  -5  -6  -3 1110.69   26.29
  -5  -6  -4  780.80   21.60
  -5  -6   4  737.45   22.57
   5   6  -4  716.60   24.64
  -6   5  -4  749.54   24.82
  -5  -6   4  764.84   24.40
  -5  -6   5 1062.68   28.96
  -5  -6   5  991.70   28.35
  -5  -6  -5 1023.82   24.11
  -6   5  -5 1039.92   31.86
   5   6  -5  977.31   31.35
   5   6   6  535.32   14.30
  -5  -6  -6  596.70   17.57
  -6   5  -6  547.71   24.91
  -5  -6   6  547.47   22.84
  -5  -6   6  605.90   22.12
   5   6  -6  507.55   24.55
  -6   5  -7  339.64   21.06
  -5  -6   7  331.11   18.99
  -5  -6   7  374.16   17.59
   5   6  -7  306.32   20.56
   5   6  -8  140.30   15.04
  -5  -6  -8  197.81   17.24
  -5  -6   8  188.99   15.29
  -6   5  -8  173.48   16.28
  -5  -6  -9   77.58   12.17
  -5  -6   9   81.03   11.00
   5   6  -9   73.21   11.62
  -6   5  -9   76.46   11.48
  -6   5 -10   49.99   10.05
  -5  -6 -10   52.42   10.23
   6  -5 -10   43.59    9.69
   5   6 -10   66.88   11.82
  -6   5 -11    2.61    3.21
  -5  -6 -11    5.83    4.12
   6  -5 -11    8.53    5.12
   5   6 -11    5.76    4.29
  -6   5 -12    4.02    3.42
  -5  -6 -12    2.62    4.11
  -4  -6   0    8.21    2.04
  -6   4   0    9.16    2.38
   4   6   0    7.56    2.16
  -6   4   0    7.51    2.35
   4   6   1  223.67    9.75
  -6   4   1  223.69   11.79
  -6   4  -1  221.09    9.82
   4   6  -1  220.53   10.16
  -6   4  -1  213.49   10.04
  -4  -6  -1  222.76    9.62
  -6   4   2  684.03   22.77
  -6   4  -2  695.22   19.21
   6  -4   2  728.71   17.57
   4   6  -2  666.49   19.38
  -4  -6   3  172.12    9.48
   4   6  -3  166.71   10.83
  -6   4  -3  177.17   10.58
  -4  -6   3  166.88   10.83
  -4  -6   4   13.39    3.12
  -6   4  -4   12.14    3.36
  -4  -6   4   12.92    3.35
   4   6  -4   16.52    4.14
  -6   4  -5   21.13    4.59
   4   6  -5   14.79    4.39
  -4  -6   5   15.58    3.52
  -4  -6   5   24.44    4.54
  -4  -6  -5   16.99    3.06
   4   6  -6    3.04    2.54
  -6   4   6    4.44    2.27
  -4  -6  -6    7.15    2.13
  -4  -6   6    3.49    1.68
  -4  -6   6    1.01    1.34
  -6   4  -6    1.96    1.85
  -4  -6  -7    7.73    1.81
  -4  -6   7   11.63    3.31
  -6   4  -7   13.95    4.46
  -4  -6   7    6.81    3.15
   4   6  -7   13.84    5.43
  -6   4   7    3.59    2.62
   4   6  -8    1.39    1.90
  -6   4   8    4.01    2.35
  -4  -6   8   10.06    4.02
   6  -4  -9   18.24    6.07
  -4  -6   9   12.75    4.37
   4   6  -9   23.09    7.18
  -4  -6  -9   22.20    7.37
  -6   4  -9   17.22    5.43
  -6   4 -10   44.47    9.27
   6  -4 -10   52.64   10.60
   4   6 -10   38.25    8.86
  -4  -6 -10   32.98    8.51
   4   6 -11   39.92   10.19
   6  -4 -11   28.23    8.98
  -4  -6 -11   31.07    8.17
  -6   4 -11   31.60    8.65
   4   6 -12   28.98    8.81
  -6   4 -12   18.63    6.90
  -4  -6 -12   12.54    5.76
   3   6   0    0.65    1.84
  -3  -6   0   -0.44    0.88
  -6   3   0    0.91    1.56
  -6   3   0    3.44    1.74
   6  -3   0    0.07    0.87
   3   6  -1  351.60   13.01
   3   6   1  336.01   12.25
  -6   3  -1  342.43   11.53
  -6   3  -1  355.35   12.66
   6  -3   1  345.44   11.51
  -6   3   1  331.07   14.19
   3   6  -1  353.55   11.63
  -6   3   2  103.70    8.91
   3   6  -2  105.71    7.84
   3   6  -2  115.47    6.77
  -6   3  -2  105.30    7.02
   3   6  -3 1050.45   27.15
  -3  -6   3 1044.72   21.29
  -6   3  -3 1058.04   24.63
  -6   3  -4  292.82   14.34
  -3  -6   4  299.40   12.60
   3   6  -4  291.65   15.67
  -3  -6   5  447.90   17.15
   3   6  -5  447.68   21.26
  -3  -6   5  448.64   17.35
  -6   3  -5  442.68   19.55
  -6   3   5  457.24   19.09
   3   6  -6  263.73   17.76
  -3  -6   6  305.03   14.49
  -6   3  -6  280.84   17.19
  -6   3   6  284.57   15.21
  -3  -6   6  271.09   14.74
  -3  -6  -6  295.03   11.35
  -3  -6  -7   93.90    5.79
   3   6  -7  105.47   12.03
  -6   3  -7   95.42   10.88
  -3  -6   7   97.21    9.68
  -3  -6   7  109.90    8.82
  -6   3   7  115.36    9.77
   3   6  -8   98.56   12.56
  -6   3   8  116.63    9.83
  -3  -6   8  103.79   11.01
  -6   3  -8  115.78   12.99
  -3  -6   9   33.96    6.84
   6  -3  -9   20.75    6.50
  -6   3  -9   16.41    5.97
  -3  -6  -9   16.55    5.95
   3   6  -9   24.00    7.14
   3   6 -10   45.94    9.92
  -6   3 -10   42.37    8.99
   6  -3 -10   35.13    8.60
  -3  -6 -10   38.36    8.78
   3   6 -11   13.24    5.73
  -3  -6 -11   10.64    5.32
   6  -3 -11   17.20    7.04
   3   6 -12    1.73    3.38
  -6   3 -12    7.81    5.13
  -3  -6 -12    4.06    3.75
   6  -3 -12    7.21    5.51
   6  -2   0  506.01   12.20
  -6   2   0  488.86   15.67
  -6   2   0  495.49   12.03
   2   6   0  496.64   14.95
  -6   2   1  392.57   15.30
   2   6  -1  416.49   14.34
  -6   2  -1  390.65   10.91
   6  -2   1  424.74   11.34
   2   6   1  400.41   13.74
   6  -2  -1  416.48   12.31
   2   6  -2  305.46   13.35
  -6   2   2  288.04   14.28
   6  -2   2  319.64   11.22
  -6   2  -2  293.34   10.78
   2   6  -2  321.44    9.90
   2   6  -3  253.12   13.41
  -6   2   3  250.34   14.51
  -6   2  -3  284.03   12.02
  -2  -6   3  251.51    9.35
  -2  -6   4  116.02    7.35
  -6   2  -4  114.08    8.76
   2   6  -4   99.97    9.39
  -6   2   4   99.17    8.66
   2   6  -5   27.76    5.66
  -6   2   5   41.79    5.76
  -2  -6   5   36.18    4.83
  -6   2  -5   28.38    4.99
   6  -2   5   29.17    3.73
  -2  -6   6    2.14    1.52
  -6   2   6    2.24    2.32
   6  -2   6    1.11    1.01
  -6   2  -6   -0.20    1.70
  -2  -6   6   -0.22    1.45
   2   6  -6   -0.73    1.67
  -2  -6   7    4.95    1.94
  -6   2  -7    6.32    3.44
  -6   2   7    3.01    1.94
  -2  -6  -7    2.92    1.15
   2   6  -7   -0.22    1.80
  -2  -6   7    7.81    3.23
   6  -2  -8    0.94    2.75
  -6   2  -8   -0.40    2.32
   2   6  -8    2.29    3.37
   6  -2  -9   26.83    7.30
   2   6  -9   18.55    6.13
  -6   2  -9   29.81    7.56
  -2  -6  -9   21.52    6.31
  -6   2 -10   30.47    7.82
  -2  -6 -10   46.86    9.72
   2   6 -10   48.18   10.16
   6  -2 -10   44.51    9.53
   6  -2 -11   11.58    6.07
  -2  -6 -11   13.24    5.93
  -6   2 -11   11.06    5.41
   2   6 -11   18.96    6.64
   6  -2 -12    0.84    2.99
  -6   2 -12    4.04    3.68
   2   6 -12    1.66    3.15
  -2  -6 -12    6.17    4.09
   1   6   0   -1.22    1.19
   6  -1   0    0.12    0.64
  -6   1   0    1.52    1.53
   1   6   1   22.04    3.64
  -6   1  -1   17.76    2.14
   6  -1   1   18.70    2.21
  -6   1   1   17.53    3.49
   1   6  -1   16.73    3.18
  -6   1  -2  154.90    7.19
  -6   1   2  146.54   10.10
   1   6  -2  159.22    9.77
   1   6  -2  166.94    5.96
   6  -1   2  164.05    7.48
  -6   1   3   75.01    8.04
  -6   1  -3   80.29    6.20
   1   6  -3   64.42    7.00
  -6   1   3   72.36    7.01
  -1  -6   3   76.25    4.52
   1   6  -4   96.71    9.11
  -6   1   4   98.58    9.84
  -6   1   4  112.19    8.96
   6  -1   4  116.37    7.32
  -6   1  -4  102.58    8.23
  -1  -6   4  108.55    6.57
  -1  -6   5    2.89    1.82
  -6   1   5   -0.60    1.12
  -6   1  -5    0.17    1.65
   1   6  -5    1.01    1.78
   6  -1   5    2.15    1.14
   6  -1   6    6.37    1.56
  -6   1  -6   11.69    3.64
   1   6  -6    5.78    2.19
  -6   1   6    6.26    2.12
  -6   1  -6    8.83    1.76
   6  -1  -6    9.49    3.63
  -1  -6   7   22.04    3.78
   1   6  -7   23.40    6.75
  -6   1  -7   26.15    5.95
   6  -1  -7   16.15    4.92
   1   6  -8    6.72    4.34
  -6   1  -8    9.80    4.23
   6  -1  -8   11.43    5.31
   1   6  -9   16.51    6.09
  -6   1  -9    6.50    3.55
   6  -1  -9    6.02    4.01
  -6   1 -10    0.99    1.92
   1   6 -10    4.00    3.37
  -1  -6 -10    1.45    2.06
   6  -1 -10    1.02    2.55
   1   6 -11    7.21    5.49
  -1  -6 -11    7.71    4.58
  -6   1 -11    6.21    3.93
   6  -1 -11    4.13    3.77
  -1  -6 -12    5.24    3.61
  -6   1 -12   11.65    5.72
   6  -1 -12   -0.20    2.33
   1   6 -12    5.13    3.81
   0   6   0 1388.93   26.33
   6   0   0 1400.69   13.62
  -6   0   0 1368.14   26.48
   6   0   1  857.54   11.40
  -6   0   1  853.69   22.15
  -6   0  -1  862.13   11.29
   0   6   1  862.72   21.01
   0   6  -1  855.05   21.20
  -6   0  -1  821.92   20.85
  -6   0  -2  214.94    7.71
   0   6  -2  213.86   11.33
   6   0   2  214.30    7.94
  -6   0  -2  201.57    9.90
  -6   0   2  210.20   11.88
   0   6  -3    4.05    2.52
  -6   0   3    4.28    2.02
  -6   0   3    3.71    2.07
   0  -6   3    4.72    1.13
  -6   0  -3    5.45    1.88
  -6   0  -3    5.96    1.94
   0  -6   4   70.90    4.90
  -6   0  -4   74.85    5.60
  -6   0   4   57.68    7.55
   6   0   4   69.87    5.55
  -6   0  -4   57.57    6.06
  -6   0   4   72.57    7.32
   0   6  -4   64.33    7.67
  -6   0  -5   16.13    3.67
   6   0  -5   16.00    4.08
   6   0   5   14.77    2.48
  -6   0  -5   12.79    2.20
  -6   0   5   15.53    3.42
   0   6  -5   16.62    4.62
   6   0  -6    2.18    2.62
   0   6  -6    5.35    3.12
   6   0   6    1.16    0.61
  -6   0  -6    4.61    2.49
   0  -6   7    3.99    1.71
   0   6  -7    0.47    1.89
   6   0  -7    6.08    3.58
  -6   0  -7    4.72    3.02
   6   0  -8   12.55    4.41
  -6   0  -8   17.42    5.44
   0   6  -8   25.39    6.86
   6   0  -9    4.64    3.67
   0   6  -9    0.98    2.31
  -6   0  -9   -1.12    2.30
  -6   0 -10   15.09    5.52
   6   0 -10   16.09    5.83
   0   6 -10   14.72    5.86
   0  -6 -10    5.98    3.73
   0   6 -11   10.83    5.89
  -6   0 -11    4.92    3.89
   6   0 -11   23.94    7.76
   0  -6 -11   18.31    6.57
  -6   0 -12   26.57    7.62
   0   6 -12   39.82   10.41
   6   0 -12   30.73    9.13
   0  -6 -12   18.64    7.04
  -6   0  13   19.84    7.64
  -1   6   0    0.47    1.32
  -6  -1   0   -0.02    1.61
  -1   6  -1   40.65    4.71
   6   1  -1   38.50    2.97
  -6  -1  -1   36.16    4.55
  -6  -1   1   37.81    4.82
  -1   6   1   37.74    4.63
  -6  -1  -2   43.27    4.56
  -1   6  -2   49.30    5.66
  -6  -1   2   37.81    4.83
  -6  -1  -2   37.20    4.29
  -6  -1   2   33.88    4.98
  -6  -1  -2   43.81    3.34
   6   1  -2   40.64    4.18
  -6  -1  -3  488.31   14.42
  -6  -1   3  525.84   18.06
  -6  -1   3  498.92   18.44
  -6  -1  -3  504.10   14.73
  -1   6  -3  494.81   18.88
  -6  -1   3  494.78   19.29
   6   1  -3  484.56   16.81
  -6  -1  -4    6.60    1.74
   6   1  -4    4.76    1.93
  -6  -1   4    7.80    2.53
  -6  -1  -4    7.23    2.26
  -6  -1   4    9.65    3.08
  -6  -1   4    9.31    2.79
  -1   6  -4    7.19    3.07
   6   1   4    8.67    2.12
  -6  -1   5    9.80    4.00
   6   1   5   10.85    2.10
  -1   6  -5   15.97    4.16
  -6  -1  -5   14.99    3.91
   6   1  -5   10.40    3.81
  -6  -1  -6    8.57    3.12
  -1   6  -6    3.04    3.09
   6   1  -6    5.70    3.14
  -6  -1   6   16.01    5.25
  -1   6  -7    3.80    2.68
   6   1  -7    0.10    1.94
  -6  -1  -7   -0.78    1.90
   6   1  -8    9.20    4.21
  -1   6  -8   15.62    5.16
  -6  -1  -8   10.49    4.50
   6   1  -9   13.24    5.52
  -1   6  -9   24.24    7.62
  -6  -1  -9   17.34    5.87
  -1   6 -10   -0.17    2.49
   1  -6 -10    6.45    4.03
  -6  -1 -10    1.90    3.04
   6   1 -10   10.80    5.21
  -6  -1 -11    5.87    4.05
  -6  -1  11   -1.29    3.12
  -1   6 -11   -0.54    2.43
   6   1 -11   -4.47    3.30
   1  -6 -11   -1.16    3.94
   1  -6 -12    4.02    3.37
  -6  -1 -12   -1.67    2.75
  -1   6 -12    3.27    3.33
   6   1 -12    1.92    3.72
  -6  -1  12    8.76    5.76
  -6  -1  13    6.32    6.04
  -2   6   0  733.13   19.78
  -6  -2  -1 2607.02   37.16
  -6  -2   1 2724.74   39.48
   6   2  -1 2699.39   24.70
  -2   6  -1 2780.92   39.36
  -2   6   1 2721.76   38.98
  -6  -2  -2 1227.98   25.11
  -6  -2   2 1237.92   27.56
  -2   6  -2 1246.21   27.90
   6   2  -2 1203.50   21.97
  -6  -2   2 1210.70   27.87
  -6  -2  -2 1237.18   17.55
  -6  -2   3  971.98   24.89
  -6  -2  -3  972.19   21.91
  -6  -2   3  966.97   26.71
  -6  -2  -3  999.20   20.44
  -2   6  -3  986.92   26.91
   6   2  -3  970.37   23.61
  -6  -2   4  586.17   19.82
  -6  -2   4  537.91   21.43
  -2   6  -4  562.39   22.07
   6   2  -4  530.72   20.02
  -6  -2  -4  564.74   18.26
  -6  -2  -4  589.46   16.68
  -6  -2   5   67.84    6.93
  -6  -2   5   66.59    8.20
   6   2  -5   55.80    7.42
  -6  -2  -5   52.18    6.67
  -2   6  -5   57.93    7.72
   6   2  -6    4.49    2.41
  -6  -2   6    0.72    1.54
  -6  -2   6    3.44    2.99
  -6  -2  -6    3.44    2.29
  -2   6  -6    3.05    2.62
  -6  -2  -7   60.46    8.46
   6   2  -7   58.27    9.17
  -6  -2   7   51.94    8.37
  -2   6  -7   51.09    8.42
  -2   6  -8   25.15    6.46
   6   2  -8   32.30    7.15
  -6  -2   8   37.45    7.66
  -6  -2  -8   39.32    7.74
   6   2  -9  163.75   17.21
  -6  -2   9  163.39   16.75
  -2   6  -9  179.60   17.93
  -6  -2  -9  174.36   16.66
   2  -6 -10  143.29   17.61
  -6  -2 -10  132.64   15.38
  -6  -2  10  146.70   16.89
   6   2 -10  121.73   15.74
  -2   6 -10  152.20   17.55
  -6  -2 -11  148.74   17.39
  -6  -2  11  159.02   18.43
   2  -6 -11  115.89   16.77
   6   2 -11  132.13   17.76
  -2   6 -11  126.65   16.71
   6   2 -12  112.56   17.24
   2  -6 -12  133.15   18.27
  -6  -2  12  108.04   15.94
  -2   6 -12  107.99   16.32
  -6  -2 -12  119.02   16.82
   6   3   0    0.35    0.45
  -3   6   0    0.70    1.58
  -6  -3   0    1.87    0.55
   6   3  -1  187.44    6.86
  -3   6  -1  200.83   10.90
  -3   6  -1  192.59    6.18
  -6  -3  -1  182.13    4.95
  -6  -3   1  187.34    7.01
  -3   6   1  191.28   10.60
  -6  -3   1  186.95   10.52
   6   3  -2  117.52    7.04
  -6  -3   2  136.82    9.47
  -3   6  -2  130.16    9.28
  -6  -3  -2  129.61    8.42
  -6  -3   2  134.55    7.58
  -6  -3   3   24.79    4.58
  -6  -3  -3   28.14    4.05
   3  -6   3   24.35    1.93
  -6  -3   3   23.88    4.15
  -3   6  -3   26.60    4.71
   6   3  -3   27.19    4.16
  -6  -3   4   27.86    5.03
   6   3  -4   37.01    5.45
  -3   6  -4   26.52    4.99
  -6  -3  -4   31.34    4.06
  -6  -3  -4   25.35    4.22
  -6  -3   4   30.06    4.72
   6   3  -5   48.18    6.81
  -6  -3   5   50.64    7.20
  -6  -3   5   57.35    6.55
  -3   6  -5   48.13    7.06
  -6  -3  -5   49.90    6.45
  -6  -3  -5   57.92    5.25
  -3   6  -6  133.62   12.58
   6   3  -6  108.86   11.19
  -6  -3   6  137.16   10.17
  -6  -3  -6  137.20   11.73
  -6  -3   6  129.22   12.15
  -6  -3  -7   68.80    9.10
  -6  -3   7   61.60    9.23
   6   3  -7   56.04    8.88
  -3   6  -7   66.83    9.44
  -6  -3   7   64.61    7.06
  -3   6  -8   24.10    6.57
   6   3  -8   17.52    5.91
  -6  -3  -8   18.83    5.66
  -6  -3   8   16.97    5.12
   6   3  -9    7.96    4.65
  -6  -3   9   16.31    6.08
  -6  -3  -9   10.84    4.50
  -3   6  -9    9.86    4.49
  -6  -3 -10    3.11    3.05
   6   3 -10    1.82    3.38
   3  -6 -10    2.37    2.71
  -3   6 -10    0.36    2.24
  -6  -3  10    3.29    2.71
   6   3 -11    0.81    4.02
  -6  -3 -11   -3.36    5.18
  -6  -3  11   -3.13    2.88
   3  -6 -11   -2.68    4.45
  -3   6 -11   -6.03    4.10
  -6  -3 -12   -7.18    4.55
   6   3 -12    0.34    3.57
  -3   6 -12    0.75    2.43
  -4   6   0 1641.49   25.80
  -4   6   0 1675.66   31.21
   6   4   0 1609.80   18.02
  -6  -4   0 1657.86   18.25
  -6  -4  -1 1001.89   14.29
  -4   6   1  969.58   24.32
  -4   6  -1  988.64   16.18
  -6  -4   1 1048.37   17.87
   6   4  -1  972.05   17.16
  -4   6  -1  979.44   24.09
   6   4  -2 1104.48   22.18
  -4   6  -2 1099.75   26.82
   4  -6   2 1161.46   15.31
  -6  -4   2 1164.10   27.13
  -6  -4  -2 1089.61   25.21
   6   4  -3  473.84   17.01
  -4   6  -3  510.21   19.62
   4  -6   3  478.28   10.12
  -6  -4   3  473.13   18.27
  -6  -4   3  506.58   19.00
  -6  -4  -3  493.11   16.65
   6   4  -4  209.69   12.82
  -6  -4   4  208.81   12.36
  -4   6  -4  217.30   13.95
  -6  -4   4  231.60   13.74
  -6  -4  -4  205.63   10.54
  -4   6  -5  196.27   14.22
   6   4  -5  189.27   13.43
  -6  -4   5  184.27   11.88
  -6  -4   5  190.71   13.43
  -6  -4  -5  185.60    9.67
  -6  -4   6    0.93    3.13
  -6  -4   6    1.96    2.11
   6   4  -6    1.37    1.87
  -6  -4  -6    0.99    1.25
  -4   6  -6    0.69    2.05
  -6  -4  -6    1.91    2.68
   6   4  -7    0.15    1.88
  -6  -4  -7    4.61    2.80
  -6  -4   7   12.24    4.42
  -4   6  -7   -0.02    2.72
  -6  -4   7    5.15    2.43
  -6  -4   8   35.87    7.14
   6   4  -8   36.18    7.83
  -4   6  -8   39.15    8.07
  -6  -4  -8   51.61    8.37
  -6  -4  -9   89.43   12.07
   6   4  -9   80.14   12.20
  -6  -4   9  113.14   13.65
  -4   6  -9   95.06   13.16
  -6  -4  10   73.63   11.54
  -6  -4 -10   64.47   11.42
   6   4 -10   69.26   12.50
   4  -6 -10   76.68   12.92
  -4   6 -10   82.79   12.64
   6   4 -11   82.88   13.86
  -6  -4 -11   85.70   13.51
  -4   6 -11   67.61   12.42
  -6  -4  11   56.02   10.40
   4  -6 -11   65.29   13.01
   6   4 -12   61.86   13.13
  -4   6 -12   47.89   10.93
  -6  -4 -12   49.48   10.73
  -5   6   0   -0.49    1.27
  -5   6   0    0.33    2.07
   6   5   0    0.05    1.00
  -6  -5   0    0.55    0.82
  -5   6  -1   67.94    4.95
   6   5  -1   73.60    5.26
  -6  -5  -1   73.55    4.57
  -5   6  -1   64.74    6.63
  -5   6   1   65.52    6.53
  -6  -5   1   78.28    5.38
   5  -6   2   51.82    3.93
  -5   6  -2   48.43    5.83
  -6  -5  -2   43.82    4.03
  -6  -5   2   51.18    5.93
  -6  -5  -2   50.92    5.83
   6   5  -2   47.31    5.09
  -5   6  -3   37.61    5.45
   6   5  -3   41.78    5.27
  -6  -5  -3   43.05    5.25
  -6  -5   3   41.87    5.93
   5  -6   3   45.27    3.69
  -6  -5   3   42.43    5.70
  -6  -5   4    1.48    1.55
  -6  -5   4    0.74    1.41
  -5   6  -4    5.60    2.79
  -6  -5  -4    2.52    1.50
   6   5  -4    3.09    2.42
  -6  -5  -5   67.03    6.07
   6   5  -5   54.29    7.50
  -6  -5   5   74.37    7.78
  -6  -5   5   64.72    7.81
  -5   6  -5   53.28    7.77
  -6  -5   6   58.46    7.05
   6   5  -6   73.74    9.45
  -5   6  -6   78.51    9.76
  -6  -5   6   68.27    8.73
  -6  -5  -6   70.58    6.06
  -6  -5   7   73.62    8.09
  -6  -5   7   62.10    8.81
  -5   6  -7   54.35    9.06
   6   5  -7   69.31   10.00
  -6  -5  -7   54.94    8.26
  -6  -5   8   55.65    7.03
  -6  -5   8   46.88    8.14
  -5   6  -8   47.07    8.91
   6   5  -8   58.91    9.71
  -6  -5  -8   65.28    9.87
  -6  -5  -9    6.25    4.39
  -6  -5   9   17.98    5.83
  -5   6  -9    5.35    4.20
   6   5  -9    3.58    2.59
  -6  -5 -10   -0.38    2.69
  -5   6 -10   -0.52    2.32
   6   5 -10   -0.49    2.35
   5  -6 -11    5.84    4.40
   6   5 -11   12.85    5.03
  -5   6 -11    3.58    3.80
  -6  -5 -11   -0.24    2.55
  -6  -5 -12    1.24    2.15
  -5   6 -12   -2.48    2.89
  -6  -6   0    5.97    1.80
  -6   6   0    3.45    1.74
  -6   6   0    2.09    1.57
   6   6   0    5.15    1.80
   6   6  -1    5.22    2.08
  -6  -6  -1    2.79    1.31
  -6   6  -1    1.94    1.35
   6  -6   1    4.71    1.63
  -6   6  -1    5.90    2.87
  -6   6   1    3.92    2.24
  -6  -6   1    5.30    2.07
  -6   6  -2  122.37    9.21
  -6  -6   2  123.69    8.96
  -6  -6  -2  118.11    9.20
   6   6  -2  123.41    8.34
  -6  -6  -2  132.49    7.59
   6  -6   2  131.98    7.14
  -6  -6   3   -1.29    1.48
  -6  -6   3    1.60    2.36
  -6   6  -3   -0.35    1.95
   6  -6   3    0.31    0.94
   6   6  -3    2.33    1.96
  -6  -6  -3   -0.19    0.98
  -6   6  -4   33.55    5.71
  -6  -6   4   27.03    4.91
  -6  -6   4   27.35    4.61
  -6  -6  -4   32.87    4.75
   6   6  -4   27.77    4.95
   6  -6   4   27.00    3.45
  -6   6  -5    4.68    2.91
  -6  -6   5    2.39    2.11
   6   6  -5    4.59    2.49
  -6  -6  -5    1.99    1.64
  -6  -6   5    0.43    1.83
  -6  -6   6   29.54    5.42
  -6   6  -6   16.88    4.63
  -6  -6   6   22.81    5.17
  -6  -6  -6   23.17    3.81
   6   6  -6   11.11    4.07
  -6  -6   7    4.94    3.72
   6   6  -7    4.69    3.48
  -6   6  -7    3.56    2.31
  -6  -6   7    1.92    1.92
  -6  -6   8    8.48    2.61
  -6  -6  -8    9.42    3.74
   6   6  -8   -0.07    1.97
  -6  -6   8    2.92    2.75
  -6   6  -8    0.76    1.85
  -6   6  -9    0.73    2.44
   6   6  -9    7.77    4.18
  -6  -6   9    4.58    3.34
  -6  -6  -9    6.83    4.36
  -6  -6 -10    2.54    2.90
   6   6 -10    3.79    4.55
  -6  -6  10   -1.14    2.88
  -6   6 -10    1.53    2.70
   6  -6 -11    1.71    2.95
  -6  -6 -11   18.11    6.16
   6   6 -11    8.16    5.31
  -6   6 -11    4.80    3.72
  -6   6 -12   -1.17    2.71
  -6  -6 -12   -2.15    3.19
  -7   6   0    1.86    2.23
   6   7   0    0.14    1.24
  -7   6   0   -0.01    1.18
  -7   6  -1    6.85    2.07
   6   7  -1   10.84    2.64
  -7   6  -1    9.39    2.90
  -7   6   1   14.19    3.60
   6   7  -2   63.13    6.32
  -7   6   2   75.47    8.27
  -6  -7  -2   75.27    7.66
  -7   6  -2   79.19    7.58
  -6  -7  -3   92.51    8.37
  -6  -7   3   88.40    9.02
   6   7  -3   91.32    8.34
  -7   6  -3   96.41    8.83
  -6  -7   3   89.63    7.94
  -6  -7  -4  140.69   10.16
  -6  -7   4  131.38   11.16
   6   7  -4  117.85   10.26
  -6  -7   4  113.99    9.44
  -7   6  -4  121.54   10.52
  -6  -7  -5  131.50    9.69
  -6  -7   5  133.99   10.77
   6   7  -5  120.25   11.30
  -7   6  -5  144.75   12.33
  -6  -7   5  120.84   10.73
  -7   6  -6  150.88   13.48
  -6  -7  -6  149.14    9.99
  -6  -7   6  147.63   12.19
   6   7  -6  126.56   12.63
  -6  -7   6  137.13   11.52
  -6  -7   7  119.51   11.62
   6   7  -7  106.83   12.54
  -7   6  -7  135.82   13.76
  -6  -7   7  144.40   11.93
  -6  -7   8   91.33    9.57
  -6  -7   8   97.36   11.22
  -7   6  -8   87.98   11.81
   6   7  -8  101.30   13.07
  -7   6  -9   29.50    7.32
  -6  -7   9   30.10    6.84
   6   7  -9   25.18    7.04
  -6  -7  -9   45.38    9.29
  -6  -7 -10    7.29    4.56
  -7   6 -10    3.43    3.72
   6   7 -10    8.44    4.98
   7  -6 -11    2.20    3.28
   6   7 -11    1.81    2.99
  -6  -7 -11    4.48    4.10
  -7   6 -11    5.95    3.77
  -6  -7 -12    6.33    4.67
  -7   6 -12    4.07    3.29
  -7   5   0  984.42   24.30
   5   7   0  972.56   21.55
  -7   5   0 1026.98   24.02
  -7   5  -1  359.67   14.31
   5   7   1  343.72   12.82
  -7   5   1  354.88   15.90
   5   7  -1  332.13   13.29
  -7   5  -1  329.61   13.07
   5   7  -2  315.46   14.06
  -7   5  -2  306.41   13.87
  -7   5   2  282.25   15.52
   5   7  -3  246.62   13.66
  -5  -7   3  258.30   14.69
  -7   5  -3  253.75   13.40
  -5  -7   3  233.58   11.83
  -5  -7   4   22.00    4.18
  -5  -7  -4   24.40    4.03
  -7   5  -4   25.98    5.05
  -5  -7   4   26.73    4.96
   5   7  -4   21.28    4.71
  -5  -7   5   18.71    4.06
   5   7  -5   19.82    4.74
  -5  -7   5   21.21    4.50
  -5  -7  -5   20.75    3.91
  -7   5  -5   21.98    5.17
  -5  -7  -6    1.60    1.42
  -7   5  -6    0.65    1.84
   5   7  -6   -4.08    3.26
  -5  -7   6    2.51    2.08
  -5  -7   6    1.13    1.53
  -5  -7  -7   30.33    4.15
   5   7  -7   22.98    5.81
  -5  -7   7   28.24    5.15
  -7   5  -7   28.35    6.48
  -5  -7   7   31.54    5.92
   5   7  -8   41.59    8.41
  -7   5  -8   39.61    7.97
  -5  -7   8   41.65    7.37
   5   7  -9   29.57    7.56
  -5  -7  -9   42.61    8.64
  -5  -7   9   34.14    7.31
  -7   5  -9   43.08    8.71
   7  -5 -10   19.74    7.03
   5   7 -10   25.19    7.25
  -7   5 -10   30.16    8.13
  -5  -7 -10   24.58    7.31
   5   7 -11   31.05    8.56
   7  -5 -11   27.52    8.59
  -5  -7 -11   24.14    7.05
  -7   5 -11   35.89    9.28
  -7   5 -12   11.14    5.31
  -5  -7 -12    0.46    3.04
  -7   4   0    0.99    1.84
   4   7   0    0.82    1.60
  -7   4   0    0.47    1.19
   4   7  -1  183.46   10.02
  -7   4  -1  176.87    9.58
   4   7   1  178.48    9.53
  -7   4  -1  179.13    9.39
  -7   4   1  196.62   11.76
  -7   4   2    4.64    2.58
   4   7  -2    6.63    2.56
  -7   4  -2    8.19    2.46
   4   7  -3    3.58    2.11
  -7   4  -3    5.60    2.06
  -4  -7   3    4.77    2.20
  -7   4   3    3.36    2.34
  -4  -7   4    9.69    3.07
  -4  -7   4    9.45    2.70
  -7   4  -4    8.24    2.71
   4   7  -4   11.85    3.58
   4   7  -5   20.74    4.81
  -4  -7   5   21.76    4.49
  -4  -7   5   25.84    4.49
  -7   4  -5   14.19    4.11
  -4  -7   6   58.75    7.01
  -4  -7   6   58.83    7.27
  -4  -7  -6   61.48    5.94
   4   7  -6   73.55    9.67
  -7   4  -6   62.19    8.38
  -4  -7   7    9.26    3.29
  -7   4  -7    5.59    3.23
   4   7  -7   13.49    4.70
  -4  -7  -7   10.15    2.30
  -4  -7   7   12.22    3.55
  -4  -7   8    3.52    3.47
  -7   4  -8    5.79    3.62
   4   7  -8    4.19    3.21
  -4  -7   9    8.25    3.75
  -4  -7  -9    4.69    3.43
   4   7  -9    1.94    3.18
  -7   4  -9    6.89    3.72
   7  -4  -9    8.77    4.45
  -4  -7 -10    5.01    3.81
   4   7 -10   13.40    6.10
  -7   4 -10    2.57    3.81
   7  -4 -10    8.55    4.81
  -4  -7 -11    0.66    3.31
   4   7 -11    7.04    4.03
  -7   4 -11    1.27    3.62
   7  -4 -11    2.45    3.95
  -4  -7 -12   -2.44    4.32
  -7   4 -12   -2.17    3.65
  -7   3   0  327.48   11.40
  -7   3   0  337.74   14.19
   3   7   0  330.85   13.13
   7  -3   0  359.76   11.95
  -7   3  -1  150.28    7.80
  -7   3  -1  151.33    9.08
   3   7  -1  152.98    9.39
   7  -3   1  155.97    7.93
   3   7   1  135.60    8.47
   3   7  -1  149.19    7.87
  -7   3   1  115.93    8.99
  -7   3   2   33.23    5.30
  -7   3  -2   36.26    4.21
   3   7  -2   37.62    3.99
   3   7  -2   38.44    5.27
   3   7  -3   31.31    3.86
  -7   3   3   26.82    5.17
   3   7  -3   31.49    4.96
  -7   3  -3   31.87    4.42
  -3  -7   3   36.75    4.07
  -7   3  -4   33.81    5.10
  -3  -7   4   40.18    4.70
   3   7  -4   44.46    6.47
  -7   3  -5   16.47    3.82
  -3  -7   5   30.33    5.12
   3   7  -5   30.57    5.92
  -3  -7   5   26.67    4.30
  -7   3  -6    5.75    3.57
   3   7  -6    4.46    2.44
  -3  -7   6    8.53    2.89
  -3  -7   6   11.91    3.49
  -3  -7  -7    1.35    1.31
  -7   3  -7    4.44    2.74
  -3  -7   7    3.68    2.26
   3   7  -7    6.04    3.86
  -3  -7   7    3.07    2.00
  -3  -7   8   10.65    3.78
   3   7  -8    5.80    3.48
  -7   3  -8    5.53    3.55
   3   7  -9   -0.08    3.14
  -7   3  -9    0.32    2.26
   7  -3  -9   -3.38    2.03
   7  -3 -10    4.47    4.40
  -3  -7 -10    4.39    3.70
   3   7 -10   10.02    4.02
  -7   3 -10   11.97    5.66
   3   7 -11   11.27    5.66
  -7   3 -11    7.58    4.26
  -3  -7 -11   14.87    6.71
   7  -3 -11    7.30    6.36
  -7   3 -12    3.56    3.45
  -3  -7 -12    6.20    4.89
   7  -2   0   -0.22    0.76
   2   7   0    5.05    2.36
  -7   2   0    1.35    1.71
   7  -2  -1   36.21    3.87
  -7   2  -1   28.95    3.29
   2   7   1   25.48    3.74
   2   7  -1   24.21    3.78
   7  -2   1   22.55    2.84
  -7   2   1   22.53    4.16
   2   7  -2   34.82    5.09
   7  -2   2   34.01    3.80
  -7   2  -2   33.27    3.70
  -7   2   2   35.56    5.46
   2   7  -2   32.45    3.27
   2   7  -3  401.28   17.72
  -7   2   3  436.40   19.88
  -2  -7   3  418.07   11.72
  -7   2  -3  420.66   14.73
  -7   2  -4  413.91   16.57
  -7   2   4  414.08   20.75
   2   7  -4  406.78   19.24
  -7   2   4  450.75   19.49
  -2  -7   4  428.12   13.44
  -7   2  -5  604.31   22.38
   2   7  -5  548.05   23.94
  -2  -7   5  560.14   17.50
  -7   2   5  566.55   22.14
   2   7  -6  363.49   21.20
  -2  -7   6  380.79   16.14
  -2  -7   6  385.09   16.63
  -7   2  -6  369.01   19.30
  -2  -7   7  317.01   15.01
  -2  -7   7  279.16   15.48
  -7   2  -7  315.78   19.39
   2   7  -7  282.44   20.04
   2   7  -8  293.91   21.64
  -2  -7   8  259.61   16.26
   7  -2  -8  296.00   21.82
  -7   2  -8  267.04   19.36
  -7   2  -9   86.29   12.06
   7  -2  -9   99.95   13.53
   2   7  -9   93.48   13.14
  -7   2 -10   15.87    5.49
   2   7 -10   43.65    9.63
  -2  -7 -10   25.89    7.39
   7  -2 -10   25.46    7.12
  -2  -7 -11   13.07    6.32
   7  -2 -11   12.17    5.67
   2   7 -11   21.00    7.62
  -7   2 -11   10.34    4.85
  -2  -7 -12    3.26    2.48
  -7   2 -12    1.90    3.27
   7  -2 -12    1.37    2.77
  -7   1   0    2.62    2.03
   7  -1   0    6.82    1.51
   1   7   0    3.85    2.49
   7  -1   1   53.01    3.60
   1   7  -1   44.12    5.09
  -7   1   1   48.73    5.78
   1   7   1   49.69    5.62
  -7   1  -1   57.42    3.65
  -7   1  -2    6.28    1.75
   1   7  -2    8.12    2.53
   7  -1   2    8.09    1.96
   1   7  -2    5.26    1.21
  -7   1   2    5.58    2.35
   1   7  -3   23.39    4.82
  -7   1   3   24.50    4.60
  -1  -7   3   25.70    2.56
  -7   1   3   31.93    5.88
  -7   1  -3   21.45    3.37
  -1  -7   4    2.30    1.28
  -7   1   4    2.69    1.44
  -7   1   4    6.42    3.08
  -7   1  -4   -0.17    1.43
   1   7  -4    0.72    2.54
   1   7  -5    9.85    3.46
  -7   1   5    7.68    3.49
  -7   1  -5   11.55    3.35
  -1  -7   5    6.18    2.00
  -7   1  -5    6.29    1.95
  -7   1   5   11.16    3.57
  -7   1  -6   10.44    2.18
   7  -1  -6   11.16    4.22
   7  -1   6    3.71    1.15
  -1  -7   6   11.43    2.95
   1   7  -6   16.34    5.24
  -7   1  -6    7.21    3.59
  -1  -7   7    9.72    2.80
   1   7  -7    9.26    3.91
  -1  -7   7   13.38    3.72
  -7   1  -7   16.01    4.50
   7  -1  -7   11.51    4.35
  -1  -7   8    4.03    2.74
   7  -1  -8   -5.05    4.13
  -7   1  -8   -1.21    2.11
   1   7  -8   -1.41    1.75
   7  -1  -9   -1.03    2.66
   1   7  -9    9.10    4.46
  -7   1  -9    5.86    3.44
  -1  -7 -10   -2.02    2.66
   1   7 -10   10.16    4.68
   7  -1 -10    4.68    5.58
  -7   1 -10    2.76    3.25
  -7   1 -11    8.39    4.37
   7  -1 -11    2.70    2.20
  -1  -7 -11   10.84    5.95
   1   7 -11    8.46    4.44
  -1  -7 -12   -4.25    3.91
   7  -1 -12    4.56    4.20
  -7   1  12   -2.98    3.73
  -7   1 -12   -0.25    5.11
   0   7   0    1.37    1.24
   7   0   0    1.30    0.63
  -7   0   0    2.30    1.65
  -7   0  -1    2.78    2.26
   7   0   1    1.11    0.63
  -7   0   1   -0.07    1.89
   0   7   1    1.88    1.73
  -7   0  -1    0.98    0.66
   0   7  -1    3.49    2.15
  -7   0   2  300.86   14.90
  -7   0  -2  288.91   12.98
   0   7  -2  307.22   14.41
  -7   0  -2  308.19    9.18
   7   0   2  308.73    9.42
  -7   0   3  832.55   26.77
   0   7  -3  856.76   25.99
  -7   0  -3  843.25   21.61
  -7   0  -3  900.15   19.49
  -7   0   3  924.73   26.78
  -7   0   4 1213.69   31.40
   0   7  -4 1107.20   31.87
  -7   0  -4 1175.00   26.41
  -7   0   4 1093.60   32.98
   0  -7   4 1137.30   17.57
  -7   0  -4 1161.79   23.86
   0   7  -5  940.41   31.63
   7   0  -5  934.72   30.21
  -7   0  -5  889.94   26.30
   0  -7   5  939.32   19.84
  -7   0   5  883.73   31.67
  -7   0   5  962.62   28.68
  -7   0  -5  980.25   20.46
  -7   0  -6  779.99   27.37
   7   0   6  747.84   17.78
  -7   0   6  724.88   30.71
   7   0  -6  725.62   29.19
   0   7  -6  804.34   31.34
  -7   0   7  468.99   26.14
   0   7  -7  450.26   25.10
  -7   0  -7  459.63   23.08
   7   0  -7  456.59   24.76
  -7   0  -8  528.11   26.86
   7   0  -8  460.04   26.98
   0   7  -8  436.92   26.62
   0   7  -9  252.76   21.46
   7   0  -9  199.88   18.79
  -7   0  -9  188.87   17.28
   7   0 -10   51.38   10.43
   0   7 -10   57.00   11.00
  -7   0 -10   46.81    9.36
   0  -7 -10   36.10    8.81
  -7   0  10   45.77    9.78
   7   0 -11   18.03    6.07
   0  -7 -11   12.99    5.91
  -7   0  11   19.61    6.68
   0   7 -11   20.21    7.84
  -7   0 -11   18.51    6.66
   0  -7 -12    0.20    2.95
   0   7 -12    0.84    2.67
   7   0 -12    4.58    4.18
  -7   0 -12    1.69    2.51
  -7   0  12    0.32    3.06
  -7   0  13    9.76    6.14
  -7  -1   0 1145.21   26.65
  -1   7   0 1128.30   26.16
   7   1  -1   16.08    2.16
  -1   7   1   16.97    3.37
  -1   7  -1   18.40    3.39
  -7  -1  -1   14.97    3.18
  -7  -1   1   17.15    3.74
  -7  -1  -2    1.31    1.62
  -7  -1   2    3.74    2.88
   7   1  -2    0.20    1.05
  -7  -1  -2    3.30    0.97
  -7  -1  -2    2.34    1.57
  -1   7  -2    5.42    2.77
  -7  -1  -3    1.26    1.23
  -7  -1   3    3.25    2.31
   7   1  -3    1.75    1.86
  -7  -1  -3    3.35    1.37
  -1   7  -3    3.85    2.17
  -7  -1   3    5.12    2.30
  -7  -1   3    4.36    2.07
  -7  -1   4    6.02    2.68
  -7  -1  -4    8.03    2.20
  -7  -1   4    8.57    3.41
  -7  -1  -4    7.39    1.91
  -7  -1   4    6.14    3.03
  -1   7  -4    9.96    3.58
   7   1  -4    5.64    2.81
   1  -7   4    8.04    1.45
  -1   7  -5   11.04    3.97
  -7  -1   5   11.75    4.39
  -7  -1  -5   10.96    3.24
   7   1  -5    5.68    2.33
  -1   7  -6   11.18    4.48
  -7  -1  -6   10.69    3.49
  -7  -1   6    3.80    2.94
   7   1  -6   19.32    4.93
  -7  -1  -7   -0.39    2.07
  -7  -1   7    5.57    3.57
  -1   7  -7    3.36    2.35
   7   1  -7    1.97    2.78
  -7  -1  -8   19.61    5.60
   7   1  -8   21.60    6.18
  -7  -1   8   12.83    4.92
  -1   7  -8   22.70    7.20
   7   1  -9    3.01    3.20
  -7  -1   9    4.80    2.63
  -7  -1  -9    4.57    3.62
  -1   7  -9    8.15    4.05
  -1   7 -10   -0.40    2.27
  -7  -1 -10   -2.58    3.57
  -7  -1  10    1.19    4.03
   7   1 -10    2.43    4.43
  -7  -1 -11    9.29    4.82
  -1   7 -11    6.90    4.66
  -7  -1  11   12.77    6.51
   1  -7 -11    0.97    2.95
   7   1 -11    7.50    4.09
   1  -7 -12    1.72    3.98
   7   1 -12   -2.77    3.35
  -7  -1 -12    4.69    4.84
  -7  -1  12    3.27    5.77
  -1   7 -12   -2.72    4.51
  -7  -1  13   -0.84    3.72
  -2   7   0   -0.07    1.79
   7   2  -1   45.85    3.29
  -2   7   1   54.82    6.06
  -7  -2  -1   52.45    5.78
  -2   7  -1   50.02    5.71
  -7  -2   1   46.89    5.72
  -7  -2  -2   10.02    1.58
  -7  -2  -2   12.78    3.02
   7   2  -2    9.01    2.22
  -2   7  -2    5.67    2.22
  -7  -2  -2    6.41    2.00
  -7  -2   2   10.04    3.16
  -7  -2  -3  147.51    7.68
  -2   7  -3  141.38   10.74
  -7  -2   3  136.59   10.69
  -7  -2   3  134.55    9.97
   7   2  -3  148.91    9.42
  -7  -2  -3  142.87    9.11
  -7  -2  -4   12.98    2.89
  -7  -2   4   16.36    3.95
  -7  -2   4   15.57    3.53
  -7  -2  -4   11.54    2.94
   7   2  -4   14.27    3.41
  -2   7  -4   14.52    4.10
  -7  -2  -5  286.44   14.62
  -7  -2   5  297.00   17.87
  -7  -2   5  307.03   15.69
  -2   7  -5  304.33   18.18
   7   2  -5  305.13   17.14
   7   2  -6  148.52   13.14
  -2   7  -6  153.48   13.76
  -7  -2   6  139.33   13.08
  -7  -2  -6  145.81   11.66
  -7  -2   7  111.00   12.71
  -7  -2  -7  106.02   11.20
   7   2  -7   97.05   11.65
  -2   7  -7   89.84   11.49
   7   2  -8  198.95   17.92
  -2   7  -8  193.18   17.51
  -7  -2   8  195.35   17.60
  -7  -2  -8  235.10   17.75
  -7  -2  -9   20.24    6.16
  -2   7  -9   19.81    6.26
   7   2  -9   11.68    5.02
  -7  -2   9   16.78    5.21
  -7  -2 -10   16.89    5.95
  -2   7 -10    6.28    3.35
   7   2 -10    6.30    4.69
  -7  -2  10   20.98    6.52
  -7  -2  11    6.64    5.57
  -7  -2 -11    7.52    5.07
   7   2 -11    6.38    3.77
  -2   7 -11    5.70    3.53
   2  -7 -11   -2.47    2.67
   7   2 -12   -2.75    3.61
  -7  -2  12   -2.70    4.23
  -2   7 -12    5.55    4.39
  -7  -2 -12   -0.82    2.57
  -3   7   0   39.96    5.10
  -7  -3   1    3.90    1.97
  -3   7   1   14.22    3.73
  -3   7  -1   10.00    1.54
  -3   7  -1   10.04    2.66
   7   3  -1   10.71    1.69
  -7  -3   2   20.80    4.08
   7   3  -2   22.05    3.25
  -7  -3  -2   23.51    3.96
  -3   7  -2   27.81    4.85
  -3   7  -3    5.17    3.21
  -7  -3  -3    4.29    1.65
  -7  -3   3    2.95    1.47
  -7  -3   3    4.26    2.33
   7   3  -3    2.69    1.62
  -7  -3  -3    3.69    1.45
  -7  -3  -4    0.83    0.98
  -7  -3   4   -0.23    1.34
   7   3  -4    1.99    2.77
  -7  -3  -4   -0.29    1.12
  -7  -3   4    0.92    1.51
  -3   7  -4   -0.86    1.93
  -7  -3   5   25.04    5.27
   7   3  -5   27.82    5.44
  -7  -3  -5   24.41    3.84
  -7  -3   5   30.68    5.41
  -7  -3  -5   29.71    4.81
  -3   7  -5   30.72    5.94
  -7  -3   6    2.50    2.91
   7   3  -6    2.35    2.71
  -7  -3  -6   -0.18    1.26
  -7  -3   6    1.17    2.01
  -3   7  -6    4.70    2.66
  -3   7  -7   12.09    4.25
  -7  -3   7   15.79    5.21
  -7  -3  -7   14.02    4.27
  -7  -3   7   12.31    3.65
   7   3  -7   22.29    5.75
  -7  -3   8    3.57    2.55
   7   3  -8   -2.59    2.75
  -7  -3  -8    0.98    2.82
  -3   7  -8    1.29    2.03
  -7  -3  -9    1.72    2.50
  -7  -3   9   -1.43    2.92
   7   3  -9    1.97    2.29
  -3   7  -9   -1.62    3.54
  -7  -3 -10   -0.60    3.09
  -7  -3  10   10.99    4.95
   7   3 -10   12.62    6.01
  -3   7 -10   14.77    5.25
   7   3 -11    0.03    2.60
  -3   7 -11    3.68    2.09
  -7  -3 -11    0.46    2.58
  -7  -3  11    4.27    5.15
   3  -7 -11   -2.32    3.57
   7   3 -12    6.08    5.42
  -7  -3  12    2.04    4.21
  -7  -3 -12    1.93    3.74
  -4   7   0   -1.84    1.48
  -7  -4   0    0.76    0.64
   7   4   0    0.00    0.50
  -7  -4   1   18.54    2.44
   7   4  -1   16.24    2.38
  -4   7  -1   16.09    3.58
  -4   7  -1   13.95    2.11
  -7  -4  -1   17.95    1.78
  -4   7   1   18.10    3.81
   7   4  -2   58.14    5.22
  -7  -4  -2   51.37    5.89
  -4   7  -2   52.98    6.51
  -7  -4   2   50.60    6.22
  -7  -4   3  276.61   14.85
  -7  -4   3  273.33   14.79
   4  -7   3  266.27    6.30
  -4   7  -3  283.97   15.35
   7   4  -3  285.19   13.24
  -7  -4  -3  289.36   13.64
  -7  -4   4  150.52   11.19
  -4   7  -4  160.31   12.40
   7   4  -4  159.87   11.41
  -7  -4  -4  178.30   10.46
  -7  -4   4  168.91   12.38
  -7  -4   5   15.03    3.84
   7   4  -5   16.26    4.31
  -7  -4   5   14.61    4.19
  -4   7  -5   15.05    4.27
  -7  -4  -5   18.28    3.88
  -7  -4  -5   15.63    3.17
  -7  -4  -6   21.21    3.46
  -7  -4   6   14.69    4.06
  -7  -4  -6   18.19    4.53
   7   4  -6   23.14    5.86
  -7  -4   6   23.83    4.84
  -4   7  -6   19.30    5.43
  -7  -4   7   45.47    8.21
  -7  -4   7   46.17    6.78
   7   4  -7   44.30    7.90
  -4   7  -7   43.48    7.83
  -7  -4  -7   33.36    6.87
  -7  -4  -8    9.94    3.98
  -4   7  -8   14.25    4.67
   7   4  -8    9.81    4.14
  -7  -4   8   10.74    3.38
  -7  -4   8   17.21    5.23
  -7  -4  -9    7.58    4.31
   7   4  -9    3.58    2.47
  -7  -4   9   13.66    5.82
  -4   7  -9   11.74    5.01
   7   4 -10    3.00    2.32
  -7  -4  10    7.39    4.56
  -7  -4 -10    7.33    4.21
  -4   7 -10    9.89    5.51
   7   4 -11   -6.48    4.23
  -4   7 -11    2.99    3.89
  -7  -4 -11   -4.13    3.46
   4  -7 -11    2.45    3.48
  -7  -4  11    0.45    3.10
  -7  -4 -12    6.77    4.48
  -7  -5   0  549.48   11.84
  -5   7   0  540.76   16.21
  -5   7   0  537.66   19.31
   7   5   0  509.70   11.47
  -5   7   1  570.62   20.39
  -5   7  -1  533.38   19.50
   7   5  -1  566.52   14.08
  -7  -5   1  589.02   14.35
  -5   7  -1  588.27   14.41
  -7  -5  -1  574.93   11.91
   7   5  -2  456.38   14.98
  -7  -5  -2  468.09   12.53
  -5   7  -2  422.55   17.96
  -7  -5   2  435.53   17.93
  -7  -5  -2  463.37   18.18
   7   5  -3  527.91   18.40
  -7  -5  -3  561.83   19.59
  -7  -5   3  537.59   20.57
  -5   7  -3  545.55   21.70
   5  -7   3  552.40   11.68
  -7  -5   3  549.97   21.40
   7   5  -4  188.48   12.24
  -5   7  -4  184.42   13.29
   5  -7   4  187.29    7.34
  -7  -5  -4  187.47   11.20
  -7  -5   4  155.21   11.85
  -7  -5   4  166.49   12.05
  -7  -5  -5   41.62    5.24
  -5   7  -5   55.27    7.86
  -7  -5   5   50.28    6.86
   7   5  -5   37.78    6.18
  -7  -5   5   44.73    6.78
   7   5  -6   31.36    6.21
  -7  -5  -6   47.31    5.34
  -7  -5   6   38.85    6.81
  -7  -5  -6   54.73    7.35
  -7  -5   6   54.09    7.14
  -5   7  -6   47.97    7.91
  -7  -5  -7    2.55    2.45
  -7  -5   7    1.02    2.08
  -7  -5   7    1.04    2.91
   7   5  -7    2.52    2.62
  -5   7  -7    2.45    2.04
   7   5  -8   79.55   11.50
  -7  -5   8   88.03    9.33
  -7  -5  -8   69.11    9.63
  -5   7  -8   69.03   10.52
  -7  -5   8   71.75   10.29
  -7  -5   9  113.84   13.66
  -7  -5  -9  116.11   13.63
  -5   7  -9  101.50   13.79
   7   5  -9   87.27   12.88
  -5   7 -10   63.18   11.55
   7   5 -10   49.97   10.30
  -7  -5  10   55.66   10.37
  -7  -5 -10   60.42   10.52
   5  -7 -11   86.52   14.79
  -5   7 -11   53.74   11.21
   7   5 -11   55.87   11.66
  -7  -5 -11   45.62   10.00
  -7  -5 -12   25.06    8.48
   7   6   0    0.33    0.93
  -6   7   0    1.78    1.99
  -6   7   0   -0.33    1.82
  -7  -6   0    2.19    1.14
  -6   7  -1  105.28    6.78
  -6   7   1  108.46    8.74
  -6   7   1   93.88    8.43
  -7  -6   1  105.53    6.65
  -6   7  -1   95.87    8.62
  -7  -6  -1  106.72    5.99
   7   6  -1  106.27    6.72
  -7  -6  -2  161.49    8.07
   6  -7   2  179.52    8.28
   7   6  -2  154.74    9.23
  -7  -6   2  150.06   10.66
  -6   7  -2  173.83   11.55
  -7  -6  -2  168.73   11.50
   6  -7   3   91.48    5.56
   7   6  -3   84.03    7.72
  -7  -6  -3   98.74    8.65
  -6   7  -3   87.43    8.63
  -7  -6   3   91.40    8.54
  -7  -6   3   99.71    9.50
  -6   7  -4   60.98    7.77
  -7  -6  -4   53.89    6.24
  -7  -6   4   57.76    7.56
  -7  -6   4   60.00    7.28
   6  -7   4   59.25    4.60
   7   6  -4   56.82    7.06
  -7  -6   5   45.03    6.76
   7   6  -5   35.76    6.17
  -7  -6   5   43.76    6.75
  -6   7  -5   33.05    6.07
  -7  -6  -5   49.01    5.88
  -7  -6  -6   21.79    3.89
   7   6  -6   21.80    5.57
  -7  -6   6   27.41    5.61
  -6   7  -6   24.75    5.74
  -7  -6   6   32.12    6.07
  -6   7  -7   17.43    5.28
  -7  -6   7   28.39    5.22
  -7  -6  -7   20.95    5.13
   7   6  -7   12.78    4.53
  -7  -6   7   21.92    5.47
  -7  -6   8    7.30    2.63
  -7  -6  -8    5.14    3.75
   7   6  -8   -0.71    3.02
  -7  -6   8    1.23    3.48
  -6   7  -8    2.83    3.56
   7   6  -9    1.41    2.39
  -7  -6   9    7.52    3.72
  -7  -6  -9    1.85    2.06
  -6   7  -9    6.58    4.58
  -7  -6 -10    0.19    2.71
  -7  -6  10    3.51    3.95
  -6   7 -10    8.30    4.85
   7   6 -10    1.60    3.03
   6  -7 -11    7.00    5.74
   7   6 -11    4.31    3.95
  -6   7 -11    2.15    2.83
  -7  -6 -11   -4.22    3.82
  -7  -6 -12    0.09    2.58
  -7   7   0 1839.99   37.05
  -7  -7   0 1928.65   28.43
  -7   7   0 1813.85   33.75
   7   7   0 1853.61   28.12
  -7   7  -1 1672.41   35.36
  -7  -7  -1 1712.81   26.59
   7   7  -1 1649.16   28.58
  -7   7   1 1655.16   35.34
  -7   7  -1 1665.79   29.15
  -7   7   2 1292.04   34.36
   7   7  -2 1359.22   28.62
  -7   7  -2 1279.59   31.82
   7   7  -3  529.49   19.86
   7  -7   3  613.50   16.27
  -7  -7   3  567.41   21.21
  -7   7  -3  587.39   22.74
  -7  -7   3  568.21   23.38
  -7  -7   4  313.15   16.38
  -7  -7   4  315.31   17.73
  -7  -7  -4  291.37   15.21
  -7   7  -4  315.09   17.40
   7   7  -4  303.99   16.50
  -7  -7   5  102.10    9.95
  -7  -7  -5  107.96    9.05
  -7   7  -5  115.46   11.48
  -7  -7   5  100.62   10.01
   7   7  -5   89.87    9.75
  -7   7  -6    4.00    2.28
  -7  -7   6    8.10    3.32
  -7  -7  -6    0.52    1.38
  -7  -7   6    0.96    1.55
   7   7  -6    4.16    2.67
  -7  -7   7   33.22    6.27
   7   7  -7   34.25    7.21
  -7  -7   7   51.08    8.01
  -7   7  -7   45.73    8.08
  -7   7   8   83.33    9.73
  -7  -7   8  103.88   10.64
   7   7  -8   68.42   10.60
  -7  -7   8  100.48   11.78
  -7  -7  -8   96.99   12.05
  -7   7  -8   98.70   12.55
  -7  -7  -9   87.06   12.45
  -7   7  -9   79.00   12.16
   7   7  -9   71.66   11.77
  -7  -7   9   92.30   11.74
  -7   7 -10  134.23   16.70
   7   7 -10  154.35   18.19
  -7  -7 -10  144.01   16.56
   7   7 -11  110.36   16.29
   7  -7 -11  109.43   16.52
  -7  -7 -11  110.94   15.33
  -7   7 -11   82.27   13.95
  -7  -7 -12   64.34   12.67
  -8   7   0    0.85    1.74
   7   8   0    0.93    1.54
  -8   7   0    2.41    1.76
  -8   7   1   23.11    4.43
  -8   7  -1   23.00    4.49
  -8   7  -1   27.89    4.17
   7   8  -1   23.33    3.83
  -8   7  -2   42.26    5.92
  -7  -8   2   41.62    6.57
   7   8  -2   59.06    6.50
  -8   7   2   48.15    6.99
   7   8  -3   19.59    4.17
  -7  -8   3   16.46    4.36
  -8   7   3   26.56    5.81
  -8   7  -3   21.56    4.78
  -8   7  -4    5.15    3.17
  -7  -8   4   10.01    3.51
  -7  -8   4    7.17    2.94
   7   8  -4    8.30    3.54
   7   8  -5   10.56    3.82
  -8   7  -5   17.52    4.53
  -7  -8   5    6.57    2.81
  -7  -8   5   11.55    3.70
  -7  -8  -6    2.20    1.88
  -8   7  -6    2.34    2.39
   7   8  -6    1.10    2.44
  -7  -8   6    6.96    3.14
  -7  -8   6   -0.76    1.59
  -8   7  -7    4.99    3.25
  -7  -8   7    3.21    2.29
   7   8  -7   10.77    4.27
  -7  -8   7   16.61    4.38
  -8   7   8   23.81    5.55
  -7  -8   8   18.76    4.96
   7   8  -8   17.20    5.71
  -7  -8   8   22.05    5.93
  -8   7  -8   22.73    6.09
  -7  -8  -9   11.09    4.53
   7   8  -9   -0.44    2.89
  -8   7  -9    6.86    3.84
  -7  -8 -10    5.13    3.36
   7   8 -10   -1.08    2.58
   8  -7 -11    4.59    4.85
  -7  -8 -11   -2.90    3.56
  -8   7 -11   -1.93    2.62
   7   8 -11    1.39    2.92
  -7  -8 -12    5.12    4.41
   6   8   0   11.14    2.60
  -8   6   0    9.81    2.75
  -8   6   0   14.79    3.36
   6   8   1  133.57    8.57
  -8   6  -1  141.14    9.83
  -8   6   1  120.75    9.91
  -8   6  -1  144.96    9.34
   6   8  -1  132.99    8.97
  -8   6   2   27.56    5.38
  -8   6  -2   20.07    4.06
   6   8  -2   22.58    3.90
  -8   6  -3   16.54    3.91
  -6  -8   3   20.22    4.51
  -8   6   3   24.90    5.49
   6   8  -3   18.49    4.23
   6   8  -4   66.89    8.19
  -6  -8   4   80.23    7.83
  -8   6  -4   76.98    8.54
  -6  -8   4   69.18    8.24
  -8   6  -5   -2.69    2.57
   6   8  -5    4.35    2.45
  -6  -8   5    0.12    1.72
  -6  -8  -5    1.53    1.99
  -6  -8   5    1.31    2.23
  -6  -8  -6    0.40    1.15
  -8   6  -6    3.93    2.74
  -6  -8   6    0.20    2.12
   6   8  -6    5.23    3.37
  -6  -8   6    4.84    2.89
  -6  -8   7   10.64    3.68
   6   8  -7    6.47    3.12
  -8   6  -7    7.03    3.06
  -6  -8   7   10.68    4.01
  -6  -8   8    4.77    2.60
  -6  -8   8    3.00    3.10
  -8   6   8    3.36    3.28
   6   8  -8    1.47    2.23
  -8   6  -8    6.10    2.79
  -6  -8  -9   16.60    6.24
  -8   6  -9    2.92    2.64
   6   8  -9    6.72    3.92
  -8   6 -10   30.09    7.96
  -6  -8 -10   35.03    8.76
   6   8 -10   17.18    6.70
  -6  -8 -11   -1.06    2.61
   8  -6 -11    7.63    5.30
   6   8 -11    1.86    3.21
  -8   6 -11    4.39    2.99
  -6  -8 -12    0.60    3.56
  -8   5   0    1.52    1.64
  -8   5   0    3.24    2.09
   5   8   0    0.28    1.20
  -8   5  -1  157.08    9.78
  -8   5  -1  159.21    9.84
  -8   5   1  161.49   11.45
   5   8  -1  160.30    9.94
   5   8   1  159.96    9.49
   5   8  -2  150.96   10.33
  -8   5  -2  138.61    9.46
  -8   5   2  149.71   11.69
   5   8  -3    1.64    1.40
  -8   5  -3    1.83    1.84
  -8   5   3    6.92    2.94
  -8   5   4  128.09   12.48
  -8   5  -4  145.52   11.09
  -5  -8   4  126.33   10.86
  -5  -8   4  123.76    9.11
   5   8  -4  121.55   10.94
  -8   5  -5   90.78    9.43
  -5  -8   5   83.78    9.11
  -5  -8  -5   70.55    7.32
  -5  -8   5   83.84    8.05
   5   8  -5   70.88    8.91
   5   8  -6  163.87   14.63
  -5  -8   6  174.51   12.33
  -5  -8  -6  187.21   11.51
  -5  -8   6  188.74   13.60
  -8   5  -6  165.70   13.76
   5   8  -7  113.85   12.94
  -5  -8  -7  114.43    8.50
  -8   5  -7  127.39   13.12
  -8   5   7   91.79   10.11
  -5  -8   7  113.99   10.58
  -5  -8   7  128.01   11.34
  -5  -8   8    7.18    3.06
  -8   5   8    1.61    2.19
  -5  -8   8    3.73    2.30
   5   8  -8    1.59    2.10
  -8   5  -8    0.32    2.34
   5   8  -9    6.76    4.77
  -8   5  -9   12.02    4.84
   8  -5 -10    5.63    3.14
  -5  -8 -10    9.18    4.85
   5   8 -10    6.21    3.19
  -8   5 -10   13.29    5.45
  -5  -8 -11    7.72    3.73
   8  -5 -11   14.29    5.81
   5   8 -11   17.58    6.93
  -8   5 -11    5.12    4.13
  -8   5 -12   -3.05    3.17
  -5  -8 -12    0.21    2.39
  -8   4   0 1574.32   32.84
  -8   4   0 1637.09   28.55
   4   8   0 1589.70   30.43
   4   8   1  987.90   23.96
  -8   4  -1  981.73   24.53
  -8   4  -1 1000.98   22.49
  -8   4   1  950.86   27.14
   4   8  -1  976.32   24.53
  -8   4  -2 1539.34   29.22
   4   8  -2 1521.17   32.65
  -8   4   2 1529.94   36.92
   4   8  -3  468.73   19.65
  -8   4  -3  493.40   17.99
  -8   4   3  465.24   21.76
   4   8  -4  187.19   13.53
  -8   4   4  176.93   14.46
  -8   4  -4  171.34   11.57
  -4  -8   4  175.94   10.04
   4   8  -5  151.29   12.98
  -4  -8   5  143.64   11.28
  -8   4  -5  167.98   12.47
  -4  -8   5  163.62   10.47
  -4  -8  -6    5.11    1.98
   4   8  -6    7.24    3.26
  -4  -8   6    4.34    2.41
  -4  -8   6    5.22    2.60
  -8   4  -6    6.87    3.42
  -4  -8   7   76.05    8.46
   4   8  -7   52.48    8.78
  -8   4  -7   67.97    9.26
  -4  -8   7   64.78    7.83
  -4  -8  -7   58.09    5.95
  -4  -8   8  141.91   12.42
  -8   4  -8  136.89   14.19
  -8   4   8   72.89    9.13
   4   8  -8  130.75   14.90
  -8   4  -9  137.92   15.23
   4   8  -9  108.23   14.51
   8  -4  -9  108.65   14.75
  -8   4 -10  217.16   20.18
   8  -4 -10  230.32   22.12
  -4  -8 -10  207.01   20.46
   4   8 -10  179.41   19.33
  -4  -8 -11  135.26   17.52
  -8   4 -11  129.15   16.74
   8  -4 -11  130.64   18.35
   4   8 -11  117.86   16.95
  -4  -8 -12   42.33   10.67
  -8   4 -12   46.37   10.93
  -8   3   0    1.82    0.86
  -8   3   0    2.84    2.22
   3   8   0    6.03    2.56
   3   8   1    5.12    2.42
  -8   3  -1    7.09    1.89
  -8   3   1    6.66    2.85
  -8   3  -1    5.64    2.02
   3   8  -1    4.09    2.30
   3   8  -2    4.71    1.81
  -8   3   2   -0.24    2.03
  -8   3  -2    0.61    1.15
   3   8  -2    1.51    1.40
   3   8  -3   19.79    4.50
  -8   3  -3   20.36    3.65
  -8   3   3   27.98    5.71
   3   8  -3   16.32    2.86
  -8   3   4    0.62    1.73
  -8   3  -4    0.62    1.21
   3   8  -4    3.08    2.41
  -3  -8   4    1.24    1.40
  -8   3   5    0.89    1.88
  -8   3  -5    4.69    2.24
  -3  -8   5    1.96    1.48
   3   8  -5    5.02    2.69
  -8   3  -6    1.29    1.38
  -3  -8   6    0.53    1.20
  -3  -8   6   -1.47    1.41
   3   8  -6   -1.19    2.06
  -3  -8   7    5.90    2.76
  -3  -8   7    5.64    2.63
  -8   3  -7    5.90    3.27
   3   8  -7    5.96    3.47
   3   8  -8    2.08    2.37
  -3  -8   8    1.73    2.92
  -8   3  -8   -0.89    2.46
   8  -3  -9    2.09    2.39
  -8   3  -9    1.35    2.64
   3   8  -9    4.68    4.03
  -3  -8 -10    2.36    3.25
   3   8 -10    6.22    4.47
  -8   3 -10    0.81    2.72
   8  -3 -10    0.94    3.45
  -3  -8 -11    0.95    3.22
  -8   3 -11    6.42    4.47
   8  -3 -11   -0.48    2.96
   3   8 -11    0.18    3.12
  -3  -8 -12   -4.21    4.73
  -8   3 -12   -0.84    2.30
  -8   3  12   -0.07    2.58
   8  -2   0  966.79   17.99
   2   8   0  904.74   23.90
  -8   2   0  970.14   25.58
   8  -2   1 1093.75   19.15
  -8   2   1 1036.66   27.97
   2   8   1 1043.13   25.60
   2   8  -1 1071.14   26.49
  -8   2  -1 1021.63   18.60
   8  -2  -1 1090.00   20.97
   8  -2   2 1185.72   21.92
   2   8  -2 1158.12   19.45
   2   8  -2 1123.93   28.59
  -8   2  -2 1160.45   21.60
  -8   2   2 1080.08   30.41
  -8   2  -3  867.93   21.14
   2   8  -3  833.27   26.35
  -8   2   3  791.81   27.73
  -8   2  -4  178.34   10.82
  -2  -8   4  197.56    8.73
  -8   2   4  164.09   13.57
   2   8  -4  175.50   13.08
  -8   2  -5   16.83    3.89
  -8   2   5   21.10    5.64
  -2  -8   5   12.43    2.52
   2   8  -5   15.06    4.07
  -8   2   6    6.31    3.78
  -8   2  -6    3.58    1.84
  -2  -8   6    6.41    2.47
   2   8  -6    9.78    3.73
   2   8  -7   -2.51    2.78
  -8   2  -7    0.57    1.73
  -2  -8   7    1.56    1.75
  -2  -8   7    2.48    1.94
  -2  -8   8   70.26    8.19
   8  -2  -8   81.30   11.56
  -8   2  -8   66.41    9.69
   2   8  -8   55.27    9.60
  -8   2  -9  162.97   16.25
   2   8  -9  112.45   14.45
   8  -2  -9  147.95   16.54
   8  -2 -10   95.46   14.14
  -8   2 -10  102.31   13.69
   2   8 -10   86.59   13.43
  -8   2 -11   80.14   13.00
   8  -2 -11   70.93   13.27
  -2  -8 -11   69.59   13.29
  -8   2  11   78.00   14.08
   2   8 -11   96.64   15.01
  -8   2  12   51.21   11.85
  -2  -8 -12   48.09   10.98
  -8   2 -12   69.64   12.97
   8  -1   0    0.07    0.61
   1   8   0    2.10    1.55
  -8   1   0   -0.33    1.80
  -8   1  -1   36.58    3.07
   8  -1   1   32.82    2.89
   1   8   1   34.63    4.95
   8  -1  -1   29.46    3.25
  -8   1   1   31.37    4.95
   1   8  -1   46.79    6.42
   8  -1   2   13.83    2.34
  -8   1  -2   14.60    2.36
   1   8  -2   11.10    1.72
   1   8  -2   13.31    3.32
  -8   1   2   15.92    3.88
   1   8  -3   56.25    6.96
  -8   1   3   56.55    7.02
  -8   1   3   57.73    7.63
  -8   1  -3   51.06    4.88
   1   8  -4   14.49    3.95
  -8   1   4   17.46    4.66
  -8   1  -4   16.56    3.39
  -1  -8   4   17.23    2.34
  -8   1  -5   20.11    3.45
  -1  -8   5   24.26    3.26
  -8   1   5    6.95    3.21
  -8   1  -5   18.92    3.86
   1   8  -5   25.80    5.62
  -8   1  -6   88.63    9.35
   8  -1  -6   70.81    9.25
  -1  -8   6   85.47    7.13
  -8   1   6   64.34    9.59
  -8   1  -6   77.79    6.18
   1   8  -6   78.38   10.09
  -1  -8   7    5.89    2.44
   8  -1  -7   14.39    4.83
  -8   1   7    6.11    2.84
  -8   1  -7    6.15    3.26
   1   8  -7    2.38    2.27
  -8   1   8    8.50    5.06
  -8   1  -8    3.23    2.34
   1   8  -8    6.45    3.79
   8  -1  -8   -0.01    2.62
  -8   1  -9   35.04    7.47
   8  -1  -9   31.06    7.46
  -8   1   9   22.29    7.46
   1   8  -9   24.76    6.63
  -8   1  10    9.19    5.15
   1   8 -10    1.28    4.45
   8  -1 -10    2.53    3.29
  -8   1 -10    0.47    2.41
   8  -1 -11   -0.05    3.37
  -1  -8 -11    1.24    3.46
  -8   1  11    9.23    5.96
  -8   1 -11    3.75    3.77
   1   8 -11   -6.10    4.09
  -1  -8 -12    3.39    4.23
  -8   1 -12    1.14    3.23
   8   0   0    6.57    1.17
   0   8   0    6.44    2.21
  -8   0   0    1.29    1.39
  -8   0   1   13.73    3.66
   8   0   1   16.16    1.70
   0   8  -1   15.73    3.55
  -8   0  -1   19.71    3.95
   0   8   1   21.11    4.14
  -8   0  -1   15.51    1.62
   0   8  -2   13.39    3.60
  -8   0   2   19.23    4.33
  -8   0  -2   14.48    3.75
   0   8  -2   12.62    1.39
   8   0   2   13.06    2.07
  -8   0  -2   13.44    1.99
  -8   0   3    1.85    2.17
   0   8  -3    1.03    1.92
  -8   0  -3    0.61    0.92
  -8   0   3    2.21    1.78
  -8   0  -3    1.45    1.66
   0   8  -4   13.55    4.16
  -8   0  -4   11.94    2.94
  -8   0   4   16.70    4.18
   0  -8   4   10.55    1.60
  -8   0  -4    8.16    2.44
  -8   0  -5    6.83    2.64
  -8   0  -5    5.09    1.57
  -8   0   5    2.81    2.84
   0  -8   5    5.68    1.64
   8   0  -5    4.03    2.92
   0   8  -5    1.93    1.69
  -8   0  -6    5.54    2.38
  -8   0   6    7.77    4.30
  -8   0  -6    4.49    1.51
   0  -8   6    6.52    1.95
   8   0  -6    9.26    3.82
   0   8  -6    7.13    4.33
   8   0  -7   26.80    6.44
  -8   0  -7   18.02    4.77
   0  -8   7   21.99    3.90
  -8   0   7   16.60    5.56
   0   8  -7   24.93    6.19
   8   0  -8    0.81    2.49
   0   8  -8    2.12    2.24
  -8   0   8    3.35    3.54
  -8   0  -8    5.33    2.84
  -8   0  -9   12.77    5.45
   8   0  -9    8.37    4.23
  -8   0   9    2.83    4.81
   0   8  -9    1.80    2.65
  -8   0  10   -2.87    3.86
  -8   0 -10    4.03    3.66
   0   8 -10    7.47    4.06
   8   0 -11    2.97    2.48
  -8   0 -11   -0.89    3.36
  -8   0  11    1.89    3.53
   0   8 -11    0.62    2.53
   0  -8 -11   -0.96    3.95
   8   0 -12    8.35    5.71
  -8   0 -12    2.57    4.02
  -8   0  12   -8.77    5.37
  -8  -1   0    1.27    2.22
  -1   8   0    0.94    2.14
   8   1  -1   24.72    2.63
  -1   8   1   26.85    4.61
  -1   8  -1   25.13    4.58
  -8  -1  -1   21.39    4.24
  -8  -1   1   23.81    4.45
  -8  -1  -2    7.93    2.77
  -8  -1  -2   10.57    3.02
   8   1  -2    6.32    1.93
  -1   8  -2    6.44    2.56
  -8  -1   2    4.26    2.18
  -8  -1  -2    6.57    1.30
  -1   8  -3    2.76    2.40
  -8  -1   3    3.15    2.10
  -8  -1   3    3.05    1.96
  -8  -1  -3    2.35    1.55
   8   1  -3    5.43    2.31
  -8  -1  -3    1.71    1.11
  -8  -1   4   43.37    6.08
  -8  -1  -4   54.86    5.66
  -8  -1   4   47.18    7.09
   8   1  -4   38.12    5.61
  -8  -1  -4   43.89    5.12
  -1   8  -4   43.10    6.57
  -8  -1  -5  111.90    9.15
   1  -8   5   91.89    5.22
  -8  -1   5  101.42   11.05
  -1   8  -5  100.17   10.92
   8   1  -5   87.71    9.31
   8   1  -6   43.93    7.21
  -8  -1   6   64.87    9.40
  -8  -1  -6   57.83    7.44
   1  -8   6   59.57    5.33
  -1   8  -6   58.92    8.89
   8   1  -7  118.78   12.77
  -8  -1   7  114.70   13.14
  -8  -1  -7  103.68   10.88
  -1   8  -7  104.87   12.58
   8   1  -8   81.64   11.45
  -8  -1  -8   82.42   10.53
  -1   8  -8   87.53   12.06
  -8  -1   8   72.73   11.10
  -8  -1   9   44.80    9.69
  -8  -1  -9   23.23    5.95
  -1   8  -9   43.65    9.31
   8   1  -9   22.15    6.70
  -8  -1  10    5.42    5.82
  -8  -1 -10    5.65    3.73
  -1   8 -10    4.14    3.56
   8   1 -10    5.73    4.59
   8   1 -11   -1.60    2.98
  -8  -1 -11   -1.32    2.48
  -8  -1  11    2.46    3.70
  -1   8 -11   -4.76    2.99
   1  -8 -11   -1.61    5.14
  -8  -1 -12   -1.17    3.22
   8   1 -12    0.95    2.40
  -8  -1  12    1.35    2.68
  -2   8   0  536.68   19.69
  -8  -2  -1  167.62   10.97
  -2   8   1  171.61   11.31
  -2   8  -1  177.96   11.57
  -8  -2   1  169.05   11.49
   8   2  -1  176.21    6.46
  -8  -2  -2  414.23   17.01
  -8  -2  -2  421.53    9.07
  -2   8  -2  398.48   17.72
  -8  -2   2  414.55   18.46
  -8  -2  -2  383.57   16.18
   8   2  -2  401.10   12.99
  -8  -2  -3  153.40    9.84
  -8  -2  -3  159.15   10.48
  -2   8  -3  175.45   12.52
  -8  -2   3  157.69   12.04
  -8  -2  -3  161.29    7.83
   8   2  -3  156.63    9.73
  -8  -2   3  159.09   11.63
  -2   8  -4   87.68    9.49
  -8  -2  -4   97.89    7.49
   8   2  -4   87.61    8.26
  -8  -2   4   91.23    8.96
  -8  -2   4   81.01    9.25
  -8  -2  -4   94.52    8.03
  -2   8  -5   42.88    7.18
   8   2  -5   45.80    6.82
  -8  -2   5   40.80    6.07
   2  -8   5   48.20    3.60
  -8  -2   5   45.13    7.28
  -8  -2  -5   46.34    5.94
   8   2  -6    7.10    3.03
  -8  -2  -6    5.04    2.32
  -8  -2   6   11.14    4.57
  -2   8  -6   13.38    4.38
  -8  -2   7    0.87    2.44
   8   2  -7    4.21    3.24
  -8  -2  -7    3.00    2.31
  -2   8  -7   -1.42    2.12
  -8  -2  -8   43.30    7.76
   8   2  -8   34.82    7.44
  -8  -2   8   46.75    9.13
  -2   8  -8   61.64   10.31
   8   2  -9   39.88    8.59
  -8  -2  -9   58.31    9.39
  -8  -2   9   51.04    9.92
  -2   8  -9   37.66    8.78
  -8  -2 -10   48.21    9.13
   8   2 -10   50.73   10.59
  -8  -2  10   38.17    8.57
  -2   8 -10   39.13    9.27
   8   2 -11   29.69    8.89
  -8  -2 -11   34.51    9.05
  -8  -2  11   41.22   10.62
   2  -8 -11   37.76   10.07
  -2   8 -11   22.91    7.42
  -8  -2  12   19.33    8.38
  -8  -2 -12   10.75    5.25
  -3   8   0    1.37    2.32
  -3   8  -1   38.95    3.22
   8   3  -1   35.51    2.94
  -3   8  -1   36.46    5.47
  -3   8   1   41.49    5.65
  -8  -3   1   43.83    5.82
  -3   8  -2  389.58   17.76
  -8  -3  -2  419.88   17.44
  -8  -3   2  422.89   18.54
   8   3  -2  400.31   13.03
  -8  -3  -2  405.97    9.18
  -8  -3  -3  743.14   17.02
  -8  -3  -3  747.84   22.98
  -8  -3   3  741.43   25.69
  -3   8  -3  716.17   25.21
  -8  -3   3  751.09   25.31
   8   3  -3  724.15   20.68
  -8  -3  -4  838.68   23.90
   8   3  -4  835.97   25.41
  -8  -3   4  847.40   27.30
  -3   8  -4  840.71   29.22
  -8  -3   4  844.26   29.04
  -8  -3  -4  833.92   21.58
  -8  -3   5  788.43   26.88
  -8  -3  -5  791.08   22.76
  -8  -3   5  727.18   28.50
  -3   8  -5  774.74   29.86
  -8  -3  -5  799.85   24.21
   8   3  -5  768.05   27.29
  -8  -3   6  654.26   24.91
  -3   8  -6  648.14   29.26
  -8  -3   6  623.23   28.12
   8   3  -6  609.98   26.62
  -8  -3  -6  662.57   25.08
   8   3  -7  437.93   24.53
  -3   8  -7  490.22   26.90
  -8  -3   7  447.99   25.28
  -8  -3  -7  464.37   22.87
  -3   8  -8  352.53   24.29
   8   3  -8  328.50   23.03
  -8  -3   8  326.97   22.90
  -8  -3  -8  349.56   21.40
   8   3  -9  112.02   14.46
  -8  -3  -9  115.40   13.36
  -8  -3   9  136.73   15.81
  -3   8  -9   84.01   12.36
   8   3 -10   29.98    8.09
  -8  -3 -10   49.09    9.67
  -8  -3  10   33.77    8.34
  -3   8 -10   30.06    8.00
   8   3 -11   21.06    6.81
  -8  -3  11    8.04    4.88
  -8  -3 -11    3.98    3.33
   3  -8 -11   12.84    5.65
  -3   8 -11   10.99    5.45
  -8  -3 -12    2.48    2.78
  -8  -3  12   25.22    7.81
  -8  -4   0   14.53    1.47
  -4   8   0   15.07    3.52
   8   4   0   11.69    1.36
   8   4  -1    2.44    1.15
  -8  -4   1    2.11    0.94
  -4   8  -1    1.43    0.93
  -4   8  -1    6.09    2.97
  -4   8   1    4.94    2.67
  -4   8  -2  161.13   11.54
  -8  -4  -2  172.78    6.47
  -8  -4  -2  164.72   11.14
   8   4  -2  172.38    8.72
  -8  -4   2  169.78   11.90
  -8  -4  -3   48.51    6.07
  -4   8  -3   48.53    6.52
  -8  -4   3   49.39    6.71
   8   4  -3   48.01    5.50
  -8  -4   3   43.53    6.46
  -8  -4   4    8.85    3.45
  -8  -4   4   11.61    3.56
  -8  -4  -4   16.01    3.20
  -8  -4  -4   14.54    3.01
   8   4  -4   15.09    3.70
  -4   8  -4   15.38    4.06
  -8  -4  -5    8.55    2.56
  -8  -4   5    8.16    3.83
   8   4  -5    8.37    2.55
  -8  -4  -5   14.14    3.39
  -4   8  -5   16.91    4.74
  -8  -4   5   14.67    4.02
  -8  -4  -6   10.80    3.24
  -4   8  -6    9.99    4.36
  -8  -4  -6    8.26    2.56
  -8  -4   6    6.65    3.33
  -8  -4   6    9.08    3.24
   8   4  -6   11.38    3.94
  -8  -4   7   -0.10    1.86
   8   4  -7   -0.62    2.67
  -8  -4   7    3.69    3.73
  -4   8  -7    1.85    2.49
  -8  -4  -7    2.46    1.54
   8   4  -8   27.74    6.67
  -8  -4   8   34.36    7.58
  -8  -4  -8   21.52    5.56
  -4   8  -8   26.23    6.68
  -8  -4  -9   13.55    5.24
   8   4  -9   10.49    4.77
  -8  -4   9   15.73    5.99
  -4   8  -9   10.97    5.27
  -8  -4  10    4.92    4.85
  -8  -4 -10    7.76    4.34
  -4   8 -10    1.17    2.57
   8   4 -10    0.60    2.96
  -8  -4 -11    6.43    3.40
  -8  -4  11    8.67    4.67
  -4   8 -11    3.47    3.35
   8   4 -11    9.52    5.30
  -8  -4 -12    1.24    2.42
  -5   8   0    1.91    1.15
  -5   8   0    1.79    1.75
  -8  -5   0    0.14    0.51
   8   5   0    0.33    0.79
  -8  -5   1   26.00    2.99
  -5   8  -1   28.84    4.93
  -8  -5  -1   27.21    2.46
   8   5  -1   25.85    3.08
  -5   8   1   27.21    5.17
  -5   8  -1   25.91    3.16
  -8  -5   2  303.93   15.79
   8   5  -2  296.88   12.02
  -8  -5  -2  288.03   15.16
  -5   8  -2  291.48   15.71
  -8  -5  -2  297.68    9.39
  -8  -5   3  368.63   18.02
  -8  -5  -3  375.07   16.93
  -8  -5   3  376.64   18.67
   8   5  -3  375.23   15.54
  -5   8  -3  371.46   18.45
   5  -8   4  308.51    8.14
   8   5  -4  293.96   15.50
  -8  -5  -4  311.42   15.31
  -8  -5   4  334.43   17.78
  -8  -5   4  307.74   17.32
  -5   8  -4  330.12   18.36
  -8  -5  -5  337.64   16.49
   8   5  -5  307.86   17.57
  -8  -5  -5  340.24   15.74
   5  -8   5  311.95    9.64
  -5   8  -5  335.60   19.70
  -8  -5   5  287.46   17.82
  -8  -5   5  305.95   17.47
   8   5  -6  534.20   25.21
  -8  -5  -6  582.51   19.94
  -8  -5  -6  596.58   23.97
  -8  -5   6  541.48   25.57
  -8  -5   6  601.27   24.77
  -5   8  -6  570.55   27.37
   8   5  -7  314.65   21.07
  -8  -5   7  330.13   18.65
  -5   8  -7  337.23   22.46
  -8  -5   7  314.74   20.69
  -8  -5  -7  349.83   20.14
  -8  -5  -8  163.43   14.94
  -8  -5   8  158.73   13.05
  -8  -5   8  170.23   16.37
   8   5  -8  133.93   14.77
  -5   8  -8  145.34   15.72
   8   5  -9   62.46   11.05
  -8  -5  -9   83.56   11.40
  -5   8  -9   90.31   13.21
  -8  -5   9   72.68   11.26
  -8  -5  10   37.52    8.64
   8   5 -10   36.65    9.25
  -8  -5 -10   37.90    8.57
  -5   8 -10   28.23    8.06
   8   5 -11    8.70    5.13
  -5   8 -11   12.22    5.56
  -8  -5 -12    3.72    2.63
   8   6   0  418.12   11.42
  -6   8   0  451.66   16.15
  -8  -6   0  431.29   11.54
  -6   8   0  441.46   18.91
  -6   8   1   49.96    6.63
  -8  -6   1   53.22    4.61
   8   6  -1   47.96    4.45
  -6   8  -1   46.76    6.39
  -8  -6  -1   48.08    3.76
  -6   8  -1   49.52    4.62
  -8  -6   2   46.75    6.57
   8   6  -2   45.85    5.03
  -8  -6  -2   53.59    4.44
  -6   8  -2   53.89    6.79
  -8  -6   3   52.56    7.23
   6  -8   3   67.15    4.47
   8   6  -3   65.84    6.89
  -6   8  -3   65.07    8.04
  -8  -6   3   60.71    7.44
   6  -8   4   59.70    4.28
  -6   8  -4   61.63    8.28
  -8  -6   4   56.95    7.69
  -8  -6   4   55.82    7.45
  -8  -6  -4   50.47    6.46
   8   6  -4   53.37    6.83
  -8  -6   5   20.62    4.64
   8   6  -5   23.75    4.92
  -8  -6  -5   26.95    4.63
  -6   8  -5   28.51    6.00
  -8  -6   5   37.66    6.33
   6  -8   5   24.56    3.03
  -8  -6  -6    2.50    1.74
  -6   8  -6    5.32    3.33
   8   6  -6   -0.41    2.23
  -8  -6   6    0.09    1.55
  -8  -6   6    2.68    3.08
  -8  -6   7   13.70    3.82
  -8  -6  -7    4.84    3.07
  -8  -6   7    7.89    3.46
   8   6  -7    4.21    3.28
  -6   8  -7    2.92    1.66
  -8  -6   8    3.86    2.94
  -8  -6  -8   -0.80    1.97
   8   6  -8   -1.88    1.71
  -6   8  -8    1.41    3.15
  -8  -6   8    0.51    2.08
  -8  -6  -9    0.90    2.52
  -8  -6   9    8.81    5.33
   8   6  -9    4.49    3.17
  -6   8  -9    4.47    3.16
   8   6 -10    0.37    2.76
  -6   8 -10    4.63    3.32
  -8  -6 -10    3.47    2.71
  -8  -6  10    9.84    5.32
  -8  -6 -11   10.82    5.35
  -6   8 -11    5.54    3.64
   8   6 -11    1.55    3.57
  -8  -6 -12    0.48    2.78
   8   7   0    1.17    1.11
  -7   8   0    0.22    1.85
  -7   8   0    0.37    1.41
  -8  -7   0    0.61    0.69
  -8  -7  -1  144.15    7.40
  -7   8  -1  138.47   10.81
  -7   8   1  145.97   11.25
  -7   8   1  139.57   10.60
  -7   8  -1  147.62    8.76
   8   7  -1  135.18    8.08
   8   7  -2    5.97    2.56
  -8  -7  -2    1.01    0.90
  -7   8  -2    2.52    2.19
   8   7  -3    2.48    2.13
   7  -8   3    1.27    0.92
  -8  -7   3    0.00    2.00
  -7   8  -3    2.64    1.84
  -8  -7   3    2.64    1.86
   8   7  -4    2.84    2.79
  -7   8  -4   -0.48    1.72
  -8  -7   4    1.85    2.48
   7  -8   4    0.48    0.87
  -8  -7   4   -1.73    1.76
  -7   8  -5   12.25    4.44
  -8  -7   5    7.35    3.20
  -8  -7   5    8.21    3.42
   8   7  -5    8.24    3.42
  -8  -7  -6   23.82    4.62
  -7   8  -6   17.08    5.13
  -8  -7   6   19.42    5.46
  -8  -7   6   17.74    4.77
   8   7  -6   18.65    5.10
  -7   8  -7   70.75   10.35
  -8  -7   7   73.26    9.85
  -8  -7  -7   62.71    8.96
  -8  -7   7   60.14    8.34
   8   7  -7   60.58    9.66
  -7   8  -8   43.91    8.99
  -8  -7   8   25.82    5.76
  -8  -7  -8   35.62    7.43
   8   7  -8   29.63    7.45
  -8  -7   8   31.86    6.68
   8   7  -9    5.71    4.48
  -8  -7  -9    3.22    3.34
  -8  -7   9    5.79    2.75
  -7   8  -9    3.19    2.64
  -8  -7 -10    0.05    2.85
   8   7 -10    1.44    1.95
  -7   8 -10   -1.34    2.28
  -8  -7 -11   -1.05    3.86
   8   7 -11    9.35    5.37
  -7   8 -11    4.37    3.17
  -8  -7 -12    6.07    5.28
   8   8   0  208.42   10.05
  -8   8   0  200.92   13.16
  -8   8   0  198.81   11.93
  -8   8  -1  348.29   17.41
  -8   8  -1  338.49   14.25
  -8   8   1  358.78   17.54
   8   8  -1  331.60   13.55
  -8   8  -2  204.74   13.62
  -8  -8   2  229.70   15.70
  -8   8   2  259.26   16.25
   8   8  -2  244.94   12.76
   8   8  -3   83.47    8.28
  -8  -8   3   79.07    9.59
  -8   8  -3   91.50    9.34
  -8  -8   4   22.76    5.24
  -8   8  -4   28.94    5.64
   8   8  -4   29.03    5.53
  -8  -8   4   16.67    4.62
  -8  -8   5    0.56    2.01
  -8   8  -5   -0.14    2.70
  -8  -8   5    1.75    2.54
   8   8  -5    0.63    2.32
   8   8  -6    4.38    2.28
  -8   8  -6    4.41    2.78
  -8  -8   6    2.36    2.08
  -8  -8   6    3.70    2.47
  -8  -8   7   -3.51    2.51
  -8   8  -7    3.16    2.42
  -8  -8   7    2.94    1.94
   8   8  -7    8.67    3.61
  -8  -8  -8    4.31    2.86
   8   8  -8    1.27    2.72
  -8  -8   8   10.88    4.27
  -8  -8   8    6.84    3.69
  -8   8  -8    9.07    4.27
   8   8  -9    3.19    3.00
  -8   8  -9    5.55    3.12
  -8  -8  -9    3.95    3.40
  -8  -8 -10    4.29    3.28
  -8   8 -10    0.39    2.81
   8   8 -10    6.53    4.48
  -8   8 -11   11.26    5.64
  -8  -8 -11   11.83    5.34
   8   8 -11    6.78    3.51
  -8  -8 -12   12.10    6.06
   8   9   0    2.60    1.59
  -9   8   0    0.63    1.73
  -9   8   0   -1.39    1.24
   8   9  -1   19.10    3.71
  -9   8  -1   22.62    4.98
  -9   8  -1   18.91    3.74
  -8  -9  -1   18.03    4.47
  -9   8   1   22.66    4.81
  -9   8  -2  175.48   12.68
  -9   8   2  163.26   13.23
   8   9  -2  170.57   11.15
  -8  -9  -2  184.44   13.92
  -8  -9   2  178.36   14.28
  -9   8   3  145.78   13.46
  -8  -9  -3  132.93   11.75
  -8  -9   3  149.03   13.39
   8   9  -3  148.21   11.33
  -9   8  -3  165.03   12.76
  -8  -9   4  245.27   17.38
  -9   8   4  240.52   18.34
  -9   8  -4  248.57   16.36
  -8  -9   4  251.85   15.51
   8   9  -4  248.22   15.85
   8   9  -5  264.11   17.67
  -9   8  -5  246.93   17.39
  -8  -9   5  250.47   15.96
  -8  -9   5  237.62   17.17
  -9   8  -6  400.23   23.30
   8   9  -6  379.60   22.68
  -8  -9   6  393.50   22.12
  -8  -9   6  416.45   21.49
   8   9  -7  259.18   20.02
  -8  -9   7  273.46   18.71
  -9   8  -7  274.66   20.44
  -8  -9   7  292.88   18.78
  -8  -9   8  107.91   12.10
  -8  -9   8  131.49   13.16
  -9   8  -8  145.31   15.91
   8   9  -8  116.78   14.31
  -8  -9  -9   44.91    9.29
  -9   8  -9   37.79    8.53
   8   9  -9   44.84    9.53
  -8  -9 -10    5.35    4.05
   8   9 -10    9.14    4.89
  -9   8 -10    8.16    4.27
  -8  -9 -11    4.72    3.63
  -9   8 -11    4.20    4.31
   8   9 -11    3.12    2.86
  -9   7   0   43.04    6.09
  -9   7   0   35.85    5.35
   7   9   0   28.60    4.21
  -9   7  -1   89.56    7.87
  -9   7  -1   98.84    8.93
   7   9  -1  111.88    8.74
   7   9   1  102.78    7.82
  -9   7   1   98.40    9.40
  -9   7   2   57.67    7.77
  -9   7  -2   63.77    7.42
   7   9  -2   59.19    6.71
  -7  -9   2   53.15    7.80
   7   9  -3   29.48    5.11
  -7  -9   3   26.51    5.85
  -9   7   3   23.05    5.83
  -9   7  -3   28.87    5.07
  -9   7   4   17.74    5.43
  -7  -9   4   25.06    4.93
  -9   7  -4   20.06    4.68
   7   9  -4   16.64    4.45
  -7  -9   4   22.70    5.29
  -7  -9   5   26.23    5.15
  -7  -9   5   31.18    6.39
  -9   7  -5   24.11    5.45
   7   9  -5   26.81    5.76
  -9   7  -6    5.90    3.49
  -7  -9   6   11.39    3.83
   7   9  -6    1.65    1.97
  -7  -9   6    6.59    3.16
  -7  -9   7   32.87    6.02
  -9   7  -7   25.39    6.46
  -7  -9   7   16.69    4.29
   7   9  -7   25.58    6.57
  -9   7   8    5.10    2.95
  -9   7  -8    2.42    2.85
  -7  -9   8    1.38    2.35
   7   9  -8   -0.86    2.40
   7   9  -9    3.06    3.33
  -9   7  -9    1.93    2.46
  -7  -9  -9    2.70    3.45
  -7  -9 -10   31.46    8.43
   7   9 -10   24.88    7.92
  -9   7 -10   13.96    5.77
  -9   7 -11    1.30    3.31
   9  -7 -11   14.62    6.73
  -7  -9 -11    4.40    4.39
   7   9 -11    6.33    4.94
  -7  -9 -12   -3.74    3.64
  -9   6   0    0.53    1.73
  -9   6   0    1.59    1.77
   6   9   0   -0.79    1.39
   6   9   1  217.86   11.70
  -9   6   1  214.08   13.80
  -9   6  -1  237.56   12.95
  -9   6  -1  217.31   12.22
   6   9  -1  218.35   12.16
   6   9  -2  390.73   17.11
  -9   6  -2  394.04   17.11
  -9   6   2  407.18   20.53
  -6  -9   3  462.17   21.84
   6   9  -3  455.90   19.91
  -9   6   3  452.37   22.91
  -9   6  -3  497.39   20.14
   6   9  -4  344.84   18.70
  -6  -9   4  346.76   16.10
  -9   6   4  347.17   21.51
  -6  -9   4  337.66   19.01
  -9   6  -4  326.33   17.45
   6   9  -5  709.25   28.76
  -6  -9   5  762.85   28.87
  -9   6   5  766.75   33.56
  -6  -9   5  824.99   25.93
  -9   6  -5  775.83   28.60
  -6  -9   6  607.60   26.05
  -6  -9   6  596.46   23.27
  -9   6  -6  632.63   27.61
   6   9  -6  572.06   27.70
  -9   6   7  390.12   22.40
   6   9  -7  345.40   22.98
  -9   6  -7  398.29   23.41
  -6  -9   7  389.47   20.15
  -6  -9   7  400.04   21.20
  -9   6   8  230.22   17.20
  -9   6  -8  247.12   19.65
  -6  -9   8  244.28   16.67
   6   9  -8  252.37   20.91
   6   9  -9  144.39   16.86
  -9   6  -9  156.54   16.84
  -6  -9 -10   63.02   11.69
   6   9 -10   44.64    9.95
  -9   6 -10   68.47   11.94
  -6  -9 -11   -2.46    3.63
   9  -6 -11    6.88    5.05
   6   9 -11    6.35    3.53
  -9   6 -11    1.95    2.80
  -6  -9 -12    5.20    4.41
  -9   5   0   38.08    5.46
  -9   5   0   53.22    5.74
   5   9   0   53.48    6.12
   5   9   1   48.98    5.64
  -9   5  -1   52.21    5.80
  -9   5   1   46.82    6.52
   5   9  -1   48.11    5.85
  -9   5  -1   63.25    6.71
  -9   5  -2    9.34    2.87
   5   9  -2   11.37    3.18
  -9   5   2    9.54    3.72
   5   9  -3    6.08    2.98
  -9   5  -3    7.93    2.93
  -9   5   3    4.74    2.52
   5   9  -4    5.57    3.29
  -5  -9   4   13.74    4.19
  -9   5  -4    6.26    3.31
  -9   5   4    7.67    3.13
  -5  -9   4    5.61    2.33
  -9   5   5    5.55    4.16
  -5  -9   5    9.57    3.39
  -9   5  -5    2.48    2.96
  -5  -9   5    5.43    2.43
   5   9  -5    0.34    1.82
  -9   5  -6   -1.07    2.19
  -5  -9  -6    4.01    2.48
  -5  -9   6   -1.39    1.92
   5   9  -6    1.86    2.23
  -5  -9   6    2.82    1.93
  -9   5   7   -1.62    2.01
  -5  -9  -7    2.43    1.33
  -5  -9   7    1.37    1.93
  -5  -9   7    1.69    2.21
   5   9  -7    4.07    3.26
  -9   5  -7    4.47    2.79
  -9   5   8    8.90    3.25
   5   9  -8    4.16    3.28
  -5  -9   8   13.21    3.84
  -9   5  -8    8.16    3.57
   5   9  -9    1.12    2.79
  -9   5  -9    1.41    3.18
  -9   5 -10   10.83    4.56
   5   9 -10    0.69    3.74
  -5  -9 -10    3.08    4.00
  -5  -9 -11    4.33    3.27
   5   9 -11   -0.28    1.91
  -9   5 -11   -0.09    3.09
   9  -5 -11    2.72    4.32
  -5  -9 -12    6.58    4.63
  -9   5 -12    7.55    4.19
  -9   4   0    1.25    1.95
   4   9   0    0.27    1.99
  -9   4   0    1.87    1.51
  -9   4  -1    2.91    1.66
   4   9  -1    2.17    2.71
  -9   4   1    2.09    2.51
   4   9   1    2.42    2.15
  -9   4  -1    0.77    1.32
   4   9  -2   75.17    7.89
  -9   4   2   63.20    7.80
  -9   4  -2   66.62    6.21
  -9   4   3  162.52   13.53
   4   9  -3  148.23   11.55
  -9   4  -3  153.74   10.10
   4   9  -4   71.96    8.44
  -9   4  -4   76.56    7.78
  -4  -9   4   82.72    6.85
  -9   4   4   64.38    9.03
   4   9  -5  134.61   12.71
  -9   4  -5  157.99   12.06
  -9   4   5  161.21   15.02
  -4  -9   5  168.10   10.35
  -9   4   6  156.18   13.53
  -4  -9   6  164.78   11.17
   4   9  -6  138.78   13.74
  -4  -9   6  164.88   12.84
  -9   4  -6  172.81   13.62
  -9   4   6  167.43   16.58
  -9   4   7   54.00    8.14
  -4  -9   7   59.35    7.80
  -4  -9  -7   62.63    6.71
  -9   4   7   57.22   10.31
  -4  -9   7   49.51    6.67
   4   9  -7   40.94    7.95
  -9   4  -7   53.61    8.32
  -9   4   8   62.94    8.85
   4   9  -8   57.62    9.94
  -9   4  -8   60.74    9.54
   9  -4  -9   70.95   12.30
   4   9  -9   54.71   10.21
  -9   4  -9   49.54    9.37
   9  -4 -10   12.10    5.72
   4   9 -10   13.29    5.72
  -9   4 -10   23.15    6.72
   9  -4 -11   12.78    5.88
  -9   4  11    8.76    5.18
   4   9 -11    0.86    3.26
  -9   4 -11    1.36    3.00
  -4  -9 -11    4.79    3.47
  -9   4 -12    1.73    3.00
  -9   3   0  108.41    9.22
   3   9   0  107.30    8.66
   3   9  -1   64.35    7.05
  -9   3  -1   57.13    6.57
   3   9   1   68.64    6.93
  -9   3  -1   62.43    5.27
  -9   3   1   54.80    6.99
  -9   3   2  141.71   11.59
   3   9  -2  163.66   11.56
   3   9  -2  164.70    8.54
  -9   3  -2  137.39    8.19
  -9   3   3    3.19    2.00
   3   9  -3    1.63    1.97
  -9   3  -3    2.56    1.10
   3   9  -3    1.21    0.94
  -9   3  -4    0.66    1.15
   3   9  -4    1.37    2.00
  -9   3   4   -0.16    1.79
  -3  -9   4    0.80    0.94
  -9   3  -5   31.76    5.41
  -9   3   5   27.29    6.63
   3   9  -5   29.54    5.98
  -3  -9   5   44.39    5.06
  -9   3   6   14.29    5.32
  -3  -9   6   14.46    3.53
  -9   3   6   18.99    4.82
  -3  -9   6   17.10    4.46
  -9   3  -6   15.00    4.12
   3   9  -6   12.18    4.71
  -9   3   7    1.00    1.76
  -3  -9   7    2.76    2.08
  -9   3  -7    2.57    2.27
   3   9  -7    4.97    4.02
  -3  -9   7    5.16    2.24
  -9   3   7   -0.44    2.63
   9  -3  -8    2.08    2.86
  -9   3   8    1.65    1.43
  -9   3   8    2.87    3.32
  -9   3  -8    5.06    2.74
   3   9  -8    0.94    3.37
   9  -3  -9    0.60    2.53
  -9   3   9    1.64    3.64
  -9   3  -9    2.34    2.79
   3   9  -9   10.92    5.29
   9  -3 -10    7.14    3.57
  -9   3  10    8.66    5.04
  -9   3 -10    6.13    4.26
   3   9 -10   18.30    7.11
  -9   3  11    6.81    4.79
   9  -3 -11    2.48    3.02
  -3  -9 -11    5.67    3.40
  -9   3 -11   -0.83    2.83
   3   9 -11    5.12    4.74
  -9   3  12    1.50    2.75
  -9   3 -12   -3.83    3.61
  -9   2   0    1.83    2.33
   9  -2   0    0.50    0.80
   2   9   0    0.58    2.31
   9  -2   1   11.04    2.12
   2   9  -1   13.77    3.54
  -9   2  -1   11.76    2.13
  -9   2   1   18.22    4.54
   2   9   1   12.01    3.10
  -9   2  -2   21.36    2.91
   9  -2   2   23.94    3.23
   2   9  -2   19.88    4.25
  -9   2   2   19.11    4.37
   2   9  -2   19.33    2.61
  -9   2  -3   28.16    3.90
   2   9  -3   29.08    3.30
  -9   2   3   27.61    5.70
   2   9  -3   25.81    5.13
   2   9  -4   95.55   10.09
  -9   2   4   89.90   10.56
  -9   2  -4   96.16    8.05
  -2  -9   5  206.81    9.62
  -9   2  -5  201.43   12.87
   2   9  -5  175.90   14.54
  -9   2   5  196.02   16.25
  -9   2  -6  111.26    8.66
  -2  -9   6  125.70    8.50
  -9   2   6  120.00   13.55
  -9   2   6  113.90   11.32
  -9   2  -6  121.74   10.98
   2   9  -6  110.32   12.24
  -9   2  -7  110.98   11.45
  -2  -9   7  129.52   10.92
  -9   2   7   98.15   13.15
   2   9  -7   91.66   11.96
  -2  -9   7  115.74    9.25
  -9   2   7  115.21   11.53
   9  -2  -8   58.62    9.95
  -9   2  -8   60.08    9.10
  -9   2   8   52.16   10.15
   2   9  -8   60.08   10.15
  -9   2  -9   42.17    9.11
   9  -2  -9   33.61    8.47
  -9   2   9   32.27    8.38
   2   9  -9   50.35   10.01
  -9   2  10    2.83    4.50
  -9   2 -10    1.52    3.51
   2   9 -10    6.01    2.99
   9  -2 -10   11.65    5.94
   9  -2 -11    1.29    2.88
  -2  -9 -11   -0.61    2.97
   2   9 -11    8.51    6.09
  -9   2  11    7.50    4.27
  -9   2 -11    6.44    4.93
  -9   2  12   -0.92    2.74
  -9   2 -12   -1.76    2.99
   1   9   0 2438.43   42.47
  -9   1   0 2417.88   43.15
   9  -1   0 2499.49   25.76
   9  -1   1 1402.45   18.89
   9  -1  -1 1411.09   22.44
  -9   1   1 1350.90   33.80
  -9   1  -1 1404.73   18.91
   1   9  -1 1341.44   32.04
   1   9   1 1367.18   31.83
   1   9  -2  898.35   15.23
   9  -1   2  852.00   17.01
  -9   1  -2  821.03   16.58
   1   9  -2  848.14   26.38
  -9   1   2  791.51   27.13
  -9   1  -3  490.24   15.06
   1   9  -3  504.19   21.48
  -9   1   3  485.36   22.64
  -9   1  -4  135.26    9.95
  -9   1  -4  130.92    9.00
   1   9  -4  118.90   11.15
  -9   1   4  138.31   12.88
  -9   1  -5   -0.65    1.11
   1   9  -5    5.42    2.80
  -1  -9   5    3.37    1.27
  -9   1  -5    1.26    1.39
  -9   1   5    1.72    3.08
   9  -1  -6    6.24    3.21
  -9   1  -6    3.46    1.73
  -9   1   6   -0.49    2.07
  -9   1  -6    7.63    2.38
  -1  -9   6    7.98    2.30
  -9   1   6    3.00    2.59
   1   9  -6    9.94    3.91
   9  -1  -7   21.09    6.26
   1   9  -7   31.17    7.36
  -9   1  -7   34.28    6.28
  -9   1   7   44.68    9.11
  -9   1   7   47.04    7.45
  -9   1  -8   39.25    7.79
  -9   1   8   47.08    9.27
   9  -1  -8   48.44    9.17
   1   9  -8   40.61    8.28
  -9   1  -9    6.04    4.11
  -9   1   9    7.45    3.91
   1   9  -9    7.04    3.79
   9  -1  -9    9.81    4.95
   9  -1 -10   23.21    6.94
  -9   1  10   24.46    7.83
  -9   1 -10   31.65    7.81
   1   9 -10   15.91    6.03
  -1  -9 -11   44.53   11.00
  -9   1  11   47.45   11.04
   9  -1 -11   41.45   10.32
  -9   1 -11   54.76   10.41
   1   9 -11   45.21   10.33
  -9   1  12   20.97    8.31
  -9   1 -12   42.01    9.93
   9   0   0    1.07    0.72
  -9   0   0    0.08    1.98
   0   9   0    0.78    1.85
   0   9   1    2.19    1.85
   9   0   1    0.07    0.40
  -9   0  -1    1.12    0.52
  -9   0  -1    2.25    1.80
  -9   0   1   -0.45    1.53
   0   9  -1   -0.15    1.32
  -9   0  -2  118.49    9.68
   0   9  -2  107.57    4.30
   9   0   2  109.66    5.58
  -9   0  -2  120.90    5.64
  -9   0   2  107.03    9.96
   0   9  -2  135.19   10.73
  -9   0  -3   36.02    5.28
  -9   0  -3   38.99    4.11
   0   9  -3   34.86    6.01
  -9   0   3   37.75    6.57
   0   9  -4  254.98   16.46
  -9   0  -4  268.17   12.46
  -9   0   4  251.96   17.02
  -9   0  -4  257.07   13.40
  -9   0  -5  288.93   13.50
  -9   0  -5  325.94   15.60
   9   0  -5  295.87   17.16
   0   9  -5  307.81   19.20
   0  -9   5  328.47    9.46
  -9   0   5  302.18   19.67
   9   0  -6  134.02   12.83
  -9   0   6  140.28   14.34
   0  -9   6  153.64    8.05
  -9   0  -6  145.22   11.64
  -9   0  -6  161.11    9.42
  -9   0   6  139.40   12.39
   0   9  -6  126.10   13.26
   9   0  -7  117.95   13.12
  -9   0  -7  110.76   11.22
  -9   0   7   94.62   12.27
   0   9  -7  101.11   12.55
   9   0  -8   94.34   12.42
  -9   0  -8  100.90   11.48
  -9   0   8  102.51   13.66
   0   9  -8   99.39   13.31
   9   0  -9   54.00   10.10
  -9   0  -9   43.12    8.43
  -9   0   9   43.37    9.39
   0   9  -9   51.95   10.11
   9   0 -10    1.83    3.10
  -9   0  10    1.45    3.57
  -9   0 -10    5.67    3.30
   0   9 -10    5.51    3.95
   9   0 -11   11.08    5.87
  -9   0  11    4.10    3.25
  -9   0 -11    5.98    4.64
   0  -9 -11    2.42    4.68
   0   9 -11    4.63    3.80
  -9   0  12    3.42    3.48
  -9   0 -12    1.66    3.79
  -1   9   0 1865.47   38.24
  -1   9   1 1936.67   39.26
  -9  -1   1 1919.46   40.03
  -1   9  -1 1937.93   39.44
  -9  -1  -1 1839.43   38.54
   9   1  -1 1858.78   22.10
  -9  -1  -2 1417.49   33.09
  -9  -1   2 1408.03   35.65
  -1   9  -2 1457.99   35.27
  -9  -1  -2 1428.08   17.27
   9   1  -2 1405.48   24.69
   9   1  -3  451.91   16.66
  -9  -1   3  459.57   20.69
  -1   9  -3  455.43   20.71
  -9  -1  -3  476.00   13.32
  -9  -1   3  460.69   21.47
  -9  -1  -3  461.72   18.30
   9   1  -4   47.15    6.41
  -1   9  -4   49.35    7.35
  -9  -1  -4   48.49    5.23
  -9  -1   4   44.79    7.16
  -9  -1  -4   51.28    5.98
   9   1  -5   14.26    4.26
  -9  -1  -5   11.99    3.06
  -9  -1   5    7.50    4.02
   1  -9   5    9.74    1.42
  -1   9  -5    7.25    3.18
  -9  -1  -5   11.69    2.95
   9   1  -6   10.22    3.71
  -9  -1   6    9.98    4.23
   1  -9   6   14.28    2.36
  -9  -1  -6    9.03    3.25
  -1   9  -6   11.45    3.98
  -9  -1   7   20.96    6.03
  -9  -1  -7   27.65    5.62
  -1   9  -7   27.30    6.78
   9   1  -7   21.43    5.99
  -9  -1  -8   62.71    9.20
   9   1  -8   56.28    9.95
  -9  -1   8   64.64   10.91
  -1   9  -8   61.62   10.47
  -9  -1  -9   90.03   11.88
   9   1  -9   84.78   12.71
  -9  -1   9   82.53   12.88
  -1   9  -9  106.86   14.45
   9   1 -10   45.58   10.05
  -9  -1 -10   68.08   10.90
  -9  -1  10   59.00   11.30
  -1   9 -10   56.32   11.12
   9   1 -11   76.10   13.32
  -9  -1  11  104.91   15.63
  -9  -1 -11   98.10   14.08
  -1   9 -11  113.27   16.59
  -9  -1 -12   76.89   13.00
  -9  -1  12   53.99   12.33
  -2   9   0    2.40    2.58
  -9  -2  -1   39.35    5.96
  -2   9  -1   36.04    5.79
  -2   9   1   30.65    5.26
   9   2  -1   30.87    2.73
  -9  -2   1   38.25    5.94
  -9  -2  -2    3.45    2.38
   9   2  -2    0.95    1.08
  -9  -2  -2    5.06    2.27
  -2   9  -2   -1.10    6.34
  -9  -2   2    2.85    2.62
  -9  -2  -3   11.08    3.00
   9   2  -3   15.98    3.05
  -2   9  -3   10.34    3.49
  -9  -2   3   12.78    3.62
  -9  -2  -3   11.41    3.14
  -9  -2   3   13.02    3.76
  -9  -2  -3   10.09    2.00
  -9  -2   4   29.05    5.45
  -2   9  -4   27.17    5.53
  -9  -2   4   26.21    5.88
   9   2  -4   29.59    5.08
  -9  -2  -4   34.79    4.35
  -9  -2  -5    2.38    1.78
  -9  -2   5   -1.83    2.23
  -2   9  -5   -0.76    1.55
   9   2  -5    2.35    2.31
  -9  -2   5    0.92    1.90
   2  -9   6    2.80    1.14
  -9  -2  -6    1.53    1.21
  -2   9  -6    1.03    3.06
  -9  -2   6    2.62    2.38
   9   2  -6    0.45    1.98
  -9  -2   7    4.88    3.17
  -9  -2  -7    8.23    3.44
   9   2  -7    1.39    2.04
  -2   9  -7    4.72    2.29
  -9  -2  -8    2.54    2.06
  -9  -2   8    4.56    3.93
   9   2  -8    8.65    5.02
  -2   9  -8    4.24    3.30
  -9  -2   9    8.38    4.59
  -9  -2  -9   -1.16    2.60
   9   2  -9    4.67    3.48
  -2   9  -9   -7.89    4.30
  -9  -2 -10    3.67    4.02
   9   2 -10    4.49    4.36
  -9  -2  10    2.99    3.43
  -2   9 -10    8.04    4.45
   9   2 -11    4.78    3.94
  -9  -2 -11    4.55    4.46
  -2   9 -11    6.64    5.27
  -9  -2  11   -2.09    4.19
  -9  -2 -12   -0.48    3.49
  -9  -2  12   -1.15    2.97
  -3   9   0  326.11   16.46
  -3   9  -1  145.19   11.19
  -3   9   1  158.23   11.59
  -9  -3   1  151.37   11.42
   9   3  -1  153.49    6.04
   9   3  -2  204.55    9.32
  -9  -3   2  226.61   14.39
  -9  -3  -2  229.49   13.80
  -3   9  -2  214.91   13.88
  -9  -3  -2  225.91    6.06
  -3   9  -3   74.35    8.59
  -9  -3  -3   86.40    8.36
  -9  -3   3   88.03    9.20
  -9  -3  -3   92.38    5.71
   9   3  -3   82.48    7.14
  -9  -3   3   87.18    9.16
  -9  -3  -4   16.02    2.98
  -9  -3   4   20.36    4.78
   9   3  -4   16.89    3.91
  -3   9  -4   21.27    4.85
  -9  -3  -4   19.33    4.12
  -9  -3   4   19.81    4.72
  -9  -3   5    2.41    2.98
  -9  -3  -5    1.26    1.02
   9   3  -5    4.21    3.05
  -3   9  -5    1.97    2.84
  -9  -3   5    5.13    3.27
  -9  -3   6   22.74    5.16
  -3   9  -6   19.12    5.31
  -9  -3  -6   19.02    4.22
   9   3  -6   13.05    4.33
  -9  -3   6   21.71    5.58
  -9  -3   7   -0.43    2.36
  -3   9  -7   -0.02    2.68
  -9  -3  -7    2.72    2.14
   9   3  -7    3.02    2.37
  -9  -3  -8    7.97    3.37
  -3   9  -8   13.91    5.48
   9   3  -8    6.38    4.28
  -9  -3   8    8.28    5.18
   9   3  -9   22.32    6.34
  -9  -3  -9   31.61    7.41
  -9  -3   9   25.58    7.08
  -3   9  -9   34.81    8.55
   9   3 -10   20.96    6.79
  -3   9 -10   -1.26    2.76
  -9  -3 -10    6.63    3.07
  -9  -3  10   11.90    5.76
  -9  -3 -11   19.32    6.97
   9   3 -11   19.28    6.84
  -9  -3  11   16.13    5.82
  -3   9 -11   15.81    5.76
  -9  -3 -12   24.35    7.99
  -9  -3  12   -0.69    3.75
  -4   9   0    1.13    1.74
   9   4  -1   20.77    2.44
  -4   9   1   17.10    3.89
  -4   9  -1   14.67    4.26
  -4   9  -1   24.54    2.87
  -9  -4  -2   63.07    3.54
  -9  -4   2   70.69    8.06
  -4   9  -2   72.43    8.09
  -9  -4  -2   65.72    3.62
   9   4  -2   58.57    5.19
  -9  -4   3   26.43    5.11
  -9  -4  -3   18.21    4.10
  -9  -4   3   25.34    5.28
   9   4  -3   21.13    3.77
  -4   9  -3   30.76    5.76
  -9  -4  -3   23.34    3.01
  -9  -4  -4    3.06    1.50
  -9  -4   4    2.79    2.32
  -4   9  -4    4.48    2.30
   9   4  -4    1.91    1.74
  -9  -4  -4    0.83    1.46
  -9  -4   4    4.52    3.10
  -4   9  -5   10.16    3.85
  -9  -4  -5    6.85    2.18
   9   4  -5    9.30    3.45
  -9  -4   5    9.02    4.29
  -9  -4  -5    8.96    2.77
  -9  -4   5    8.69    3.60
  -9  -4  -6    0.02    1.05
  -9  -4   6    6.68    2.73
   9   4  -6    1.24    2.57
  -9  -4   6    4.68    2.98
  -4   9  -6    2.15    3.09
  -4   9  -7    3.61    1.69
  -9  -4  -7    6.24    2.88
   9   4  -7    6.41    3.96
  -9  -4   7    2.98    2.66
  -9  -4   7    5.22    2.72
  -9  -4  -8    6.14    3.37
   9   4  -8    4.69    3.45
  -9  -4   8    2.58    3.27
  -4   9  -8    7.10    5.45
  -9  -4  -9    2.41    2.34
   9   4  -9    3.52    3.63
  -9  -4   9    7.22    5.05
  -4   9  -9    3.80    3.64
  -9  -4  10   10.74    5.47
  -9  -4 -10    2.44    3.32
  -4   9 -10    7.38    4.80
   9   4 -10    5.62    3.88
  -9  -4 -11    7.59    4.46
   9   4 -11    9.04    4.22
  -9  -4  11   -2.06    3.16
  -4   9 -11    0.11    2.97
  -9  -4 -12   -1.10    3.35
  -9  -5   0  834.45   12.72
  -5   9   0  830.77   21.31
   9   5   0  796.71   12.47
  -5   9   0  866.73   27.49
   9   5  -1  567.37   13.48
  -9  -5  -1  510.71    9.06
  -5   9  -1  599.48   15.09
  -5   9  -1  566.48   22.48
  -5   9   1  570.54   22.52
  -9  -5   1  570.38   13.60
  -5   9  -2  329.65   17.58
   9   5  -2  323.49   12.42
  -9  -5  -2  309.54    8.86
  -9  -5   2  321.68   17.17
   9   5  -3   98.80    8.00
  -9  -5   3   84.03    9.49
  -9  -5   3  117.37   10.76
  -5   9  -3  116.38   10.80
  -9  -5   4   26.75    5.60
  -5   9  -4   32.33    5.86
  -9  -5  -4   31.88    4.38
   9   5  -4   32.33    5.20
  -9  -5   4   19.98    4.59
  -9  -5   5    8.33    2.74
  -9  -5  -5   12.60    3.38
  -5   9  -5    9.89    5.56
   9   5  -5   13.28    3.92
  -9  -5   5   14.11    4.48
  -9  -5  -5   10.86    2.91
  -5   9  -6    1.48    3.05
  -9  -5  -6    1.34    1.75
   9   5  -6    4.20    3.16
  -9  -5  -6    1.65    1.58
  -9  -5   6    3.38    2.90
  -9  -5   6    0.50    2.01
  -9  -5   7   14.20    4.66
  -9  -5  -7   12.01    3.67
   9   5  -7    9.21    4.18
  -5   9  -7   16.02    5.23
  -9  -5   7   11.45    4.26
  -9  -5   8   28.20    6.10
   9   5  -8   24.70    6.38
  -9  -5  -8   26.18    6.48
  -9  -5   8   21.04    5.99
  -5   9  -8   22.75    6.92
  -5   9  -9   34.58    8.57
   9   5  -9   20.93    6.64
  -9  -5   9   25.95    6.78
  -9  -5  -9   27.43    6.93
   9   5 -10   46.32   10.43
  -9  -5  10   25.95    6.99
  -5   9 -10   24.24    7.56
  -9  -5 -10   40.99    8.64
  -9  -5 -11   19.64    6.80
   9   5 -11   17.36    6.52
  -9  -5  11   19.09    7.33
  -5   9 -11   25.78    8.17
  -9  -5 -12   13.34    6.16
   9   6   0    2.05    1.10
  -6   9   0    3.60    2.58
  -9  -6   0   -0.55    0.67
  -6   9   0   -1.00    1.29
  -9  -6   1    7.91    1.75
  -9  -6  -1    6.17    1.26
  -6   9   1    5.62    2.54
   9   6  -1    7.28    1.71
  -6   9  -1    6.71    1.88
  -6   9  -1    9.68    3.47
  -6   9  -2   87.53    9.40
  -9  -6  -2   85.78    5.27
   9   6  -2   92.57    7.00
  -9  -6   3  109.99   10.94
  -9  -6   3  118.21   10.82
  -6   9  -3  112.71   10.87
   9   6  -3  105.26    8.56
   9   6  -4  178.33   12.36
  -9  -6   4  173.09   13.69
  -6   9  -4  189.90   14.72
   6  -9   4  168.16    6.03
  -9  -6   4  187.32   14.11
  -9  -6   5  247.47   16.72
   9   6  -5  233.72   15.57
  -9  -6   5  216.87   15.87
  -6   9  -5  232.49   16.98
  -9  -6  -6  105.37    9.42
  -6   9  -6   93.47   11.59
   9   6  -6   72.45    9.59
  -9  -6   6   80.21   10.14
  -9  -6   6   92.43   10.48
  -9  -6  -6   85.37    9.07
  -9  -6   7   89.91   10.38
   9   6  -7   94.77   11.87
  -6   9  -7   66.03   10.29
  -9  -6  -7  103.36   11.27
  -9  -6   7   85.26   11.01
  -9  -6  -8  101.71   12.02
  -9  -6   8  132.32   12.77
   9   6  -8   94.58   12.47
  -9  -6   8  114.63   13.50
  -6   9  -8  120.57   14.72
   9   6  -9   37.55    8.26
  -9  -6  -9   60.32    9.82
  -6   9  -9   63.01   11.34
  -9  -6   9   45.36    9.08
  -6   9 -10   15.26    6.68
   9   6 -10   18.86    6.95
  -9  -6  10   29.52    7.93
  -9  -6 -10   11.86    4.82
  -6   9 -11   14.20    6.13
  -9  -6 -11    3.01    2.47
   9   6 -11    4.58    4.03
  -9  -7   0  808.50   17.08
  -7   9   0  798.96   22.95
   9   7   0  764.64   16.73
  -7   9   0  762.96   26.64
   9   7  -1  813.43   19.23
  -9  -7  -1  838.87   16.90
  -7   9   1  839.66   26.13
  -7   9  -1  848.08   21.02
  -7   9  -1  823.41   27.83
  -7   9   1  868.38   28.66
  -7   9  -2  394.35   19.63
   9   7  -2  423.52   15.62
  -9  -7  -2  409.11   12.73
  -9  -7   2  404.94   20.95
  -9  -7   3  154.76   13.10
   9   7  -3  158.00   10.76
  -9  -7   3  162.60   12.64
  -7   9  -3  164.13   13.14
  -9  -7   4   48.03    7.39
   7  -9   4   57.02    4.37
  -7   9  -4   49.96    7.66
   9   7  -4   46.26    6.43
  -9  -7   4   49.61    7.39
  -7   9  -5    1.42    1.76
   9   7  -5   -0.43    2.03
  -9  -7   5   -0.62    1.78
  -9  -7   5   -1.20    2.24
  -7   9  -6    9.19    4.04
  -9  -7   6   17.23    4.84
   9   7  -6   12.67    4.37
  -9  -7   6   12.26    4.29
  -9  -7   7   63.00    9.04
  -7   9  -7   66.79   10.21
   9   7  -7   63.96    9.59
  -9  -7   7   66.23    9.42
  -9  -7  -7   61.63    8.65
  -9  -7   8   68.96    9.59
   9   7  -8   53.31    9.82
  -9  -7   8   46.33    8.86
  -9  -7  -8   53.28    8.79
  -7   9  -8   54.81    9.83
  -9  -7  -9   48.36    9.19
   9   7  -9   28.55    7.52
  -7   9  -9   37.31    8.64
  -9  -7   9   43.20    9.02
  -7   9 -10   75.89   12.94
   9   7 -10   50.66   10.74
  -9  -7 -10   63.08   10.82
  -9  -7 -11   37.22    9.39
   9   7 -11   50.87   11.22
  -7   9 -11   47.99   10.99
  -8   9   0    1.23    1.97
   9   8   0    1.29    1.18
  -8   9   0    1.52    2.33
  -8   9  -1   65.38    8.04
  -9  -8  -1   59.13    5.07
  -8   9   1   75.17    8.16
  -9  -8  -1   58.29    8.04
  -8   9  -1   64.19    6.29
   9   8  -1   60.59    5.77
  -9  -8   2  151.88   13.27
  -8   9   2  159.77   12.96
   9   8  -2  181.51   10.95
  -8   9  -2  177.34   13.20
  -9  -8  -2  159.51   12.97
  -9  -8  -3  234.72   15.62
  -9  -8   3  280.18   18.25
   8  -9   3  295.72   11.74
   9   8  -3  285.87   15.00
  -8   9  -3  293.77   17.66
  -9  -8   4  500.61   24.51
   9   8  -4  475.53   21.25
  -9  -8   4  506.78   23.03
  -8   9  -4  512.37   24.35
   9   8  -5  469.36   22.82
  -8   9  -5  473.61   24.52
  -9  -8   5  491.39   24.59
  -9  -8   5  478.58   23.19
  -9  -8   6  510.36   25.51
   9   8  -6  484.84   25.11
  -8   9  -6  495.10   26.38
  -9  -8   6  499.90   24.72
   9   8  -7  382.74   24.07
  -9  -8   7  406.56   23.09
  -8   9  -7  377.71   24.28
  -9  -8   7  395.07   22.98
  -9  -8   8  243.68   17.97
  -8   9  -8  217.20   19.65
  -9  -8   8  209.12   17.65
  -9  -8  -8  237.52   18.59
   9   8  -8  242.82   20.26
  -8   9  -9  126.87   15.63
   9   8  -9   94.21   13.63
  -9  -8   9  109.40   13.29
  -9  -8  -9  132.15   14.73
  -9  -8 -10   30.15    7.82
   9   8 -10   32.43    8.48
  -8   9 -10   36.12    9.22
  -8   9 -11   15.03    6.60
   9   8 -11   -2.83    5.04
  -9   9   0   30.96    5.47
   9   9   0   20.26    3.45
  -9   9   0   27.56    4.66
  -9   9  -1   36.06    5.07
  -9   9  -1   46.58    6.79
   9   9  -1   34.61    4.76
  -9  -9  -1   46.45    7.54
  -9   9   1   42.40    6.42
  -9   9   2  112.82   11.34
  -9  -9   2   81.22    9.96
  -9  -9  -2   77.47    9.25
  -9   9  -2   83.88    9.40
   9   9  -2   79.50    7.53
  -9   9  -3   38.38    6.71
  -9  -9  -3   29.38    5.91
  -9  -9   3   33.75    6.42
  -9   9   3   24.24    5.75
   9   9  -3   26.30    5.04
  -9  -9   4    2.83    1.62
  -9  -9   4    1.79    2.41
   9   9  -4    0.67    1.44
  -9   9  -4    1.66    2.62
  -9  -9  -4    1.83    1.99
  -9  -9   5    3.12    3.06
  -9   9  -5    5.27    2.91
  -9  -9  -5    0.66    2.10
  -9  -9   5    5.71    4.05
   9   9  -5    2.56    2.22
  -9  -9  -6    3.29    2.09
  -9  -9   6    3.08    2.70
  -9   9  -6    8.69    5.00
   9   9  -6    6.46    4.08
  -9  -9   6    3.50    2.74
  -9   9  -7    5.47    3.01
  -9  -9   7    1.71    2.22
   9   9  -7   -1.58    1.86
  -9  -9   7    2.13    3.11
  -9   9  -8    1.74    2.86
   9   9  -8   -1.83    2.98
  -9  -9   8    3.07    3.29
  -9  -9   8    6.14    3.92
  -9  -9  -8    2.96    3.04
  -9   9  -9    7.34    4.91
  -9  -9  -9   -1.30    3.72
   9   9  -9    5.97    3.71
  -9  -9 -10   12.73    4.84
  -9   9 -10    8.92    5.27
   9   9 -10    4.50    3.17
  -9   9 -11    4.76    3.42
   9   9 -11    4.56    3.63
   9  10   0   -0.32    1.27
  -9 -10   0    4.25    2.54
 -10   9   0    0.01    1.48
 -10   9   0    3.04    2.12
 -10   9  -1    5.41    3.06
 -10   9  -1    6.56    2.32
   9  10  -1    3.65    2.23
  -9 -10   1    5.59    3.36
  -9 -10  -1    7.77    4.19
 -10   9   1    2.97    3.35
  -9 -10  -2   17.27    5.10
 -10   9   2   15.65    4.86
 -10   9  -2   14.27    4.77
  -9 -10   2   18.92    5.65
   9  10  -2   18.99    4.29
  -9 -10   3   18.54    5.42
  -9 -10  -3   21.36    5.47
   9  10  -3   21.97    4.61
 -10   9  -3   24.64    5.52
 -10   9   3   27.20    6.50
   9  10  -4    5.42    2.79
  -9 -10  -4   -3.00    2.79
 -10   9   4   -1.18    2.69
  -9 -10   4    3.55    2.30
 -10   9  -4    1.21    2.22
   9  10  -5   21.88    5.72
 -10   9  -5   17.37    5.31
  -9 -10   5   17.91    4.96
  -9 -10  -5   18.91    4.75
 -10   9   5   23.42    6.78
  -9 -10   5   19.71    5.05
  -9 -10  -6   33.33    6.24
  -9 -10   6   43.13    7.95
 -10   9  -6   42.11    7.93
  -9 -10   6   28.81    5.95
   9  10  -6   34.38    7.21
  -9 -10   7   14.00    4.57
 -10   9  -7    2.69    2.28
  -9 -10   7    9.41    4.13
   9  10  -7    4.80    4.18
 -10   9  -8    9.44    4.41
   9  10  -8    7.10    4.87
  -9 -10   8   13.05    4.81
 -10   9  -9   13.30    6.12
   9  10  -9   16.62    6.07
  -9 -10  -9   10.71    4.56
 -10   9 -10   -1.46    2.16
   9  10 -10    0.41    2.98
 -10   9 -11   -3.84    3.67
   9  10 -11    2.51    3.51
 -10   8   0 1206.05   32.57
   8  10   0 1169.27   27.80
 -10   8   0 1162.16   32.41
   8  10  -1  924.60   25.73
  -8 -10  -1  883.83   32.01
 -10   8   1  965.60   31.29
 -10   8  -1  941.13   26.80
 -10   8  -1  903.68   28.73
  -8 -10  -2  496.94   23.96
 -10   8  -2  492.33   21.67
  -8 -10   2  472.44   24.24
 -10   8   2  476.76   23.32
   8  10  -2  515.55   20.29
   8  10  -3  269.27   15.81
 -10   8  -3  286.71   16.98
  -8 -10  -3  268.38   17.34
  -8 -10   3  273.22   18.50
 -10   8   3  262.45   18.54
  -8 -10  -4  160.52   13.36
 -10   8   4  179.50   16.38
   8  10  -4  148.99   12.65
  -8 -10   4  157.89   14.38
 -10   8  -4  166.59   13.48
  -8 -10  -5   26.21    5.56
  -8 -10   5   31.42    6.77
 -10   8   5   25.13    6.64
 -10   8  -5   21.56    5.25
   8  10  -5   25.51    6.27
  -8 -10   5   25.49    5.29
  -8 -10  -6   16.02    4.23
  -8 -10   6   16.38    4.64
 -10   8  -6   13.48    4.96
  -8 -10   6   12.50    4.44
   8  10  -6   12.75    4.48
  -8 -10   7   21.41    5.23
 -10   8  -7   20.49    5.63
  -8 -10   7   20.82    4.86
   8  10  -7   20.97    6.03
 -10   8   8   13.03    4.73
 -10   8  -8   14.95    4.94
  -8 -10   8   12.38    4.61
   8  10  -8   13.98    5.42
 -10   8  -9   24.19    6.64
  -8 -10  -9   22.91    6.68
   8  10  -9   24.80    7.09
  -8 -10 -10   34.55    8.07
 -10   8 -10   66.19   12.13
   8  10 -10   35.88    9.47
 -10   8 -11   45.96   10.53
   8  10 -11   51.24   11.54
  -8 -10 -11   58.41   12.04
   7  10   0    3.09    2.35
 -10   7   0   -2.82    1.89
 -10   7   0   -0.92    1.55
 -10   7  -1    0.68    1.55
 -10   7  -1   -0.51    1.15
   7  10   1    0.74    1.25
 -10   7   1   -0.97    1.60
   7  10  -1    1.29    2.13
  -7 -10   2    1.38    2.01
  -7 -10  -2    3.74    2.67
 -10   7  -2    2.12    1.73
 -10   7   2    1.81    2.33
   7  10  -2    4.70    2.38
  -7 -10  -3    1.49    2.11
   7  10  -3    4.74    2.48
  -7 -10   3    2.70    2.84
 -10   7   3    5.00    3.25
 -10   7  -3    6.64    2.52
  -7 -10   4   13.40    4.50
 -10   7  -4   12.05    4.03
  -7 -10  -4   11.27    3.81
 -10   7   4   10.36    4.54
   7  10  -4    2.67    1.78
   7  10  -5   16.60    4.99
  -7 -10   5   10.90    4.52
 -10   7  -5   14.60    4.15
  -7 -10  -5    7.60    3.26
 -10   7   5   14.05    5.76
  -7 -10   5   10.48    3.22
 -10   7  -6   27.63    5.91
 -10   7   6   19.37    5.99
   7  10  -6   22.83    6.04
  -7 -10   6   36.55    6.96
  -7 -10   6   28.71    5.32
 -10   7  -7   18.81    5.30
  -7 -10   7   28.79    5.78
  -7 -10   7   24.54    5.89
   7  10  -7   30.76    6.92
 -10   7   8    4.41    3.70
 -10   7  -8    0.13    2.54
  -7 -10   8    6.96    4.13
   7  10  -8    3.45    3.15
 -10   7  -9    1.08    2.49
   7  10  -9    4.26    4.65
 -10   7 -10    5.81    3.99
  -7 -10 -10    1.96    3.39
   7  10 -10    2.44    3.44
 -10   7 -11   -1.29    2.99
  -7 -10 -11    8.83    4.89
   7  10 -11    4.38    4.83
  10  -7 -11   -0.88    2.62
   6  10   0    3.19    2.22
 -10   6   0    1.80    1.77
 -10   6   0    4.32    1.89
   6  10  -1   11.05    3.04
 -10   6  -1   11.75    2.85
   6  10   1   17.82    3.96
 -10   6   1    8.05    3.26
 -10   6  -1   14.21    3.41
 -10   6  -2    0.54    1.22
 -10   6   2    1.28    1.60
   6  10  -2    0.02    1.40
 -10   6  -3    2.44    1.97
 -10   6   3    5.98    3.27
   6  10  -3    0.08    1.75
  -6 -10   3    3.28    2.49
   6  10  -4    8.10    3.28
  -6 -10   4    9.37    4.04
 -10   6  -4   11.60    3.68
 -10   6   4   15.58    5.33
 -10   6  -5    2.46    2.26
  -6 -10   5   -3.23    2.44
 -10   6   5    1.41    2.03
   6  10  -5    1.81    2.43
  -6 -10   5    3.16    2.10
  -6 -10   6   25.29    5.69
 -10   6  -6   14.60    4.46
 -10   6   6   25.80    6.92
  -6 -10   6   17.21    4.05
   6  10  -6   15.05    4.96
 -10   6  -7   25.52    6.31
 -10   6   7   28.63    6.55
  -6 -10   7   31.58    6.48
 -10   6   7   27.60    7.82
  -6 -10   7   24.27    5.16
   6  10  -7   22.97    6.20
 -10   6   8    4.42    3.79
 -10   6   8    0.24    3.18
  -6 -10   8   -0.04    2.29
   6  10  -8   -1.72    2.75
 -10   6  -8    3.66    2.72
 -10   6   9    1.16    3.44
 -10   6  -9   -1.72    1.90
   6  10  -9   -2.32    2.70
 -10   6  10   -3.34    3.09
  -6 -10 -10   -0.67    2.86
   6  10 -10    3.35    3.21
 -10   6 -10    4.12    4.76
  10  -6 -10   -2.31    3.30
  10  -6 -11    4.26    3.95
  -6 -10 -11   -0.84    2.37
 -10   6  11    2.97    3.77
   6  10 -11    1.11    2.41
 -10   6 -11    6.28    4.83
   5  10   0    0.15    1.65
 -10   5   0    5.58    2.84
 -10   5   0    0.66    0.94
   5  10  -1   18.56    3.85
 -10   5  -1   20.63    3.80
 -10   5   1   19.52    4.73
   5  10   1   18.82    3.90
 -10   5  -1   20.48    3.97
 -10   5  -2    1.00    1.10
   5  10  -2    0.49    2.32
 -10   5   2    5.38    3.40
   5  10  -3   34.50    6.01
 -10   5  -3   40.83    5.52
 -10   5   3   35.89    6.81
 -10   5  -4  179.52   12.37
 -10   5   4  159.49   14.68
   5  10  -4  158.87   13.17
   5  10  -5   47.17    7.76
 -10   5  -5   46.49    6.79
  -5 -10   5   36.89    6.46
 -10   5   5   50.68    9.02
  -5 -10   5   50.55    6.02
 -10   5  -6   15.75    4.49
 -10   5   6   18.99    5.72
  -5 -10   6   20.43    4.96
 -10   5   6   13.54    5.50
  -5 -10   6   25.23    4.60
   5  10  -6   19.67    5.46
  -5 -10   7   16.50    4.55
 -10   5   7   18.31    6.20
 -10   5   7   26.21    6.15
  -5 -10   7   15.13    3.88
 -10   5  -7   15.28    4.84
   5  10  -7   15.98    5.31
 -10   5   8   16.61    4.93
  -5 -10   8   14.59    4.33
 -10   5   8   15.95    6.79
   5  10  -8   12.88    4.61
 -10   5  -8   20.09    5.99
 -10   5   9   12.36    6.19
   5  10  -9   11.73    4.39
 -10   5  -9   14.04    5.47
  10  -5 -10    5.62    4.64
 -10   5  10   18.14    7.81
   5  10 -10   18.94    6.92
 -10   5 -10   11.98    6.00
  -5 -10 -11    5.26    4.50
  10  -5 -11   -0.09    2.60
 -10   5  11    1.54    2.26
   5  10 -11    0.55    2.82
 -10   5 -11    4.27    4.73
 -10   5 -12    3.22    4.28
 -10   4   0  911.17   27.79
   4  10   0  902.90   26.25
   4  10  -1  674.06   23.16
 -10   4   1  640.29   24.66
   4  10   1  655.96   22.33
 -10   4  -1  677.50   23.18
 -10   4  -1  669.07   19.01
   4  10  -2  357.98   17.67
 -10   4   2  330.87   18.89
 -10   4  -2  354.22   14.42
 -10   4   3  337.68   19.82
   4  10  -3  322.73   17.73
 -10   4  -3  323.27   14.64
   4  10  -4   88.24    9.94
 -10   4  -4   88.12    8.33
 -10   4   4   90.83   11.21
 -10   4   5    4.68    3.00
 -10   4   5    0.35    2.23
   4  10  -5    1.56    1.75
 -10   4  -5    2.55    2.12
  -4 -10   5    1.48    1.72
   4  10  -6    7.88    3.80
 -10   4   6    5.03    2.84
  -4 -10   6   13.98    4.25
 -10   4   6    2.18    2.58
 -10   4  -6    5.78    3.17
  -4 -10   6    2.22    1.43
  -4 -10   7   13.90    4.20
 -10   4   7   14.35    5.65
 -10   4   7   19.96    5.51
 -10   4  -7   19.21    5.39
   4  10  -7   11.32    4.00
 -10   4   8    9.85    3.97
 -10   4   8    7.98    3.80
 -10   4  -8    5.25    2.64
   4  10  -8    6.51    3.52
  10  -4  -9   25.32    7.02
 -10   4   9   18.70    6.98
 -10   4  -9   25.27    6.42
   4  10  -9   47.33   10.17
  10  -4 -10   45.89   10.79
 -10   4  10   60.33   12.58
 -10   4 -10   59.29   10.62
   4  10 -10   34.53    8.59
 -10   4 -11   28.69    8.52
  -4 -10 -11   34.22    9.05
  10  -4 -11   29.74    9.20
 -10   4  11   41.68   10.85
   4  10 -11   40.48   10.38
 -10   4 -12   24.23    7.78
 -10   3   0    2.31    1.95
   3  10   0   -0.96    1.60
 -10   3   1   -0.21    1.81
 -10   3  -1    0.19    0.81
   3  10   1    0.56    1.76
   3  10  -1   -0.65    1.55
 -10   3   2  351.34   19.10
   3  10  -2  347.19   17.53
 -10   3  -2  377.71   13.79
 -10   3  -3  414.81   15.64
   3  10  -3  387.75   19.43
 -10   3   3  401.60   21.58
   3  10  -3  440.47   14.23
 -10   3   4  407.72   22.05
   3  10  -4  394.54   20.80
 -10   3  -4  421.32   17.43
 -10   3   4  376.43   22.00
 -10   3  -5  397.35   18.58
 -10   3   5  334.77   22.02
  -3 -10   5  398.92   14.11
 -10   3   5  375.79   21.44
   3  10  -5  363.05   21.37
 -10   3   6  433.60   23.26
   3  10  -6  401.97   23.85
 -10   3   6  371.39   24.54
  -3 -10   6  440.56   16.25
 -10   3  -6  437.69   21.35
  -3 -10   7  317.94   18.29
   3  10  -7  286.53   21.24
 -10   3   7  286.05   22.73
 -10   3  -7  314.43   19.49
 -10   3   7  289.53   19.22
 -10   3   8  112.86   15.12
   3  10  -8  130.73   15.28
 -10   3   8  130.25   13.11
 -10   3  -8  119.19   12.96
  10  -3  -8  103.07   13.60
 -10   3   9  129.30   17.11
  10  -3  -9  148.41   17.16
 -10   3  -9  142.91   15.23
   3  10  -9  139.06   16.71
  10  -3 -10   24.02    7.62
 -10   3 -10   54.06   10.56
   3  10 -10   24.86    7.58
 -10   3  10   30.03    9.14
 -10   3  11    8.94    6.23
 -10   3 -11    2.41    3.05
  -3 -10 -11    7.24    5.59
   3  10 -11    1.46    3.86
 -10   3 -12   -5.27    4.07
 -10   2   0  184.01   12.59
   2  10   0  183.64   12.18
  10  -2   0  182.66    8.24
 -10   2   1  321.66   17.32
   2  10  -1  354.41   17.25
 -10   2  -1  353.17   11.30
  10  -2   1  373.10   11.52
   2  10   1  353.09   16.94
 -10   2  -2  127.65    7.29
 -10   2   2  138.01   12.04
   2  10  -2  140.19    7.27
   2  10  -2  118.86   10.34
   2  10  -3   90.76    5.70
 -10   2  -3   92.30    7.00
 -10   2   3   87.37   10.16
   2  10  -3   78.21    8.89
 -10   2   4    0.80    1.95
   2  10  -4    6.17    3.65
 -10   2   4   -0.97    2.79
 -10   2  -4    0.69    1.09
   2  10  -5    0.89    2.38
 -10   2   5    3.52    2.81
 -10   2   5    2.04    2.31
 -10   2  -5    1.54    1.54
  -2 -10   5    2.27    1.16
   2  10  -6    0.59    2.29
 -10   2   6    1.29    1.61
 -10   2  -6    4.42    2.41
 -10   2   6    4.96    3.39
 -10   2  -6    5.52    2.86
  -2 -10   6    3.31    1.42
 -10   2   7   11.85    4.88
 -10   2   7   14.35    4.53
 -10   2  -7   20.06    5.14
  10  -2  -7    6.31    3.46
   2  10  -7   11.09    4.46
 -10   2   8   -2.96    4.19
 -10   2  -8    7.13    3.29
   2  10  -8    0.25    2.54
  10  -2  -8    0.22    2.70
  10  -2  -9   19.98    6.16
 -10   2   9   12.07    5.04
 -10   2  -9   22.04    6.07
   2  10  -9   21.72    6.71
  10  -2 -10   16.18    6.58
 -10   2  10   17.18    8.15
 -10   2 -10    7.79    3.79
   2  10 -10    8.42    5.72
  10  -2 -11   14.05    6.73
 -10   2  11   12.08    5.42
 -10   2 -11    9.45    4.13
   2  10 -11   19.66    7.12
 -10   2 -12   16.55    5.85
  10  -1   0    0.39    0.62
 -10   1   0    1.13    2.54
   1  10   0    1.06    1.69
   1  10   1   32.97    5.36
   1  10  -1   34.22    5.47
  10  -1   1   30.50    2.83
  10  -1  -1   33.51    3.56
 -10   1   1   29.28    5.23
 -10   1  -1   31.61    2.86
 -10   1  -2   47.05    6.64
   1  10  -2   45.69    3.61
   1  10  -2   41.28    6.23
 -10   1   2   43.49    6.74
  10  -1   2   42.46    3.85
 -10   1  -2   48.99    4.06
 -10   1  -3  301.57   16.13
   1  10  -3  304.43   17.48
 -10   1  -3  325.74   12.22
 -10   1   3  329.57   19.08
 -10   1  -4  304.47   13.72
   1  10  -4  300.77   18.31
 -10   1   4  287.63   19.08
 -10   1   4  298.86   18.43
 -10   1  -4  298.76   15.66
 -10   1   5  489.81   24.03
 -10   1  -5  525.80   20.06
   1  10  -5  483.72   24.78
 -10   1  -5  515.47   19.99
 -10   1   5  497.34   26.29
  10  -1  -6  429.89   23.09
 -10   1   6  437.49   23.10
 -10   1  -6  485.76   18.40
   1  10  -6  478.96   26.18
 -10   1   6  438.86   25.92
  -1 -10   6  465.59   13.82
 -10   1  -6  465.31   20.99
  10  -1  -7  366.57   22.99
 -10   1  -7  386.57   20.94
 -10   1   7  386.48   22.08
   1  10  -7  356.36   23.94
 -10   1   7  382.40   25.73
  10  -1  -8  220.95   19.12
   1  10  -8  253.74   21.40
 -10   1  -8  257.10   18.57
 -10   1   8  271.12   22.71
 -10   1  -9   81.49   11.23
  10  -1  -9   54.76   10.76
 -10   1   9   67.72   12.54
   1  10  -9   66.28   11.88
  10  -1 -10   39.87    9.32
 -10   1 -10   38.30    8.78
 -10   1  10   39.90    9.72
   1  10 -10   45.83   10.56
  10  -1 -11    3.92    3.58
 -10   1 -11    4.67    3.33
 -10   1  11   10.31    5.16
   1  10 -11    8.13    4.97
 -10   1  12    9.50    4.51
 -10   1 -12   16.38    6.56
   0  10   0  206.05   13.26
 -10   0   0  221.83   13.99
  10   0   0  194.68    6.13
   0  10  -1   11.61    3.62
  10   0   1    8.47    1.22
 -10   0  -1   13.50    4.13
  10   0  -1   10.56    1.91
 -10   0   1   10.54    3.64
   0  10   1    9.47    3.08
 -10   0  -2    3.29    1.93
  10   0   2    1.64    0.74
 -10   0   2    2.40    2.65
   0  10  -2    0.81    1.70
 -10   0  -2    2.46    0.96
   0  10  -2    0.97    0.59
 -10   0  -3    2.51    1.91
 -10   0  -3   -0.47    0.78
   0  10  -3    2.07    2.65
 -10   0   3   -1.58    2.32
 -10   0   4    8.53    3.61
 -10   0   4    7.95    3.45
   0  10  -4    3.45    1.73
 -10   0  -4   13.20    3.05
 -10   0  -4   11.20    3.26
 -10   0  -5    0.97    1.96
 -10   0  -5    0.26    1.40
  10   0  -5   -1.07    1.83
   0  10  -5    3.96    2.10
 -10   0   5    6.58    3.79
 -10   0   5    1.46    1.57
  10   0  -6    6.50    3.47
 -10   0  -6    6.14    3.13
 -10   0  -6    6.16    2.22
   0  10  -6   10.10    4.62
 -10   0   6   17.36    6.07
 -10   0   6    9.73    3.81
  10   0  -7    1.61    3.52
 -10   0   7   -1.77    3.64
   0  10  -7   -1.17    2.49
 -10   0  -7    1.18    2.39
 -10   0  -8   11.51    4.83
  10   0  -8    4.64    3.08
 -10   0   8    3.42    3.65
   0  10  -8    8.97    4.46
  10   0  -9   -2.56    2.83
 -10   0  -9   -0.01    2.00
 -10   0   9    9.50    5.48
   0  10  -9    3.83    4.82
  10   0 -10    5.27    4.49
 -10   0  10    0.91    2.68
   0  10 -10    0.46    2.30
 -10   0 -11    2.61    2.98
  10   0 -11   -0.35    2.21
 -10   0  11    8.94    6.03
   0  10 -11    6.47    4.80
 -10   0 -12    6.10    3.57
 -10   0  12    4.97    5.45
  -1  10   0    4.34    2.88
 -10  -1   1   46.31    6.87
 -10  -1  -1   42.34    6.38
  10   1  -1   46.62    3.63
  -1  10   1   46.09    6.62
  -1  10  -1   37.83    6.03
  10   1  -2    6.27    2.17
 -10  -1  -2    4.08    2.34
 -10  -1  -2    6.48    1.20
 -10  -1   2   10.03    3.62
  -1  10  -2   10.95    3.58
  10   1  -3   24.79    4.26
  -1  10  -3   19.27    4.75
 -10  -1   3   20.12    4.93
 -10  -1  -3   28.20    4.93
 -10  -1  -3   22.77    2.89
  -1  10  -4   45.34    7.55
 -10  -1   4   41.87    7.13
  10   1  -4   47.30    6.31
 -10  -1  -4   45.67    6.09
 -10  -1  -4   45.46    4.98
 -10  -1   4   51.16    8.03
  -1  10  -5    0.16    2.00
  10   1  -5    3.07    2.56
 -10  -1  -5    6.23    2.42
 -10  -1  -5    0.57    1.95
 -10  -1   5    1.50    1.83
 -10  -1   5    0.79    2.45
 -10  -1   6    5.71    3.88
 -10  -1  -6    5.87    2.48
  10   1  -6    5.97    3.21
  -1  10  -6    6.22    3.87
  10   1  -7   10.64    3.63
 -10  -1  -7   20.56    5.13
 -10  -1   7   12.51    4.59
  -1  10  -7   25.03    6.49
 -10  -1  -8    0.26    2.04
  10   1  -8    4.18    3.00
 -10  -1   8    2.74    3.35
  -1  10  -8   -2.83    4.60
 -10  -1  -9    4.19    3.56
 -10  -1   9    8.27    4.96
  10   1  -9   -2.07    2.63
  -1  10  -9    1.24    3.28
 -10  -1 -10    0.72    2.07
 -10  -1  10    1.81    2.72
  10   1 -10    4.96    3.86
  -1  10 -10    0.01    2.70
 -10  -1 -11   -4.65    3.19
  10   1 -11   -0.58    3.53
 -10  -1  11    4.43    4.03
  -1  10 -11    3.29    2.53
 -10  -1 -12    0.67    3.38
 -10  -1  12    1.36    3.45
  -2  10   0  131.17   10.95
  -2  10  -1   31.43    5.69
  10   2  -1   29.45    2.65
  -2  10   1   27.08    4.88
 -10  -2  -1   28.90    5.37
 -10  -2   1   31.33    5.65
 -10  -2  -2   27.89    5.11
  10   2  -2   27.84    3.59
 -10  -2   2   30.90    5.85
  -2  10  -2   22.17    4.80
 -10  -2   3   34.74    6.14
 -10  -2  -3   30.62    3.17
  -2  10  -3   29.57    5.82
  10   2  -3   27.57    4.35
 -10  -2   3   30.28    5.95
 -10  -2  -3   29.00    5.09
 -10  -2   4   53.70    7.99
  10   2  -4   53.63    6.61
  -2  10  -4   49.31    7.65
 -10  -2   4   59.48    8.61
 -10  -2  -4   56.80    5.49
  -2  10  -5   45.45    7.85
 -10  -2   5   50.14    7.69
  10   2  -5   38.05    6.37
 -10  -2  -5   48.64    5.85
 -10  -2   5   43.96    7.81
  -2  10  -6   10.13    4.56
 -10  -2  -6    2.28    2.10
 -10  -2   6    0.21    2.61
  10   2  -6    2.81    2.33
  -2  10  -7    3.63    4.02
  10   2  -7   -3.29    2.29
 -10  -2  -7   -1.56    1.96
 -10  -2   7    5.32    5.11
  -2  10  -8   18.42    6.08
  10   2  -8   15.91    5.17
 -10  -2   8   17.67    5.96
 -10  -2  -8   15.92    4.72
 -10  -2  -9   17.27    5.61
  10   2  -9   13.26    4.64
 -10  -2   9   13.34    5.99
  -2  10  -9    9.45    4.43
  10   2 -10    5.39    3.69
 -10  -2 -10    1.87    1.86
 -10  -2  10    0.22    2.58
  -2  10 -10    6.19    4.80
  -2  10 -11    9.18    4.81
 -10  -2  11    7.39    5.78
 -10  -2 -11   -0.06    2.80
  10   2 -11    2.01    4.16
 -10  -2 -12   16.03    6.59
 -10  -2  12    0.37    4.47
  -3  10   0   -0.13    1.91
  10   3  -1   23.12    2.29
  -3  10  -1   29.81    5.48
  -3  10   1   28.65    5.65
 -10  -3   1   22.51    4.72
  10   3  -2  115.32    7.05
  -3  10  -2  124.03   11.23
 -10  -3   2   97.78    9.89
 -10  -3  -3  461.13   12.04
 -10  -3   3  424.82   21.37
  -3  10  -3  478.06   22.45
  10   3  -3  435.85   16.25
 -10  -3   3  458.35   22.15
 -10  -3  -4  384.93   13.90
 -10  -3   4  388.77   20.75
 -10  -3   4  336.03   19.95
  -3  10  -4  380.83   21.03
  10   3  -4  359.07   16.88
  10   3  -5  420.94   20.38
 -10  -3  -5  477.08   18.13
  -3  10  -5  411.96   23.14
 -10  -3   5  418.65   23.23
 -10  -3   5  441.62   22.43
 -10  -3  -6  246.91   14.68
 -10  -3   6  219.62   16.03
 -10  -3   6  226.03   17.96
  -3  10  -6  230.90   18.40
  10   3  -6  224.48   16.31
 -10  -3  -7  199.95   14.89
  10   3  -7  162.27   15.08
  -3  10  -7  193.86   17.77
 -10  -3   7  143.75   15.14
  -3  10  -8  126.48   15.28
 -10  -3  -8  144.05   13.71
 -10  -3   8  128.37   15.02
  10   3  -8  107.18   13.33
  -3  10  -9   64.69   11.75
  10   3  -9   53.69   10.04
 -10  -3   9   76.93   12.51
 -10  -3  -9   62.16    9.77
  10   3 -10   28.15    7.99
 -10  -3 -10   37.66    8.20
 -10  -3  10   18.41    6.46
  -3  10 -10   25.08    7.41
  10   3 -11    1.91    3.58
 -10  -3 -11   -1.31    3.11
 -10  -3  11    3.56    3.88
  -3  10 -11    2.64    4.30
 -10  -3  12   -1.23    4.37
  -4  10   0  431.33   20.25
  -4  10   1  454.20   20.84
  10   4  -1  408.58   10.08
  -4  10  -1  422.43   20.23
  -4  10  -1  441.75   12.50
  10   4  -2  405.02   13.27
  -4  10  -2  400.13   20.06
 -10  -4  -2  412.60    7.26
 -10  -4   2  435.35   20.90
  10   4  -3  157.98    9.89
 -10  -4   3  149.84   12.93
 -10  -4  -3  168.84    7.46
 -10  -4   3  162.03   13.15
  -4  10  -3  178.00   13.83
 -10  -4  -4   78.88    6.36
 -10  -4   4   83.94    9.67
  -4  10  -4   99.18   11.00
  10   4  -4   80.68    8.21
 -10  -4   4   96.43   10.65
 -10  -4   5   67.77    8.98
  10   4  -5   65.22    8.22
 -10  -4   5   65.35    9.35
  -4  10  -5   69.06    9.63
 -10  -4  -5   69.73    6.96
 -10  -4  -6    0.70    1.94
  -4  10  -6    3.70    2.64
  10   4  -6    2.36    2.61
 -10  -4   6   -0.69    2.25
 -10  -4   6   -1.62    2.16
  -4  10  -7    1.20    2.72
 -10  -4  -7    2.33    2.14
 -10  -4   7    1.47    1.62
  10   4  -7    0.23    1.82
 -10  -4   7   -1.78    2.52
 -10  -4  -8   58.20    8.68
  -4  10  -8   69.15   11.58
  10   4  -8   52.11    9.39
 -10  -4   8   49.59    9.40
  -4  10  -9  133.57   16.21
 -10  -4  -9  127.86   13.89
  10   4  -9  110.75   14.49
 -10  -4   9   96.60   13.84
 -10  -4 -10   56.85   10.15
  -4  10 -10   76.99   13.55
  10   4 -10   45.36   10.05
 -10  -4  10   54.10   10.78
  -4  10 -11   62.79   12.65
 -10  -4 -11   62.86   11.40
  10   4 -11   33.75    8.95
 -10  -4  11   49.14   10.44
  10   5   0    1.52    0.62
  -5  10   0    3.35    2.49
  10   5  -1   66.13    4.40
  -5  10   1   61.89    8.04
  -5  10  -1   67.45    8.19
  -5  10  -1   74.69    5.46
  -5  10  -2   63.88    8.12
 -10  -5   2   54.82    7.78
 -10  -5  -2   50.17    3.12
  -5  10  -2   52.38    3.46
  10   5  -2   55.43    5.13
 -10  -5  -2   50.79    3.18
 -10  -5   2   48.65    7.10
 -10  -5  -3  158.80    7.51
 -10  -5  -3  171.54    7.92
 -10  -5   3  171.01   13.58
  -5  10  -3  154.26   13.01
 -10  -5   3  152.07   13.06
  10   5  -3  182.15   10.80
  10   5  -4  120.27   10.03
 -10  -5  -4  130.99    8.45
 -10  -5   4  121.87   11.85
  -5  10  -4  124.44   12.09
 -10  -5   4  116.85   11.66
 -10  -5   5  271.65   18.71
 -10  -5   5  266.55   17.84
 -10  -5  -5  316.17   15.10
  10   5  -5  276.68   16.64
  -5  10  -5  295.26   19.72
 -10  -5  -6  152.31   11.85
  -5  10  -6  144.44   14.55
  10   5  -6  161.35   13.99
 -10  -5   6  165.93   15.26
 -10  -5   6  176.26   14.81
 -10  -5   7  163.58   14.32
 -10  -5  -7  152.54   13.13
  10   5  -7  152.41   14.70
 -10  -5   7  125.95   13.95
  -5  10  -7  157.91   16.13
 -10  -5  -8   71.03    9.69
 -10  -5   8   80.61   10.17
 -10  -5   8   57.49    9.96
  10   5  -8   57.03    9.69
  -5  10  -8   58.62   10.21
  -5  10  -9   35.28    8.47
 -10  -5  -9   35.31    7.28
  10   5  -9   45.57    9.63
 -10  -5   9   35.57    8.39
 -10  -5 -10   38.04    8.11
  10   5 -10   22.71    7.15
 -10  -5  10   28.11    7.88
  -5  10 -10   32.60    8.62
 -10  -5  11    8.65    5.32
  10   5 -11    3.36    4.56
  -5  10 -11   -1.03    2.61
 -10  -6   0  364.19    9.30
  -6  10   0  384.78   15.52
  -6  10   0  374.06   19.20
  10   6   0  356.12    9.21
 -10  -6  -1  350.40    8.32
 -10  -6  -1  342.10   18.78
  -6  10   1  368.41   19.42
  -6  10  -1  353.84   18.92
  -6  10  -1  380.77   13.39
  10   6  -1  385.13   11.71
 -10  -6   1  385.12   11.81
 -10  -6   2  240.37   16.47
  10   6  -2  240.35   11.08
  -6  10  -2  247.34   16.22
  -6  10  -2  246.75    8.71
 -10  -6  -2  252.48    8.19
 -10  -6   3  185.86   14.65
  10   6  -3  175.45   10.94
 -10  -6   3  188.34   14.17
 -10  -6  -3  169.77    8.29
  -6  10  -3  174.56   13.93
 -10  -6   4   93.35   10.67
  -6  10  -4   91.22   10.56
  10   6  -4   83.79    8.64
 -10  -6   4   97.23   10.62
  -6  10  -5   45.50    8.22
 -10  -6  -5   34.02    5.26
  10   6  -5   27.52    5.55
 -10  -6   5   28.29    6.21
 -10  -6   5   44.62    7.30
 -10  -6  -6    0.96    1.30
  -6  10  -6    4.06    2.35
 -10  -6   6    3.18    2.88
  10   6  -6    1.16    1.68
 -10  -6   6    3.87    3.39
 -10  -6  -7   10.14    4.36
 -10  -6   7    0.56    1.94
  10   6  -7    6.91    4.01
 -10  -6   7    8.04    3.79
  -6  10  -7    2.25    2.05
 -10  -6  -8   43.98    7.95
 -10  -6   8   40.55    7.55
 -10  -6   8   39.65    8.17
  10   6  -8   49.26    9.18
  -6  10  -8   38.26    8.39
 -10  -6  -9   72.03   10.64
  -6  10  -9   77.95   12.68
  10   6  -9   85.00   12.72
 -10  -6   9   76.49   12.01
  -6  10 -10   55.14   11.30
 -10  -6 -10   55.05    9.99
  10   6 -10   47.07   10.20
 -10  -6  10   41.54    9.32
  -6  10 -11   64.25   12.64
  10   6 -11   65.08   12.78
 -10  -7   0    0.08    0.66
  -7  10   0    0.06    1.74
  10   7   0    0.55    0.96
  -7  10   0   -1.57    1.93
  -7  10  -1    1.83    2.69
  -7  10   1    1.08    2.42
 -10  -7  -1   -0.76    2.07
 -10  -7   1    0.30    1.08
  -7  10   1   -0.43    1.33
  -7  10  -1    2.13    1.77
 -10  -7  -1    1.11    0.68
  10   7  -1    2.80    1.60
 -10  -7  -2   21.87    4.78
 -10  -7   2   44.70    7.49
  10   7  -2   26.17    4.10
 -10  -7  -2   32.60    3.39
  -7  10  -2   28.21    3.36
  -7  10  -2   32.05    6.02
 -10  -7   3    6.45    2.78
  -7  10  -3    9.40    4.03
 -10  -7  -3    8.31    3.27
  10   7  -3    7.58    2.73
 -10  -7   3    3.29    2.50
 -10  -7  -4    8.04    3.19
 -10  -7   4   13.09    4.42
  -7  10  -4   13.08    4.21
  10   7  -4   13.51    3.84
 -10  -7   4   10.58    3.81
  -7  10  -5    3.79    2.93
  10   7  -5    1.12    2.30
 -10  -7   5    5.20    3.49
 -10  -7   5    3.35    2.66
 -10  -7   6    3.76    2.70
 -10  -7   6   -0.18    2.11
  10   7  -6    3.48    2.52
  -7  10  -6    3.74    2.95
 -10  -7  -6    1.39    1.88
 -10  -7   7    4.63    2.84
  -7  10  -7    9.40    4.29
  10   7  -7    3.90    2.25
 -10  -7   7    1.18    2.80
 -10  -7  -7    4.08    2.81
 -10  -7  -8    1.11    2.42
  -7  10  -8    2.50    2.49
 -10  -7   8   12.33    4.78
  10   7  -8    1.98    3.37
 -10  -7   8   13.41    5.13
  -7  10  -9    9.83    5.21
 -10  -7  -9    2.50    2.73
  10   7  -9    5.02    3.88
 -10  -7   9    0.29    3.31
  10   7 -10    1.49    3.45
  -7  10 -10    6.50    4.45
  -7  10 -11    5.87    5.31
  10   7 -11    6.75    4.68
  -8  10   0  177.93   11.64
 -10  -8   0  175.95    8.53
  10   8   0  185.29    8.81
  -8  10   0  200.55   14.48
  10   8  -1  249.72   11.31
 -10  -8  -1  221.55   16.04
 -10  -8  -1  250.42    9.83
  -8  10   1  258.37   15.35
  -8  10  -1  256.02   12.55
  -8  10  -1  260.57   16.61
  -8  10   1  257.25   16.72
 -10  -8   2  111.66   11.73
  -8  10  -2  115.04   11.38
  -8  10   2  127.81   11.87
  10   8  -2  102.44    7.99
 -10  -8  -2  111.02    6.89
 -10  -8  -2  118.64   11.54
  10   8  -3   12.27    3.39
 -10  -8  -3   10.13    3.87
  -8  10  -3   14.81    4.94
 -10  -8   3    8.26    3.77
 -10  -8  -4   13.00    3.98
 -10  -8   4   12.24    4.88
  -8  10  -4    9.61    4.03
 -10  -8   4    6.60    3.25
  10   8  -4   14.05    4.33
 -10  -8   5   -1.83    2.47
 -10  -8  -5    2.81    2.54
  -8  10  -5    0.15    2.11
  10   8  -5    0.24    1.50
 -10  -8   5    1.07    3.28
 -10  -8   6   -2.50    2.34
  -8  10  -6   -4.62    3.78
 -10  -8   6    2.19    2.35
 -10  -8  -6   -0.59    1.64
  10   8  -6    1.03    2.95
  -8  10  -7    8.92    4.17
 -10  -8  -7    6.44    3.32
 -10  -8   7    7.51    4.44
  10   8  -7    8.91    4.51
 -10  -8   7   10.12    4.50
  -8  10  -8   28.22    7.27
 -10  -8  -8   22.81    5.64
  10   8  -8   14.82    5.75
 -10  -8   8   13.40    4.76
 -10  -8   8   16.39    5.12
 -10  -8  -9   10.36    4.23
  -8  10  -9    4.54    3.10
  10   8  -9    1.66    3.57
 -10  -8   9    6.12    3.63
  -8  10 -10    4.13    3.22
  10   8 -10    4.67    4.65
  -8  10 -11   -0.95    3.93
  10   8 -11   10.31    5.55
 -10  -9   0   -2.50    3.16
  10   9   0    4.45    1.89
  -9  10   0   -0.68    1.41
  -9  10   0    1.85    2.19
  10   9  -1    7.82    2.54
  -9  10  -1    6.88    3.67
 -10  -9   1    5.91    3.25
  -9  10   1    9.03    3.04
  -9  10  -1    5.27    2.36
 -10  -9  -1   10.67    3.64
 -10  -9   2    1.42    2.55
 -10  -9  -2    1.76    2.41
  -9  10  -2    6.32    3.08
  -9  10   2    9.97    3.88
  10   9  -2    5.38    2.27
  -9  10  -3   17.10    4.72
  10   9  -3   15.71    3.98
 -10  -9   3   13.58    4.31
  -9  10   3   11.07    4.27
 -10  -9  -3   14.91    4.48
  10   9  -4   66.01    8.19
 -10  -9   4   73.82    9.91
 -10  -9  -4   61.53    8.59
  -9  10  -4   57.88    8.61
 -10  -9  -5   31.58    5.88
 -10  -9   5   26.65    6.15
  -9  10  -5   20.86    5.32
 -10  -9   5   24.16    5.44
  10   9  -5   19.62    4.96
 -10  -9  -6    0.63    1.27
  -9  10  -6    2.83    2.83
 -10  -9   6    1.58    1.82
  10   9  -6    4.78    2.66
 -10  -9   6    1.89    2.98
 -10  -9   7    6.71    3.76
  -9  10  -7    7.90    3.76
  10   9  -7    3.31    2.96
 -10  -9   7    1.65    2.60
  10   9  -8    9.36    4.20
 -10  -9   8    4.65    3.74
 -10  -9  -8    4.64    1.98
 -10  -9   8    8.57    4.51
  -9  10  -8    0.89    2.74
  -9  10  -9    7.87    4.81
  10   9  -9    3.88    3.24
  -9  10 -10    8.80    4.87
  10   9 -10   -2.08    2.47
  10   9 -11    0.61    2.98
 -10 -10   0  999.40   36.36
 -10  10   0  994.28   30.12
  10  10   0  999.84   24.59
 -10  10   0 1004.70   33.22
 -10 -10  -1  920.76   34.74
  10  10  -1  927.63   24.95
 -10  10   1  935.44   31.19
 -10  10  -1  927.45   26.60
 -10  10  -1  907.02   31.67
 -10 -10   1  918.69   35.36
 -10 -10   2  503.28   26.47
 -10 -10  -2  509.94   25.60
 -10  10  -2  500.30   23.84
 -10  10   2  514.13   25.03
  10  10  -2  511.95   19.99
 -10  10  -3  366.04   21.00
 -10 -10   3  394.51   23.65
 -10 -10  -3  386.81   22.19
 -10  10   3  390.71   23.13
  10  10  -3  405.90   19.19
 -10 -10  -4  107.62   11.69
  10  10  -4   97.68   10.05
 -10 -10   4  110.74   12.62
 -10  10   4   99.28   12.68
 -10  10  -4  103.47   11.65
  10  10  -5    5.08    2.82
 -10 -10   5    7.95    4.17
 -10 -10  -5    3.85    2.44
 -10 -10   5   10.93    4.17
 -10  10  -5    2.32    2.86
 -10 -10   6    2.77    3.09
  10  10  -6    2.17    2.70
 -10  10  -6    1.08    2.19
 -10 -10  -6   -0.50    2.51
 -10 -10   6    1.24    1.62
 -10 -10   7   19.57    5.70
 -10  10  -7   13.57    4.83
 -10 -10   7   11.80    4.83
  10  10  -7    7.67    3.93
 -10 -10   8   43.67    8.83
 -10  10  -8   49.29    9.34
 -10 -10  -8   55.68    9.35
  10  10  -8   49.82    9.44
 -10  10  -9   65.74   11.95
  10  10  -9   61.70   11.54
 -10  10 -10   32.66    9.04
  10  10 -10   32.01    8.77
 -11  10   0    1.56    1.53
 -10 -11   0   -1.79    2.97
 -11  10   0   -0.58    1.24
  10  11   0    0.47    1.25
 -10 -11   1   -1.70    1.73
 -10 -11  -1    4.96    3.96
 -11  10  -1    3.14    2.65
  10  11  -1    4.78    2.37
 -11  10   1   -0.25    1.36
 -11  10  -1    1.48    2.04
 -10 -11  -2   40.40    7.57
 -10 -11   2   48.43    8.90
 -11  10   2   59.16    8.90
 -11  10  -2   59.55    8.38
  10  11  -2   45.91    6.40
  10  11  -3  165.82   12.82
 -10 -11   3  166.17   15.77
 -10 -11  -3  172.90   15.20
 -11  10  -3  161.65   14.10
 -11  10   3  165.15   15.45
 -11  10  -4  287.28   19.45
 -10 -11   4  274.73   20.35
 -10 -11  -4  259.59   18.55
 -11  10   4  250.19   20.06
  10  11  -4  273.97   17.50
 -10 -11  -5  172.06   15.01
  10  11  -5  164.79   14.50
 -11  10   5  171.90   17.69
 -10 -11   5  184.54   16.86
 -11  10  -5  172.39   15.60
  10  11  -6  186.61   16.50
 -10 -11   6  212.44   18.29
 -10 -11  -6  216.02   16.40
 -11  10   6  200.01   20.21
 -10 -11   6  213.74   16.45
 -11  10  -6  205.65   17.72
 -10 -11   7  104.63   13.06
 -11  10   7  103.61   15.13
 -11  10  -7  101.23   13.25
  10  11  -7  108.94   13.58
 -10 -11   7  120.95   12.85
 -10 -11   8   59.44   10.05
 -11  10  -8   56.00   10.49
 -11  10   8   47.28   11.05
  10  11  -8   47.58    9.46
 -11  10  -9   41.64    9.57
 -11  10   9   41.44   10.53
  10  11  -9   49.69   10.75
 -11  10 -10    8.05    4.95
  10  11 -10    7.34    4.28
  -9 -11   0    2.08    2.31
 -11   9   0   11.65    3.72
   9  11   0   11.87    3.20
 -11   9   0    5.66    3.05
  -9 -11   1    5.31    2.69
  -9 -11  -1    8.95    4.22
   9  11  -1   13.91    3.68
 -11   9  -1   11.12    3.59
 -11   9   1   13.52    4.40
 -11   9  -1    9.56    2.88
  -9 -11   2   11.37    4.22
  -9 -11  -2   20.10    5.64
 -11   9   2   16.56    5.00
 -11   9  -2   15.72    4.59
   9  11  -2   19.89    4.39
 -11   9  -3    2.85    3.18
  -9 -11   3    3.26    2.93
  -9 -11  -3    7.22    4.24
   9  11  -3    4.35    2.87
 -11   9   3    4.05    3.49
   9  11  -4    3.68    2.57
 -11   9  -4   -0.46    1.90
 -11   9   4    2.47    2.91
  -9 -11   4    1.60    2.79
  -9 -11  -4    4.27    2.92
   9  11  -5    0.57    2.31
  -9 -11  -5    3.72    3.33
 -11   9   5    3.49    3.97
 -11   9  -5    3.18    2.67
  -9 -11   5   -0.09    2.81
   9  11  -6   11.54    4.91
  -9 -11  -6   11.72    3.98
 -11   9  -6    2.42    2.37
  -9 -11   6    4.18    3.29
 -11   9   6    3.71    3.99
  -9 -11   6    8.93    3.72
 -11   9  -7   -0.17    1.84
  -9 -11   7    3.84    3.56
 -11   9   7    6.19    5.65
   9  11  -7   -1.68    1.87
 -11   9  -8    2.91    2.92
  -9 -11   8    3.77    2.58
 -11   9   8    3.07    2.94
   9  11  -8    9.81    4.51
  -9 -11  -9    5.95    3.49
 -11   9  -9    2.41    3.48
 -11   9   9    3.97    5.05
   9  11  -9   -2.11    3.11
 -11   9 -10    6.74    4.10
 -11   9  10    2.68    3.44
   9  11 -10   -3.98    3.56
 -11   9 -11    5.46    4.95
   8  11   0    0.95    1.82
  -8 -11   0    4.38    3.28
 -11   8   0    1.58    1.44
 -11   8   0    2.58    2.60
   8  11   1    4.39    1.91
  -8 -11   1    0.40    1.81
  -8 -11  -1    4.06    3.02
   8  11  -1    2.10    1.59
 -11   8  -1    2.25    1.75
 -11   8   1    0.43    1.98
 -11   8  -1    2.89    1.88
  -8 -11   2   80.49   10.26
  -8 -11  -2   91.64   10.54
 -11   8   2   72.09    9.49
 -11   8  -2   88.54    9.25
   8  11  -2   78.88    8.58
 -11   8  -3   54.79    7.87
  -8 -11   3   43.39    7.65
  -8 -11  -3   49.92    7.87
   8  11  -3   48.48    7.08
 -11   8   3   45.23    8.32
  -8 -11   4   71.24   10.11
  -8 -11  -4   78.62    9.71
 -11   8   4   63.98   10.19
   8  11  -4   67.72    9.09
 -11   8  -4   62.27    8.31
   8  11  -5  121.65   12.62
  -8 -11  -5  135.23   12.62
 -11   8  -5  125.11   12.29
  -8 -11   5  138.47   13.96
 -11   8   5  120.73   14.36
  -8 -11   6  135.27   12.10
  -8 -11  -6  137.36   12.51
  -8 -11   6  133.61   13.82
 -11   8  -6  109.53   12.46
 -11   8   6  126.68   15.64
   8  11  -6  122.92   13.50
   8  11  -7   58.27   10.01
  -8 -11   7   61.59    9.66
 -11   8   7   54.72   11.05
 -11   8  -7   52.37    9.24
 -11   8   8   42.66    8.82
  -8 -11   8   31.81    7.07
 -11   8   8   44.64   10.20
   8  11  -8   19.59    6.41
 -11   8  -8   50.77    9.42
 -11   8   9   19.42    7.42
 -11   8  -9   25.73    8.34
   8  11  -9   19.19    6.87
 -11   8 -10   -5.73    3.98
 -11   8  10    0.07    2.44
  -8 -11 -10   -0.43    2.15
   8  11 -10    6.95    4.53
 -11   8 -11    0.42    3.27
 -11   7   0  162.74   11.71
   7  11   0  151.47   10.93
 -11   7   0  153.54   12.18
   7  11  -1  235.02   14.04
   7  11   1  243.61   13.76
 -11   7   1  231.50   15.78
 -11   7  -1  219.94   13.92
 -11   7  -1  228.48   13.82
 -11   7   2  203.51   15.80
 -11   7  -2  187.21   12.80
  -7 -11   2  191.23   15.46
   7  11  -2  186.62   13.06
 -11   7  -3   94.37    9.36
 -11   7   3   92.00   11.37
  -7 -11   3  102.60   11.35
   7  11  -3   79.55    9.13
  -7 -11  -4  117.57   11.72
 -11   7   4  106.57   12.91
  -7 -11   4  109.91   11.94
   7  11  -4  116.14   11.62
 -11   7  -4  123.39   11.35
   7  11  -5  117.55   12.40
  -7 -11  -5  134.69   12.26
  -7 -11   5  120.14   12.70
 -11   7   5  105.02   13.57
 -11   7  -5  136.98   12.53
 -11   7   6   11.06    5.26
 -11   7  -6   10.08    4.04
  -7 -11   6   16.33    5.02
  -7 -11  -6    9.89    3.24
   7  11  -6   14.60    4.83
  -7 -11   6   13.32    3.65
   7  11  -7   -0.62    2.62
 -11   7  -7   -1.36    2.01
 -11   7   7    1.60    2.98
  -7 -11   7   -0.40    1.72
 -11   7   7   -0.17    1.91
 -11   7   8    8.99    4.53
  -7 -11   8   15.18    4.81
 -11   7   8   19.28    7.09
 -11   7  -8    7.96    3.70
   7  11  -8    8.65    3.65
 -11   7  -9   35.73    8.59
 -11   7   9   37.02   10.08
   7  11  -9   25.88    8.07
 -11   7 -10   16.00    6.06
 -11   7  10   24.55    8.01
  -7 -11 -10    4.88    4.54
   7  11 -10   14.98    6.74
 -11   7 -11   27.47    8.68
  -7 -11 -11   21.23    8.03
   6  11   0    1.56    1.62
 -11   6   0    1.21    2.84
   6  11   1    1.98    1.27
   6  11  -1    4.85    2.57
 -11   6  -1    4.74    2.01
 -11   6   1   13.05    3.81
 -11   6  -1    8.11    3.12
 -11   6  -2   59.56    6.85
   6  11  -2   60.94    7.62
 -11   6   2   69.44    9.20
 -11   6  -3  248.19   14.50
 -11   6   3  250.12   18.01
   6  11  -3  249.19   16.16
  -6 -11   4  156.28   13.95
 -11   6   4  129.93   13.71
   6  11  -4  142.82   12.90
 -11   6  -4  134.15   11.30
  -6 -11   5  349.80   21.07
 -11   6   5  335.41   23.54
 -11   6  -5  347.97   19.38
   6  11  -5  323.36   20.45
  -6 -11   6  401.07   22.79
   6  11  -6  389.29   23.82
  -6 -11  -6  399.00   20.22
 -11   6  -6  426.18   22.80
 -11   6   6  386.98   26.46
  -6 -11   6  455.24   19.71
 -11   6   7  144.55   14.91
  -6 -11   7  198.60   16.21
 -11   6   7  172.00   18.55
 -11   6  -7  145.73   14.34
   6  11  -7  139.61   15.40
 -11   6   8  113.63   13.32
  -6 -11   8  112.17   12.20
 -11   6   8   83.65   13.77
 -11   6  -8  145.39   15.25
   6  11  -8   98.88   13.73
 -11   6  -9   95.92   12.79
 -11   6   9   78.08   13.67
   6  11  -9   75.77   12.68
  11  -6 -10   34.97    9.27
 -11   6 -10   44.37    9.48
 -11   6  10   31.66    9.47
   6  11 -10   28.21    8.52
  -6 -11 -11    3.58    3.93
 -11   6 -11   -6.87    4.42
  11  -6 -11    7.78    4.46
 -11   5   0  608.33   23.96
   5  11   0  596.92   22.21
   5  11  -1  439.31   19.48
 -11   5   1  432.64   21.14
 -11   5  -1  427.74   19.48
   5  11   1  413.11   18.50
 -11   5  -1  450.51   17.19
 -11   5   2  407.45   21.69
 -11   5  -2  380.47   16.22
   5  11  -2  381.70   18.89
 -11   5   3  232.86   17.35
   5  11  -3  196.68   14.42
 -11   5  -3  221.02   12.98
   5  11  -4  183.20   14.65
 -11   5   4  192.05   16.55
 -11   5  -4  206.93   13.41
   5  11  -5   93.83   11.27
  -5 -11   5  114.66   11.88
 -11   5  -5  101.84   10.09
 -11   5   5  108.47   13.11
 -11   5   6    1.45    2.39
 -11   5  -6    1.67    1.28
  -5 -11   6    1.67    1.79
 -11   5   6   -2.68    2.88
   5  11  -6    3.99    2.96
  -5 -11   6   -0.66    1.46
   5  11  -7    6.41    2.19
 -11   5   7   20.60    5.63
 -11   5  -7   10.34    4.09
  -5 -11   7   19.26    5.16
 -11   5   7   24.42    6.71
  -5 -11   8   54.10    8.33
 -11   5   8   59.31    9.51
 -11   5  -8   42.28    8.10
 -11   5   8   37.97    9.50
   5  11  -8   38.38    8.72
 -11   5  -9  102.98   13.35
 -11   5   9   86.90   14.50
   5  11  -9  103.74   14.69
  11  -5 -10  110.31   16.39
 -11   5  10  101.41   16.28
   5  11 -10   96.96   15.26
 -11   5 -10  109.33   14.72
  -5 -11 -11   65.17   13.38
  11  -5 -11   48.31   11.33
 -11   5  11   81.88   15.69
   5  11 -11   79.58   14.47
 -11   5 -11   67.84   12.11
   4  11   0    1.07    2.01
 -11   4   0    0.51    1.61
   4  11   1    3.92    2.29
   4  11  -1    3.48    2.58
 -11   4  -1    3.96    1.90
 -11   4   1    4.69    2.38
 -11   4  -1    6.62    3.55
 -11   4  -2   22.02    3.76
 -11   4   2   29.71    5.96
   4  11  -2   25.12    5.02
 -11   4   3  151.32   14.02
   4  11  -3  156.73   13.03
 -11   4  -3  149.45   10.07
   4  11  -4  171.93   14.43
 -11   4   4  187.17   16.38
 -11   4  -4  200.27   12.60
   4  11  -5   39.89    7.52
 -11   4  -5   47.02    6.81
 -11   4   5   53.03    8.95
 -11   4   5   50.72    8.32
  -4 -11   6  104.00   11.12
 -11   4   6   86.34   11.18
 -11   4   6   90.30   12.90
 -11   4  -6  111.20   11.01
   4  11  -6   89.45   11.53
 -11   4  -7   74.38    9.88
 -11   4   7   57.27    9.14
  -4 -11   7   59.72    8.59
 -11   4   7   43.74    9.56
   4  11  -7   43.23    8.37
 -11   4   8   32.38    6.99
 -11   4   8   38.30    9.31
 -11   4  -8   47.52    8.49
   4  11  -8   36.44    8.52
  11  -4  -9   19.81    6.60
 -11   4   9   23.69    8.04
 -11   4  -9   32.08    7.89
   4  11  -9   21.47    7.40
  11  -4 -10   11.90    5.44
 -11   4  10   12.84    6.24
 -11   4 -10   11.25    4.36
   4  11 -10   22.16    6.84
  -4 -11 -11    1.04    2.66
  11  -4 -11    2.24    4.24
 -11   4  11   -2.02    2.38
 -11   4 -11   -0.99    2.54
   4  11 -11    0.42    2.50
 -11   4 -12    0.60    2.27
   3  11   0   66.40    7.72
 -11   3   0   54.85    7.35
   3  11   1  194.80   13.11
   3  11  -1  202.66   13.61
 -11   3   1  198.17   14.29
 -11   3  -1  192.99    9.51
 -11   3  -2  326.03   12.97
 -11   3   2  303.56   18.53
   3  11  -2  309.43   17.32
   3  11  -3   31.35    6.05
   3  11  -3   27.84    3.69
 -11   3  -3   27.74    4.06
 -11   3   3   26.67    5.99
 -11   3   4   60.17   10.64
 -11   3  -4   45.70    5.82
 -11   3   4   40.06    7.75
   3  11  -4   40.38    7.07
 -11   3   5  119.17   12.74
   3  11  -5  107.79   11.84
 -11   3  -5  135.59   10.89
 -11   3   5  112.76   13.31
 -11   3  -6   11.72    3.60
 -11   3   6   14.90    5.60
   3  11  -6    3.08    1.70
 -11   3   6    9.14    4.55
   3  11  -7    5.74    3.16
 -11   3   7    5.11    3.28
 -11   3   7    1.40    2.45
  -3 -11   7    4.72    2.69
 -11   3  -7    0.68    1.44
 -11   3   8   11.26    4.56
 -11   3   8   13.24    5.92
 -11   3  -8   10.00    4.54
   3  11  -8    7.02    4.23
  11  -3  -8   13.43    5.06
  11  -3  -9   33.99    8.38
 -11   3   9   49.10   10.53
 -11   3  -9   49.31    9.09
   3  11  -9   46.69   10.17
 -11   3 -10   26.78    7.18
  11  -3 -10   31.34    8.52
 -11   3  10   40.36   10.14
   3  11 -10   33.00    8.93
  11  -3 -11   30.36    9.18
 -11   3  11   19.78    7.58
 -11   3 -11   23.25    7.06
   3  11 -11   24.05    8.32
 -11   3 -12    6.66    4.68
   2  11   0    0.92    1.68
  11  -2   0    1.03    0.88
 -11   2   0   -0.60    1.56
   2  11  -1    4.59    2.59
   2  11   1    1.32    2.57
 -11   2  -1    4.54    1.32
 -11   2   1    2.98    3.02
  11  -2   1    3.01    1.07
 -11   2  -2   17.41    2.75
 -11   2   2   13.85    3.64
   2  11  -2   19.69    2.91
   2  11  -2   16.56    4.37
 -11   2   3    6.45    3.74
   2  11  -3    5.17    2.72
 -11   2  -3    4.70    1.68
   2  11  -3    3.69    1.19
 -11   2   3    6.15    3.16
 -11   2   4    3.20    2.62
 -11   2  -4    4.16    2.30
   2  11  -4    2.07    1.69
 -11   2   4    4.93    3.32
 -11   2  -5   19.01    4.15
 -11   2   5   15.98    5.04
 -11   2  -5   20.66    4.64
   2  11  -5   17.55    4.87
 -11   2   5   14.86    5.07
 -11   2  -6    5.27    2.38
   2  11  -6    7.84    3.69
 -11   2   6    5.72    2.84
 -11   2   6    7.83    3.71
 -11   2  -6    7.90    3.16
  11  -2  -7    2.36    2.06
 -11   2   7    3.91    2.80
   2  11  -7    1.10    2.02
 -11   2   7    5.29    3.75
 -11   2  -7    2.71    1.35
 -11   2   8    5.13    4.08
   2  11  -8    1.86    2.82
 -11   2  -8    5.98    3.30
  11  -2  -8    0.98    2.53
 -11   2   8    3.94    2.70
 -11   2   9    2.14    3.20
 -11   2  -9    0.79    2.90
  11  -2  -9    3.62    4.26
   2  11  -9    9.17    5.17
  11  -2 -10    7.49    4.12
 -11   2  10    2.82    4.01
 -11   2 -10    2.24    2.13
   2  11 -10   14.76    6.25
  11  -2 -11    7.20    2.63
 -11   2  11    1.50    3.29
 -11   2 -11    9.55    5.45
   2  11 -11    2.92    4.32
   1  11   0  612.48   23.79
 -11   1   0  619.32   24.46
  11  -1   0  636.90   13.60
   1  11   1  382.09   18.83
 -11   1   1  379.26   19.62
  11  -1  -1  407.81   12.64
   1  11  -1  398.97   19.41
  11  -1   1  400.84   10.30
 -11   1  -1  379.57   19.97
 -11   1  -2   85.17    5.32
   1  11  -2   85.50    5.20
 -11   1  -2   80.09    9.14
 -11   1   2   94.30   10.15
   1  11  -2  100.45   10.03
  11  -1   2   90.93    5.60
 -11   1   3  218.90   16.28
 -11   1  -3  225.52   14.76
 -11   1   3  225.82   16.54
   1  11  -3  218.53   15.46
   1  11  -3  209.37    7.10
 -11   1  -3  235.71   10.33
 -11   1  -4   82.18    8.77
   1  11  -4   98.02   10.88
 -11   1  -4   92.11    7.43
 -11   1   4   86.87   10.80
 -11   1   4   80.74   10.22
   1  11  -5    2.34    1.72
 -11   1  -5    4.26    2.51
 -11   1   5    2.33    2.14
 -11   1   5    6.32    3.49
 -11   1  -5    1.69    1.36
 -11   1  -6    6.21    2.84
  11  -1  -6    1.59    2.41
 -11   1   6    7.43    4.61
 -11   1  -6    0.41    1.38
   1  11  -6    5.90    3.96
 -11   1   6    9.97    3.97
  11  -1  -7   31.47    7.13
 -11   1   7   50.04    8.52
 -11   1   7   46.76    9.38
 -11   1  -7   39.25    6.58
   1  11  -7   29.51    6.68
   1  11  -8   20.11    6.25
  11  -1  -8   21.26    6.76
 -11   1   8   27.12    7.41
 -11   1  -8   23.95    5.48
  11  -1  -9   -1.58    3.61
 -11   1   9    3.41    4.83
 -11   1  -9    2.04    1.76
   1  11  -9    1.69    2.43
 -11   1  10   18.42    6.68
  11  -1 -10   22.79    7.60
 -11   1 -10   15.37    5.49
   1  11 -10   16.73    6.42
  11  -1 -11   29.12    8.55
 -11   1  11   22.31    9.44
 -11   1 -11   19.54    6.65
   1  11 -11   23.15    8.30
   0  11   0    0.37    2.01
  11   0   0    1.04    0.67
 -11   0   0   -0.71    1.48
 -11   0  -1  167.75   13.05
   0  11  -1  188.31   13.44
  11   0   1  171.04    5.20
 -11   0   1  192.08   14.00
   0  11   1  186.73   13.37
  11   0  -1  188.53    7.78
 -11   0  -2   62.16    3.90
 -11   0  -2   59.99    7.85
   0  11  -2   56.45    3.61
  11   0   2   58.56    3.93
 -11   0   2   67.58    8.79
   0  11  -2   50.54    7.11
 -11   0  -3   46.26    6.70
 -11   0  -3   60.22    4.84
 -11   0   3   57.83    8.36
   0  11  -3   46.77    7.30
 -11   0   3   58.63    8.41
 -11   0   4  199.93   15.83
  11   0  -4  187.82   12.69
 -11   0  -4  185.17   12.88
 -11   0  -4  193.32   10.35
 -11   0   4  164.63   14.83
   0  11  -4  195.27   15.40
 -11   0  -5   98.66    9.11
 -11   0  -5   83.31    7.74
 -11   0   5   75.25    9.88
  11   0  -5   85.94    9.55
   0  11  -5   77.42   10.39
 -11   0   5   83.73   11.11
 -11   0   6   26.62    6.34
   0  11  -6   30.57    7.04
  11   0  -6   27.81    6.07
 -11   0  -6   39.94    5.73
 -11   0   6   27.20    7.26
 -11   0  -6   31.19    5.35
   0  11  -7   50.13    9.27
  11   0  -7   73.94   10.39
 -11   0   7   76.38   11.89
 -11   0  -7   87.50    9.73
 -11   0   8   35.48    9.29
  11   0  -8   36.15    8.13
 -11   0  -8   43.85    7.56
   0  11  -8   32.77    7.70
  11   0  -9   10.18    4.21
   0  11  -9   18.51    6.10
 -11   0  -9   17.61    5.00
 -11   0   9   19.43    7.03
  11   0 -10    7.04    4.05
 -11   0  10    7.39    5.95
 -11   0 -10   12.88    5.42
   0  11 -10   14.02    6.14
  11   0 -11   14.28    6.68
 -11   0  11    5.95    4.11
 -11   0 -11    6.52    3.98
   0  11 -11   -1.44    2.96
  -1  11   0  917.40   29.65
 -11  -1  -1 1008.53   32.04
  11   1  -1  989.18   16.47
  -1  11  -1 1011.96   31.72
 -11  -1   1  978.98   31.71
  11   1  -1 1012.70   16.44
  -1  11   1 1050.57   31.95
 -11  -1  -2  751.83   27.14
  11   1  -2  754.66   18.68
 -11  -1   2  754.02   28.74
 -11  -1  -2  684.94   10.13
  -1  11  -2  792.20   28.50
 -11  -1   3  233.30   16.80
 -11  -1  -3  218.16   14.23
 -11  -1  -3  269.60    9.50
 -11  -1   3  225.48   16.34
  -1  11  -3  234.06   16.14
  11   1  -3  246.54   12.56
 -11  -1  -4   94.51    6.97
 -11  -1  -4  103.39    9.61
  11   1  -4   87.76    8.54
  -1  11  -4  105.03   11.47
 -11  -1   4   86.66   10.56
 -11  -1   4   88.41   10.93
 -11  -1   5   16.50    4.77
 -11  -1  -5   15.89    3.62
  -1  11  -5   25.00    6.08
 -11  -1  -5   19.19    3.66
 -11  -1   5   23.39    6.25
  11   1  -5   21.87    5.38
  -1  11  -6   -0.83    3.06
 -11  -1  -6    0.05    1.22
 -11  -1   6    0.40    2.36
 -11  -1  -7   37.08    6.28
 -11  -1   7   43.73    9.06
  11   1  -7   43.63    8.01
  -1  11  -7   35.20    8.01
  11   1  -8   64.64   10.26
  -1  11  -8   70.66   11.82
 -11  -1  -8   83.73   10.36
 -11  -1   8   67.64   11.40
  -1  11  -9   59.32   11.26
  11   1  -9   73.76   11.93
 -11  -1  -9   59.68    9.54
 -11  -1   9   48.85   10.23
  -1  11 -10   58.05   11.78
  11   1 -10   77.21   12.77
 -11  -1 -10   93.84   12.80
 -11  -1  10   74.55   13.34
  -1  11 -11   80.24   14.56
  11   1 -11   44.72   10.31
 -11  -1  11   51.31   11.44
 -11  -1  12   37.69   10.41
  -2  11   0   -0.27    1.41
  11   2  -1    5.37    1.14
  -2  11  -1    7.34    3.18
  -2  11   1    6.34    3.01
 -11  -2  -1    2.14    1.72
 -11  -2   1    4.32    2.49
  11   2  -2   73.80    5.64
  -2  11  -2   65.48    8.43
 -11  -2  -2   67.31    8.21
 -11  -2   2   85.27    9.93
 -11  -2   2   68.11    8.71
 -11  -2  -3  323.56    9.71
 -11  -2   3  324.66   19.39
  -2  11  -3  283.75   17.82
 -11  -2   3  295.70   18.89
 -11  -2   3  282.44   18.28
 -11  -2  -3  285.46   16.30
  11   2  -3  316.67   14.06
 -11  -2  -4  469.72   15.03
 -11  -2   4  464.34   23.45
 -11  -2   4  419.75   23.17
  -2  11  -4  399.95   22.10
  11   2  -4  464.78   19.48
  11   2  -5  303.25   17.39
 -11  -2  -5  349.49   15.36
 -11  -2   5  303.61   20.61
  -2  11  -5  303.06   20.34
  11   2  -6  254.73   17.54
 -11  -2  -6  266.50   15.12
  -2  11  -6  260.81   19.81
 -11  -2   6  244.78   19.42
 -11  -2  -7  303.44   17.88
  -2  11  -7  288.81   22.03
 -11  -2   7  266.21   21.34
  11   2  -7  290.65   20.33
  11   2  -8  175.18   17.08
  -2  11  -8  168.58   17.77
 -11  -2  -8  155.69   14.05
 -11  -2   8  147.04   16.64
  -2  11  -9   36.84    8.82
  11   2  -9   40.59    8.88
 -11  -2  -9   45.87    8.34
 -11  -2   9   43.64    9.75
  -2  11 -10   14.39    6.27
 -11  -2 -10   20.31    5.77
 -11  -2  10   22.87    8.32
  11   2 -10    6.46    2.60
  -2  11 -11    1.45    3.29
  11   2 -11    5.56    4.41
 -11  -2  11    2.99    4.90
 -11  -2  12    5.02    5.05
 -11  -3   0  382.17   20.42
  -3  11   0  401.74   20.02
  -3  11   1  310.19   17.97
  11   3  -1  308.45    8.05
  -3  11  -1  313.51   18.12
 -11  -3   1  295.17   17.77
  11   3  -2  113.04    6.89
 -11  -3   2  108.09   11.35
 -11  -3   2  122.55   11.68
  -3  11  -2  112.63   11.03
 -11  -3  -3   49.17    3.69
  11   3  -3   46.34    5.32
 -11  -3   3   43.85    7.31
  -3  11  -3   60.48    8.29
 -11  -3   3   38.39    6.95
  11   3  -4   26.37    4.76
  -3  11  -4   35.65    6.76
 -11  -3  -4   33.40    4.03
 -11  -3   4   23.48    5.76
 -11  -3   4   20.94    5.16
 -11  -3   5   -0.76    1.71
  11   3  -5    2.75    3.15
  -3  11  -5    2.80    3.22
 -11  -3  -5    0.72    1.33
 -11  -3   5    3.10    2.85
 -11  -3   6    4.57    2.01
  11   3  -6    0.69    1.62
 -11  -3  -6    5.40    2.47
 -11  -3   6    3.24    2.59
  -3  11  -6    6.95    4.31
  -3  11  -7   10.31    5.13
  11   3  -7   14.67    5.12
 -11  -3   7   14.48    5.57
 -11  -3  -7   11.48    3.70
  -3  11  -8   36.66    8.74
  11   3  -8   28.58    7.13
 -11  -3  -8   27.50    6.02
 -11  -3   8   24.75    7.07
  -3  11  -9   29.94    8.22
  11   3  -9   15.21    5.60
 -11  -3  -9   30.00    7.01
 -11  -3   9   18.03    6.02
  -3  11 -10   18.50    7.28
  11   3 -10   11.62    5.54
 -11  -3 -10   10.72    4.59
 -11  -3  10   12.12    6.41
  11   3 -11    2.65    2.68
 -11  -3  11    3.96    5.02
  -3  11 -11    1.06    3.82
 -11  -3  12    5.00    4.91
  -4  11   0   -1.75    1.88
  11   4  -1    1.84    0.74
 -11  -4  -1    9.11    3.60
  -4  11  -1    3.62    1.56
  -4  11  -1    2.07    3.04
  -4  11   1    7.74    3.27
  -4  11  -2    8.40    3.25
 -11  -4   2    5.37    2.84
  11   4  -2    6.41    1.96
 -11  -4   2    5.14    3.19
 -11  -4   3   25.87    5.69
 -11  -4  -3   29.76    2.89
  11   4  -3   41.53    5.24
  -4  11  -3   27.74    5.89
 -11  -4   3   47.09    7.62
 -11  -4   4   64.56    9.06
 -11  -4  -4   74.48    5.99
  11   4  -4   69.57    7.53
  -4  11  -4   57.51    8.61
 -11  -4   4   72.14    9.67
 -11  -4   5   51.39    8.29
  -4  11  -5   47.43    8.31
  11   4  -5   45.45    6.80
 -11  -4   5   39.55    7.81
 -11  -4  -5   50.61    5.88
 -11  -4   6   25.44    6.10
 -11  -4  -6   23.63    4.55
  11   4  -6   21.08    5.27
 -11  -4   6   17.51    5.27
  -4  11  -6   29.08    7.03
 -11  -4   7    5.93    2.94
  -4  11  -7    7.31    3.25
  11   4  -7   15.05    5.02
 -11  -4   7    5.11    3.66
 -11  -4  -7    5.08    2.52
  -4  11  -8    2.89    3.88
 -11  -4  -8    2.81    2.16
 -11  -4   8    5.48    4.09
  11   4  -8    5.14    3.39
 -11  -4  -9    8.75    3.84
  11   4  -9    2.41    3.19
 -11  -4   9   12.25    7.05
  -4  11  -9    8.34    4.49
  -4  11 -10   13.34    6.42
  11   4 -10    5.13    3.32
 -11  -4  10    5.74    4.48
  11   4 -11    2.94    3.19
 -11  -4  11    5.76    4.51
  -4  11 -11   -1.29    2.57
  -5  11   0   21.85    4.93
  -5  11   1    8.84    3.73
 -11  -5  -1    2.80    2.46
  11   5  -1    4.23    1.04
  -5  11  -1    2.72    1.50
  -5  11  -1    1.99    1.92
  -5  11  -2   -0.35    2.27
 -11  -5  -2    2.35    2.14
 -11  -5   2   -0.21    2.20
  -5  11  -2    1.52    0.68
  11   5  -2    1.24    1.08
 -11  -5   2   -0.49    2.21
 -11  -5   3    9.41    3.72
 -11  -5  -3    6.45    1.42
  11   5  -3    7.70    2.53
 -11  -5  -3    6.28    1.39
  -5  11  -3    6.25    3.26
 -11  -5   3    4.28    2.02
 -11  -5  -3    6.64    2.74
  -5  11  -4    0.37    2.62
 -11  -5  -4    2.32    1.16
 -11  -5   4    0.49    2.54
  11   5  -4    1.95    2.20
 -11  -5   4    3.19    2.93
 -11  -5  -5   28.15    4.46
  -5  11  -5   28.79    6.80
  11   5  -5   32.42    6.08
 -11  -5   5   31.18    6.57
 -11  -5   5   29.81    6.69
 -11  -5  -6    2.47    1.91
 -11  -5   6    4.22    3.70
  -5  11  -6    2.71    2.79
  11   5  -6    6.54    3.63
 -11  -5   6    3.69    2.95
 -11  -5  -7    1.27    1.85
 -11  -5   7   -3.34    3.31
  -5  11  -7    0.08    2.52
  11   5  -7    0.03    2.45
 -11  -5   7   -0.39    1.83
  -5  11  -8    0.80    2.34
  11   5  -8    1.56    2.71
 -11  -5  -8    5.43    3.83
 -11  -5   8    4.26    4.67
  11   5  -9    0.74    2.60
  -5  11  -9    4.81    3.13
 -11  -5  -9    4.82    3.24
 -11  -5   9    6.62    4.14
  -5  11 -10    4.65    4.65
  11   5 -10    1.94    2.83
 -11  -5  10   14.00    6.29
  11   5 -11   -0.34    2.00
 -11  -5  11    2.10    4.47
  -6  11   0    2.10    1.55
  -6  11   0    1.60    2.20
 -11  -6   0   -0.19    0.35
 -11  -6  -1   31.17    6.12
  -6  11  -1   30.39    3.99
  -6  11   1   29.37    6.05
  11   6  -1   28.14    3.08
  -6  11  -1   32.45    6.26
 -11  -6   2  109.77   11.65
  11   6  -2  104.32    7.17
  -6  11  -2  109.04   11.42
 -11  -6  -2   94.59    4.25
  -6  11  -2  102.06    5.52
 -11  -6  -2  103.31   10.74
 -11  -6   3   56.73    8.39
 -11  -6  -3   51.87    4.24
 -11  -6  -3   48.74    7.39
  11   6  -3   59.79    6.45
 -11  -6  -3   56.78    4.52
 -11  -6   3   61.46    8.70
  -6  11  -3   52.28    7.94
  11   6  -4   87.48    8.79
 -11  -6   4  108.47   11.86
 -11  -6  -4   99.41   10.36
  -6  11  -4  101.35   11.53
 -11  -6  -4  105.83    7.50
 -11  -6   4  102.41   11.36
 -11  -6  -5  191.57   11.72
 -11  -6   5  177.39   15.27
 -11  -6  -5  107.40   10.69
 -11  -6   5  163.13   14.88
  -6  11  -5  180.07   16.02
  11   6  -5  187.00   14.06
 -11  -6  -6  134.99   10.95
  11   6  -6  136.10   13.10
 -11  -6   6  154.61   15.13
 -11  -6   6  145.05   14.15
  -6  11  -6  141.28   14.84
 -11  -6  -7  146.61   12.62
  11   6  -7  155.02   14.98
 -11  -6   7  154.47   14.76
  -6  11  -7  155.93   16.44
 -11  -6   7  137.20   14.92
  -6  11  -8  112.16   14.60
  11   6  -8   79.35   11.59
 -11  -6  -8  106.26   11.87
 -11  -6   8  109.34   12.52
 -11  -6   8   86.49   12.53
  11   6  -9   52.07   10.28
 -11  -6   9   53.24   10.57
  -6  11  -9   61.85   11.62
  -6  11 -10   10.45    5.35
  11   6 -10   10.27    5.23
 -11  -6  10    6.43    4.09
  11   6 -11   10.25    5.20
  -7  11   0    2.23    1.60
  11   7   0    1.43    0.75
  -7  11   0    2.63    2.44
 -11  -7   0    1.66    0.94
  11   7  -1   67.25    5.15
  -7  11  -1   66.52    6.11
 -11  -7  -1   60.71    3.74
 -11  -7   1   62.05    5.03
  -7  11   1   54.67    7.00
  -7  11   1   76.82    9.46
 -11  -7  -1   64.87    9.00
  -7  11  -1   79.50    9.74
 -11  -7   2   81.08   10.25
 -11  -7  -2   90.46   10.22
  -7  11  -2   89.01   10.31
  11   7  -2   94.23    7.17
 -11  -7  -2   88.77    5.00
  -7  11  -2  101.28    6.26
  -7  11  -3   24.76    5.85
 -11  -7  -3   29.98    5.76
  11   7  -3   25.14    4.30
 -11  -7   3   31.04    6.34
 -11  -7   3   26.95    5.66
 -11  -7  -4   32.75    5.98
 -11  -7   4   36.95    7.20
  -7  11  -4   15.05    4.83
  11   7  -4   30.72    5.33
 -11  -7   4   24.30    5.51
 -11  -7  -5    4.58    2.21
 -11  -7  -5    7.74    3.25
 -11  -7   5    2.46    3.14
  -7  11  -5   10.47    4.87
  11   7  -5    3.16    1.53
 -11  -7   5    2.79    3.13
 -11  -7   6    5.78    2.95
 -11  -7  -6    9.58    3.81
  -7  11  -6    3.52    2.27
 -11  -7  -6    7.20    3.11
  11   7  -6    3.88    2.74
 -11  -7   6    5.47    3.55
 -11  -7   7    0.12    2.56
  -7  11  -7    6.54    3.94
  11   7  -7   -0.70    2.39
 -11  -7   7   -1.05    2.87
 -11  -7  -7    1.02    1.66
  11   7  -8    3.18    3.41
  -7  11  -8    3.91    3.19
 -11  -7   8   15.17    5.39
 -11  -7   8    3.48    3.66
  -7  11  -9    6.50    3.85
  11   7  -9   11.27    5.25
 -11  -7   9   11.00    5.63
  -7  11 -10   10.68    5.59
  11   7 -10    8.23    5.37
  11   7 -11    2.08    2.80
  -8  11   0    2.61    2.93
 -11  -8   0    0.32    0.61
  -8  11   0    0.22    1.48
 -11  -8   0   -1.61    2.02
  11   8   0    1.65    1.41
  -8  11   1   13.21    4.19
  -8  11  -1   23.76    5.24
  11   8  -1   13.93    2.77
 -11  -8   1   14.03    4.39
 -11  -8  -1   13.20    4.14
  -8  11   1   17.62    4.29
  -8  11  -1   21.13    3.66
 -11  -8  -1   16.93    2.39
 -11  -8  -2  156.85   13.87
 -11  -8   2  143.61   14.14
  -8  11  -2  175.29   14.55
  -8  11   2  181.29   14.31
  -8  11  -2  174.07    9.07
  11   8  -2  171.80   10.25
  -8  11  -3  361.34   21.26
  11   8  -3  356.21   16.47
 -11  -8   3  360.28   22.09
 -11  -8  -3  334.28   20.09
 -11  -8  -4  398.07   21.65
 -11  -8   4  367.36   22.56
  11   8  -4  399.74   19.37
 -11  -8   4  384.10   21.87
  -8  11  -4  399.15   23.04
 -11  -8  -5  614.93   26.54
 -11  -8   5  615.61   29.70
  11   8  -5  578.06   25.34
 -11  -8   5  601.12   28.25
  -8  11  -5  585.84   29.11
 -11  -8  -6  815.09   28.06
 -11  -8   6  797.43   34.32
 -11  -8   6  739.17   32.38
  11   8  -6  734.41   30.88
 -11  -8  -6  821.11   30.27
  -8  11  -6  816.51   35.89
 -11  -8  -7  497.59   23.86
  11   8  -7  468.75   26.57
  -8  11  -7  468.30   28.72
 -11  -8   7  480.17   27.20
 -11  -8   7  498.89   27.41
 -11  -8   8  278.90   20.79
  -8  11  -8  293.37   23.62
 -11  -8   8  268.77   21.15
  11   8  -8  241.87   20.43
  -8  11  -9  106.77   15.28
  11   8  -9  110.53   14.76
 -11  -8   9  102.16   13.57
  -8  11 -10   35.11    9.08
  11   8 -10   35.58    9.13
  11   8 -11   23.24    8.47
 -11  -9   0  268.25   18.98
  -9  11   0  291.69   15.91
  -9  11   0  289.95   18.34
  11   9   0  302.32   11.79
 -11  -9  -1  249.52   17.94
 -11  -9   1  267.28   19.12
  -9  11   1  272.41   16.54
  -9  11  -1  269.92   13.66
  -9  11  -1  262.21   17.85
  11   9  -1  278.35   12.41
 -11  -9   2  133.57   13.64
 -11  -9  -2  103.73   11.39
  -9  11   2  104.42   11.16
  -9  11  -2  120.00   12.23
  11   9  -2  128.79    9.34
 -11  -9   3   95.75   11.97
  11   9  -3   87.26    8.45
 -11  -9  -3   92.67   10.73
  -9  11   3   88.45   11.38
  -9  11  -3   75.89    9.99
  11   9  -4   65.33    8.07
 -11  -9   4   62.45    9.71
 -11  -9  -4   61.81    8.86
  -9  11  -4   50.99    8.50
 -11  -9  -5   12.93    4.23
 -11  -9   5   15.74    5.00
  -9  11  -5   30.20    7.08
 -11  -9   5   21.08    5.43
  11   9  -5   19.34    5.42
 -11  -9   6    1.97    2.81
  -9  11  -6    3.92    3.76
 -11  -9  -6    3.12    2.76
  11   9  -6    3.81    3.38
 -11  -9   6    5.09    4.63
 -11  -9   7   16.75    5.41
  -9  11  -7    6.39    3.79
  11   9  -7   18.05    5.83
 -11  -9   7   14.46    4.64
 -11  -9   8   28.89    7.18
  -9  11  -8   18.97    6.70
  11   9  -8   14.62    5.37
 -11  -9   8   14.99    5.56
  -9  11  -9   25.94    7.79
  11   9  -9   25.55    7.77
  -9  11 -10   29.37    8.66
  11   9 -10   10.78    4.92
  11   9 -11   23.81    7.96
  11  10   0    0.86    1.30
 -10  11   0    1.22    1.95
 -10  11   0    0.97    1.68
 -11 -10   0   -1.05    2.46
 -11 -10   1   -1.64    2.75
 -11 -10  -1    0.70    2.15
 -10  11  -1    4.81    3.37
  11  10  -1    5.29    2.36
 -10  11   1    1.41    1.55
 -10  11  -1    3.20    1.66
 -11 -10  -2   24.61    5.58
 -11 -10   2   28.18    6.80
 -10  11   2   18.74    5.16
 -10  11  -2   32.76    6.66
  11  10  -2   24.65    4.41
 -10  11  -3   88.42   10.70
 -11 -10   3   82.27   10.95
 -11 -10  -3   82.72   10.43
  11  10  -3   83.19    8.62
 -10  11   3   92.85   11.55
 -10  11  -4   21.26    5.58
  11  10  -4   28.33    5.62
 -10  11   4   27.85    7.19
 -11 -10   4   37.41    7.61
 -11 -10  -4   21.04    5.62
  11  10  -5   73.68    9.47
 -11 -10  -5   56.81    8.82
 -11 -10   5   69.53   10.46
 -10  11  -5   81.50   11.05
  11  10  -6  100.88   12.19
 -11 -10  -6   94.25   10.89
 -11 -10   6  107.02   12.93
 -10  11  -6   96.71   12.35
 -11 -10   6  101.14   11.97
 -10  11  -7   59.12   10.18
 -11 -10   7   66.79   10.68
 -11 -10   7   69.75   10.25
  11  10  -7   66.13   10.32
 -10  11  -8   37.21    8.31
  11  10  -8   23.95    7.10
 -11 -10   8   31.75    7.47
 -10  11  -9   18.90    6.77
  11  10  -9   14.86    6.14
 -10  11 -10    1.95    2.61
  11  10 -10   12.26    6.61
 -11 -11   0   32.65    7.27
  11  11   0   47.95    5.69
 -11  11   0   39.10    7.23
 -11  11   0   52.37    7.38
 -11 -11   1   11.74    4.53
 -11  11  -1   10.68    4.24
 -11  11   1    4.33    3.04
  11  11  -1    9.63    2.88
 -11 -11  -1    9.60    4.92
 -11  11  -1    6.27    2.54
  11  11  -2    8.84    2.95
 -11 -11   2    5.45    4.37
 -11  11   2    8.12    3.50
 -11 -11  -2   16.44    5.24
 -11  11  -2   11.88    3.99
 -11 -11   3    3.90    2.53
 -11 -11  -3   -0.38    2.63
 -11  11  -3    0.79    2.13
 -11  11   3    3.99    3.62
  11  11  -3    1.60    1.59
 -11  11  -4    3.64    3.35
  11  11  -4    1.70    2.73
 -11 -11   4    3.21    3.75
 -11 -11  -4   -1.33    2.67
 -11  11   4    1.36    3.26
  11  11  -5    0.53    1.64
 -11 -11   5   -2.21    2.86
 -11 -11  -5    0.11    2.11
 -11  11   5    5.53    4.08
 -11  11  -5    0.26    2.27
  11  11  -6    7.12    4.12
 -11 -11   6    2.43    2.01
 -11 -11  -6    5.01    2.94
 -11  11   6    8.83    5.18
 -11  11  -6   10.82    4.29
 -11 -11   7   -0.88    2.20
 -11  11   7   -3.28    3.87
 -11  11  -7    2.37    1.90
  11  11  -7   -0.69    2.31
 -11 -11   7    2.70    2.71
 -11 -11   8    2.87    2.80
 -11  11  -8    1.33    3.65
  11  11  -8    3.47    3.36
 -11  11  -9   10.26    9.50
  11  11  -9    4.58    3.34
 -11  11 -10    1.62    2.81
  11  11 -10   10.18    5.78
  11  12   0    0.99    1.68
 -12  11   0    0.62    2.59
 -12  11   0    0.75    2.50
 -11 -12  -1    0.15    2.53
 -12  11   1   -1.68    1.84
 -11 -12   1    1.56    3.23
  11  12  -1    2.78    1.79
 -12  11  -1    5.18    2.83
 -12  11  -1    5.52    3.74
  11  12  -2    9.40    3.56
 -12  11  -2   10.69    4.20
 -11 -12   2   10.88    4.09
 -11 -12  -2    8.70    3.03
 -12  11   2    6.37    3.37
 -11 -12   3    4.71    3.49
 -11 -12  -3    8.36    4.09
 -12  11  -3    2.99    2.02
 -12  11   3    4.80    2.89
  11  12  -3    7.24    3.12
 -12  11   4    3.25    3.84
 -11 -12   4    1.31    3.12
  11  12  -4    4.46    2.43
 -11 -12  -4    2.00    1.93
 -12  11  -4    6.65    3.50
 -12  11  -5    0.98    2.77
  11  12  -5    3.89    3.28
 -11 -12   5    4.25    3.62
 -11 -12  -5    3.19    2.25
 -12  11   5    0.01    3.07
 -11 -12   6    3.84    3.69
 -11 -12  -6    3.26    2.26
 -12  11   6    0.30    2.57
 -12  11  -6    0.17    2.61
  11  12  -6   -0.15    3.44
  11  12  -7    5.33    3.93
 -11 -12   7    4.91    2.79
 -12  11   7   11.25    5.76
 -12  11  -7    0.88    3.17
  11  12  -8   10.85    4.83
 -12  11  -8    5.27    4.01
 -11 -12   8   -0.36    2.46
 -12  11   8    5.10    5.28
 -12  11  -9   -0.08    2.08
 -12  11   9   -3.29    4.09
 -12  11 -10    6.11    5.09
  11  12 -10    9.55    5.10
 -12  10   0  303.88   18.71
 -12  10   0  309.07   18.16
 -10 -12   0  294.38   21.08
  10  12   0  302.87   15.45
 -10 -12   1  383.62   24.01
 -10 -12  -1  394.66   24.14
  10  12  -1  420.22   18.95
 -12  10   1  392.23   21.78
 -12  10  -1  408.39   19.61
 -12  10  -1  394.35   21.34
 -10 -12   2  293.91   21.34
  10  12  -2  281.97   16.30
 -10 -12  -2  252.95   19.14
 -12  10   2  273.89   19.54
 -12  10  -2  274.62   18.00
 -10 -12   3  118.51   13.95
 -10 -12  -3  113.84   12.92
 -12  10  -3  106.60   11.50
 -12  10   3   89.73   11.84
  10  12  -3  103.60   10.53
 -12  10  -4   18.55    5.29
 -10 -12   4   28.14    7.11
 -10 -12  -4   37.65    7.26
  10  12  -4   23.57    5.56
 -12  10   4   20.97    6.21
  10  12  -5    3.59    3.38
 -10 -12   5    0.53    3.34
 -10 -12  -5    3.13    3.20
 -12  10   5    5.68    4.38
 -12  10  -5    1.67    2.25
  10  12  -6    5.86    2.55
 -10 -12  -6    2.06    1.99
 -10 -12   6    8.84    4.64
 -12  10   6   14.37    5.32
 -12  10  -6    6.74    3.52
 -12  10  -7   23.17    6.32
 -10 -12   7   15.35    5.32
  10  12  -7   17.81    6.12
 -12  10   7   11.69    5.64
  10  12  -8   41.95    9.23
 -12  10  -8   46.05    9.80
 -12  10   8   39.95   10.40
 -10 -12   8   36.96    8.56
  10  12  -9   48.99   10.36
 -12  10  -9   56.97   10.50
 -12  10   9   53.78   12.56
  10  12 -10   29.95    8.59
 -12  10 -10   62.02   12.24
 -12   9   0    1.02    2.23
  -9 -12   0   -0.32    1.60
   9  12   0    0.30    1.85
 -12   9   0   -1.06    1.94
  -9 -12   1   85.93   11.14
  -9 -12  -1   70.62   10.08
   9  12  -1   82.77    8.65
 -12   9   1   67.86    9.08
 -12   9  -1   72.08    8.78
 -12   9  -1   76.03    8.56
 -12   9  -2   79.89    9.41
   9  12  -2   66.41    7.98
  -9 -12   2   83.12   11.23
  -9 -12  -2   53.60    8.58
 -12   9   2   62.63    9.23
  -9 -12  -3  248.08   18.34
  -9 -12   3  257.99   19.63
 -12   9  -3  270.96   17.55
   9  12  -3  271.83   17.07
 -12   9   3  258.78   19.80
  -9 -12   4  283.37   20.90
  -9 -12  -4  294.29   20.01
 -12   9  -4  314.86   19.61
 -12   9   4  294.54   22.03
   9  12  -4  293.76   18.83
  -9 -12  -5  214.09   16.84
  -9 -12   5  196.40   17.59
   9  12  -5  184.07   15.75
 -12   9   5  210.69   19.67
 -12   9  -5  234.25   17.56
  -9 -12   6  105.99   13.10
  -9 -12  -6  108.72   11.80
   9  12  -6  110.56   13.21
 -12   9   6  106.85   14.83
 -12   9  -6  122.49   13.19
   9  12  -7   63.91   10.63
  -9 -12   7   70.77   10.83
 -12   9  -7   77.52   11.39
 -12   9   7   76.52   13.24
   9  12  -8  107.12   14.43
 -12   9   8  111.55   14.20
  -9 -12   8  102.72   13.01
 -12   9  -8   95.65   13.17
 -12   9   8  105.42   16.39
   9  12  -9   27.02    8.01
 -12   9  -9   32.41    8.43
 -12   9   9   33.93   10.29
 -12   9 -10   24.26    7.44
   9  12 -10   22.71    7.78
  -8 -12   0  605.07   28.57
 -12   8   0  618.82   24.41
 -12   8   0  595.43   24.97
   8  12   0  612.30   22.80
  -8 -12   1  410.16   23.94
  -8 -12  -1  380.83   22.59
   8  12   1  390.18   18.06
 -12   8   1  419.78   22.07
 -12   8  -1  398.19   19.49
   8  12  -1  385.17   18.66
 -12   8  -1  440.22   20.49
   8  12  -2  430.29   20.45
  -8 -12   2  414.83   24.23
  -8 -12  -2  401.57   22.99
 -12   8   2  427.28   23.85
 -12   8  -2  415.40   20.35
  -8 -12  -3  186.76   15.43
 -12   8  -3  204.67   14.66
 -12   8   3  208.23   17.56
  -8 -12   3  206.32   17.27
   8  12  -3  205.53   14.95
  -8 -12   4   69.11   10.26
   8  12  -4   73.90    9.47
  -8 -12  -4   68.67    9.44
 -12   8   4   85.63   11.86
 -12   8  -4   67.77    8.79
   8  12  -5   16.94    5.24
  -8 -12   5   13.70    4.79
  -8 -12  -5   28.89    7.62
 -12   8   5   16.72    6.45
 -12   8  -5   24.49    5.81
   8  12  -6    7.88    3.97
  -8 -12   6    6.60    3.75
  -8 -12  -6    8.32    3.94
 -12   8  -6    9.05    3.76
 -12   8   6   14.73    5.78
  -8 -12   7   20.28    5.58
 -12   8  -7   26.03    6.59
   8  12  -7   15.89    5.08
 -12   8   7   29.20    7.75
   8  12  -8   32.03    8.12
  -8 -12   8   40.98    8.09
 -12   8   8   37.93   10.06
 -12   8  -8   32.06    7.45
 -12   8   8   29.82    7.10
 -12   8  -9   22.07    6.83
 -12   8   9   30.22    9.39
   8  12  -9   28.73    7.76
  -8 -12 -10   40.16    9.33
 -12   8 -10   70.82   12.58
   8  12 -10   40.60    9.93
 -12   8  10   48.64   11.66
 -12   8 -11   48.26   10.69
   7  12   0   -0.02    1.41
 -12   7   0   -0.25    1.63
   7  12   1   94.12    9.17
   7  12  -1   93.16    9.34
 -12   7   1   99.74   10.76
 -12   7  -1   93.81    8.96
 -12   7  -1   93.75    9.60
   7  12  -2   95.39    9.80
 -12   7  -2  106.01    9.67
 -12   7   2  103.17   11.57
  -7 -12   3   86.35   10.89
   7  12  -3   85.71    9.69
 -12   7  -3   92.46    9.41
 -12   7   3   92.38   11.39
  -7 -12   4  284.10   19.90
  -7 -12  -4  292.88   18.97
 -12   7   4  258.78   20.15
   7  12  -4  279.17   18.62
 -12   7  -4  283.82   17.13
  -7 -12   5  364.02   22.73
  -7 -12  -5  328.85   19.83
   7  12  -5  335.79   21.54
 -12   7   5  361.81   25.16
 -12   7  -5  346.67   19.98
   7  12  -6  280.69   20.70
  -7 -12   6  279.53   20.14
 -12   7   6  323.66   25.05
 -12   7  -6  285.37   19.33
  -7 -12  -6  329.44   19.68
  -7 -12   7  186.00   16.53
   7  12  -7  168.92   17.22
 -12   7   7  203.26   18.43
 -12   7  -7  185.33   16.55
 -12   7   7  184.53   20.11
   7  12  -8   99.53   14.00
 -12   7   8   79.67   11.61
 -12   7  -8  103.21   12.92
  -7 -12   8  101.54   12.51
 -12   7   8   99.64   15.41
 -12   7  -9   70.34   11.22
 -12   7   9   55.25   12.24
   7  12  -9   73.76   12.62
 -12   7 -10   25.77    7.71
   7  12 -10   18.77    6.81
 -12   7  10   22.01    8.26
 -12   7 -11    9.48    5.67
  -7 -12 -11   12.49    6.53
   6  12   0   30.13    5.46
 -12   6   0   24.97    5.27
   6  12   1   99.40    9.47
   6  12  -1   86.15    9.09
 -12   6   1   78.55    9.42
 -12   6  -1   92.32    8.36
 -12   6  -1   91.33    9.37
 -12   6  -2   47.37    6.23
 -12   6   2   52.12    8.29
   6  12  -2   49.21    7.26
 -12   6  -3    0.46    1.00
   6  12  -3    2.96    2.41
 -12   6   3    4.04    3.44
   6  12  -4    6.88    3.66
 -12   6   4    0.64    3.15
 -12   6  -4    7.30    2.58
   6  12  -5   55.71    9.07
  -6 -12   5   63.19    9.26
 -12   6  -5   80.16    9.36
 -12   6   5   69.63   11.43
 -12   6   6   14.33    5.31
   6  12  -6    6.15    3.73
 -12   6  -6    7.80    3.23
  -6 -12   6    9.14    3.81
  -6 -12  -6    6.24    2.75
 -12   6   6    1.56    2.43
   6  12  -7   15.45    5.54
 -12   6  -7   19.05    5.30
 -12   6   7   22.42    6.26
 -12   6   7   31.39    8.35
  -6 -12   7   20.84    5.74
   6  12  -8    1.51    2.56
 -12   6  -8   -1.18    1.93
 -12   6   8    4.42    2.60
 -12   6   8   -1.51    2.82
  -6 -12   8    4.85    4.10
   6  12  -9    1.32    3.19
 -12   6  -9    4.12    3.72
 -12   6   9   -0.99    3.86
 -12   6 -10   -2.66    3.26
  12  -6 -10    3.84    3.83
 -12   6  10    5.39    2.88
   6  12 -10   -1.44    3.71
 -12   6 -11    7.23    4.62
  -6 -12 -11    4.56    3.42
   5  12   0    3.25    2.83
 -12   5   0    2.24    2.42
 -12   5  -1   -0.39    1.10
   5  12  -1    1.10    2.15
 -12   5   1    4.12    2.91
   5  12   1    0.78    1.49
 -12   5  -1    3.17    2.57
 -12   5   2    4.22    2.69
 -12   5  -2    3.56    2.03
   5  12  -2    3.25    2.76
 -12   5  -3   17.52    3.86
   5  12  -3   15.29    4.65
 -12   5   3   17.73    4.97
   5  12  -4   15.47    4.61
 -12   5   4   16.27    5.37
 -12   5  -4   20.64    4.50
   5  12  -5    0.63    1.79
 -12   5  -5    3.93    2.65
 -12   5   5    4.42    3.13
 -12   5   6   -0.55    2.20
   5  12  -6    2.00    1.96
 -12   5  -6    1.90    2.20
  -5 -12   6    2.40    3.05
 -12   5   6    0.75    2.37
 -12   5   7    4.35    2.86
 -12   5  -7   -1.41    1.48
  -5 -12   7    1.95    2.61
 -12   5   7    2.74    3.66
   5  12  -7   -0.03    2.38
   5  12  -8   -0.02    2.32
 -12   5   8    1.02    1.85
 -12   5  -8   -2.56    3.23
  -5 -12   8    1.77    2.38
 -12   5   8    1.42    2.54
 -12   5  -9   -2.33    2.15
 -12   5   9   -1.10    3.65
   5  12  -9    0.10    2.43
  12  -5 -10    1.97    3.22
 -12   5  10    1.19    3.45
 -12   5 -10    0.68    3.62
 -12   5 -11   -3.62    3.87
  12  -5 -11   -1.55    2.89
   4  12   0    2.37    1.96
 -12   4   0    6.65    3.96
 -12   4  -1   20.93    3.65
   4  12  -1   25.42    5.67
   4  12   1   24.35    5.05
 -12   4   1   24.04    5.59
 -12   4   2    2.10    2.54
 -12   4  -2   -0.39    1.01
   4  12  -2    6.88    3.78
 -12   4  -3    2.71    1.00
   4  12  -3    3.38    2.12
 -12   4   3   -1.27    1.71
   4  12  -4   19.36    5.12
 -12   4  -4   30.95    5.24
 -12   4   4   15.64    5.46
 -12   4   5   19.62    5.74
   4  12  -5   27.27    6.53
 -12   4  -5   30.91    5.59
 -12   4   5   34.18    7.86
 -12   4   6   13.57    4.90
   4  12  -6   18.62    5.30
 -12   4  -6   11.94    3.86
 -12   4   6   14.62    5.72
 -12   4   7    4.84    3.86
 -12   4  -7    6.97    3.56
  -4 -12   7    5.95    3.03
 -12   4   7    6.20    4.80
   4  12  -7    9.65    4.63
 -12   4  -8    3.47    3.30
 -12   4   8    2.94    2.60
   4  12  -8    5.91    3.63
 -12   4   8   -5.34    3.63
  12  -4  -9    0.01    3.29
 -12   4   9    1.07    3.34
   4  12  -9   -1.41    3.56
 -12   4  -9    6.88    3.78
   4  12 -10    9.07    4.95
  12  -4 -10    8.76    5.07
 -12   4  10   -1.86    3.36
 -12   4 -10    5.30    4.25
  12  -4 -11   21.56    7.44
   3  12   0   -0.16    2.19
 -12   3   0   13.93    4.24
   3  12  -1  335.13   18.28
 -12   3   1  320.29   18.96
 -12   3  -1  313.49   12.21
   3  12   1  315.24   17.45
 -12   3  -2  202.35   10.21
 -12   3   2  171.17   14.50
   3  12  -2  169.73   13.46
 -12   3   3  224.80   17.67
   3  12  -3  247.10   10.82
 -12   3   3  217.67   17.23
   3  12  -3  212.20   15.72
 -12   3  -3  237.01   11.92
 -12   3   4  547.51   27.67
 -12   3   4  533.69   28.05
   3  12  -4  539.10   26.12
 -12   3  -4  577.74   20.39
 -12   3   5  369.97   23.14
 -12   3  -5  387.26   18.27
   3  12  -5  371.74   22.70
 -12   3   5  363.22   24.09
 -12   3  -6  310.96   17.85
 -12   3   6  318.42   21.70
   3  12  -6  268.09   20.47
 -12   3   6  310.03   23.59
 -12   3  -6  314.15   17.96
 -12   3   7  256.28   19.76
 -12   3  -7  275.31   18.20
   3  12  -7  249.35   20.77
 -12   3   7  263.37   22.79
   3  12  -8  111.99   14.65
  12  -3  -8  119.33   14.96
 -12   3   8   98.94   14.76
 -12   3  -8  113.93   12.68
 -12   3   8  127.05   14.19
  12  -3  -9   53.38   10.49
 -12   3   9   45.34   10.98
   3  12  -9   53.05   10.65
 -12   3  -9   41.79    8.22
  12  -3 -10   22.07    7.78
 -12   3  10   18.26    7.21
 -12   3 -10   17.49    5.62
   3  12 -10   15.01    5.68
  12  -3 -11    4.44    4.47
 -12   3  11    1.33    3.90
   2  12   0  787.14   27.95
 -12   2   0  792.88   28.74
  12  -2   0  777.93   17.49
   2  12  -1  344.45   18.69
  12  -2   1  379.29   11.89
 -12   2   1  355.38   19.78
   2  12   1  365.84   19.09
   2  12  -2   68.85    8.66
  12  -2   2   71.65    5.55
 -12   2  -2   76.24    5.68
   2  12  -2   83.73    6.03
 -12   2   2   79.48   10.03
   2  12  -3  205.23    8.63
 -12   2   3  166.44   14.93
   2  12  -3  187.79   14.85
 -12   2  -3  209.86   10.45
 -12   2   3  211.37   16.96
 -12   2  -4  123.29   11.77
   2  12  -4  114.76   12.24
 -12   2   4  124.00   13.56
 -12   2  -4  133.45    9.37
 -12   2   4  127.14   13.33
 -12   2   5    6.22    3.46
 -12   2  -5    4.90    1.95
 -12   2  -5    5.96    2.27
   2  12  -5   10.16    4.41
 -12   2   5    9.05    3.43
 -12   2  -6   19.84    4.53
 -12   2   6   13.95    4.75
 -12   2  -6    7.12    3.14
   2  12  -6    9.81    4.37
 -12   2   6   25.26    7.30
 -12   2   7    2.40    1.59
  12  -2  -7   11.64    5.12
   2  12  -7    6.63    3.94
 -12   2   7    7.65    4.46
 -12   2  -7    4.05    2.05
  12  -2  -8   19.03    6.70
   2  12  -8   38.53    8.88
 -12   2   8   19.68    6.65
 -12   2  -8   43.33    7.72
 -12   2   8   36.11    7.60
   2  12  -9   46.32   10.18
  12  -2  -9   16.33    6.54
 -12   2   9   43.12   10.25
 -12   2  -9   24.52    6.30
   2  12 -10   13.25    6.09
  12  -2 -10   16.54    6.57
 -12   2  10    7.24    5.45
 -12   2 -10   28.09    7.02
  12  -2 -11   16.59    6.58
 -12   2  11   21.56    7.71
   1  12   0    4.03    2.70
 -12   1   0    6.20    3.84
  12  -1   0    0.95    0.86
 -12   1   0    2.35    2.87
  12  -1   1  141.35    6.15
   1  12  -1  151.96   12.71
   1  12   1  143.25   12.21
  12  -1  -1  130.27    7.22
 -12   1   1  148.96   12.93
 -12   1  -1  131.81   12.41
   1  12  -2  290.82   17.72
 -12   1  -2  300.26   18.35
  12  -1   2  300.36   10.00
 -12   1  -2  334.59   10.39
 -12   1   2  310.68   19.25
   1  12  -2  325.57   10.59
 -12   1   3  248.35   18.20
 -12   1  -3  271.45   17.10
   1  12  -3  239.24    7.70
 -12   1   3  246.21   18.01
   1  12  -3  239.80   16.74
 -12   1  -3  260.08   10.71
 -12   1   4  379.78   22.70
 -12   1  -4  411.15   15.55
   1  12  -4  384.11   22.23
 -12   1  -4  385.06   20.00
 -12   1   4  373.27   23.08
 -12   1   5  380.13   23.18
 -12   1  -5  391.27   19.59
   1  12  -5  342.12   22.06
 -12   1   5  375.07   24.18
 -12   1  -5  402.12   17.54
 -12   1   6  455.18   25.71
 -12   1  -6  505.02   21.43
  12  -1  -6  448.97   24.01
   1  12  -6  419.06   25.69
 -12   1   6  487.01   28.84
 -12   1  -6  525.64   22.12
  12  -1  -7  303.95   21.23
 -12   1  -7  327.33   18.99
   1  12  -7  338.81   24.33
 -12   1   7  294.88   23.57
 -12   1   7  328.35   22.21
   1  12  -8  153.69   17.35
  12  -1  -8  120.13   14.53
 -12   1  -8  145.93   13.84
 -12   1   8  173.78   19.07
   1  12  -9   64.90   11.99
  12  -1  -9   38.50    8.94
 -12   1   9   71.66   12.57
 -12   1  -9   58.13    9.36
  12  -1 -10   15.71    6.03
 -12   1  10   13.56    5.54
   1  12 -10   19.72    7.20
  12  -1 -11    1.22    2.71
 -12   1  11   -0.29    5.27
 -12   0   0  169.44   14.15
  12   0   0  170.69    5.78
   0  12   0  197.20   14.27
   0  12   1  345.49   19.09
 -12   0  -1  347.86   19.96
   0  12  -1  373.73   19.92
 -12   0   1  364.02   20.31
  12   0  -1  353.79   10.78
 -12   0  -2  520.46   23.96
   0  12  -2  553.06   24.80
 -12   0   2  527.05   24.94
   0  12  -2  548.66   12.00
 -12   0  -2  549.10   11.01
 -12   0  -3  283.13   17.31
 -12   0   3  288.76   19.32
 -12   0  -3  315.43   10.74
   0  12  -3  283.75   18.37
 -12   0   3  283.59   19.31
  12   0  -4   58.60    7.52
 -12   0  -4   55.72    5.45
 -12   0  -4   45.79    6.76
   0  12  -4   50.00    8.22
 -12   0   4   30.14    6.69
 -12   0   4   45.63    8.43
 -12   0   5    1.69    1.65
  12   0  -5    2.50    2.51
 -12   0   5   -1.16    1.90
 -12   0  -5   -0.05    1.48
 -12   0  -5    1.43    0.89
 -12   0  -6    5.42    2.80
  12   0  -6   -2.45    2.76
 -12   0   6    1.45    2.15
 -12   0  -6    1.47    1.71
   0  12  -6   -0.97    2.59
 -12   0   6    3.01    2.41
 -12   0   7    2.06    3.33
   0  12  -7   -0.12    1.91
  12   0  -7   -2.30    2.63
 -12   0  -7   -1.07    1.61
   0  12  -8    4.32    2.14
  12   0  -8   14.42    5.08
 -12   0   8    8.59    4.94
 -12   0  -8   10.59    3.80
  12   0  -9   34.16    8.93
 -12   0   9   40.31    9.88
 -12   0  -9   32.74    7.36
   0  12  -9   32.47    8.63
  12   0 -10   42.04    9.97
   0  12 -10   61.20   12.36
 -12   0  10   50.74   11.29
  12   0 -11   26.72    7.98
 -12   0  11   31.24    9.80
 -12  -1   0    4.00    2.83
  -1  12   0    5.60    2.95
  12   1  -1   62.76    4.14
  -1  12   1   48.03    7.40
  -1  12  -1   55.10    7.75
 -12  -1  -1   70.34    8.93
  12   1  -1   60.18    4.05
 -12  -1   1   59.40    8.22
 -12  -1  -2    1.57    1.37
  -1  12  -2    1.58    2.58
  12   1  -2    0.84    1.00
 -12  -1   2    1.11    2.00
  -1  12  -2    0.56    0.51
 -12  -1   3    3.33    2.81
  12   1  -3    8.08    2.77
 -12  -1  -3    1.58    0.95
  -1  12  -3    4.01    2.67
 -12  -1   3    6.01    3.31
 -12  -1  -3    1.29    1.97
 -12  -1  -4    2.87    0.93
 -12  -1  -4    2.89    2.79
  12   1  -4    5.48    3.01
 -12  -1   4    5.81    3.70
  -1  12  -4    0.44    2.43
 -12  -1   4    2.83    2.67
 -12  -1  -5   36.34    6.06
 -12  -1   5   25.72    6.39
  12   1  -5   25.02    5.14
  -1  12  -5   37.12    7.27
 -12  -1   5   16.69    5.13
 -12  -1  -5   26.11    4.32
  12   1  -6   51.86    7.94
  -1  12  -6   30.84    7.40
 -12  -1  -6   38.59    5.76
 -12  -1   6   31.82    7.66
  -1  12  -7    9.09    4.26
  12   1  -7    7.53    3.90
 -12  -1  -7   13.02    4.09
 -12  -1   7   12.13    5.08
 -12  -1  -8    3.31    2.68
 -12  -1   8   -1.84    3.09
  12   1  -8    8.58    4.63
  -1  12  -8    2.68    2.72
  -1  12  -9    6.51    5.33
  12   1  -9    4.16    3.74
 -12  -1  -9    0.66    1.62
 -12  -1   9    3.36    3.93
  -1  12 -10    7.94    4.34
  12   1 -10   -1.63    2.64
 -12  -1  10    6.86    5.00
  12   1 -11    1.76    2.11
 -12  -1  11   -6.73    2.78
 -12  -2   0   21.88    5.25
  -2  12   0   25.36    5.86
 -12  -2  -1   12.86    3.86
 -12  -2  -1    6.92    2.71
  12   2  -1   15.10    1.83
  -2  12   1   17.09    4.65
  -2  12  -1   13.65    4.39
  12   2  -1   14.95    1.86
 -12  -2   1   18.07    5.00
 -12  -2  -2   36.54    6.56
  -2  12  -2   36.14    6.94
 -12  -2  -2   32.00    6.06
  12   2  -2   34.40    3.86
 -12  -2   2   28.75    6.06
 -12  -2   2   32.50    6.31
 -12  -2   3    7.68    3.68
 -12  -2   3   12.36    4.42
 -12  -2  -3    6.86    1.31
 -12  -2  -3    8.05    2.86
  -2  12  -3    2.09    2.37
 -12  -2   3    4.52    2.07
  12   2  -3    7.04    2.44
 -12  -2  -4   63.13    5.39
  12   2  -4   47.14    6.31
  -2  12  -4   43.94    7.81
 -12  -2   4   52.69    8.89
  -2  12  -5   14.10    4.67
 -12  -2  -5   17.18    3.47
 -12  -2   5   21.01    6.32
  12   2  -5   20.73    4.80
  -2  12  -6   13.27    5.05
  12   2  -6    9.73    3.89
 -12  -2  -6   14.50    3.50
 -12  -2   6   19.64    6.33
  12   2  -7    4.57    4.31
  -2  12  -7    5.98    3.77
 -12  -2  -7    2.30    2.05
 -12  -2   7    3.60    3.10
  12   2  -8    4.35    2.88
 -12  -2  -8    0.98    1.52
  -2  12  -8    0.28    2.99
  -2  12  -9   -1.67    3.79
  12   2  -9   -1.15    2.18
 -12  -2   9    7.09    4.82
  12   2 -10   10.11    5.73
  -2  12 -10    3.00    3.71
 -12  -2  10   -0.23    3.20
  12   2 -11   -0.84    2.38
 -12  -2  11  -17.29    6.91
  -3  12   0   -1.37    2.23
 -12  -3   0    4.28    3.39
 -12  -3  -1    2.76    2.72
  -3  12  -1    3.36    2.19
  -3  12   1   -0.75    2.19
  12   3  -1    0.77    0.36
  -3  12  -2    4.13    3.37
  12   3  -2    7.03    1.99
 -12  -3  -2    2.28    2.52
 -12  -3   2    3.02    2.86
 -12  -3   2    1.40    2.33
 -12  -3  -3    4.17    0.95
 -12  -3  -3    4.84    2.27
 -12  -3   3    1.51    2.86
  12   3  -3    2.74    1.55
  -3  12  -3    5.10    3.14
 -12  -3   3   -0.63    2.00
 -12  -3   4    3.65    3.30
  12   3  -4    0.59    1.22
  -3  12  -4    2.18    2.96
 -12  -3  -4    1.32    1.36
 -12  -3   4    0.39    2.72
 -12  -3   5    3.97    3.16
  12   3  -5    8.90    3.24
  -3  12  -5    3.84    2.65
 -12  -3  -5    5.52    2.25
 -12  -3   5    2.90    3.08
  12   3  -6    9.05    3.73
  -3  12  -6    8.20    3.92
 -12  -3  -6    7.01    2.54
 -12  -3   6    0.92    2.01
  -3  12  -7    3.13    2.70
 -12  -3  -7    5.32    2.82
  12   3  -7    6.40    3.60
 -12  -3   7    0.95    3.26
  -3  12  -8    7.27    4.50
  12   3  -8    6.81    3.09
 -12  -3   8   12.05    4.97
  -3  12  -9    9.41    5.31
  12   3  -9    1.38    3.02
 -12  -3   9    4.02    2.74
  12   3 -10    6.34    4.05
  -3  12 -10    6.02    3.81
 -12  -3  10    7.85    4.40
  12   3 -11    6.35    5.03
 -12  -3  11    1.43    3.52
  -4  12   0  828.19   30.70
 -12  -4  -1  776.14   30.24
  -4  12   1  788.56   30.05
  -4  12  -1  837.94   18.60
  -4  12  -1  792.42   30.28
  12   4  -1  718.93   11.83
  12   4  -2  678.34   16.72
 -12  -4  -2  632.78   27.07
 -12  -4   2  627.78   28.20
  -4  12  -2  629.16   27.49
 -12  -4   2  639.22   27.73
  12   4  -3  337.99   14.45
 -12  -4   3  317.89   20.30
 -12  -4  -3  319.09    8.14
 -12  -4   3  336.48   20.68
 -12  -4  -3  336.74   19.55
 -12  -4  -3  281.64    7.54
  -4  12  -3  317.66   20.08
 -12  -4  -4  310.65   11.46
  12   4  -4  291.58   15.37
 -12  -4   4  283.88   19.61
  -4  12  -4  298.09   19.96
 -12  -4   4  258.69   18.62
 -12  -4  -4  289.42   18.02
 -12  -4  -5   91.25    7.60
 -12  -4   5   87.17   11.13
 -12  -4  -5   59.11    8.10
  12   4  -5   75.90    8.84
  -4  12  -5   86.33   11.43
 -12  -4   5   74.62   10.35
 -12  -4   6    3.72    2.75
  -4  12  -6    4.43    2.88
 -12  -4  -6    0.77    1.10
  12   4  -6    0.22    1.96
 -12  -4   6    3.83    2.93
  -4  12  -7   16.72    6.00
 -12  -4  -7   13.30    3.63
  12   4  -7   12.25    4.33
 -12  -4   7   21.33    6.00
  -4  12  -8   59.16   10.89
  12   4  -8   74.01   11.25
 -12  -4   8   78.96   12.47
  12   4  -9   74.54   12.17
 -12  -4   9   66.67   12.11
  -4  12  -9   68.91   12.28
  -4  12 -10   87.75   14.52
  12   4 -10   76.36   13.07
 -12  -4  10   83.66   14.00
  12   4 -11   53.75   11.39
 -12  -4  11   56.20   11.92
  -5  12   0    3.00    2.90
  -5  12   1    1.00    2.24
 -12  -5  -1    0.42    1.92
  -5  12  -1    1.71    1.28
  12   5  -1    1.77    0.76
  -5  12  -1    0.39    2.62
 -12  -5  -2   10.73    4.28
  -5  12  -2    7.07    3.40
  -5  12  -2   11.49    1.63
 -12  -5   2   14.06    4.81
  12   5  -2    9.79    2.21
 -12  -5   2   19.71    5.66
  -5  12  -3  123.42   12.69
 -12  -5  -3  119.43    5.23
  12   5  -3  119.82    8.74
 -12  -5  -3  115.39   11.62
 -12  -5   3  127.89   13.01
 -12  -5   3  124.70   12.62
 -12  -5   4   21.41    5.76
 -12  -5  -4   25.46    3.34
 -12  -5  -4   28.90    5.81
  12   5  -4   22.17    4.45
  -5  12  -4   26.10    6.47
 -12  -5   4   18.58    5.31
 -12  -5  -5   54.15    5.89
 -12  -5  -5   50.57    7.55
 -12  -5   5   36.94    7.56
  -5  12  -5   49.24    8.81
  12   5  -5   42.47    6.78
 -12  -5   5   49.75    8.70
 -12  -5   6    4.35    3.20
 -12  -5  -6   10.43    3.09
  -5  12  -6    4.10    2.90
  12   5  -6    8.04    3.61
 -12  -5   6    6.60    3.67
 -12  -5   7   27.17    6.34
  -5  12  -7   18.14    6.22
  12   5  -7   22.92    5.79
 -12  -5   7   13.46    4.95
  -5  12  -8   24.99    7.63
  12   5  -8   31.62    7.74
 -12  -5   8   25.47    7.21
  -5  12  -9   -0.47    2.19
  12   5  -9   -2.55    3.10
  -5  12 -10   13.08    6.31
  12   5 -10    2.03    2.79
 -12  -5  10    9.26    5.42
  12   5 -11  -15.47    6.39
 -12  -5  11    5.26    4.83
 -12  -6   0  623.75   28.09
  -6  12   0  580.84   20.17
  -6  12   0  569.04   25.88
 -12  -6  -1  662.68   28.61
 -12  -6   1  588.27   27.52
  -6  12   1  584.20   26.58
  -6  12  -1  670.11   18.28
  -6  12  -1  605.00   26.92
  12   6  -1  612.56   13.40
 -12  -6  -2  556.49   25.92
 -12  -6   2  605.31   28.37
  -6  12  -2  600.36   27.40
  12   6  -2  591.62   16.73
  -6  12  -2  603.63   13.14
 -12  -6  -3  315.98    9.42
  -6  12  -3  313.49   20.36
 -12  -6  -3  333.63   20.02
 -12  -6   3  321.29   20.83
  12   6  -3  311.41   14.41
 -12  -6   3  306.29   19.78
 -12  -6  -4  174.97    9.06
  12   6  -4  156.57   11.50
 -12  -6  -4  173.61   14.23
 -12  -6   4  155.81   14.55
 -12  -6   4  161.33   15.16
  -6  12  -4  168.57   15.24
 -12  -6  -5   48.15    7.45
 -12  -6   5   43.30    7.85
 -12  -6  -5   42.47    5.42
  -6  12  -5   48.97    8.82
  12   6  -5   41.85    6.89
 -12  -6   5   43.49    8.05
 -12  -6   6    0.59    2.38
 -12  -6  -6    5.03    2.60
  -6  12  -6    3.91    3.66
  12   6  -6    3.72    2.05
 -12  -6   6   -0.61    2.31
 -12  -6   7    8.28    4.00
  -6  12  -7    7.40    4.45
  12   6  -7    5.56    3.42
 -12  -6   7   10.98    4.84
 -12  -6   8   35.20    7.64
  -6  12  -8   39.16    9.01
  12   6  -8   43.65    8.82
 -12  -6   8   31.42    8.03
  -6  12  -9   52.65   11.21
  12   6  -9   67.66   11.39
 -12  -6   9   61.22   11.25
  -6  12 -10   93.13   15.22
  12   6 -10   88.68   13.85
 -12  -6  10   99.15   14.73
  12   6 -11   70.99   13.51
 -12  -7   0    0.74    0.53
 -12  -7   0    1.21    2.86
  -7  12   0    0.25    3.00
  -7  12   0    1.84    2.57
 -12  -7   1  141.00   13.81
  -7  12   1  150.69   13.63
  -7  12   1  149.38   11.77
  -7  12  -1  155.81    9.39
  -7  12  -1  157.61   13.88
 -12  -7  -1  150.96   13.96
  12   7  -1  147.73    7.31
 -12  -7  -2  104.47   11.51
 -12  -7   2   92.67   11.26
  12   7  -2  108.36    7.55
  -7  12  -2  107.99   11.77
  -7  12  -2  120.15    6.72
 -12  -7  -3   57.92    4.51
  -7  12  -3   57.94    8.72
 -12  -7  -3   55.75    8.59
 -12  -7   3   58.93    9.57
  12   7  -3   63.35    6.71
  12   7  -4  159.55   11.89
 -12  -7   4  142.65   14.35
  -7  12  -4  148.34   14.38
 -12  -7  -4  147.68   13.48
 -12  -7  -4  160.59    9.10
 -12  -7   4  128.74   13.16
  12   7  -5  149.45   12.75
 -12  -7  -5  163.09   13.94
 -12  -7   5  150.96   15.08
 -12  -7   5  145.40   14.42
  -7  12  -5  143.16   14.73
 -12  -7  -6   65.32    8.65
 -12  -7   6   63.32   10.01
  -7  12  -6   78.54   11.46
  12   7  -6   77.76    9.95
 -12  -7   6   74.15   11.18
 -12  -7   7   39.51    8.16
  -7  12  -7   39.71    8.84
  12   7  -7   30.75    7.29
 -12  -7   7   24.84    6.66
  -7  12  -8   64.97   11.51
  12   7  -8   50.03    9.44
 -12  -7   8   46.97    8.65
 -12  -7   8   50.65    9.78
  -7  12  -9   10.44    4.82
  12   7  -9    7.82    4.34
 -12  -7   9    5.04    4.05
  -7  12 -10    0.76    2.61
  12   7 -10    8.09    5.98
  12   7 -11   12.77    5.94
  -8  12   0    4.58    2.98
 -12  -8   0    2.49    2.67
  -8  12   0    3.48    1.62
  -8  12  -1   21.34    5.43
 -12  -8   1   20.37    5.08
 -12  -8  -1   17.81    5.01
  12   8  -1   25.13    3.42
  -8  12   1   23.61    5.15
  -8  12   1   20.33    5.34
  -8  12  -1   25.93    4.13
 -12  -8  -2  198.87   16.20
 -12  -8   2  185.82   16.32
  -8  12  -2  195.28   16.09
  -8  12  -2  213.91    9.83
  12   8  -2  211.19   11.07
  12   8  -3   54.58    6.55
  -8  12  -3   50.40    8.36
 -12  -8  -3   51.79    8.45
 -12  -8   3   36.64    7.38
  12   8  -4   14.60    3.79
 -12  -8  -4   14.38    4.01
 -12  -8   4   13.70    5.14
  -8  12  -4    9.19    3.40
 -12  -8   4   15.95    4.80
 -12  -8  -5   15.04    4.81
 -12  -8   5    9.07    3.90
  -8  12  -5    8.73    4.34
  12   8  -5   18.02    4.93
 -12  -8   5    7.70    3.20
 -12  -8  -6    0.11    1.40
 -12  -8   6   -1.50    2.87
  -8  12  -6    2.72    3.22
  12   8  -6    3.46    2.11
 -12  -8   6    4.46    4.43
 -12  -8   7    6.14    3.38
  -8  12  -7   15.81    5.50
  12   8  -7    3.89    3.43
 -12  -8   7    8.70    4.68
 -12  -8   8    0.17    2.91
  -8  12  -8   -3.65    3.17
  12   8  -8   -1.45    2.68
 -12  -8   8   -0.47    2.55
  -8  12  -9    8.26    4.63
  12   8  -9   -3.75    4.61
 -12  -8   9    6.82    4.15
  -8  12 -10    5.07    6.63
  12   8 -10   13.07    5.71
  12   8 -11   -1.54    2.90
  -9  12   0    4.88    3.52
 -12  -9   0    5.06    3.65
  12   9   0   -0.09    0.78
  -9  12   0    0.98    1.35
  -9  12  -1    1.09    2.66
  12   9  -1    1.87    1.58
  -9  12   1   -1.09    1.94
 -12  -9  -1    0.54    2.54
 -12  -9   1    0.50    2.58
  -9  12  -1    2.34    1.31
 -12  -9  -2   26.29    6.44
  -9  12   2   29.25    6.20
  -9  12  -2   17.66    4.91
  12   9  -2   30.80    4.56
 -12  -9   2   30.08    7.17
  -9  12  -2   29.18    4.23
 -12  -9  -3   44.45    8.30
 -12  -9   3   48.32    8.56
  12   9  -3   54.10    6.74
  -9  12  -3   63.82    9.55
  -9  12   3   55.33    8.83
  -9  12  -4   54.27    9.01
  12   9  -4   67.27    8.26
 -12  -9  -4   43.71    8.00
 -12  -9   4   54.35    9.11
  12   9  -5   18.51    5.06
 -12  -9   5   21.27    6.45
 -12  -9  -5   18.23    5.32
  -9  12  -5    9.13    3.91
 -12  -9   5   18.15    5.63
 -12  -9  -6    3.83    1.93
 -12  -9   6    6.67    3.42
  -9  12  -6    6.59    4.34
  12   9  -6    4.33    2.85
 -12  -9   6    4.34    3.00
 -12  -9   7    3.37    3.22
  -9  12  -7   13.54    5.20
  12   9  -7   13.08    4.97
 -12  -9   7    8.33    4.12
 -12  -9   8   11.45    4.23
  -9  12  -8    1.35    2.27
  12   9  -8    5.31    3.17
 -12  -9   8    2.45    2.86
  -9  12  -9   17.50    5.93
  12   9  -9   17.88    6.56
  12   9 -10    4.37    3.11
  -9  12 -10   10.88    5.96
 -10  12   0  291.26   19.50
  12  10   0  306.26   12.42
 -12 -10   0  298.27   21.01
 -10  12   0  302.94   16.95
 -12 -10  -1   45.20    8.48
 -10  12  -1   42.24    7.26
 -12 -10   1   30.84    6.95
 -10  12   1   35.20    6.52
  12  10  -1   40.36    5.08
 -10  12  -1   37.87    5.50
 -12 -10  -2   28.50    6.35
 -12 -10   2   43.15    8.54
 -10  12   2   34.94    7.32
 -10  12  -2   34.81    6.86
  12  10  -2   39.64    5.51
 -12 -10   3   21.09    6.14
 -12 -10  -3   23.14    5.87
 -10  12  -3   26.81    6.28
  12  10  -3   31.58    5.28
 -10  12   3   22.20    6.11
 -10  12  -4   -1.27    3.00
  12  10  -4    0.41    2.13
 -12 -10  -4    3.49    2.31
 -12 -10   4    0.01    2.09
 -10  12   4    3.07    3.59
 -12 -10  -5    6.25    3.35
 -12 -10   5    7.20    3.85
  12  10  -5    4.69    3.18
 -10  12  -5    5.64    3.51
  12  10  -6   -0.72    1.67
 -12 -10  -6    1.51    2.80
 -12 -10   6    2.30    3.37
 -10  12  -6    2.88    3.05
 -12 -10   6   -1.49    2.12
 -12 -10   7    1.57    2.01
 -10  12  -7    3.66    3.87
 -12 -10   7    1.85    1.87
  12  10  -7    2.30    3.62
 -12 -10   8   -1.21    3.29
  12  10  -8    5.03    4.23
 -10  12  -9   -2.97    3.68
  12  10  -9   -3.01    3.82
 -10  12 -10    2.94    3.21
  12  10 -10    0.40    3.73
  12  11   0    1.12    1.23
 -11  12   0    5.04    3.13
 -12 -11   0    1.15    2.36
 -11  12   0    2.03    2.45
 -12 -11   1   31.84    6.97
 -12 -11  -1   26.57    6.41
 -11  12   1   36.99    6.74
 -11  12  -1   36.62    7.29
 -11  12  -1   30.30    5.11
  12  11  -1   32.49    4.87
 -11  12  -2   93.26   11.38
 -12 -11   2   57.38    9.71
 -12 -11  -2   68.34   10.61
 -11  12   2   91.56   11.16
  12  11  -2   72.35    7.78
 -12 -11   3  285.28   21.54
 -12 -11  -3  327.40   22.11
 -11  12  -3  316.74   21.13
 -11  12   3  313.05   21.77
  12  11  -3  299.39   16.72
 -11  12  -4  628.58   30.67
 -12 -11   4  613.19   32.19
 -11  12   4  621.68   32.76
  12  11  -4  664.89   27.01
 -12 -11  -4  630.18   30.35
 -12 -11   5  379.61   25.51
 -12 -11  -5  424.56   24.66
  12  11  -5  408.14   22.71
 -11  12   5  391.93   27.27
 -11  12  -5  390.08   24.98
 -12 -11  -6  293.04   20.28
 -12 -11   6  262.68   21.54
  12  11  -6  264.80   19.65
 -11  12   6  262.55   23.64
 -11  12  -6  233.63   20.02
  12  11  -7  235.55   19.87
 -12 -11   7  241.21   20.84
 -11  12   7  179.06   20.37
 -12 -11   7  203.49   18.00
 -11  12  -7  217.59   20.18
  12  11  -8  159.03   17.32
 -12 -11   8  145.23   16.71
 -11  12  -8  144.17   17.32
 -11  12  -9   85.34   14.20
  12  11  -9   79.26   13.11
 -11  12 -10   25.79    8.27
  12  11 -10   21.51    7.79
 -12  12   0    5.66    3.63
 -12 -12   0   -1.28    2.85
 -12  12   0    5.77    3.15
 -12  12  -1    5.36    3.56
  12  12  -1    3.51    2.06
 -12 -12   1    5.35    2.83
 -12 -12  -1   -2.25    2.12
 -12  12   1    0.60    2.69
 -12  12  -1    3.17    2.83
 -12  12  -2    0.82    1.78
  12  12  -2    0.99    1.69
 -12 -12  -2    5.24    4.57
 -12  12   2    7.15    3.43
 -12 -12   2    0.55    2.33
 -12 -12  -3   -1.80    2.65
 -12 -12   3    7.30    4.79
 -12  12   3    4.60    4.13
 -12  12  -3    5.14    2.85
  12  12  -3   -2.11    1.66
 -12 -12   4    4.09    4.76
 -12 -12  -4   -1.48    2.54
 -12  12  -4    4.35    3.50
  12  12  -4    3.04    2.96
 -12  12   4    4.81    3.37
 -12  12  -5   22.62    6.46
 -12 -12   5   30.47    7.25
  12  12  -5   21.42    5.68
 -12 -12  -5   25.64    6.48
 -12  12   5   15.74    5.75
 -12 -12   6   11.82    4.72
  12  12  -6   13.04    4.87
 -12  12   6    5.73    3.41
 -12 -12  -6    8.80    4.02
 -12  12  -6   13.97    5.16
  12  12  -7   -0.03    2.85
 -12 -12   7   -1.93    2.89
 -12  12   7   -0.27    3.74
 -12  12  -7   -3.02    4.22
 -12 -12   8    3.68    3.11
 -12  12   8    5.96    4.16
 -12  12  -8    3.85    3.63
  12  12  -8   -1.85    4.35
  12  12  -9   -4.70    3.83
 -12  12  -9    3.43    3.45
  12  12 -10    0.51    2.85
 -13  12   0    0.18    1.80
 -12 -13   0    1.08    2.22
 -13  12   0    0.40    1.83
 -13  12  -1   34.30    6.95
 -12 -13   1   29.44    7.27
 -12 -13  -1   29.69    7.02
 -13  12   1   44.88    7.76
 -13  12  -1   36.42    6.13
  12  13  -2  143.33   11.81
 -12 -13   2  133.54   15.55
 -12 -13  -2  158.20   16.46
 -13  12   2  138.73   14.46
 -13  12  -2  144.62   14.43
 -12 -13   3  267.27   22.31
 -12 -13  -3  224.53   19.28
 -13  12  -3  254.56   19.42
 -13  12   3  242.28   20.08
  12  13  -3  249.01   16.58
 -12 -13   4  389.78   26.92
 -12 -13  -4  381.97   25.17
 -13  12  -4  411.71   25.24
 -13  12   4  405.27   27.28
  12  13  -4  365.77   21.23
 -12 -13   5  226.55   20.63
 -12 -13  -5  243.24   19.74
 -13  12   5  241.83   22.21
  12  13  -5  238.24   18.28
 -13  12  -5  228.27   19.46
 -13  12  -6  151.19   16.31
 -12 -13  -6  184.27   17.15
  12  13  -6  151.92   15.50
 -12 -13   6  147.68   17.09
 -13  12   6  155.47   18.62
 -12 -13   7  209.82   20.43
  12  13  -7  179.88   17.89
 -13  12   7  213.80   22.87
 -13  12  -7  212.40   20.11
  12  13  -8  116.72   15.13
 -12 -13   8  128.73   16.29
 -13  12   8  118.58   17.77
 -13  12  -8  113.58   15.46
 -13  12  -9   43.31   10.07
  12  13  -9   38.30    9.54
  12  13 -10    7.89    4.61
  11  13   0  238.99   14.18
 -11 -13   0  207.20   18.54
 -13  11   0  222.40   16.03
 -13  11  -1  168.41   14.76
 -11 -13  -1  177.88   17.11
 -11 -13   1  161.74   16.54
 -13  11   1  184.45   15.56
  11  13  -1  170.15   12.42
 -13  11  -1  181.43   13.76
  11  13  -2  136.20   11.64
 -11 -13   2  119.84   14.63
 -11 -13  -2  131.56   14.85
 -13  11  -2  136.86   13.47
 -13  11   2  127.86   13.79
 -11 -13   3  124.77   14.84
 -11 -13  -3  135.42   14.83
 -13  11   3  134.93   15.10
 -13  11  -3  126.93   13.27
  11  13  -3  123.17   11.74
 -11 -13   4   64.69   10.56
 -11 -13  -4   60.75    9.75
 -13  11  -4   54.27    9.08
  11  13  -4   56.84    8.81
 -13  11   4   49.47    9.49
 -13  11  -5   11.41    3.72
 -11 -13   5    8.63    4.35
 -11 -13  -5   10.86    4.28
  11  13  -5   18.03    4.97
 -13  11   5   11.33    6.13
  11  13  -6   -0.86    1.68
 -11 -13   6   -5.80    3.65
 -11 -13  -6    3.59    2.76
 -13  11   6   -2.74    4.72
 -13  11  -6    0.96    2.04
  11  13  -7    8.62    3.70
 -11 -13   7    9.78    5.08
 -13  11   7   14.23    6.00
 -13  11  -7   13.17    5.81
  11  13  -8   50.66   10.24
 -11 -13   8   44.40    9.52
 -13  11   8   43.84   10.75
 -13  11  -8   33.75    8.36
  11  13  -9   38.69    9.23
 -13  11  -9   55.39   11.09
  11  13 -10   46.97   11.02
 -13  11 -10   42.68   10.30
  10  13   0    5.75    2.87
 -10 -13   0   -1.26    2.29
 -13  10   0    1.51    2.62
 -13  10  -1   10.89    3.70
 -10 -13   1   15.55    5.96
 -10 -13  -1   21.12    5.91
 -13  10   1   13.22    4.50
  10  13  -1   16.90    4.46
 -13  10  -1   13.01    3.91
  10  13  -2   39.91    6.52
 -13  10  -2   37.85    6.86
 -10 -13   2   44.98    8.84
 -10 -13  -2   30.24    7.19
 -13  10   2   48.85    8.56
 -10 -13   3  189.10   17.82
 -13  10  -3  214.36   16.57
 -13  10   3  190.42   17.48
 -10 -13  -3  199.46   17.59
  10  13  -3  195.24   15.07
 -10 -13   4  206.83   18.68
 -10 -13  -4  172.47   16.20
 -13  10  -4  187.83   15.82
 -13  10   4  190.69   18.47
  10  13  -4  183.40   15.31
 -10 -13  -5  158.59   15.44
 -10 -13   5  147.78   16.08
  10  13  -5  168.65   15.55
 -13  10   5  157.85   17.35
 -13  10  -5  160.20   15.21
  10  13  -6   90.88   12.12
 -10 -13   6   60.10   10.38
 -10 -13  -6   64.10    9.65
 -13  10   6   56.50   11.22
 -13  10  -6   64.04   10.04
 -10 -13   7   55.07   10.35
 -13  10   7   63.74   12.75
 -13  10  -7   66.35   10.64
  10  13  -7   57.67   10.42
 -13  10  -8   55.25   10.24
 -13  10   8   39.50   10.24
  10  13  -8   43.09    9.03
 -10 -13   8   35.07    7.82
  10  13  -9   17.13    6.68
 -13  10  -9   28.00    7.83
 -13  10   9   13.90    6.50
 -13  10 -10   -2.10    2.81
  10  13 -10   -0.93    2.64
  -9 -13   0  394.15   24.45
 -13   9   0  383.38   20.95
   9  13   0  381.21   18.71
 -13   9  -1  179.52   13.89
  -9 -13  -1  156.68   15.56
  -9 -13   1  145.19   14.98
   9  13  -1  162.41   12.63
 -13   9   1  181.35   15.21
 -13   9  -1  163.53   13.17
   9  13  -2   42.60    6.59
 -13   9  -2   42.80    6.77
  -9 -13   2   36.47    7.68
  -9 -13  -2   40.49    7.89
 -13   9   2   47.74    8.45
  -9 -13   3   92.26   12.29
 -13   9  -3  127.72   12.28
  -9 -13  -3  104.25   12.63
 -13   9   3  115.64   13.62
   9  13  -3  131.29   12.44
 -13   9  -4   59.58    8.64
  -9 -13   4   50.15    9.22
  -9 -13  -4   64.39    9.70
   9  13  -4   54.78    8.42
 -13   9   4   48.13    9.19
   9  13  -5    6.35    3.08
  -9 -13  -5    8.74    3.92
 -13   9   5    4.18    3.88
  -9 -13   5    5.98    4.00
 -13   9  -5    5.80    2.95
   9  13  -6    5.94    3.99
  -9 -13   6    7.27    3.80
  -9 -13  -6    7.88    4.35
 -13   9   6    7.95    4.83
 -13   9  -6    7.05    3.33
   9  13  -7    5.49    4.21
  -9 -13   7    0.08    2.73
 -13   9  -7    8.60    4.24
 -13   9   7    0.83    3.19
   9  13  -8    6.42    3.74
  -9 -13   8   11.29    4.38
 -13   9  -8    9.43    5.05
 -13   9   8    8.44    5.23
 -13   9   8   16.74    5.89
   9  13  -9    4.27    3.65
 -13   9  -9    5.15    4.38
 -13   9   9    3.76    3.05
 -13   9 -10    9.23    4.57
   9  13 -10    8.84    6.09
  -8 -13   0    1.15    2.89
   8  13   0    0.26    1.75
 -13   8   0    1.79    2.68
 -13   8  -1    0.64    1.79
  -8 -13   1   -2.46    3.23
   8  13  -1    2.68    2.62
 -13   8   1   -0.54    2.09
   8  13   1    1.66    1.86
 -13   8  -1    0.09    1.43
 -13   8  -2    4.01    2.01
   8  13  -2    9.45    3.89
  -8 -13   2    4.14    3.33
  -8 -13  -2   10.85    4.50
 -13   8   2    7.02    3.33
  -8 -13   3    6.08    2.51
  -8 -13  -3    6.61    3.69
 -13   8  -3    5.73    2.65
 -13   8   3   10.19    4.04
   8  13  -3   13.05    4.63
 -13   8  -4    1.25    1.82
  -8 -13   4    3.79    3.73
  -8 -13  -4    0.11    1.99
   8  13  -4    1.75    2.39
 -13   8   4    0.95    2.64
   8  13  -5    9.65    4.55
  -8 -13   5    3.29    2.59
  -8 -13  -5    6.93    3.72
 -13   8   5    0.94    2.22
 -13   8  -5    3.75    2.30
   8  13  -6   -0.06    2.25
  -8 -13   6    2.55    2.51
  -8 -13  -6   10.49    4.39
 -13   8   6   10.24    5.07
 -13   8  -6    7.39    3.73
   8  13  -7   -0.59    2.89
  -8 -13   7    3.67    3.67
 -13   8  -7    3.12    1.99
 -13   8   7   -1.79    2.89
 -13   8   8   11.44    5.27
   8  13  -8    3.30    3.75
  -8 -13   8    2.70    2.12
 -13   8  -8    7.52    4.28
 -13   8   8   10.18    5.82
 -13   8  -9    8.90    4.13
 -13   8   9    0.32    2.86
   8  13  -9    4.15    3.54
   8  13 -10    7.69    4.01
 -13   8 -10    6.43    3.57
 -13   7   0  169.96   13.84
   7  13   0  191.30   13.70
 -13   7  -1  198.01   13.19
   7  13   1  187.66   13.47
   7  13  -1  221.78   15.12
 -13   7   1  199.62   15.87
 -13   7  -1  190.70   14.17
   7  13  -2  260.34   16.86
 -13   7   2  270.88   19.31
 -13   7  -2  281.14   15.94
 -13   7  -3  111.44   10.41
 -13   7   3  113.06   13.12
   7  13  -3  109.25   11.45
 -13   7  -4   68.29    8.55
  -7 -13   4   61.67    9.64
   7  13  -4   52.63    8.35
 -13   7   4   45.14    8.57
  -7 -13   5   14.19    4.69
  -7 -13  -5   18.77    5.01
 -13   7   5   24.98    7.36
 -13   7  -5   24.32    5.43
   7  13  -5   32.62    7.32
   7  13  -6   -1.22    2.50
  -7 -13   6    2.26    2.51
  -7 -13  -6    4.39    3.29
 -13   7  -6    0.49    2.38
 -13   7   6    3.68    4.48
   7  13  -7    1.43    2.33
  -7 -13   7    8.90    4.27
 -13   7  -7    2.98    1.75
 -13   7   7    4.83    3.49
 -13   7   7    0.64    3.61
 -13   7   8   19.15    5.91
   7  13  -8   34.48    8.78
 -13   7  -8   25.56    6.92
  -7 -13   8   36.93    7.74
 -13   7   8   25.53    7.39
   7  13  -9   11.23    4.96
 -13   7   9   27.47    9.32
 -13   7  -9   30.89    7.84
   7  13 -10   22.84    7.68
 -13   7 -10   27.45    7.67
  -7 -13 -11   31.23    8.82
   6  13   0   -0.74    1.64
 -13   6   0    1.02    2.16
   6  13   1   53.27    7.39
 -13   6  -1   66.76    7.31
   6  13  -1   58.19    7.90
 -13   6   1   60.63    9.16
 -13   6  -1   65.54    8.47
 -13   6  -2   49.85    6.54
   6  13  -2   46.64    7.22
 -13   6   2   40.38    7.75
 -13   6  -3   54.23    7.04
 -13   6   3   53.05    8.75
   6  13  -3   48.00    7.71
   6  13  -4   27.08    6.21
 -13   6   4   36.16    8.41
 -13   6  -4   47.22    6.69
   6  13  -5   30.69    7.19
 -13   6   5   28.68    8.05
  -6 -13   5   35.97    7.39
 -13   6  -5   32.81    6.03
 -13   6   6   39.04    8.66
  -6 -13   6   30.25    7.11
 -13   6  -6   41.94    7.29
 -13   6   6   51.18   10.29
   6  13  -6   31.29    7.13
   6  13  -7    7.03    4.00
 -13   6   7    9.29    4.80
 -13   6  -7   15.25    4.72
  -6 -13   7   11.97    4.76
 -13   6   7    6.62    4.21
 -13   6   8    8.28    5.36
   6  13  -8    4.14    4.11
  -6 -13   8   12.68    4.53
 -13   6  -8    1.94    2.06
 -13   6   8   12.95    6.25
 -13   6  -9    9.73    5.72
 -13   6   9   -0.86    3.99
   6  13  -9    1.07    3.62
   6  13 -10    7.36    5.21
  13  -6 -10   -4.16    3.75
 -13   6  10   -0.24    3.12
 -13   5   0  843.32   30.90
   5  13   0  845.94   29.38
   5  13   1  783.56   28.16
 -13   5  -1  740.33   22.45
   5  13  -1  762.19   28.38
 -13   5   1  794.19   31.15
 -13   5   2  427.48   23.90
 -13   5  -2  476.87   18.46
   5  13  -2  443.22   22.44
 -13   5  -3  298.78   15.36
 -13   5   3  292.80   20.69
   5  13  -3  265.00   17.94
 -13   5   4  233.76   19.29
   5  13  -4  207.07   16.59
 -13   5  -4  232.52   14.28
 -13   5   5   76.54   11.37
   5  13  -5   83.92   10.91
 -13   5  -5   96.64    9.99
 -13   5   5   79.30   11.98
 -13   5   6    0.16    1.76
   5  13  -6    0.55    1.98
 -13   5  -6    4.72    2.94
  -5 -13   6    2.80    2.82
 -13   5   6   -1.12    3.52
 -13   5   7   25.69    6.85
   5  13  -7   15.67    5.25
 -13   5  -7   28.81    6.20
  -5 -13   7   34.08    7.28
 -13   5   7   26.06    8.49
 -13   5   8   80.11   11.76
   5  13  -8   72.00   12.08
 -13   5  -8   71.51   10.51
  -5 -13   8   95.50   11.95
 -13   5   8   63.33   12.19
  13  -5  -9  154.26   18.16
   5  13  -9  119.24   16.44
 -13   5  -9  154.27   16.30
 -13   5   9  142.73   19.31
 -13   5  10  136.15   19.50
  13  -5 -10  121.25   17.38
   5  13 -10  110.13   16.39
   4  13   0   -2.18    1.79
 -13   4   0   -0.05    1.84
 -13   4  -1  149.41    9.32
   4  13  -1  128.63   11.81
 -13   4   1  117.46   12.04
   4  13   1  131.36   11.77
   4  13  -2  125.77   12.13
 -13   4  -2  122.39    8.76
 -13   4   2  125.14   13.00
 -13   4  -3   87.85    7.90
 -13   4   3   76.80   10.86
   4  13  -3   65.58    9.12
 -13   4   4  105.19   12.93
   4  13  -4   99.87   11.61
 -13   4   4  115.19   13.60
 -13   4  -4   99.78    8.90
 -13   4   5  198.62   17.75
 -13   4   5  204.11   18.89
   4  13  -5  195.85   17.36
 -13   4  -5  209.89   14.01
   4  13  -6  219.60   19.04
 -13   4   6  218.70   18.97
 -13   4   6  236.01   21.14
 -13   4  -6  233.79   15.95
 -13   4   7  131.13   14.81
   4  13  -7  122.26   14.83
  -4 -13   7  147.21   14.37
 -13   4  -7  154.29   14.01
 -13   4   7  113.62   15.63
 -13   4   8   17.92    5.20
 -13   4  -8   21.49    5.85
   4  13  -8   15.87    6.37
 -13   4   8   14.47    5.16
   4  13  -9    9.71    4.10
 -13   4  -9   15.05    5.48
  13  -4  -9   11.15    6.24
 -13   4   9   12.81    5.79
   4  13 -10   16.78    6.38
  13  -4 -10   11.95    5.48
 -13   4  10   11.67    5.93
  13  -4 -11   13.69    7.05
 -13   3   0  233.13   16.40
   3  13   0  230.13   15.55
   3  13  -1  267.48   17.08
   3  13   1  266.39   16.88
 -13   3   1  250.57   17.41
 -13   3   2  164.93   15.33
   3  13  -2  150.54   13.27
 -13   3   2  141.87   13.69
 -13   3  -2  168.61    9.37
 -13   3   3   94.67   11.69
 -13   3  -3  124.67    8.79
 -13   3   3  106.06   12.24
   3  13  -3  103.86   11.44
 -13   3   4   91.96   12.16
   3  13  -4   95.71   11.55
 -13   3   4   85.22   11.60
 -13   3  -4  102.64    8.57
 -13   3   5   53.41    9.50
 -13   3  -5   50.30    7.85
 -13   3  -5   59.40    7.28
   3  13  -5   36.78    7.82
 -13   3   5   54.22    9.82
 -13   3  -6    5.20    3.14
 -13   3   6   -0.44    2.25
   3  13  -6   -2.25    2.21
 -13   3  -6    0.94    1.79
 -13   3   6    5.23    3.87
 -13   3  -7    6.78    3.47
   3  13  -7    4.09    2.94
 -13   3   7   -0.08    2.86
 -13   3   7    1.30    2.56
 -13   3   8    5.15    3.72
 -13   3  -8    1.62    1.60
  13  -3  -8    3.41    2.32
 -13   3   8   -1.85    4.12
   3  13  -8    1.41    1.87
   3  13  -9   33.49    9.19
  13  -3  -9   49.34   10.37
 -13   3   9   40.63   10.48
   3  13 -10   48.29   10.93
  13  -3 -10   38.05    9.68
 -13   3  10   42.82   10.75
  13  -3 -11   28.99    8.72
 -13   2   0    0.63    1.81
   2  13   0    1.62    3.08
  13  -2   0   -0.63    0.81
 -13   2   0    2.87    2.32
  13  -2   1   52.79    4.43
 -13   2   1   40.48    7.54
 -13   2  -1   40.50    7.58
   2  13   1   56.09    8.01
   2  13  -1   56.15    8.25
 -13   2   1   44.01    7.58
 -13   2   2  144.21   14.34
 -13   2  -2  139.58   13.30
  13  -2   2  128.94    7.36
 -13   2  -2  152.86    7.98
   2  13  -2  137.70   12.70
 -13   2   2  117.97   12.45
 -13   2  -3  130.56   12.70
 -13   2   3  159.85   15.49
 -13   2  -3  162.18    9.20
 -13   2   3  153.06   14.66
   2  13  -3  144.47   13.42
 -13   2   4   22.78    6.06
 -13   2  -4   18.61    4.15
 -13   2  -4   28.56    4.53
   2  13  -4   21.35    5.68
 -13   2   4   11.70    4.35
 -13   2   5  104.65   12.57
 -13   2  -5  102.97   10.84
   2  13  -5  110.31   12.71
 -13   2  -5  103.39    9.21
 -13   2   5  121.23   14.51
 -13   2   6   83.03   11.52
   2  13  -6  116.53   13.83
 -13   2  -6  116.82   10.63
 -13   2  -6  106.79   10.64
 -13   2   6  112.11   14.35
 -13   2  -7   23.57    5.25
 -13   2   7   21.89    6.32
  13  -2  -7   22.72    6.31
   2  13  -7   23.43    6.81
 -13   2   7   17.11    6.20
  13  -2  -8   10.74    4.85
 -13   2   8    8.96    4.54
   2  13  -8   13.36    5.63
 -13   2  -8   13.38    4.06
 -13   2   8   30.09    7.10
   2  13  -9    3.65    2.49
  13  -2  -9    4.45    4.34
 -13   2   9    6.86    3.37
   2  13 -10   16.51    6.62
  13  -2 -10    8.36    4.05
 -13   2  10   10.73    6.15
  13  -2 -11    2.80    4.35
 -13   1   0    2.85    3.26
 -13   1   0    0.09    2.72
   1  13   0    3.94    2.63
  13  -1   0    2.16    1.03
 -13   1   1    4.77    3.04
 -13   1  -1    4.12    3.04
   1  13   1    5.53    3.29
  13  -1  -1    2.64    1.33
  13  -1   1    6.02    1.29
   1  13  -1    3.95    2.20
 -13   1   1    3.82    3.23
 -13   1   2    0.25    1.77
 -13   1  -2    6.95    3.28
   1  13  -2    5.28    3.86
  13  -1   2    0.29    0.57
 -13   1  -2    0.34    0.71
 -13   1   2    3.29    3.46
   1  13  -2   -0.82    0.82
 -13   1  -3    4.19    1.62
 -13   1  -3    1.86    1.82
 -13   1   3    2.67    1.85
   1  13  -3    2.71    1.77
 -13   1   3   -0.46    2.03
 -13   1   4   12.18    5.06
 -13   1  -4    3.30    1.45
   1  13  -4    6.15    4.07
 -13   1  -4    3.42    2.85
 -13   1   4    3.77    2.40
  13  -1  -5   33.72    6.10
 -13   1   5   31.72    7.22
 -13   1  -5   28.78    6.16
 -13   1  -5   31.95    4.90
   1  13  -5   27.85    6.94
 -13   1   5   23.05    6.37
 -13   1  -6    4.98    2.46
 -13   1  -6   10.38    3.29
  13  -1  -6   11.64    4.18
   1  13  -6    3.54    4.08
 -13   1   6    7.37    4.75
 -13   1   6    2.83    3.77
   1  13  -7    2.77    3.66
  13  -1  -7    1.47    2.73
 -13   1   7    2.77    2.54
 -13   1  -7    1.95    2.51
 -13   1   7   -0.20    2.25
   1  13  -8    0.70    3.32
  13  -1  -8   -0.60    2.38
 -13   1   8    4.76    5.37
   1  13  -9    8.51    4.74
  13  -1  -9    3.72    2.58
 -13   1   9    3.68    4.16
  13  -1 -10   14.54    7.22
   1  13 -10   -0.21    3.35
 -13   1  10    5.07    5.39
  13  -1 -11    0.44    2.20
 -13   1  11   11.77    6.04
 -13   0   0    0.31    2.11
  13   0   0    2.10    0.82
   0  13   0    2.18    1.70
 -13   0   1   22.69    5.84
 -13   0  -1   21.61    5.51
   0  13   1   20.17    4.99
   0  13  -1   19.11    5.14
  13   0  -1   22.53    2.78
 -13   0   1   24.41    5.88
 -13   0   2   54.37    8.68
 -13   0  -2   66.23    9.22
   0  13  -2   56.03    8.37
   0  13  -2   50.30    3.86
 -13   0   2   48.56    8.01
  13   0  -3  128.59    9.50
 -13   0   3  132.34   13.96
 -13   0  -3  130.79   12.34
 -13   0   3  130.02   13.55
   0  13  -3  123.15   12.63
 -13   0  -3  140.05    6.92
 -13   0   4  421.40   24.98
 -13   0  -4  414.29   21.33
  13   0  -4  402.54   18.84
 -13   0  -4  424.50   14.75
 -13   0   4  412.28   24.80
   0  13  -4  400.29   23.48
 -13   0  -5  182.74   11.18
 -13   0   5  147.12   14.88
  13   0  -5  168.32   13.53
   0  13  -5  175.24   16.22
 -13   0   5  133.85   14.85
 -13   0  -5  169.06   13.42
 -13   0  -6  121.80   11.05
 -13   0   6  107.34   13.07
 -13   0  -6  114.73    9.94
   0  13  -6   93.96   12.68
  13   0  -6  103.77   11.73
 -13   0   6   98.57   13.40
 -13   0  -7  110.85   10.87
  13   0  -7  100.41   12.41
   0  13  -7  103.11   13.64
 -13   0   7  106.68   14.39
   0  13  -8   62.93   11.69
  13   0  -8   59.19   10.18
 -13   0   8   41.34   10.07
   0  13  -9   35.08    8.98
  13   0  -9   48.79    9.84
 -13   0   9   22.20    7.58
   0  13 -10   19.05    7.37
  13   0 -10   23.39    7.62
 -13   0  10    9.77    5.50
  13   0 -11    3.31    2.93
 -13   0  11    6.83    5.24
 -13  -1   0   80.94   10.45
  -1  13   0   89.67   10.23
 -13  -1   1   15.82    4.78
 -13  -1  -1   18.71    5.12
  13   1  -1   16.32    2.08
  -1  13   1   19.24    5.19
  -1  13  -1   22.52    5.23
  13   1  -1   18.68    2.26
 -13  -1   1   13.75    4.30
 -13  -1  -2   -1.63    2.16
 -13  -1   2    0.59    2.42
  13   1  -2    0.37    1.06
  -1  13  -2   -0.08    2.05
 -13  -1   2   -1.01    2.12
  -1  13  -2    0.64    0.49
 -13  -1   3    1.41    2.71
  13   1  -3    2.41    2.02
 -13  -1  -3    2.34    2.90
 -13  -1   3   -0.35    1.95
  -1  13  -3    1.74    2.62
 -13  -1  -3    1.56    0.76
 -13  -1   4    1.48    1.88
 -13  -1  -4    4.45    2.67
 -13  -1  -4    0.47    1.07
  13   1  -4    3.57    1.82
  -1  13  -4    3.02    3.23
 -13  -1   4   -1.73    2.56
 -13  -1  -5    3.40    2.32
  13   1  -5    3.37    2.46
  -1  13  -5    1.34    3.88
 -13  -1   5    7.80    4.17
 -13  -1  -5    0.83    1.43
 -13  -1   5    1.97    3.13
  13   1  -6    4.83    3.55
  -1  13  -6    0.68    3.00
 -13  -1   6    6.88    3.70
 -13  -1  -6    2.82    1.93
  -1  13  -7    1.91    3.31
  13   1  -7    2.58    2.89
 -13  -1   7    7.68    4.60
  13   1  -8    0.49    2.08
 -13  -1   8   -0.03    3.24
  -1  13  -9   -0.57    1.79
  13   1  -9   -2.87    2.07
 -13  -1   9    4.95    4.67
  -1  13 -10    7.08    4.45
  13   1 -10    5.26    3.96
 -13  -1  10    1.92    4.88
  13   1 -11    1.90    3.89
 -13  -1  11    8.66    5.19
 -13  -2   0   -0.60    2.03
 -13  -2   0    2.06    1.90
  -2  13   0    1.48    2.81
 -13  -2   1   77.34   10.32
 -13  -2  -1   81.28   10.24
 -13  -2  -1   80.11   10.11
  13   2  -1   81.79    3.95
 -13  -2   1   82.34   10.44
  13   2  -1   73.36    3.85
  -2  13   1   73.57    9.59
  -2  13  -1   84.81   10.15
 -13  -2   1   86.77   10.36
 -13  -2   2  245.47   18.38
  13   2  -2  245.48   10.22
  -2  13  -2  268.84   18.32
  -2  13  -2  225.74    6.28
 -13  -2   2  245.83   17.87
 -13  -2  -2  232.78   16.67
 -13  -2   2  260.77   18.89
 -13  -2   3  587.84   28.30
  13   2  -3  582.02   19.18
 -13  -2  -3  536.57    9.62
  -2  13  -3  601.01   27.98
 -13  -2   3  556.55   28.17
 -13  -2  -3  598.39   26.35
  13   2  -4  673.64   23.53
 -13  -2  -4  676.93   16.60
 -13  -2   4  575.15   28.97
  -2  13  -4  694.40   31.29
  13   2  -5  576.65   24.26
 -13  -2  -5  636.42   19.67
 -13  -2   5  546.62   29.37
  -2  13  -5  616.78   30.84
  13   2  -6  502.58   25.08
 -13  -2   6  552.76   30.82
  -2  13  -6  520.36   29.62
  -2  13  -7  456.23   28.98
 -13  -2   7  414.13   27.82
  13   2  -7  439.25   25.30
  13   2  -8  206.71   18.70
  -2  13  -8  219.49   21.03
 -13  -2   8  209.47   20.90
  -2  13  -9   81.28   13.58
  13   2  -9   69.87   11.95
 -13  -2   9   94.78   14.72
  -2  13 -10   65.87   12.95
  13   2 -10   64.92   12.10
 -13  -2  10   43.42   10.44
  13   2 -11    9.26    4.72
 -13  -2  11   10.02    5.30
 -13  -3   0   13.64    3.81
  -3  13   0   12.49    3.98
 -13  -3   0   11.12    4.27
 -13  -3  -1   83.87   10.45
 -13  -3   1   72.02    9.85
  13   3  -1   73.35    3.22
  -3  13  -1   81.17   10.17
  -3  13   1  109.35   11.65
  13   3  -1   66.00    3.23
 -13  -3  -2  161.44   14.14
 -13  -3   2  152.29   14.44
  -3  13  -2  146.09   13.62
 -13  -3   2  151.57   14.00
  13   3  -2  140.17    7.48
 -13  -3  -3  113.08   11.73
 -13  -3   3  126.31   13.39
  13   3  -3  135.09    9.08
 -13  -3   3  117.88   12.85
  -3  13  -3  125.65   13.04
 -13  -3   4   45.32    8.20
  13   3  -4   34.35    5.51
  -3  13  -4   39.85    7.73
 -13  -3   4   42.04    8.11
  13   3  -5    4.62    2.51
  -3  13  -5    4.10    3.49
 -13  -3   5    8.81    3.99
  -3  13  -6   -2.82    4.68
  13   3  -6   -2.64    2.59
 -13  -3   6   -0.32    2.78
  -3  13  -7    1.68    2.65
  13   3  -7    4.33    2.46
 -13  -3   7    3.85    3.34
  -3  13  -8   20.45    6.75
  13   3  -8    7.47    4.37
 -13  -3   8    9.96    4.33
  -3  13  -9   25.85    7.72
  13   3  -9   16.08    5.67
 -13  -3   9   27.48    7.85
  -3  13 -10   27.95    8.87
  13   3 -10   14.88    5.20
 -13  -3  10    7.73    4.94
  13   3 -11    9.09    6.08
 -13  -3  11   13.93    5.92
 -13  -4   0    1.40    3.86
  -4  13   0    1.82    3.16
  -4  13   1   54.24    8.47
 -13  -4  -1   38.60    7.16
 -13  -4   1   41.63    7.61
  13   4  -1   31.62    2.09
  -4  13  -1   38.28    7.36
  13   4  -2   50.45    4.44
 -13  -4  -2   48.22    7.99
 -13  -4   2   47.66    8.50
  -4  13  -2   62.70    9.38
 -13  -4   2   47.07    7.89
  13   4  -3   66.84    6.50
 -13  -4  -3   56.97    8.50
 -13  -4   3   67.67    9.96
 -13  -4   3   60.09    9.00
  -4  13  -3   67.74    9.57
 -13  -4  -4  235.72   16.99
 -13  -4   4  236.17   18.43
  13   4  -4  246.01   14.13
 -13  -4   4  217.89   17.78
  -4  13  -4  219.87   17.89
  13   4  -5  209.91   14.62
 -13  -4   5  227.41   18.42
 -13  -4   5  184.92   17.13
  -4  13  -5  182.81   16.81
 -13  -4   6  111.52   13.32
  -4  13  -6  101.53   13.28
  13   4  -6  107.07   11.55
 -13  -4   6  104.91   13.25
  -4  13  -7   65.19   11.25
  13   4  -7   61.30    9.55
 -13  -4   7   62.87   10.68
  -4  13  -8   35.97    8.86
  13   4  -8   30.51    7.58
 -13  -4   8   35.56    9.11
  -4  13  -9   38.49    9.64
  13   4  -9   47.46    9.43
 -13  -4   9   36.23    8.95
  -4  13 -10   14.07    6.64
  13   4 -10   26.74    8.28
 -13  -4  10   16.55    6.79
  13   4 -11   -6.62    5.39
 -13  -4  11    8.25    5.11
 -13  -5   0   25.53    6.30
  -5  13   0   35.31    7.25
  13   5  -1   17.66    1.82
 -13  -5  -1   21.92    5.75
 -13  -5   1   17.28    4.64
  -5  13   1   14.22    4.79
  -5  13  -1   24.13    3.46
  -5  13  -1   26.55    6.04
 -13  -5  -2    9.20    4.32
 -13  -5   2    6.99    3.67
  -5  13  -2    8.06    3.91
  13   5  -2   15.39    2.54
  -5  13  -2   11.45    1.56
 -13  -5  -3   25.20    5.97
 -13  -5   3   19.29    5.79
  -5  13  -3   20.68    5.63
  13   5  -3   17.71    3.53
 -13  -5   3   12.99    4.02
 -13  -5  -4   -0.58    2.22
 -13  -5   4    2.36    2.24
  13   5  -4    1.91    1.41
  -5  13  -4    5.15    3.94
 -13  -5   4    0.97    2.76
 -13  -5  -5    1.37    2.24
 -13  -5   5    2.49    2.23
  13   5  -5   -2.41    2.00
  -5  13  -5    2.89    2.94
 -13  -5   5    1.60    1.77
 -13  -5   6   -0.99    3.50
  -5  13  -6    3.38    3.25
  13   5  -6    4.67    2.30
 -13  -5   6   -1.28    2.09
 -13  -5   7   -1.58    2.43
  -5  13  -7    0.06    2.40
  13   5  -7    0.85    1.74
 -13  -5   7   -1.50    2.62
  -5  13  -8    7.66    4.54
  13   5  -8    2.67    2.99
 -13  -5   8    1.98    2.50
  -5  13  -9    0.83    3.34
  13   5  -9    2.90    3.18
 -13  -5   9    8.15    4.07
  -5  13 -10    8.49    6.50
  13   5 -10   -5.54    5.34
 -13  -5  10    5.45    4.88
  13   5 -11    0.08    3.61
 -13  -5  11   17.81    7.04
 -13  -6   0    0.28    1.92
  -6  13   0    0.59    1.37
  -6  13   0   -0.09    2.80
  -6  13  -1    9.10    4.10
 -13  -6  -1    4.34    2.82
 -13  -6   1    3.78    3.31
  13   6  -1    4.25    1.08
  -6  13  -1    1.88    1.38
  -6  13   1    2.44    1.60
  13   6  -2   21.13    3.25
 -13  -6  -2   15.23    4.99
 -13  -6   2   19.17    5.57
  -6  13  -2   18.92    5.02
  -6  13  -2   20.41    2.46
  -6  13  -3    7.54    3.10
 -13  -6  -3   12.07    4.12
 -13  -6   3   12.06    4.15
  13   6  -3    6.39    2.14
 -13  -6   3   14.27    4.72
 -13  -6   4    1.66    2.52
 -13  -6  -4   -1.46    1.85
  13   6  -4    4.12    2.77
  -6  13  -4    5.35    3.31
 -13  -6   4    2.85    3.36
 -13  -6  -5    1.80    2.87
  13   6  -5    2.25    2.19
  -6  13  -5    6.19    3.91
 -13  -6   5    1.42    2.82
 -13  -6   5    3.85    3.44
 -13  -6  -6   26.32    5.88
 -13  -6   6   32.61    7.69
  -6  13  -6   12.68    5.78
  13   6  -6   29.68    6.23
 -13  -6   6   18.99    5.56
 -13  -6   7   14.44    4.75
  -6  13  -7    4.48    1.99
  13   6  -7   12.39    5.19
 -13  -6   7    8.16    4.35
 -13  -6   8   -0.03    1.87
  -6  13  -8    3.16    4.29
  13   6  -8    2.93    2.75
 -13  -6   8    2.50    3.85
  -6  13  -9    2.89    3.43
  13   6  -9    2.44    2.72
 -13  -6   9    3.90    4.57
  -6  13 -10    0.75    2.16
  13   6 -10   -0.53    2.85
 -13  -6  10    2.98    3.02
  13   6 -11    6.04    4.29
 -13  -7   0  206.04   17.16
  -7  13   0  246.93   13.74
  -7  13   0  198.15   16.12
 -13  -7  -1  202.79   16.77
 -13  -7   1  209.17   17.45
  -7  13   1  238.10   17.99
  13   7  -1  212.51    8.18
  -7  13   1  225.65   14.79
  -7  13  -1  232.68   11.60
  -7  13  -1  216.45   16.93
 -13  -7  -2  208.31   16.76
 -13  -7   2  215.27   17.75
  -7  13  -2  239.17   18.08
  13   7  -2  230.54   10.62
  -7  13  -2  231.19    9.08
  -7  13  -3  153.78   14.78
 -13  -7  -3  168.76   15.04
 -13  -7   3  153.14   15.45
  13   7  -3  165.23   10.63
 -13  -7  -4  110.13   12.12
 -13  -7   4  106.58   12.78
  13   7  -4  121.82   10.44
 -13  -7   4  103.79   12.28
  -7  13  -4   85.35   11.44
 -13  -7   5    8.90    4.79
 -13  -7  -5   11.72    4.08
  -7  13  -5   11.01    4.61
  13   7  -5   12.34    4.11
 -13  -7   5   19.36    5.67
 -13  -7  -6    2.87    2.12
 -13  -7   6   -1.62    2.77
  -7  13  -6   -0.39    2.87
  13   7  -6    3.24    2.01
 -13  -7   6    2.45    4.01
 -13  -7   7   19.88    6.17
  -7  13  -7   13.01    5.46
  13   7  -7   10.03    3.66
 -13  -7   7    5.49    4.07
 -13  -7   8   33.64    7.75
  -7  13  -8   44.06    9.38
  13   7  -8   34.12    7.89
 -13  -7   8   41.29    8.97
  -7  13  -9   25.51    8.04
  13   7  -9   32.72    8.11
 -13  -7   9   25.72    7.79
  -7  13 -10   45.55   10.72
  13   7 -10   34.67    8.84
 -13  -7  10   51.99   10.96
  13   7 -11   32.75    8.99
  -8  13   0    4.01    3.53
 -13  -8   0    4.49    3.70
  -8  13   0   -0.51    1.26
  -8  13  -1   23.66    5.76
 -13  -8  -1   25.42    6.45
 -13  -8   1   24.16    6.26
  -8  13   1   26.02    5.17
  -8  13   1   27.88    6.26
  -8  13  -1   28.01    4.39
 -13  -8  -2   15.29    5.46
 -13  -8   2   16.77    5.19
  13   8  -2   19.70    3.39
  -8  13  -2   22.23    6.03
 -13  -8   3   36.28    7.52
  13   8  -3   39.37    5.36
 -13  -8  -3   41.21    7.73
  -8  13  -3   30.23    6.85
  13   8  -4   43.69    6.32
  -8  13  -4   40.86    7.95
 -13  -8  -4   42.09    7.37
 -13  -8   4   50.66    9.06
 -13  -8   4   50.89    8.96
 -13  -8   5   83.34   11.93
 -13  -8  -5   72.85    9.96
  -8  13  -5   84.61   11.81
  13   8  -5   62.28    8.51
 -13  -8   5   79.62   11.20
 -13  -8  -6   65.35    9.61
 -13  -8   6   60.54   10.04
  -8  13  -6   42.90    8.85
  13   8  -6   60.73    8.95
 -13  -8   6   55.58    9.58
 -13  -8   7    2.22    3.21
  -8  13  -7   11.42    5.37
  13   8  -7    1.69    3.07
 -13  -8   7    2.38    2.13
 -13  -8   8    4.03    3.08
  -8  13  -8    4.48    4.22
  13   8  -8   -1.24    2.71
 -13  -8   8    0.75    2.12
  -8  13  -9    4.53    4.17
  13   8  -9   15.96    6.24
 -13  -8   9    9.41    5.19
  -8  13 -10    9.17    5.08
  13   8 -10   -2.80    3.62
  -9  13   0  975.88   36.62
 -13  -9   0  920.90   37.32
  -9  13   0 1062.50   30.70
 -13  -9  -1 1061.67   39.77
 -13  -9   1 1046.06   40.26
  -9  13   1 1122.73   34.68
  -9  13  -1 1174.34   28.56
  -9  13  -1 1054.43   38.01
 -13  -9  -2  884.44   36.01
 -13  -9   2  887.42   37.45
  -9  13  -2  938.76   36.63
  -9  13   2  947.46   34.31
  13   9  -2  932.97   23.91
 -13  -9  -3  480.99   26.33
 -13  -9   3  482.92   27.78
  -9  13  -3  491.91   27.02
  13   9  -3  493.67   19.69
  -9  13  -4  195.08   17.45
 -13  -9  -4  180.79   16.08
 -13  -9   4  193.17   17.99
  13   9  -4  192.59   13.55
 -13  -9  -5   79.91   10.86
 -13  -9   5   68.35   11.01
  -9  13  -5   78.49   11.46
  13   9  -5   78.81    9.65
 -13  -9   5   52.21    9.36
 -13  -9  -6    1.65    2.63
 -13  -9   6    1.95    2.94
  -9  13  -6    5.79    3.75
  13   9  -6    2.61    2.46
 -13  -9   6    4.75    2.85
 -13  -9   7   11.06    5.09
  -9  13  -7   15.31    5.84
  13   9  -7   13.30    4.57
 -13  -9   7   15.04    6.41
 -13  -9   8   39.94    8.94
  -9  13  -8   43.85    9.68
  13   9  -8   34.31    7.74
 -13  -9   8   29.14    7.21
  -9  13  -9  102.73   15.34
  13   9  -9   85.65   13.25
  13   9 -10   95.46   14.73
 -13 -10   0    1.86    2.68
 -10  13   0    0.97    1.64
 -10  13   0    0.05    2.10
 -13 -10   1   12.51    4.98
 -10  13  -1    8.64    3.65
 -13 -10  -1    6.57    3.79
 -10  13   1    8.23    3.60
 -10  13  -1    5.19    2.07
 -10  13  -2   18.08    5.14
 -13 -10  -2   28.96    7.22
 -13 -10   2   12.77    5.18
 -10  13   2   12.78    4.55
 -13 -10  -3   26.65    6.30
 -13 -10   3   31.14    7.31
 -10  13  -3   30.70    6.84
 -10  13   3   31.17    6.65
  13  10  -3   31.89    5.23
 -10  13  -4   20.69    5.91
  13  10  -4   19.19    4.90
 -13 -10  -4   12.76    4.14
 -13 -10   4   24.94    6.94
 -10  13   4   16.65    6.03
 -10  13  -5   14.21    5.64
  13  10  -5    6.68    3.19
 -13 -10  -5    6.26    3.40
 -13 -10   5    0.80    2.02
  13  10  -6   22.40    5.89
 -13 -10  -6   19.29    5.20
 -13 -10   6   24.91    6.51
 -10  13  -6   15.36    5.32
 -13 -10   6   26.10    7.14
 -13 -10   7   14.28    6.20
 -10  13  -7   17.83    6.80
 -13 -10   7    7.54    3.65
  13  10  -7   14.50    5.12
 -13 -10   8   15.22    6.06
 -10  13  -8   15.63    5.74
 -13 -10   8   15.58    6.04
  13  10  -8   17.37    6.17
 -10  13  -9    8.29    7.45
  13  10  -9    2.32    2.99
  13  10 -10   -1.65    2.72
 -11  13   0  160.68   15.28
 -13 -11   0  157.13   16.13
 -11  13   0  159.44   12.84
 -13 -11   1  208.21   18.82
 -13 -11  -1  199.85   17.98
 -11  13   1  234.42   16.86
 -11  13  -1  235.88   14.26
 -11  13  -1  200.96   17.06
 -13 -11   2  249.42   20.67
 -13 -11  -2  234.16   19.27
 -11  13   2  253.23   18.62
 -11  13  -2  231.01   18.45
 -13 -11  -3   25.56    6.40
 -13 -11   3   34.72    7.77
 -11  13   3   30.95    6.91
 -11  13  -3   24.47    6.16
 -13 -11  -4    1.40    2.30
 -13 -11   4    5.26    3.47
 -11  13  -4    5.99    3.57
  13  11  -4    7.13    3.20
 -11  13   4   13.54    5.30
  13  11  -5   -1.63    1.36
 -13 -11  -5    6.42    4.54
 -13 -11   5    0.88    3.29
 -11  13   5    0.33    3.23
 -11  13  -5    5.14    3.50
  13  11  -6    3.14    3.52
 -13 -11  -6   -1.59    1.70
 -13 -11   6   -1.86    3.29
 -11  13   6    4.61    3.91
 -11  13  -6    0.11    2.22
  13  11  -7    4.72    4.35
 -13 -11   7    8.90    4.53
 -11  13  -7    1.65    2.74
 -13 -11   7    6.54    4.51
  13  11  -8   22.24    6.42
 -13 -11   8   15.93    6.20
 -11  13  -8   23.32    6.88
 -11  13  -9   25.95    8.24
  13  11  -9   18.00    6.64
  13  11 -10   13.43    5.56
 -12  13   0   -7.79    3.69
 -13 -12   0    0.41    2.39
 -12  13   0   -1.08    1.80
 -13 -12   1    5.73    3.68
 -13 -12  -1    2.34    2.71
 -12  13   1    6.64    3.82
 -12  13  -1    5.49    4.31
 -12  13  -1    3.17    2.15
 -13 -12  -2   -2.30    3.32
 -12  13  -2    2.20    2.47
 -13 -12   2    4.75    3.55
 -12  13   2    1.00    2.79
 -13 -12   3    4.28    3.70
 -13 -12  -3    5.94    3.40
 -12  13   3   17.84    5.65
 -12  13  -3   10.62    4.72
 -13 -12  -4    0.54    2.35
 -13 -12   4   -3.08    4.17
 -12  13  -4    8.51    4.01
 -12  13   4    0.30    2.11
 -12  13  -5   -0.66    3.29
 -13 -12  -5   -2.89    3.50
 -13 -12   5   -2.68    2.52
 -12  13   5   -2.50    3.19
 -13 -12  -6    5.34    2.81
 -13 -12   6   -3.19    4.55
 -12  13   6   17.34    7.03
 -12  13  -6   14.89    5.60
  13  12  -7    5.42    4.53
 -13 -12   7   -1.73    2.45
 -12  13   7    4.20    3.50
 -12  13  -7   10.61    5.72
 -13 -12   8    9.23    5.52
 -12  13   8   10.77    4.89
 -12  13  -8   -1.47    3.01
 -12  13  -9   14.25    6.38
 -13 -13   0   26.03    6.85
 -13  13   0   21.53    6.18
 -13  13   0   25.84    5.85
 -13 -13   1   24.00    7.03
 -13 -13  -1   15.99    5.44
 -13  13  -1   28.76    6.99
 -13  13   1   33.36    6.73
 -13 -13   2   54.10    9.90
 -13 -13  -2   86.02   12.46
 -13  13  -2   62.61   10.05
 -13  13   2   59.40    9.68
 -13 -13  -3   21.21    5.75
 -13 -13   3   27.29    7.44
 -13  13   3   39.34    8.48
 -13  13  -3   37.64    7.68
 -13 -13   4    4.37    4.17
 -13 -13  -4    6.54    4.23
 -13  13  -4    4.08    2.39
 -13  13   4    9.92    5.63
 -13 -13  -5   11.10    4.56
 -13 -13   5    9.80    4.87
 -13  13  -5   10.04    5.32
 -13  13   5   21.72    7.12
 -13  13  -6    6.05    3.92
 -13 -13  -6   -1.70    1.82
 -13 -13   6    6.62    4.25
 -13  13   6    1.50    2.21
 -13 -13   7    3.74    3.93
 -13  13   7   11.50    5.77
 -13  13  -7    6.32    4.19
 -13 -13   8    4.55    3.83
 -13  13   8    9.17    5.81
 -13  13  -8    3.90    2.47
 -13  13  -9   10.28    5.78
 -13 -14   0    0.18    2.33
 -14  13   0    3.23    2.80
 -14  13  -1    7.88    4.36
 -13 -14   1    6.88    4.39
 -13 -14  -1    1.44    2.09
 -14  13   1    6.93    3.56
 -13 -14  -2   29.48    7.69
 -13 -14   2   53.95   10.53
 -14  13   2   33.35    7.64
 -14  13  -2   48.66    8.70
 -13 -14   3  100.59   14.41
 -13 -14  -3  115.36   14.64
 -14  13  -3  109.07   13.18
 -14  13   3   99.34   13.69
 -13 -14   4  145.79   17.37
 -13 -14  -4  144.10   16.12
 -14  13   4  145.93   17.12
 -14  13  -4  155.50   16.15
 -13 -14   5  140.24   17.09
 -13 -14  -5  127.88   15.12
 -14  13  -5  136.46   15.52
 -14  13   5  124.71   16.38
 -13 -14   6   83.65   13.81
 -14  13  -6  100.69   13.72
 -13 -14  -6   98.16   14.06
 -14  13   6   96.88   15.36
 -14  13  -7   76.64   12.66
 -13 -14   7   82.99   13.52
 -14  13   7  102.35   16.38
 -13 -14   8   57.20   11.50
 -14  13  -8   51.79   10.96
 -14  13  -9   17.66    7.21
 -12 -14   0   84.02   12.58
 -14  12   0   79.36    9.77
 -12 -14   1   23.83    6.12
 -12 -14  -1   33.09    8.17
 -14  12   1   35.27    7.24
 -14  12  -1   34.24    7.12
 -14  12  -1   33.63    6.31
 -12 -14   2   19.40    6.47
 -12 -14  -2   15.77    5.89
 -14  12  -2   16.61    5.45
 -14  12   2   16.17    5.33
 -14  12  -3   13.75    4.89
 -12 -14   3   10.25    4.34
 -12 -14  -3   15.43    5.79
 -14  12   3   10.79    4.71
 -12 -14   4   10.66    4.92
 -12 -14  -4    4.44    2.58
 -14  12  -4   26.49    6.88
 -14  12   4    8.03    4.61
  12  14  -4   14.20    4.58
 -12 -14   5    3.51    3.16
 -12 -14  -5   10.41    4.13
 -14  12  -5    9.67    3.94
  12  14  -5   13.58    4.42
 -14  12   5    8.40    4.00
 -14  12  -6   -0.68    1.89
 -12 -14   6   -1.15    2.88
 -12 -14  -6    1.76    2.62
  12  14  -6    2.37    3.24
  12  14  -7    0.13    1.78
 -12 -14   7    3.93    3.65
 -14  12   7   -1.92    2.94
 -14  12  -7    8.01    4.08
 -12 -14   8   -3.96    2.55
  12  14  -8   -0.97    3.46
 -14  12   8   -1.71    2.93
 -14  12  -8   -1.38    4.20
  12  14  -9    1.11    2.36
 -14  12  -9   11.57    5.54
 -11 -14   0    8.51    5.67
  11  14   0    5.44    2.94
 -14  11   0    1.77    1.95
  11  14  -1   17.23    4.54
 -11 -14   1   15.07    5.79
 -11 -14  -1   10.01    4.78
 -14  11   1   15.60    4.62
 -14  11  -1   19.44    5.16
 -14  11  -1   12.89    3.78
 -11 -14   2    6.30    3.57
 -11 -14  -2    1.76    2.04
  11  14  -2    3.93    2.60
 -14  11  -2   -0.19    1.55
 -14  11   2    9.03    4.58
 -14  11  -3    2.50    1.48
  11  14  -3    1.53    2.05
 -11 -14   3   -0.11    3.96
 -11 -14  -3   -0.51    2.14
 -14  11   3    0.03    2.42
 -11 -14   4    2.11    3.01
 -11 -14  -4    1.70    2.72
 -14  11  -4    2.15    2.98
 -14  11   4   -1.38    2.36
  11  14  -4    1.42    2.45
 -14  11  -5    2.26    2.47
 -11 -14   5    0.02    2.88
 -11 -14  -5    6.25    2.88
  11  14  -5    4.17    2.87
 -14  11   5    7.33    4.59
 -14  11  -6   -1.19    2.32
 -11 -14   6    1.92    2.70
 -11 -14  -6    2.96    3.18
  11  14  -6    7.41    3.92
 -14  11   6    1.91    5.08
  11  14  -7    5.07    2.52
 -11 -14   7    0.94    2.90
 -14  11   7    2.22    4.82
 -14  11  -7    4.33    2.59
  11  14  -8   -4.01    3.48
 -11 -14   8    0.84    2.97
 -14  11   8    7.06    5.40
 -14  11  -8    5.01    5.33
  11  14  -9    0.81    3.65
 -14  11  -9   -9.13    4.82
  10  14   0   16.59    4.41
 -10 -14   0   15.10    6.01
 -14  10   0   17.19    4.70
  10  14  -1    3.66    2.66
 -10 -14   1    2.32    2.71
 -10 -14  -1    2.98    3.09
 -14  10   1    2.71    2.91
 -14  10  -1    3.44    2.38
 -14  10  -1    0.04    1.39
 -10 -14   2    2.22    4.49
 -10 -14  -2    6.13    3.12
  10  14  -2   -0.85    2.04
 -14  10  -2    1.22    2.83
 -14  10   2    1.39    3.03
  10  14  -3    1.52    2.26
 -10 -14   3   -1.78    2.29
 -10 -14  -3    4.80    4.42
 -14  10   3   -1.34    2.38
 -14  10  -3   -1.00    1.82
 -10 -14   4    4.55    3.44
 -10 -14  -4   10.16    4.62
 -14  10  -4    5.51    2.13
 -14  10   4    6.73    3.28
  10  14  -4   10.02    4.26
 -14  10  -5    5.57    4.32
 -10 -14   5   -2.48    3.33
 -10 -14  -5    3.06    2.56
  10  14  -5   11.39    4.86
 -14  10   5   -1.26    3.78
 -10 -14   6    5.02    4.26
  10  14  -6   11.54    4.72
 -10 -14  -6    4.05    3.34
 -14  10   6    3.93    3.15
 -14  10  -6    7.74    3.91
  10  14  -7    4.42    3.57
 -10 -14   7    3.21    2.55
 -14  10   7    7.18    4.70
 -14  10  -7    0.05    2.65
 -14  10   8    2.32    4.07
  10  14  -8    3.93    2.96
 -10 -14   8   12.45    5.47
 -14  10   8    8.25    6.40
 -14  10  -8    3.22    3.65
  10  14  -9    2.46    2.47
 -14  10  -9    3.39    3.36
  -9 -14   0    2.66    3.67
 -14   9   0    0.06    1.96
   9  14   0    6.62    3.63
  -9 -14   1   10.45    4.69
  -9 -14  -1    7.94    4.89
 -14   9   1    4.75    2.33
 -14   9  -1    5.67    2.90
   9  14  -1    9.24    3.72
 -14   9  -1   14.68    4.27
   9  14  -2  141.66   12.89
  -9 -14   2  129.33   14.85
  -9 -14  -2  133.24   14.44
 -14   9  -2  127.93   12.05
 -14   9   2  118.50   13.53
  -9 -14   3  239.33   20.20
  -9 -14  -3  253.84   19.96
 -14   9  -3  244.50   17.04
 -14   9   3  255.13   20.57
   9  14  -3  246.63   17.53
  -9 -14   4  412.06   26.68
  -9 -14  -4  395.07   24.63
 -14   9  -4  432.17   23.28
 -14   9   4  409.15   27.27
   9  14  -4  369.89   22.50
 -14   9  -5  388.48   22.93
  -9 -14   5  356.07   24.92
  -9 -14  -5  376.37   23.85
 -14   9   5  399.33   28.29
   9  14  -5  382.61   24.02
  -9 -14  -6  181.13   16.38
   9  14  -6  160.25   16.56
  -9 -14   6  167.81   17.41
 -14   9   6  125.49   16.75
 -14   9  -6  165.02   15.67
  -9 -14   7  176.56   17.95
 -14   9   7  225.89   23.19
 -14   9  -7  173.45   16.85
 -14   9   8  153.18   17.86
   9  14  -8  141.34   17.15
  -9 -14   8  155.42   16.90
 -14   9  -8  165.08   17.30
 -14   9   8  156.63   20.49
   9  14  -9   69.22   12.85
 -14   9   9   63.88   13.62
   8  14   0   60.28    8.15
 -14   8   0   75.80    9.77
 -14   8  -1   11.96    3.79
   8  14   1   11.07    3.96
 -14   8   1    9.84    4.30
   8  14  -1   17.48    4.50
 -14   8  -1    8.48    3.45
   8  14  -2   20.95    5.19
  -8 -14   2    2.54    3.41
 -14   8  -2   13.87    3.67
 -14   8   2    4.33    4.15
  -8 -14   3   65.72   10.57
  -8 -14  -3   59.81    9.58
 -14   8   3   71.59   11.12
 -14   8  -3   73.13    8.91
   8  14  -3   64.75    9.26
 -14   8  -4   21.65    5.68
  -8 -14   4   13.97    5.40
  -8 -14  -4   19.34    5.29
   8  14  -4   17.43    5.40
 -14   8   4   22.45    6.67
  -8 -14   5    5.77    4.05
  -8 -14  -5    2.80    1.69
   8  14  -5    2.99    2.94
 -14   8   5   -0.53    3.51
 -14   8  -5    0.03    2.16
   8  14  -6    1.01    2.68
  -8 -14   6    8.15    4.27
  -8 -14  -6    9.60    4.41
 -14   8   6    6.13    4.70
 -14   8  -6    0.90    1.45
 -14   8   7    3.78    4.07
   8  14  -7   -0.34    3.33
  -8 -14   7    4.45    3.57
 -14   8  -7   -2.50    2.45
 -14   8   7   -0.13    3.54
 -14   8   8    4.96    3.38
  -8 -14   8    1.87    2.55
 -14   8  -8    2.10    2.63
 -14   8   8   11.05    6.30
   8  14  -8    7.68    4.92
   8  14  -9   10.53    6.50
 -14   8   9   11.77    6.65
   8  14 -10   10.20    5.28
   7  14   0    0.62    2.52
 -14   7   0   -0.72    1.62
   7  14   1    5.08    2.85
 -14   7  -1    2.12    1.68
   7  14  -1   10.69    3.80
 -14   7   1    8.87    4.13
 -14   7  -1    7.55    3.30
   7  14  -2   69.92    9.12
 -14   7  -2   86.00    8.95
 -14   7   2   88.75   11.46
 -14   7  -3  409.10   20.08
 -14   7   3  438.86   26.62
   7  14  -3  409.84   22.92
 -14   7  -4  488.54   22.90
  -7 -14   4  481.80   27.61
 -14   7   4  429.68   27.43
   7  14  -4  483.42   25.81
  -7 -14   5  496.04   28.36
 -14   7   5  495.41   30.95
   7  14  -5  493.19   27.53
 -14   7  -5  524.69   24.88
 -14   7   6  329.02   24.90
  -7 -14   6  345.41   24.09
  -7 -14  -6  381.53   22.83
 -14   7   6  362.68   27.65
   7  14  -6  339.19   24.08
 -14   7  -6  349.10   21.38
 -14   7   7  208.83   20.03
  -7 -14   7  250.83   20.59
   7  14  -7  204.32   19.59
 -14   7   7  234.67   23.29
 -14   7  -7  244.37   18.87
 -14   7   8  197.88   19.63
  -7 -14   8  225.02   19.53
   7  14  -8  184.81   19.67
 -14   7  -8  206.72   18.46
 -14   7   8  197.95   22.31
   7  14  -9  100.30   15.03
 -14   7   9  120.33   18.38
  14  -7 -10   42.92   10.64
   7  14 -10   51.19   11.27
 -14   6   0  211.29   16.12
   6  14   0  231.66   15.98
   6  14   1  179.72   13.99
 -14   6  -1  199.82   12.67
   6  14  -1  183.22   14.43
 -14   6   1  188.06   15.86
   6  14  -2  147.69   13.39
 -14   6   2  147.75   14.69
 -14   6  -2  147.04   11.06
 -14   6  -3   75.60    8.40
 -14   6   3   89.65   12.07
   6  14  -3   78.10   10.05
 -14   6  -4   15.98    4.12
   6  14  -4   19.05    5.31
 -14   6   4   12.04    4.79
  -6 -14   5    8.10    4.03
   6  14  -5    8.32    4.06
 -14   6   5    2.99    2.51
 -14   6  -5    8.85    3.39
 -14   6   6   12.75    5.31
   6  14  -6    4.95    2.55
  -6 -14   6    4.71    3.18
 -14   6  -6   10.09    3.91
 -14   6   6   -1.22    2.44
 -14   6   7    4.63    3.58
   6  14  -7    3.47    2.64
 -14   6  -7    6.65    3.39
  -6 -14   7   11.26    4.59
 -14   6   7    7.71    4.90
 -14   6   8   19.06    6.36
   6  14  -8   36.23    8.96
 -14   6  -8   37.25    7.73
  -6 -14   8   40.68    8.06
 -14   6   8   30.11    8.48
   6  14  -9   32.73    8.74
 -14   6   9   15.86    6.27
   6  14 -10   36.14    9.61
  14  -6 -10   16.55    6.24
   5  14   0   -0.51    1.55
 -14   5   0    0.43    2.39
   5  14   1    3.68    3.04
   5  14  -1    5.47    2.86
 -14   5   1    3.28    2.82
   5  14  -2    9.33    4.05
 -14   5  -2   18.28    3.88
 -14   5   2   20.30    5.32
 -14   5  -3   79.78    8.01
 -14   5   3   63.80    9.85
   5  14  -3   53.38    8.56
 -14   5  -4   38.55    5.84
   5  14  -4   28.65    6.97
 -14   5   4   28.50    7.14
 -14   5   5   41.57    8.86
   5  14  -5   38.44    8.36
 -14   5  -5   54.41    7.37
 -14   5   5   40.94    8.60
 -14   5   6   53.97   10.13
   5  14  -6   58.98   10.14
  -5 -14   6   53.37    9.25
 -14   5  -6   76.87    9.34
 -14   5   6   37.56    9.19
 -14   5   7   13.86    5.39
   5  14  -7   13.59    5.19
 -14   5  -7    6.29    3.00
  -5 -14   7    4.73    3.54
 -14   5   7   23.18    6.66
 -14   5   8   26.02    7.05
   5  14  -8   33.50    8.31
 -14   5   8   25.65    8.32
  14  -5  -9   30.58    8.97
   5  14  -9   18.53    6.85
 -14   5   9   17.93    7.11
   5  14 -10    8.44    5.68
  14  -5 -10   -3.42    3.55
   4  14   0   33.70    6.52
 -14   4   0   43.35    7.43
   4  14  -1   -1.10    2.05
 -14   4   1    6.06    3.80
   4  14   1   -4.45    2.61
 -14   4  -2    0.99    0.80
 -14   4   2    0.86    2.61
   4  14  -2    7.12    3.72
 -14   4   3    9.56    4.07
 -14   4  -3    8.08    2.39
 -14   4   3    8.64    4.45
   4  14  -3   12.77    4.73
 -14   4   4    7.70    4.70
   4  14  -4    9.86    4.03
 -14   4   4    3.19    3.10
 -14   4  -4    6.70    2.60
 -14   4   5    9.17    4.70
   4  14  -5    9.03    3.27
 -14   4  -5    9.61    3.43
 -14   4   5    4.14    4.02
 -14   4   6    5.13    3.60
 -14   4  -6    5.72    2.87
   4  14  -6    3.30    3.16
 -14   4  -6    9.99    3.50
 -14   4   6    3.33    3.22
 -14   4  -7    3.38    2.59
   4  14  -7    3.12    3.18
 -14   4   7    5.37    3.45
  -4 -14   7    4.54    2.93
 -14   4   7    5.91    5.83
 -14   4   8    1.13    2.42
   4  14  -8   -0.76    2.78
 -14   4   8    6.16    4.97
  14  -4  -8   -0.60    2.42
  14  -4  -9    6.63    4.74
   4  14  -9    3.61    3.23
 -14   4   9   -5.30    4.22
   4  14 -10    4.24    3.71
  14  -4 -10    2.52    4.55
 -14   4  10   -2.09    3.24
   3  14   0    0.62    2.57
 -14   3   0    1.57    2.93
 -14   3   1   10.43    3.20
   3  14  -1   14.01    4.96
   3  14   1   11.08    3.88
 -14   3   1   15.50    4.56
 -14   3   2   -0.23    2.91
   3  14  -2    1.13    2.15
 -14   3  -2    0.85    1.42
 -14   3   2    1.36    2.97
 -14   3   3    2.30    2.06
 -14   3  -3    3.88    1.87
 -14   3   3    4.22    3.64
   3  14  -3    6.32    3.63
 -14   3   4   58.00    9.73
 -14   3  -4   80.22   10.45
   3  14  -4   59.06    9.33
 -14   3   4   61.99   10.35
 -14   3  -4   60.06    6.67
 -14   3   5   20.66    6.34
 -14   3  -5   15.86    4.93
   3  14  -5   11.44    4.77
 -14   3  -5   17.82    4.10
 -14   3   5    6.75    4.01
 -14   3   6   -1.48    2.60
 -14   3  -6   -1.36    4.79
 -14   3  -6    3.54    2.56
   3  14  -6   -0.71    3.04
 -14   3   6    3.26    3.66
   3  14  -7   28.92    7.88
 -14   3   7   23.73    7.45
 -14   3   7   40.95    9.04
 -14   3   8    7.64    4.29
  14  -3  -8   12.13    5.11
   3  14  -8    5.27    3.98
 -14   3   8    4.00    3.12
  14  -3  -9    7.91    3.74
   3  14  -9   -1.77    3.11
 -14   3   9   -0.88    3.63
   3  14 -10   11.56    6.39
  14  -3 -10   -0.27    3.33
 -14   3  10    8.89    6.65
 -14   2   0  460.47   25.88
 -14   2   0  483.61   24.73
   2  14   0  517.65   24.66
 -14   2   1  461.61   26.35
 -14   2  -1  420.96   24.47
   2  14   1  454.36   23.24
   2  14  -1  406.81   22.29
 -14   2   1  460.62   24.48
 -14   2  -2  290.69   19.99
   2  14  -2  330.32   20.53
 -14   2  -2  333.69   11.62
 -14   2   2  323.05   21.13
 -14   2   2  284.56   20.96
 -14   2   3  269.79   20.54
 -14   2  -3  266.01   18.85
 -14   2  -3  280.28   11.94
 -14   2   3  270.74   20.19
   2  14  -3  273.46   19.22
 -14   2   4  125.24   14.26
 -14   2  -4   98.26   11.36
   2  14  -4  101.58   12.26
 -14   2   4  108.96   13.55
 -14   2  -4  130.08    9.08
 -14   2  -5   49.02    7.90
 -14   2  -5   38.51    5.59
   2  14  -5   39.86    8.10
 -14   2   5   33.24    7.32
 -14   2   5   25.77    7.12
  14  -2  -6    3.76    2.72
 -14   2  -6    4.12    2.47
   2  14  -6    1.58    3.22
 -14   2   6    1.78    2.28
 -14   2   6    4.61    3.48
 -14   2   7   31.56    7.47
  14  -2  -7   20.71    6.32
   2  14  -7   20.45    6.34
 -14   2   7   31.41    8.56
  14  -2  -8   94.82   13.03
   2  14  -8   73.84   12.46
 -14   2   8  104.81   13.86
 -14   2   8  103.15   15.65
   2  14  -9   87.84   14.23
  14  -2  -9   71.52   12.02
 -14   2   9   96.32   15.50
   2  14 -10   88.51   15.09
  14  -2 -10   80.39   13.96
 -14   2  10  104.94   17.10
  14  -2 -11   38.20   10.43
   1  14   0    0.24    1.76
 -14   1   0   -1.82    1.92
 -14   1   1    0.39    2.46
 -14   1  -1    2.90    3.58
   1  14   1    5.95    3.12
   1  14  -1   -1.95    2.55
 -14   1   1    0.57    2.41
 -14   1   2    1.78    2.08
 -14   1  -2    0.65    1.97
   1  14  -2    3.38    3.25
 -14   1   2   -0.68    3.37
 -14   1   3    1.74    2.62
 -14   1  -3    2.28    2.53
 -14   1  -3    6.13    1.69
 -14   1   3    9.99    4.49
   1  14  -3    6.40    3.78
 -14   1   4   12.02    4.61
 -14   1  -4    8.32    3.59
 -14   1  -4   10.43    2.40
   1  14  -4   13.25    4.68
 -14   1   4   15.57    5.26
  14  -1  -5    4.93    3.12
 -14   1  -5    2.27    1.59
 -14   1   5    3.92    2.20
   1  14  -5   -0.70    2.62
 -14   1   5   -1.16    3.60
 -14   1   6    3.80    3.39
 -14   1  -6    5.92    2.97
  14  -1  -6    3.29    2.78
   1  14  -6   -0.88    2.31
 -14   1   6    2.17    2.54
  14  -1  -7    4.97    3.61
   1  14  -7    0.57    2.52
 -14   1   7    0.32    3.62
 -14   1   7    4.69    2.80
  14  -1  -8   -6.17    4.22
   1  14  -8    1.03    4.27
 -14   1   8   -8.52    4.76
   1  14  -9   10.22    5.92
  14  -1  -9    3.56    4.20
 -14   1   9    7.22    5.23
   1  14 -10   -0.52    2.88
 -14   1  10    0.15    2.22
  14  -1 -11    4.18    3.86
 -14   0   0  864.63   34.99
   0  14   0  974.99   34.71
 -14   0   1  596.83   29.35
   0  14   1  631.19   28.00
   0  14  -1  617.32   27.97
 -14   0   1  604.57   28.26
 -14   0  -1  587.03   28.26
  14   0  -2  466.06   15.55
 -14   0   2  424.23   25.19
 -14   0  -2  469.99   24.76
   0  14  -2  469.45   24.80
 -14   0   2  496.11   26.11
  14   0  -3  505.91   18.93
 -14   0  -3  460.30   24.19
 -14   0   3  442.45   25.46
 -14   0   3  438.62   25.98
   0  14  -3  444.61   24.90
 -14   0   4  153.16   15.64
 -14   0  -4  134.84   12.90
  14   0  -4  140.03   11.32
   0  14  -4  127.93   13.79
 -14   0   4  132.25   14.82
 -14   0   5   27.42    6.97
 -14   0  -5   32.28    6.44
  14   0  -5   21.43    5.15
   0  14  -5   38.85    7.99
 -14   0   5   27.62    7.45
 -14   0  -6    7.94    3.51
  14   0  -6   12.83    4.35
 -14   0   6    9.77    3.76
   0  14  -6   10.56    4.61
 -14   0   6    4.74    2.50
  14   0  -7   -0.21    2.06
 -14   0   7    3.84    3.12
  14   0  -8   69.96   11.19
   0  14  -8   68.35   12.25
 -14   0   8   63.25   12.03
   0  14  -9   93.74   14.77
  14   0  -9   88.24   13.23
 -14   0   9   68.64   13.09
   0  14 -10   41.97   10.72
  14   0 -10   76.85   13.34
 -14   0  10   61.35   12.96
  14   0 -11   64.71   12.85
 -14  -1   0    1.86    2.82
  -1  14   0    3.43    2.14
 -14  -1   1    5.51    2.78
 -14  -1  -1    8.14    3.55
  14   1  -1    8.37    1.55
  -1  14   1    6.48    3.58
  -1  14  -1   18.36    5.51
 -14  -1   1    6.91    3.36
 -14  -1  -2    9.01    3.65
  14   1  -2   11.90    2.35
  -1  14  -2   15.10    4.56
 -14  -1   2   16.34    5.15
 -14  -1   2   16.03    5.02
  -1  14  -3   25.63    6.55
 -14  -1   3   19.42    5.80
 -14  -1  -3   33.09    6.81
  14   1  -3   25.59    4.26
 -14  -1   3   18.06    5.55
 -14  -1  -4   35.21    6.83
  14   1  -4   38.48    5.81
 -14  -1   4   40.24    8.44
  -1  14  -4   34.28    7.40
 -14  -1   4   36.32    7.80
 -14  -1  -5   43.83    7.43
 -14  -1   5   51.63    9.41
  14   1  -5   40.14    6.65
  -1  14  -5   40.22    8.34
 -14  -1   5   44.95    8.88
  14   1  -6   10.59    4.30
  -1  14  -6   18.46    5.51
 -14  -1   6   21.30    6.74
  14   1  -7   24.36    6.29
  -1  14  -7   23.30    6.91
 -14  -1   7   17.78    6.54
  -1  14  -8   39.64    9.58
  14   1  -8   49.92    9.47
 -14  -1   8   40.44    9.52
  -1  14  -9   14.69    6.45
  14   1  -9   22.58    7.12
 -14  -1   9   13.38    6.25
  -1  14 -10    3.46    3.60
  14   1 -10    4.07    3.06
 -14  -1  10   -2.45    2.71
  14   1 -11    4.77    3.75
 -14  -2   0   65.29    9.79
  -2  14   0   57.31    8.71
 -14  -2   1   67.87    9.71
 -14  -2   1   52.51    8.92
 -14  -2  -1   67.78    9.52
  14   2  -1   56.11    2.88
  -2  14   1   75.34   10.00
  -2  14  -1   61.52    8.87
 -14  -2   2   43.07    8.17
 -14  -2  -2   34.60    6.73
  -2  14  -2   40.20    7.26
  14   2  -2   39.70    4.05
 -14  -2   2   38.00    7.47
 -14  -2  -3   31.43    6.47
  -2  14  -3   23.00    6.01
 -14  -2   3   23.78    6.30
  14   2  -3   31.62    4.70
 -14  -2   3   26.54    6.43
  14   2  -4   10.52    3.46
  -2  14  -4    2.65    2.25
 -14  -2   4    5.07    4.02
  14   2  -5    3.45    2.75
  -2  14  -5    0.35    2.33
 -14  -2   5    0.81    2.59
  14   2  -6   11.61    4.45
  -2  14  -6    3.72    3.50
 -14  -2   6    1.21    3.29
  14   2  -7    4.04    2.26
  -2  14  -7    1.77    3.63
 -14  -2   7    1.46    2.95
  -2  14  -8   -0.35    1.85
  14   2  -8    1.76    2.14
 -14  -2   8   -2.75    3.16
  -2  14  -9   -4.17    3.85
  14   2  -9    1.39    3.21
 -14  -2   9    1.14    6.38
  -2  14 -10    2.70    3.20
  14   2 -10    3.79    3.96
 -14  -2  10    1.71    2.93
  14   2 -11    1.40    2.94
 -14  -2  11    5.66    3.60
 -14  -3   0    0.29    2.52
  -3  14   0    0.00    1.70
 -14  -3   0    0.90    2.77
 -14  -3  -1   34.31    7.28
 -14  -3   1   31.17    6.42
  -3  14   1   41.36    7.75
  -3  14  -1   35.25    7.25
 -14  -3  -2   54.09    8.74
 -14  -3   2   36.44    7.73
  -3  14  -2   50.93    8.60
  14   3  -2   50.80    4.43
 -14  -3   2   41.15    7.84
  -3  14  -3   12.22    4.18
 -14  -3   3   12.15    4.69
  14   3  -3   12.00    2.71
 -14  -3   3   11.84    4.22
  14   3  -4  110.23    9.55
 -14  -3   4  109.84   13.16
  -3  14  -4  105.88   12.78
 -14  -3   4   90.45   11.92
  14   3  -5   34.85    6.09
  -3  14  -5   35.93    7.68
 -14  -3   5   33.06    7.44
  14   3  -6   11.98    4.33
  -3  14  -6    9.70    4.65
 -14  -3   6   14.36    5.53
  -3  14  -7   -0.39    3.00
  14   3  -7    1.45    3.24
 -14  -3   7    3.70    4.15
  -3  14  -8    4.18    2.07
  14   3  -8    4.10    3.00
 -14  -3   8    3.54    3.65
  -3  14  -9    5.75    4.53
  14   3  -9   -2.79    3.14
 -14  -3   9   12.30    4.92
  -3  14 -10    7.51    4.72
  14   3 -10    0.83    4.20
 -14  -3  10    6.16    3.57
  14   3 -11    0.80    2.96
 -14  -3  11    2.04    4.64
 -14  -4   0   43.00    7.98
  -4  14   0   43.16    7.96
  -4  14   1  123.41   12.98
 -14  -4  -1  136.18   13.81
 -14  -4   1  115.50   13.05
  -4  14  -1  117.96   12.82
  14   4  -2   72.24    5.17
 -14  -4  -2   76.30   10.28
 -14  -4   2   59.79    9.51
  -4  14  -2   65.51    9.98
 -14  -4   2   69.80   10.11
  14   4  -3   92.13    7.47
  -4  14  -3   92.77   11.72
 -14  -4  -3  101.86   11.89
 -14  -4   3   84.98   11.47
 -14  -4   3   74.57   10.56
 -14  -4  -4  105.00   12.04
 -14  -4   4  104.79   12.82
  14   4  -4   83.38    8.26
  -4  14  -4  103.50   12.65
 -14  -4   4   96.90   12.13
 -14  -4   5   17.32    5.38
  14   4  -5   19.30    4.69
  -4  14  -5   24.85    6.67
 -14  -4   5   23.29    6.44
  14   4  -6   -1.27    2.07
 -14  -4   6   -0.75    2.13
  -4  14  -7   18.89    6.60
  14   4  -7   16.63    4.68
 -14  -4   7   14.90    5.19
  -4  14  -8   22.72    6.80
  14   4  -8    8.11    3.08
 -14  -4   8   11.15    5.30
  -4  14  -9   15.17    6.27
  14   4  -9   20.91    7.09
 -14  -4   9   20.46    7.35
  14   4 -10   -0.71    2.40
 -14  -4  10   10.24    5.44
  14   4 -11    5.30    4.58
 -14  -4  11   12.02    6.45
 -14  -5   0    3.82    2.88
  -5  14   0   -2.19    2.27
  -5  14  -1  133.96   13.64
 -14  -5  -1  132.03   13.62
 -14  -5   1  117.40   13.23
  -5  14  -1  134.22    8.19
  -5  14   1  124.18   13.12
 -14  -5   2  322.64   22.15
 -14  -5  -2  296.01   20.45
  -5  14  -2  310.73   21.05
  -5  14  -3  253.97   19.34
 -14  -5  -3  245.87   18.35
  14   5  -3  228.72   11.77
 -14  -5   3  217.75   18.40
 -14  -5   3  213.11   17.80
  14   5  -4  466.28   19.47
 -14  -5  -4  463.70   25.11
 -14  -5   4  436.50   26.21
 -14  -5   4  446.59   26.38
  -5  14  -4  441.07   26.39
 -14  -5  -5  493.75   25.71
 -14  -5   5  479.23   27.92
  14   5  -5  449.78   21.38
 -14  -5   5  405.43   25.85
  -5  14  -5  495.66   28.79
 -14  -5   6  375.01   25.19
  14   5  -6  309.35   19.54
 -14  -5   6  296.74   23.07
  -5  14  -6  350.45   25.37
 -14  -5   7  301.66   23.99
  -5  14  -7  308.95   24.72
  14   5  -7  289.61   20.58
  -5  14  -8  109.62   15.51
 -14  -5   8  134.64   16.64
  -5  14  -9   67.61   12.70
  14   5  -9   53.01   10.08
 -14  -5   9   60.79   11.57
  14   5 -10   23.71    7.92
 -14  -5  10   26.00    7.64
  14   5 -11   13.09    5.45
 -14  -5  11   14.22    6.40
 -14  -6   0   17.71    5.26
  -6  14   0   16.56    3.98
  -6  14   0   31.59    7.02
  -6  14  -1    2.83    3.08
 -14  -6  -1    0.30    1.88
 -14  -6   1    1.73    2.59
  -6  14  -1    3.89    1.60
  -6  14   1    1.35    2.10
 -14  -6  -2   -0.10    1.90
 -14  -6   2   -2.42    3.15
  -6  14  -2    5.58    4.04
 -14  -6  -3    6.17    3.71
 -14  -6   3    6.18    4.38
 -14  -6   3   -1.41    3.31
  -6  14  -3    0.17    1.69
  14   6  -3    5.35    2.29
 -14  -6  -4    1.83    2.45
 -14  -6   4    2.97    2.71
  -6  14  -4    0.08    2.52
  14   6  -4    0.09    1.34
 -14  -6   4    7.40    4.46
 -14  -6  -5   19.63    5.35
 -14  -6   5   20.76    6.52
  14   6  -5   11.20    3.86
  -6  14  -5   22.63    6.42
 -14  -6   5   22.00    6.27
 -14  -6  -6   -0.41    1.53
 -14  -6   6    2.13    3.79
  -6  14  -6    2.13    3.79
  14   6  -6    1.61    2.05
 -14  -6   6    4.09    4.22
 -14  -6   7    9.92    4.81
  -6  14  -7   15.15    5.82
  14   6  -7    6.79    3.74
 -14  -6   7    8.60    3.83
  -6  14  -8    1.55    2.07
  14   6  -8    4.60    3.66
 -14  -6   8    8.51    4.86
  -6  14  -9   19.46    7.38
  14   6  -9    3.53    2.92
 -14  -6   9   15.76    6.47
  14   6 -10   10.91    5.31
 -14  -6  10   21.37    8.01
  14   6 -11    8.00    5.39
  -7  14   0    3.16    3.59
 -14  -7   0    0.85    2.19
  -7  14   0    0.50    1.52
  -7  14  -1   94.65   11.67
 -14  -7  -1   90.60   11.60
 -14  -7   1  105.28   12.63
  -7  14  -1  112.43    8.10
  -7  14   1  106.45   12.63
 -14  -7  -2  271.90   20.04
 -14  -7   2  252.94   19.98
  -7  14  -2  277.41   20.27
 -14  -7  -3  392.62   23.85
 -14  -7   3  385.68   25.18
  -7  14  -3  391.22   24.56
 -14  -7  -4  485.18   26.51
 -14  -7   4  436.58   27.07
  14   7  -4  449.69   19.73
  -7  14  -4  452.20   26.90
 -14  -7   4  433.48   26.12
 -14  -7  -5  461.49   25.46
 -14  -7   5  467.55   28.18
 -14  -7   5  452.74   27.27
  14   7  -5  431.90   21.33
  -7  14  -5  462.79   28.08
  14   7  -6  343.40   20.81
 -14  -7  -6  372.98   22.78
 -14  -7   6  382.32   25.84
 -14  -7   6  339.14   24.32
  -7  14  -6  371.18   26.19
  14   7  -7  251.91   19.32
 -14  -7   7  282.53   22.61
 -14  -7   7  295.76   23.60
  -7  14  -7  256.37   22.60
 -14  -7   8  117.28   15.09
  -7  14  -8  139.04   17.43
  14   7  -8  112.87   13.84
 -14  -7   8  109.53   15.09
  -7  14  -9   69.38   12.94
  14   7  -9   61.23   10.79
 -14  -7   9   54.78   10.84
  14   7 -10   41.06    9.78
 -14  -7  10   31.81    8.73
  -8  14   0   35.15    7.29
 -14  -8   0   35.51    7.90
  -8  14   0   60.77    7.28
 -14  -8  -1   13.05    5.27
 -14  -8   1    6.08    3.42
  -8  14  -1   13.48    4.99
  -8  14   1   12.88    3.86
  -8  14  -1    6.39    2.12
  -8  14   1    8.65    3.92
 -14  -8  -2   -1.52    2.49
 -14  -8   2   -1.73    2.78
  -8  14  -2    2.91    2.80
 -14  -8  -3   19.00    5.53
 -14  -8   3   27.07    7.17
  -8  14  -3   22.48    6.28
  -8  14  -4   24.96    6.67
 -14  -8  -4   17.68    4.66
 -14  -8   4   20.41    6.28
 -14  -8  -5   -0.63    2.10
 -14  -8   5   -1.22    3.51
  -8  14  -5    5.97    4.38
  14   8  -5    8.91    3.71
 -14  -8   5    3.96    3.33
 -14  -8  -6    0.64    1.59
 -14  -8   6    1.94    3.35
  -8  14  -6    5.37    4.16
  14   8  -6    4.14    2.50
 -14  -8   6    2.90    2.39
 -14  -8   7    1.27    2.73
  -8  14  -7    0.86    2.01
  14   8  -7   -0.85    2.68
 -14  -8   7    0.39    2.71
 -14  -8   8    2.54    2.16
  -8  14  -8    9.61    5.91
  14   8  -8    6.72    4.41
 -14  -8   8    3.90    3.92
  -8  14  -9   -1.02    4.36
  14   8  -9    9.82    4.60
 -14  -8   9    2.94    3.28
  14   8 -10   -0.38    3.94
 -14  -9   0   -0.79    2.45
  -9  14   0   -1.92    1.99
  -9  14   0   -0.25    1.45
 -14  -9  -1    9.98    3.68
 -14  -9   1    2.92    3.58
  -9  14  -1    7.91    4.39
  -9  14   1    5.86    2.46
 -14  -9  -2    2.13    2.72
 -14  -9   2    5.88    3.31
  -9  14   2    3.64    2.73
  -9  14  -2    4.01    3.02
 -14  -9  -3    3.16    2.61
 -14  -9   3   -0.66    2.50
  -9  14  -3    2.25    3.21
 -14  -9  -4    9.48    4.33
 -14  -9   4    4.78    4.13
  -9  14  -4    9.54    4.32
  -9  14  -5    1.03    2.13
 -14  -9   5    9.58    3.62
 -14  -9  -5    2.92    1.78
 -14  -9   5    4.27    3.34
 -14  -9  -6    4.81    3.34
 -14  -9   6    0.50    2.52
  -9  14  -6    5.34    3.93
 -14  -9   6   10.86    4.66
 -14  -9   7   11.10    5.27
  -9  14  -7    5.74    3.69
 -14  -9   7   11.18    5.85
 -14  -9   8    4.94    4.36
  -9  14  -8   -3.32    3.17
 -14  -9   8    5.36    4.92
  -9  14  -9   -0.50    3.79
 -14 -10   0   27.07    6.96
 -10  14   0   16.10    4.43
 -10  14   0   23.37    6.66
 -14 -10  -1   21.82    6.18
 -14 -10   1   21.97    6.68
 -10  14   1   33.72    6.74
 -10  14  -1   29.33    6.85
 -10  14  -2    7.37    3.96
 -14 -10  -2    7.25    3.79
 -10  14   2   14.58    4.95
 -14 -10   2   13.42    5.48
 -14 -10  -3    7.15    3.92
 -14 -10   3    9.52    4.53
 -10  14   3    6.59    3.72
 -10  14  -3    4.11    3.52
 -14 -10  -4    3.35    3.18
 -14 -10   4   -0.66    3.24
 -10  14  -4    8.38    4.41
 -10  14   4    7.08    4.34
 -10  14  -5    0.72    3.03
 -14 -10  -5   -0.65    2.01
 -14 -10   5   -0.09    2.40
 -14 -10  -6   -2.87    3.41
 -14 -10   6   -2.02    3.62
 -10  14  -6   -2.60    2.94
 -14 -10   6   -2.34    2.94
 -14 -10   7    3.44    3.05
 -10  14  -7    0.93    2.11
 -14 -10   7    4.52    4.13
 -14 -10   8    8.52    4.22
 -10  14  -8    2.64    3.78
 -14 -10   8    5.71    4.30
 -10  14  -9    3.10    1.79
 -14 -11   0   -0.83    2.74
 -11  14   0    2.28    2.11
 -11  14   0   -0.27    1.44
 -14 -11  -1   54.82   10.03
 -14 -11   1   71.97   11.42
 -11  14   1   67.53    9.42
 -11  14  -1   78.21   11.05
 -11  14  -2   13.44    5.15
 -14 -11  -2   18.66    5.48
 -14 -11   2   23.63    6.47
 -11  14   2   22.20    6.25
 -14 -11  -3  113.62   13.97
 -14 -11   3  122.81   15.01
 -11  14   3  113.34   13.47
 -11  14  -3  127.15   14.67
 -14 -11  -4  173.03   17.10
 -11  14  -4  172.30   17.20
 -14 -11   4  146.26   16.65
 -11  14   4  163.75   17.29
 -14 -11   5  104.29   14.37
 -11  14  -5   98.51   13.56
 -14 -11  -5   92.59   12.65
 -11  14   5  111.92   15.11
 -11  14  -6   46.63    9.56
 -14 -11  -6   66.07   10.67
 -14 -11   6   50.79    9.98
 -11  14   6   92.23   14.36
 -14 -11   7   84.78   13.42
 -11  14  -7   99.16   14.45
 -14 -11   8   61.63   11.40
 -11  14  -8   46.95   10.20
 -11  14  -9    9.99    5.92
 -12  14   0  528.38   29.03
 -12  14   0  557.78   24.91
 -14 -12   0  480.76   29.54
 -14 -12   1  424.04   27.90
 -14 -12  -1  455.50   28.61
 -12  14   1  446.40   24.07
 -12  14  -1  412.28   25.49
 -14 -12  -2  337.51   24.58
 -14 -12   2  348.84   25.75
 -12  14   2  344.40   22.59
 -12  14  -2  365.01   24.26
 -14 -12  -3  200.87   18.65
 -14 -12   3  202.07   19.67
 -12  14   3  183.83   17.45
 -12  14  -3  206.68   18.57
 -14 -12  -4  127.36   14.90
 -12  14  -4  116.41   14.31
 -12  14   4  126.34   15.54
 -14 -12   4  138.30   16.82
 -14 -12  -5   44.57    8.73
 -14 -12   5   38.60    9.01
 -12  14  -5   60.21   10.54
 -12  14   5   43.74    9.72
 -14 -12   6   -3.35    4.21
 -12  14  -6    5.77    4.28
 -14 -12  -6    0.13    2.80
 -12  14   6   -4.94    3.86
 -14 -12   7    8.04    5.53
 -12  14   7   19.27    8.03
 -12  14  -7    9.31    4.64
 -14 -12   8   38.53    9.17
 -12  14   8   51.59   12.64
 -12  14  -8   23.49    7.79
 -12  14  -9   50.07   11.27
 -13  14   0    5.25    3.55
 -14 -13   0    0.05    2.07
 -13  14   0    2.22    2.55
 -14 -13   1    2.99    2.74
 -14 -13  -1   17.55    5.79
 -13  14  -1   17.46    5.60
 -13  14   1   15.01    5.06
 -14 -13   2   32.39    8.26
 -14 -13  -2   19.64    5.98
 -13  14  -2   27.44    7.07
 -13  14   2   43.17    8.38
 -13  14  -3   66.23   10.76
 -14 -13   3   82.74   13.12
 -14 -13  -3   82.38   12.39
 -13  14   3   83.17   12.09
 -14 -13  -4   53.32    9.98
 -14 -13   4   50.36    9.92
 -13  14   4   48.05    9.89
 -13  14  -4   53.90    9.94
 -14 -13  -5   44.09    8.99
 -14 -13   5   44.25    9.89
 -13  14  -5   38.29    8.61
 -13  14   5   44.40   10.01
 -13  14  -6   51.59   10.18
 -14 -13  -6   39.01    8.51
 -14 -13   6   44.58   10.14
 -13  14   6   36.29    9.29
 -13  14  -7   39.39    9.10
 -14 -13   7   38.53    9.35
 -13  14   7   28.56    9.10
 -14 -13   8    4.91    4.33
 -13  14   8   -4.09    4.16
 -13  14  -8    5.31    3.73
 -14 -14   0  383.26   27.46
 -14  14  -1  454.87   27.26
 -14 -14   1  380.49   27.98
 -14 -14  -1  424.66   28.97
 -14  14   1  430.44   24.80
 -14 -14   2  313.62   25.36
 -14 -14  -2  340.48   25.85
 -14  14   2  314.08   22.57
 -14  14  -2  307.01   22.74
 -14 -14  -3  198.62   19.70
 -14 -14   3  188.21   19.77
 -14  14   3  235.65   20.67
 -14  14  -3  205.66   18.71
 -14 -14  -4  102.14   14.04
 -14  14   4  111.36   15.06
 -14 -14   4  117.26   16.07
 -14  14  -4  107.04   13.99
 -14 -14  -5   46.53    9.41
 -14 -14   5   43.69    9.65
 -14  14  -5   29.81    7.72
 -14  14   5   44.83   10.05
 -14  14  -6    7.97    5.09
 -14 -14   6    3.88    3.31
 -14  14   6    3.97    2.95
 -14  14  -7   11.50    4.93
 -14 -14   7    6.38    5.14
 -14  14   7    6.79    5.29
 -14 -14   8   51.16   12.28
 -14  14  -8   32.59    8.69
 -14 -15   0   -2.25    2.35
 -15  14  -1    6.10    2.32
 -14 -15   1   17.59    7.12
 -14 -15  -1   22.23    7.38
 -15  14   1   19.45    5.58
 -15  14  -2    9.51    4.50
 -14 -15   2    5.81    3.85
 -14 -15  -2   10.51    5.24
 -15  14   2    5.62    3.89
 -14 -15   3   -5.57    4.23
 -14 -15  -3    0.60    2.91
 -15  14  -3   -0.54    2.69
 -15  14   3    5.23    3.32
 -15  14  -4   -1.45    3.15
 -14 -15   4   10.83    4.51
 -14 -15  -4    0.14    2.28
 -15  14   4    6.13    4.30
 -14 -15  -5    2.02    3.06
 -14 -15   5    3.54    3.06
 -15  14   5    4.62    4.01
 -15  14  -5    1.30    3.22
 -14 -15   6   -2.62    5.21
 -15  14  -6    1.20    2.11
 -15  14   6   -1.28    4.63
 -14 -15   7    1.83    2.84
 -15  14   7   -3.55    3.26
 -15  14  -8    1.56    2.84
 -14 -15   8    0.85    3.43
 -13 -15   0  137.20   16.53
 -15  13   0  131.14   13.28
 -13 -15   1  121.49   15.94
 -13 -15  -1  150.20   17.41
 -15  13   1  128.96   13.98
 -15  13  -1  140.89   14.89
 -15  13  -2   97.45   12.52
 -13 -15   2  107.01   15.12
 -13 -15  -2  100.62   14.02
 -15  13   2   93.30   12.64
 -15  13  -3   69.45   10.80
 -13 -15   3   55.39   10.88
 -13 -15  -3   50.10    9.79
 -15  13   3   60.87   10.74
 -13 -15   4   29.49    8.28
 -13 -15  -4   28.85    7.62
 -15  13   4   29.36    8.05
 -15  13  -4   30.14    7.25
 -13 -15   5   11.08    5.38
 -13 -15  -5   -1.06    2.62
 -15  13  -5    7.84    4.54
 -15  13   5   10.67    4.70
 -13 -15   6   -6.14    3.80
 -15  13  -6    5.73    3.87
 -15  13   6   -2.52    3.63
 -15  13  -7   -2.46    3.59
 -13 -15   7   -2.31    5.20
 -15  13   7    8.38    5.36
 -13 -15   8   19.96    7.48
 -12 -15   0   -3.34    4.18
 -15  12   0    1.31    1.99
 -12 -15   1    9.59    4.33
 -12 -15  -1    7.22    5.07
 -15  12   1   14.68    5.41
 -15  12  -1    9.25    3.82
 -15  12  -1    6.77    3.74
 -12 -15   2    5.93    3.72
 -12 -15  -2    0.51    2.65
 -15  12   2    4.39    2.82
 -15  12  -2    8.07    4.01
 -15  12  -3    2.78    2.50
 -12 -15   3    1.83    2.98
 -12 -15  -3    0.29    3.03
 -15  12   3    7.85    4.71
 -12 -15   4    3.10    3.08
 -12 -15  -4    7.62    3.41
 -15  12   4    2.90    2.88
 -15  12  -4   -0.97    3.36
 -12 -15   5   -7.46    4.54
 -12 -15  -5    1.18    3.34
 -15  12  -5   -1.12    3.19
 -15  12   5    2.06    3.54
 -15  12  -6   10.37    4.44
 -12 -15   6    6.01    4.32
 -12 -15  -6    6.85    4.36
 -15  12   6    8.60    4.96
 -15  12  -7   17.57    5.31
 -12 -15   7    4.09    3.28
 -15  12   7    3.78    5.83
 -12 -15   8    2.04    2.71
 -11 -15   0  621.98   34.32
 -15  11   0  686.87   30.46
 -11 -15   1  471.63   29.99
 -11 -15  -1  499.00   30.46
 -15  11  -1  548.43   26.93
 -15  11   1  507.95   27.55
 -15  11  -1  506.80   24.97
  11  15  -1  502.11   23.46
 -11 -15  -2  354.58   25.59
 -11 -15   2  381.09   27.16
  11  15  -2  379.26   21.28
 -15  11   2  344.95   23.88
 -15  11  -2  374.66   22.43
 -11 -15   3  350.68   26.19
 -11 -15  -3  301.42   23.43
  11  15  -3  354.19   21.38
 -15  11   3  314.68   23.83
 -15  11  -3  350.76   22.17
 -11 -15   4  199.56   19.82
 -11 -15  -4  182.53   18.15
 -15  11  -4  209.03   17.56
 -15  11   4  178.03   18.91
  11  15  -4  208.13   17.33
 -11 -15   5   11.69    5.09
 -11 -15  -5   16.97    6.25
 -15  11  -5   13.46    4.55
  11  15  -5   21.24    6.18
 -15  11   5   20.20    6.74
 -15  11  -6   -0.07    2.25
 -11 -15   6   -1.40    3.66
 -11 -15  -6    0.09    1.75
  11  15  -6    3.06    2.70
 -15  11   6   -1.50    2.98
 -11 -15   7    6.43    3.77
  11  15  -7   13.38    5.01
 -15  11   7    7.21    4.74
 -15  11  -7    9.69    4.79
  11  15  -8   61.92   11.69
 -11 -15   8   47.35    9.93
 -15  11   8   42.68    9.92
 -15  11   8   40.45   11.16
  11  15  -9   52.47   11.12
  10  15   0    3.62    2.88
 -10 -15   0    1.01    2.12
 -15  10   0   -1.48    1.73
  10  15  -1   -0.46    1.78
 -10 -15   1    0.78    2.57
 -10 -15  -1    2.05    3.00
 -15  10   1    1.65    1.90
 -15  10  -1    4.92    3.37
 -15  10  -1    6.95    2.98
 -10 -15   2    9.42    5.02
 -10 -15  -2    8.56    4.27
  10  15  -2   13.72    4.36
 -15  10   2    3.23    3.39
 -15  10  -2   13.73    4.62
 -15  10  -3   12.80    4.47
  10  15  -3   18.98    5.45
 -10 -15   3   14.17    5.73
 -10 -15  -3    9.23    4.60
 -15  10   3   12.01    5.50
 -10 -15   4   24.57    7.16
 -10 -15  -4    5.71    3.54
 -15  10  -4   15.03    4.68
 -15  10   4   13.23    5.80
  10  15  -4   16.49    5.28
 -15  10  -5   47.04    8.46
 -10 -15   5   31.55    8.20
 -10 -15  -5   42.20    8.58
  10  15  -5   40.51    8.26
 -15  10   5   38.60    9.34
 -15  10  -6   38.05    7.61
 -10 -15   6   51.47   10.19
 -10 -15  -6   49.94    9.19
  10  15  -6   50.65    9.74
 -15  10   6   31.65    8.76
 -10 -15   7   13.10    4.93
  10  15  -7   35.19    8.37
 -15  10   7   17.70    7.47
 -15  10  -7   19.62    6.05
 -15  10   8   16.75    6.60
  10  15  -8   18.18    5.93
 -10 -15   8   29.86    8.01
 -15  10   8   37.33   10.79
  10  15  -9    8.04    4.51
  -9 -15   0  753.21   36.13
 -15   9   0  779.00   32.34
   9  15   0  780.75   29.50
  -9 -15   1  505.46   29.82
  -9 -15  -1  447.25   27.69
 -15   9  -1  512.96   23.94
 -15   9   1  449.17   25.57
   9  15  -1  493.82   23.93
 -15   9  -1  506.89   25.21
  -9 -15   2  328.16   24.16
  -9 -15  -2  312.86   22.82
   9  15  -2  360.54   21.11
 -15   9   2  319.90   22.59
 -15   9  -2  364.70   20.36
   9  15  -3  220.74   17.14
  -9 -15   3  214.24   19.89
  -9 -15  -3  200.66   18.26
 -15   9   3  195.43   18.57
 -15   9  -3  219.99   16.17
  -9 -15   4  147.51   16.57
  -9 -15  -4  124.73   14.36
 -15   9  -4  117.50   12.28
 -15   9   4  110.95   14.67
   9  15  -4  123.10   13.55
 -15   9  -5   38.56    7.39
  -9 -15   5   65.11   10.84
  -9 -15  -5   43.48    8.29
   9  15  -5   56.24    9.57
 -15   9   5   40.56    9.43
  -9 -15   6    2.13    3.99
  -9 -15  -6    4.15    3.46
   9  15  -6    8.34    4.38
 -15   9   6    3.30    3.94
 -15   9  -6    0.46    1.40
 -15   9   7    8.89    5.26
   9  15  -7    7.75    3.65
  -9 -15   7    4.77    3.07
 -15   9   7    7.63    4.67
 -15   9   8   41.66    9.73
   9  15  -8   31.77    8.38
  -9 -15   8   57.07   10.56
 -15   9   8   50.58   11.74
   9  15  -9   20.30    7.30
 -15   8   0    2.17    2.10
   8  15   0    2.18    1.78
   8  15  -1   58.18    8.59
   8  15   1   60.92    8.48
 -15   8  -1   58.67    7.78
 -15   8   1   57.67    9.26
 -15   8  -1   56.55    8.39
  -8 -15   2   25.29    6.38
   8  15  -2   21.17    5.50
 -15   8   2   25.80    6.47
 -15   8  -2   25.16    5.25
 -15   8  -3   15.42    4.07
   8  15  -3   12.21    4.74
  -8 -15   3    5.08    4.06
 -15   8   3   10.12    4.65
  -8 -15   4   32.70    7.56
  -8 -15  -4   34.06    7.53
 -15   8  -4   42.13    7.07
 -15   8   4   42.63    8.99
   8  15  -4   44.71    8.10
 -15   8  -5   42.80    7.56
  -8 -15   5   31.42    7.98
  -8 -15  -5   21.37    6.01
   8  15  -5   25.35    6.59
 -15   8   5   16.35    5.81
  -8 -15   6   31.76    7.44
  -8 -15  -6   33.24    7.21
   8  15  -6   26.55    6.89
 -15   8   6   19.69    6.87
 -15   8  -6   33.13    6.92
 -15   8   7   46.37   10.33
   8  15  -7   30.15    7.82
  -8 -15   7   40.88    8.99
 -15   8   7   33.71    9.42
   8  15  -8   14.91    6.47
  -8 -15   8   20.34    6.43
 -15   8   8   16.84    6.93
 -15   8   8   20.01    7.68
   8  15  -9    8.30    4.70
   7  15   0    0.76    2.38
 -15   7   0    1.76    3.30
   7  15   1    1.30    2.46
 -15   7   1    1.17    1.99
   7  15  -1    5.49    2.98
   7  15  -2    2.80    2.40
 -15   7   2   -1.24    3.07
 -15   7  -2    3.07    2.86
   7  15  -3    2.35    2.91
 -15   7   3    3.06    2.72
 -15   7  -3    1.83    1.82
 -15   7  -4   26.89    5.54
  -7 -15   4   18.68    5.57
 -15   7   4   14.72    5.11
   7  15  -4   35.02    7.19
 -15   7  -5   -0.25    1.50
  -7 -15   5    0.40    3.23
   7  15  -5    0.36    2.46
 -15   7   5    4.30    3.69
 -15   7   6    3.27    4.09
  -7 -15   6   -2.01    3.21
   7  15  -6   -3.13    2.61
  -7 -15  -6    1.01    2.15
 -15   7   6    3.25    3.30
 -15   7  -6    2.81    2.18
 -15   7   7   -1.07    2.29
   7  15  -7    2.57    1.93
  -7 -15   7    4.46    3.53
 -15   7   7    2.14    3.79
   7  15  -8   -3.46    4.34
  -7 -15   8   -2.14    3.58
 -15   7   8    1.63    5.03
 -15   7   8    1.61    3.37
   7  15  -9   21.98    7.55
 -15   7   9   -0.80    3.71
  15  -7 -10    6.35    4.99
   6  15   0    1.16    2.36
 -15   6   0   10.25    4.74
   6  15   1   19.62    5.54
 -15   6   1   19.64    5.82
   6  15  -1   19.35    5.21
   6  15  -2  170.99   14.99
 -15   6   2  148.74   15.06
 -15   6  -2  161.26   11.55
   6  15  -3  171.11   15.56
 -15   6  -3  189.54   13.01
 -15   6   3  165.07   16.77
 -15   6  -4   58.31    7.65
 -15   6   4   38.83    8.14
   6  15  -4   38.05    7.65
 -15   6   5   94.81   13.64
   6  15  -5   93.40   12.57
 -15   6   5  103.93   14.31
 -15   6  -5  114.75   11.24
 -15   6   6   63.42   11.27
   6  15  -6   86.45   12.67
  -6 -15   6   72.11   11.16
 -15   6   6   70.88   12.34
 -15   6   7   22.90    6.73
   6  15  -7   21.24    6.92
  -6 -15   7   31.09    7.55
 -15   6   7   38.91    9.81
 -15   6   8    5.34    3.83
   6  15  -8    1.27    1.90
 -15   6   8    7.01    5.00
   6  15  -9   19.14    6.97
 -15   6   9   27.27    8.98
  15  -6 -10   15.02    7.48
   5  15   0   21.69    5.46
 -15   5   0   23.71    6.32
   5  15   1   45.05    7.58
   5  15  -1   38.29    7.14
 -15   5   1   33.19    7.07
 -15   5  -2   38.26    5.31
   5  15  -2   41.11    7.69
 -15   5   2   35.86    7.48
   5  15  -3   68.80   10.06
 -15   5   3   57.27    9.70
 -15   5  -3   73.09    7.60
 -15   5   4   29.94    7.26
 -15   5  -4   43.85    6.26
 -15   5   4   36.15    7.97
   5  15  -4   24.68    6.29
 -15   5   5    2.58    3.20
   5  15  -5    1.07    2.71
 -15   5   5    2.69    2.84
 -15   5   6    2.72    3.62
   5  15  -6    1.63    2.33
 -15   5   6    5.71    4.54
 -15   5   7   -1.64    2.81
   5  15  -7    1.68    2.56
  -5 -15   7    2.68    2.10
 -15   5   8    8.10    4.78
   5  15  -8   17.54    6.43
 -15   5   8    5.69    5.34
  15  -5  -9    1.84    3.10
   5  15  -9    6.44    4.95
 -15   5   9    2.33    3.29
  15  -5 -10    8.02    5.41
   4  15   0    5.07    3.25
 -15   4   0    0.26    2.33
   4  15   1  138.35   13.10
   4  15  -1  145.62   13.81
 -15   4   1  160.28   15.10
 -15   4   2  254.35   20.94
   4  15  -2  251.76   18.38
 -15   4  -2  288.99   13.43
 -15   4   2  263.12   19.97
   4  15  -3  308.95   20.83
 -15   4   3  340.86   24.51
 -15   4  -3  350.48   15.57
 -15   4   3  363.93   24.23
 -15   4   4  506.90   30.19
 -15   4   4  509.39   29.94
   4  15  -4  544.50   28.75
 -15   4   5  438.63   28.37
 -15   4  -5  418.51   24.74
 -15   4   5  444.56   29.12
   4  15  -5  408.26   25.99
 -15   4   6  431.84   28.51
 -15   4  -6  424.26   24.41
 -15   4   6  414.89   29.50
   4  15  -6  393.07   26.74
 -15   4   7  305.98   24.40
  -4 -15   7  318.53   22.73
 -15   4   7  304.60   26.22
   4  15  -7  333.05   25.58
  15  -4  -8  144.43   16.47
   4  15  -8  137.24   17.25
 -15   4   8  116.90   15.36
 -15   4   8  128.27   17.92
  15  -4  -9   84.15   13.84
   4  15  -9  100.32   15.52
 -15   4   9   75.19   14.48
  15  -4 -10   26.45    8.80
 -15   3   0   29.11    6.52
   3  15   0   24.22    5.60
 -15   3   0   28.80    6.66
 -15   3   1   12.85    5.12
 -15   3  -1    9.78    4.44
   3  15  -1   16.95    5.05
 -15   3   1   12.83    4.62
   3  15   1   14.48    4.72
 -15   3  -2   17.07    3.03
 -15   3   2   15.95    5.33
 -15   3  -2   13.09    4.63
   3  15  -2   19.41    5.15
 -15   3   2   19.77    6.11
   3  15  -3    7.96    4.09
 -15   3   3    9.83    4.46
 -15   3  -3    5.07    3.39
 -15   3   3    3.70    2.49
 -15   3   4   -0.73    3.43
 -15   3  -4    5.39    3.61
   3  15  -4    1.48    3.27
 -15   3   4   -0.87    2.60
 -15   3   5    1.51    2.49
 -15   3  -5    0.57    1.99
   3  15  -5    2.24    3.65
 -15   3   5   -0.09    3.94
 -15   3   6    2.68    2.52
 -15   3  -6    0.17    2.35
   3  15  -6    5.64    3.87
 -15   3   6   -1.61    3.02
  15  -3  -7   -1.20    2.64
 -15   3   7    0.57    2.57
   3  15  -7    2.20    3.65
 -15   3   7    3.24    2.54
 -15   3   8   -1.36    2.93
  15  -3  -8    2.04    2.58
   3  15  -8    4.02    4.05
  15  -3  -9    0.50    2.25
   3  15  -9   -3.49    3.33
 -15   3   9   -1.20    4.20
  15  -3 -10    0.23    2.29
 -15   2   0    1.52    2.35
 -15   2   0    4.58    4.32
   2  15   0    2.95    2.44
 -15   2   1  171.16   16.81
   2  15   1  147.90   13.95
 -15   2  -1  129.15   14.16
   2  15  -1  162.15   14.89
 -15   2   1  169.07   15.65
 -15   2   2  175.25   17.20
 -15   2  -2  210.45   17.75
   2  15  -2  198.15   16.59
 -15   2   2  209.52   17.95
   2  15  -3  118.68   13.24
 -15   2   3  123.54   14.77
 -15   2  -3  101.14   12.19
 -15   2   3  136.53   15.00
 -15   2   4  184.67   18.07
 -15   2   4  200.80   18.77
   2  15  -4  194.86   17.39
 -15   2  -4  234.73   18.22
 -15   2   5  277.95   22.40
 -15   2  -5  259.95   18.71
 -15   2   5  268.89   22.33
   2  15  -5  249.14   20.45
 -15   2  -6  206.18   16.19
  15  -2  -6  212.51   17.32
 -15   2   6  168.42   17.50
   2  15  -6  213.91   19.77
 -15   2   6  179.03   19.16
 -15   2   7   93.26   13.36
  15  -2  -7  111.53   13.48
   2  15  -7   96.82   13.98
 -15   2   7   89.71   14.17
  15  -2  -8   79.41   11.86
   2  15  -8   77.24   12.88
 -15   2   8   89.42   14.45
   2  15  -9   14.39    6.20
 -15   2   9   34.06    9.80
  15  -2 -10   16.53    6.87
 -15   2  10   11.49    7.03
 -15   1   0   12.65    4.72
   1  15   0   11.41    4.04
 -15   1   1    4.13    2.97
 -15   1  -1    1.66    1.75
   1  15   1    7.74    4.09
   1  15  -1    2.97    2.36
 -15   1   1    2.45    3.40
 -15   1   2   12.30    5.21
 -15   1  -2   10.37    3.98
   1  15  -2   11.59    4.57
 -15   1   2    8.18    4.84
 -15   1   3   32.59    7.99
   1  15  -3   44.14    8.18
 -15   1  -3   23.15    5.78
 -15   1   3   35.86    7.38
  15  -1  -4    9.20    3.29
 -15   1   4   14.05    5.19
 -15   1  -4   10.85    3.93
 -15   1   4   13.67    5.22
   1  15  -4   17.83    5.37
 -15   1   5    1.09    2.06
  15  -1  -5   -2.02    1.96
 -15   1  -5   -0.46    2.38
   1  15  -5   -0.67    1.96
 -15   1   5    0.96    2.33
 -15   1  -6   14.36    4.72
  15  -1  -6   20.07    5.28
 -15   1   6    9.19    4.63
   1  15  -6   17.24    5.99
 -15   1   6    6.53    6.19
  15  -1  -7   12.05    5.22
 -15   1   7    5.88    4.28
   1  15  -7    7.14    3.43
 -15   1   7   13.98    6.27
  15  -1  -8    3.29    2.69
   1  15  -8   18.11    6.93
 -15   1   8    5.22    4.00
  15  -1  -9    4.40    2.27
   1  15  -9    4.63    2.60
 -15   1   9    9.43    4.72
  15  -1 -10    4.21    4.33
 -15   1  10   -2.62    3.84
 -15   0   0    4.57    3.52
   0  15   0    2.29    2.59
 -15   0   1    7.97    4.95
 -15   0  -1    0.23    2.29
   0  15   1    4.18    3.58
   0  15  -1   -1.37    1.76
 -15   0   1    0.19    1.94
 -15   0   2    1.66    2.80
 -15   0  -2    4.17    3.21
  15   0  -2    8.74    2.37
   0  15  -2    2.32    2.53
 -15   0   2   10.95    4.45
 -15   0   3   24.13    6.49
 -15   0  -3   30.48    6.90
   0  15  -3   27.87    6.51
  15   0  -3   21.77    3.96
 -15   0   3   25.45    6.56
 -15   0   4   65.19   11.07
 -15   0  -4   65.35    9.52
  15   0  -4   50.98    6.89
 -15   0   4   55.50   10.11
   0  15  -4   56.09    9.47
 -15   0   5    4.78    2.92
 -15   0  -5   14.76    4.76
  15   0  -5    8.49    3.61
   0  15  -5    6.17    3.85
 -15   0   5    7.94    3.76
 -15   0   6   -1.00    1.99
  15   0  -6    2.91    2.60
   0  15  -6    2.11    3.21
 -15   0   6   -1.00    2.72
  15   0  -7   10.03    3.98
   0  15  -7    6.82    3.91
 -15   0   7    7.61    5.22
  15   0  -8    7.71    4.17
   0  15  -8   17.33    6.25
 -15   0   8   12.12    6.39
   0  15  -9    5.79    4.30
  15   0  -9    1.09    3.83
 -15   0   9   11.15    4.92
  15   0 -10    8.61    5.29
 -15   0  10    6.35    4.87
  15   0 -11    8.12    4.85
 -15  -1   0  161.45   15.79
  -1  15   0  163.21   15.09
 -15  -1   1  187.19   17.13
 -15  -1  -1  209.91   17.76
  -1  15   1  226.08   17.65
  -1  15  -1  235.67   18.20
 -15  -1   1  204.97   17.25
  15   1  -2   82.40    6.13
 -15  -1   2   74.94   11.04
 -15  -1  -2   87.02   11.18
  -1  15  -2   99.34   12.12
 -15  -1   2   88.55   11.50
 -15  -1   3   79.33   11.77
 -15  -1  -3   68.08    9.81
  -1  15  -3   67.91   10.40
  15   1  -3   66.95    6.70
 -15  -1   3   74.56   11.22
 -15  -1   4   27.30    6.90
 -15  -1  -4   33.02    6.85
  15   1  -4   29.61    5.14
 -15  -1   4   37.68    8.01
  -1  15  -4   41.27    8.37
  15   1  -5    4.96    2.61
 -15  -1   5    4.64    3.10
  -1  15  -5    5.90    3.67
 -15  -1   5    6.99    4.76
 -15  -1  -5    6.11    3.52
  15   1  -6    2.07    2.35
  -1  15  -6    4.65    3.01
 -15  -1   6    3.63    3.41
  15   1  -7    9.06    4.19
  -1  15  -7    6.28    3.92
 -15  -1   7    4.51    4.19
  15   1  -8    7.54    3.89
  -1  15  -8    3.88    3.01
 -15  -1   8    4.57    5.02
  -1  15  -9   17.02    5.96
  15   1  -9   10.59    5.20
 -15  -1   9   24.59    8.14
  15   1 -10   14.50    6.58
 -15  -1  10   44.29   10.73
  15   1 -11   15.84    6.41
 -15  -2   0   -0.68    2.20
  -2  15   0    1.69    3.30
  -2  15   1   65.45    9.56
 -15  -2   1   78.95   11.31
 -15  -2  -1   76.07   10.50
  -2  15  -1   74.75   10.36
 -15  -2   2   89.50   12.16
 -15  -2  -2   75.50   10.57
  -2  15  -2   86.37   11.45
 -15  -2   2   89.64   11.79
 -15  -2  -3   89.39   11.17
  15   2  -3   82.05    7.20
  -2  15  -3   80.48   11.14
 -15  -2   3   84.67   11.61
 -15  -2   3   91.96   12.51
  15   2  -4  147.50   11.15
 -15  -2   4  124.23   14.49
  -2  15  -4  153.17   15.88
  15   2  -5  128.87   11.65
  -2  15  -5  123.81   14.76
 -15  -2   5  118.79   14.66
  15   2  -6   48.84    8.01
  -2  15  -6   62.74   11.00
 -15  -2   6   72.10   11.76
  15   2  -7   38.48    7.70
  -2  15  -7   53.46   10.71
 -15  -2   7   31.13    8.16
  15   2  -8   30.48    7.35
  -2  15  -8   57.35   11.49
 -15  -2   8   40.45    9.66
  -2  15  -9   30.71    8.77
  15   2  -9    5.86    3.58
 -15  -2   9   22.63    7.91
  15   2 -10    4.41    3.10
 -15  -2  10    1.61    2.82
  15   2 -11  -13.68    6.18
 -15  -3   0 1184.21   42.62
  -3  15   0 1188.92   41.19
 -15  -3  -1  861.24   35.99
 -15  -3   1  827.58   36.14
  -3  15   1  831.12   34.32
  -3  15  -1  831.29   34.67
 -15  -3   2  702.66   33.46
  -3  15  -2  733.49   33.04
 -15  -3   2  689.58   32.34
 -15  -3   3  548.61   29.91
  -3  15  -3  573.72   29.77
 -15  -3   3  548.95   29.46
  15   3  -4  170.73   11.78
 -15  -3   4  185.67   17.54
  -3  15  -4  199.76   18.14
  15   3  -5   14.95    3.96
  -3  15  -5    6.74    4.51
 -15  -3   5   10.61    4.50
  15   3  -6    0.55    2.21
  -3  15  -6    3.45    3.40
 -15  -3   6   -0.83    2.05
  15   3  -7    6.06    4.04
  -3  15  -7    3.26    2.64
 -15  -3   7    0.37    2.35
  -3  15  -8   47.23   10.52
  15   3  -8   60.26   10.34
 -15  -3   8   49.84   10.39
  -3  15  -9  102.23   15.86
  15   3  -9   82.21   12.98
 -15  -3   9   86.41   14.62
  15   3 -10   97.65   14.80
 -15  -3  10  113.36   17.17
  15   3 -11   85.02   14.70
 -15  -4   0    2.53    3.23
  -4  15   0   -0.74    1.98
  -4  15  -1   22.30    6.02
 -15  -4  -1   18.74    5.71
 -15  -4   1   28.38    6.77
  -4  15   1   18.99    5.14
 -15  -4  -2    3.15    2.59
 -15  -4   2    0.95    2.72
  -4  15  -2    9.02    3.97
 -15  -4  -3    4.38    3.21
 -15  -4   3    7.28    4.69
  -4  15  -3    6.87    4.11
 -15  -4   3   14.03    4.90
  -4  15  -4   10.06    4.71
 -15  -4   4    9.50    4.93
 -15  -4   4    4.37    3.67
 -15  -4   5    1.05    2.05
  15   4  -5   -0.83    1.25
  -4  15  -5   -2.14    2.20
 -15  -4   5   -7.95    4.09
  15   4  -6    3.06    2.22
  -4  15  -6    5.31    4.15
 -15  -4   6    1.03    2.37
  15   4  -7    0.44    1.95
  -4  15  -7    2.16    5.38
 -15  -4   7    0.93    2.65
  -4  15  -8   -0.41    3.08
  15   4  -8   -1.33    2.87
 -15  -4   8    4.80    5.01
  -4  15  -9    0.13    2.52
  15   4  -9   -0.32    2.98
 -15  -4   9    3.55    3.25
  15   4 -10    5.26    4.02
 -15  -4  10    9.72    6.04
 -15  -5   0  184.16   17.32
  -5  15   0  215.50   17.86
  -5  15  -1  112.16   12.81
 -15  -5  -1  143.00   14.76
 -15  -5   1   97.88   12.67
  -5  15   1  100.96   12.43
 -15  -5  -2  164.30   15.82
 -15  -5   2  150.92   15.77
  -5  15  -2  133.83   14.47
 -15  -5  -3  251.72   19.51
 -15  -5   3  203.10   18.47
  -5  15  -3  232.23   19.08
 -15  -5   3  215.93   18.62
  -5  15  -4   76.45   11.47
 -15  -5  -4   83.60   11.16
 -15  -5   4   69.73   11.05
 -15  -5   4   67.59   10.83
 -15  -5   5    2.66    3.64
  -5  15  -5    4.61    3.49
 -15  -5   5    4.27    4.09
 -15  -5   6    7.22    5.51
  15   5  -6   -0.56    1.47
  -5  15  -6    2.88    2.99
 -15  -5   6    0.89    2.57
  15   5  -7    3.90    2.58
  -5  15  -7   -1.83    3.35
 -15  -5   7   -0.04    3.28
  -5  15  -8   29.93    8.73
  15   5  -8   27.57    7.00
 -15  -5   8   24.13    7.13
  -5  15  -9   46.92   10.59
  15   5  -9   44.59    9.35
 -15  -5   9   35.41    9.12
 -15  -5  10   28.81    7.62
  -6  15   0    4.14    3.43
 -15  -6   0    0.46    2.00
  -6  15   0    2.74    2.39
  -6  15   1    3.94    4.72
 -15  -6  -1   -0.25    2.89
 -15  -6   1    1.70    1.75
  -6  15  -1    2.26    2.55
 -15  -6  -2    1.12    2.12
 -15  -6   2   -0.14    2.17
  -6  15  -2    2.83    2.42
 -15  -6  -3   12.31    4.11
 -15  -6   3   12.02    4.73
  -6  15  -3    3.47    3.68
  -6  15  -4    3.01    2.54
 -15  -6  -4    5.14    3.54
 -15  -6   4    4.72    3.43
 -15  -6   4    5.95    3.42
 -15  -6  -5    1.68    2.23
 -15  -6   5   -4.78    4.45
  -6  15  -5    3.27    4.27
 -15  -6   5    6.78    4.12
 -15  -6   6    0.58    2.39
  -6  15  -6   -0.54    2.83
 -15  -6   6   -1.96    2.25
 -15  -6   7    4.76    3.59
  -6  15  -7    7.48    4.60
 -15  -6   7    4.43    3.64
  -6  15  -8    1.49    2.97
 -15  -6   8    4.77    2.96
  -6  15  -9    5.84    5.21
 -15  -6   9    0.10    3.38
 -15  -6  10    2.52    3.42
  -7  15   0   45.75    8.70
 -15  -7   0   29.35    6.58
  -7  15   0   36.11    5.67
 -15  -7  -1   27.69    6.62
 -15  -7   1   26.21    6.63
  -7  15  -1   43.64    8.20
  -7  15   1   27.26    6.89
 -15  -7  -2    2.78    2.79
 -15  -7   2    7.53    4.16
  -7  15  -2    5.21    3.80
 -15  -7  -3    7.33    3.98
 -15  -7   3    0.40    2.87
  -7  15  -3    5.31    2.08
  -7  15  -4    8.54    4.70
 -15  -7  -4   -0.34    1.80
 -15  -7   4    1.54    3.97
 -15  -7   4    1.84    2.34
 -15  -7  -5    1.70    2.92
 -15  -7   5    4.00    2.87
 -15  -7   5    6.60    4.66
  -7  15  -5    2.77    3.18
 -15  -7   6   -5.69    4.09
  -7  15  -6    2.34    2.65
 -15  -7  -6    3.24    2.53
 -15  -7   6    2.29    3.71
 -15  -7   7   13.31    4.59
  -7  15  -7    9.09    4.72
 -15  -7   7    8.24    5.13
 -15  -7   8    6.81    4.89
  -7  15  -8    1.61    2.61
 -15  -7   8    0.41    2.35
  -7  15  -9   15.77    6.24
 -15  -7   9    5.49    3.64
 -15  -7  10   -1.43    4.25
 -15  -8   0   -1.49    2.05
  -8  15   0    0.53    2.61
  -8  15   0   -0.95    1.23
 -15  -8  -1   -0.74    3.23
 -15  -8   1   -1.35    2.56
  -8  15  -1    2.85    2.30
  -8  15   1   -0.06    2.62
  -8  15   1   -0.10    1.84
 -15  -8  -2   72.45   10.98
 -15  -8   2   71.94   11.48
  -8  15  -2   71.06   10.85
 -15  -8  -3   51.42    9.31
 -15  -8   3   47.75    9.06
  -8  15  -3   59.93   10.25
 -15  -8  -4   37.41    8.13
 -15  -8   4   40.90    8.95
  -8  15  -4   36.74    8.19
  -8  15  -5   90.66   13.15
 -15  -8  -5  106.18   13.14
 -15  -8   5   79.29   11.98
 -15  -8   5   94.97   12.98
 -15  -8  -6  173.14   16.41
 -15  -8   6  132.90   16.23
  -8  15  -6  132.01   16.27
 -15  -8   6  127.65   15.46
 -15  -8   7   91.90   13.61
  -8  15  -7   77.72   12.91
 -15  -8   7   86.45   13.16
 -15  -8   8   14.04    5.14
  -8  15  -8   19.50    6.98
 -15  -8   8   26.79    7.71
  -8  15  -9   21.28    7.50
 -15  -8   9   31.21    8.88
  -9  15   0  439.28   26.47
 -15  -9   0  471.03   28.53
  -9  15   0  479.67   21.01
 -15  -9  -1  263.05   21.07
 -15  -9   1  241.03   20.71
  -9  15   1  246.19   16.61
  -9  15  -1  290.88   21.64
 -15  -9  -2  236.25   19.96
 -15  -9   2  237.94   20.77
  -9  15   2  261.92   18.61
  -9  15  -2  249.50   20.17
 -15  -9  -3  226.59   19.46
 -15  -9   3  218.17   20.11
  -9  15  -3  200.91   18.45
 -15  -9  -4   47.27    8.76
 -15  -9   4   59.84   10.97
  -9  15  -4   55.04    9.88
  -9  15  -5   10.93    4.81
 -15  -9  -5    8.18    4.28
 -15  -9   5    1.53    2.82
 -15  -9  -6    0.46    3.17
 -15  -9   6   -1.47    3.45
  -9  15  -6    4.01    3.82
 -15  -9   6   -1.30    2.66
 -15  -9   7    4.04    3.73
  -9  15  -7   -1.82    2.14
 -15  -9   7    1.54    3.69
 -15  -9   8   19.24    6.83
  -9  15  -8   13.96    6.11
 -15  -9   8   -1.01    2.96
  -9  15  -9   33.53    9.25
 -10  15   0    2.71    2.83
 -15 -10   0    0.72    2.54
 -15 -10  -1   78.35   11.94
 -15 -10   1   72.51   11.87
 -10  15   1   71.38    9.23
 -10  15  -1   73.91   11.33
 -15 -10  -2  146.00   15.89
 -15 -10   2  155.20   17.17
 -10  15   2  200.94   16.63
 -10  15  -2  175.84   17.26
 -15 -10  -3  240.21   20.44
 -15 -10   3  234.62   21.44
 -10  15  -3  245.28   20.56
 -10  15   3  216.19   18.37
 -15 -10  -4  251.69   20.79
 -15 -10   4  270.02   22.89
 -10  15  -4  258.44   21.61
 -10  15   4  256.86   21.50
 -10  15  -5  313.45   24.39
 -15 -10  -5  308.32   22.94
 -15 -10   5  297.79   24.41
 -15 -10  -6  331.10   23.28
 -15 -10   6  303.55   24.83
 -10  15  -6  307.93   24.91
 -15 -10   7  288.90   24.55
 -15 -10   7  238.09   21.59
 -10  15  -7  278.54   24.44
 -15 -10   8  133.05   16.88
 -10  15  -8  180.94   20.45
 -15 -10   8  178.24   19.28
 -15 -11   0    6.61    4.00
 -11  15   0    3.90    2.12
 -11  15  -1   19.66    6.27
 -15 -11  -1   25.34    7.27
 -15 -11   1   27.23    7.47
 -11  15   1   32.03    6.72
 -15 -11  -2   19.83    6.47
 -15 -11   2   21.13    6.59
 -11  15  -2   25.32    7.05
 -11  15   2   21.47    5.97
 -15 -11  -3   12.69    5.02
 -15 -11   3    8.50    3.87
 -11  15   3    9.70    4.09
 -11  15  -3   11.52    4.77
 -15 -11  -4   -0.39    2.97
 -15 -11   4   -0.92    2.84
 -11  15  -4    0.14    2.40
 -11  15   4    0.81    2.32
 -15 -11  -5    3.17    2.77
 -15 -11   5    0.55    2.55
 -11  15  -5    4.39    3.63
 -11  15   5    6.70    6.04
 -11  15  -6    8.29    4.20
 -15 -11  -6    9.04    4.53
 -15 -11   6   -2.28    2.77
 -11  15   6    3.24    3.05
 -15 -11   7   -1.80    4.09
 -11  15  -7    0.30    2.48
 -15 -11   8   12.32    5.92
 -11  15  -8    3.59    2.20
 -15 -12   0    3.65    3.90
 -12  15   0   -1.74    3.15
 -12  15  -1    1.47    2.24
 -15 -12  -1    0.39    3.51
 -15 -12   1    2.09    3.59
 -12  15   1   -0.99    2.30
 -15 -12  -2    7.14    2.56
 -15 -12   2    8.95    4.27
 -12  15  -2   17.02    5.54
 -12  15   2   12.29    4.61
 -12  15  -3   18.45    6.24
 -15 -12   3   28.55    8.42
 -12  15   3   23.92    6.80
 -15 -12  -3   16.85    5.79
 -15 -12  -4   46.45    9.53
 -15 -12   4   50.48   10.42
 -12  15   4   36.80    8.39
 -12  15  -4   51.80   10.19
 -15 -12  -5  109.97   14.43
 -15 -12   5  100.71   14.82
 -12  15  -5  106.39   14.77
 -12  15   5   93.71   14.25
 -12  15  -6   69.61   12.07
 -15 -12   6   82.52   13.26
 -12  15   6   73.32   12.88
 -12  15  -7   57.57   11.26
 -15 -12   7   50.88   10.83
 -12  15   7   68.36   13.38
 -15 -12   8   45.42   10.55
 -12  15   8   64.27   13.34
 -12  15  -8   48.26   10.97
 -15 -13   0    2.82    4.07
 -15 -13  -1   -1.48    2.42
 -15 -13   1   -0.77    3.05
 -13  15  -1    0.88    3.28
 -13  15   1   -2.19    3.15
 -15 -13  -2    0.72    3.08
 -15 -13   2   -2.60    2.50
 -13  15   2    1.86    2.31
 -13  15  -2   -1.83    2.46
 -13  15  -3   -0.55    1.88
 -15 -13  -3   -1.83    2.33
 -15 -13   3    1.53    3.74
 -13  15   3    1.75    2.40
 -15 -13  -4   -0.28    3.77
 -15 -13   4    4.76    2.46
 -13  15   4    9.16    4.77
 -13  15  -4    5.66    4.25
 -15 -13  -5   -0.87    2.24
 -15 -13   5    5.07    3.47
 -13  15  -5    6.13    4.13
 -13  15   5    7.53    5.45
 -15 -13   6    2.12    3.14
 -13  15  -6   -3.97    4.28
 -13  15   6   -1.88    5.08
 -13  15  -7    2.30    4.07
 -15 -13   7   -1.34    3.37
 -13  15   7   -7.49    4.97
 -15 -13   8   -9.85    5.43
 -13  15  -8    6.11    4.07
 -15 -14   0    1.79    2.71
 -14  15  -1    5.89    4.19
 -15 -14   1   10.49    5.08
 -15 -14  -1   -0.89    4.03
 -15 -14   2   25.53    7.68
 -15 -14  -2   25.78    7.13
 -14  15   2   31.23    7.49
 -14  15  -2   42.92    8.78
 -15 -14  -3   82.20   13.03
 -15 -14   3   83.37   13.91
 -14  15  -3   87.43   12.68
 -14  15   3   68.80   11.20
 -15 -14  -4   58.91   11.05
 -15 -14   4   89.30   14.29
 -14  15   4   79.58   12.91
 -14  15  -4   67.59   11.41
 -15 -14  -5   77.74   12.50
 -15 -14   5   40.14    9.68
 -14  15  -5   45.91    9.79
 -14  15   5   42.14   10.34
 -15 -14   6   46.09   10.56
 -14  15  -6   28.15    7.55
 -14  15   6   27.12    8.44
 -14  15  -7   27.95    8.35
 -15 -14   7   13.90    5.99
 -14  15   7   21.43    7.86
 -14  15  -8   29.99    8.72
 -15 -14   8    8.49    4.94
 -15 -15   0  137.45   17.44
 -15  15  -1  158.77   16.79
 -15 -15   1  151.71   18.57
 -15 -15  -1  113.49   15.85
 -15  15  -2  118.29   14.67
 -15 -15   2  111.06   15.93
 -15 -15  -2  113.93   15.56
 -15  15   2  123.28   14.67
 -15 -15   3  103.48   15.76
 -15 -15  -3   80.63   13.08
 -15  15  -3   79.24   12.31
 -15  15   3   67.55   11.16
 -15  15  -4   30.87    7.90
 -15 -15  -4   18.64    6.48
 -15 -15   4   32.60    9.17
 -15  15   4   21.95    7.26
 -15 -15  -5    0.66    2.76
 -15 -15   5   -0.33    4.82
 -15  15   5    3.40    4.83
 -15  15  -5    3.67    3.83
 -15 -15   6    6.58    4.93
 -15  15  -6    0.41    2.25
 -15  15   6   -2.12    3.73
 -15 -15   7    0.59    4.92
 -15  15  -7   -0.26    2.89
 -15 -15   8   -0.36    2.59
 -15 -16   0   -4.51    3.34
 -15 -16   1   23.38    7.58
 -15 -16  -1   38.65    9.27
 -16  15  -1   18.66    5.40
 -15 -16   2   88.73   14.57
 -15 -16  -2   73.72   13.29
 -16  15  -2   70.89   11.51
 -16  15   2   61.84   10.68
 -15 -16   3  132.68   17.91
 -15 -16  -3  134.04   17.32
 -16  15   3  162.15   17.99
 -16  15  -3  146.22   16.57
 -15 -16  -4  204.76   21.16
 -15 -16   4  214.91   22.89
 -16  15   4  229.46   22.68
 -16  15  -4  236.04   21.45
 -15 -16  -5  154.14   18.30
 -15 -16   5  176.10   21.17
 -16  15   5  187.81   21.40
 -16  15  -5  206.82   20.49
 -15 -16   6  145.99   19.19
 -16  15  -6  126.06   16.58
 -16  15   6  119.56   18.07
 -14 -16   0    0.89    3.06
 -14 -16   1    1.46    2.82
 -14 -16  -1    2.19    3.39
 -16  14  -1    2.30    2.08
 -16  14   1    4.18    2.76
 -14 -16   2    2.00    3.61
 -14 -16  -2    9.18    6.26
 -16  14  -2    0.76    3.13
 -16  14   2    5.17    3.07
 -14 -16   3    3.36    3.99
 -14 -16  -3   -0.45    2.83
 -16  14  -3    1.16    2.22
 -16  14   3    0.65    2.30
 -16  14  -4    5.03    3.70
 -14 -16   4   -0.44    2.97
 -14 -16  -4   -2.22    3.94
 -16  14   4    5.74    4.58
 -14 -16   5    3.70    4.76
 -14 -16  -5   -2.54    3.48
 -16  14   5   -9.86    5.30
 -16  14  -5    2.08    3.34
 -14 -16   6    1.23    2.79
 -16  14  -6    0.08    2.32
 -16  14   6    1.46    4.50
 -14 -16   7    7.66    5.62
 -14 -16   8   10.12    5.67
 -13 -16   0   13.34    6.73
 -16  13   0   -0.37    1.36
 -16  13  -1   30.48    6.93
 -13 -16   1   39.91    9.58
 -13 -16  -1   26.69    7.59
 -16  13   1   42.75    8.69
 -16  13  -2  246.74   19.81
 -13 -16   2  231.15   22.33
 -13 -16  -2  196.72   20.33
 -16  13   2  204.98   19.09
 -13 -16   3  325.91   27.14
 -13 -16  -3  313.14   25.27
 -16  13   3  309.84   24.67
 -16  13  -3  340.27   23.71
 -13 -16   4  360.77   28.48
 -13 -16  -4  376.34   27.60
 -16  13   4  406.89   29.66
 -16  13  -4  360.05   24.88
 -13 -16   5  320.35   27.05
 -13 -16  -5  330.05   25.68
 -16  13  -5  366.08   25.64
 -16  13   5  324.25   27.65
 -13 -16   6  266.95   24.88
 -16  13   6  321.84   28.77
 -13 -16   7  187.76   21.40
 -16  13   7  232.76   25.43
 -13 -16   8  127.25   17.67
 -12 -16   0   40.29    9.19
 -16  12   0   46.45    8.22
 -16  12  -1   62.16    9.50
 -12 -16   1   73.88   12.42
 -12 -16  -1   68.26   12.27
 -16  12   1   85.08   11.68
 -16  12  -1   73.98    9.88
 -12 -16   2   77.99   12.93
 -12 -16  -2   89.65   13.69
 -16  12  -2   96.24   12.05
 -16  12   2   79.73   11.82
 -12 -16   3   30.57    8.89
 -12 -16  -3   11.25    4.70
 -16  12  -3   19.00    5.60
 -16  12   3   12.86    5.26
 -16  12  -4    0.25    1.74
 -12 -16   4    1.39    2.65
 -12 -16  -4   -3.89    4.57
 -16  12   4    7.73    4.68
 -12 -16   5   18.60    7.15
 -12 -16  -5   14.85    5.57
 -16  12  -5    8.22    4.28
 -16  12   5    3.36    4.70
 -12 -16   6    6.32    4.12
 -12 -16  -6    0.24    2.69
 -16  12   6    7.34    5.75
 -12 -16   7    1.87    2.85
 -16  12   7   11.88    7.34
 -12 -16   8    6.23    4.26
 -16  12   8    7.60    5.70
 -11 -16   0    4.00    4.32
 -16  11   0    0.25    2.81
 -11 -16   1   12.21    6.18
 -11 -16  -1   13.71    5.62
 -16  11   1   14.38    4.89
 -16  11  -1   10.10    3.80
 -16  11  -2   21.50    5.62
 -11 -16   2   17.76    6.77
 -11 -16  -2   13.36    4.93
 -16  11   2   15.02    5.39
  11  16  -2   17.53    4.93
  11  16  -3   25.27    6.18
 -11 -16   3   22.89    6.93
 -11 -16  -3   19.41    6.69
 -16  11  -3   20.39    5.51
 -16  11   3   28.93    7.37
  11  16  -4   32.87    7.29
 -11 -16   4   53.53   10.65
 -11 -16  -4   18.98    6.37
 -16  11   4   38.70    8.84
 -16  11  -4   28.81    6.64
 -11 -16   5   25.18    7.67
 -11 -16  -5   31.75    7.91
 -16  11  -5   36.06    7.81
 -16  11   5   42.87   10.34
  11  16  -5   24.35    6.28
 -11 -16   6   15.79    6.12
 -11 -16  -6   27.08    7.39
  11  16  -6   24.07    7.47
 -16  11   6   19.08    6.71
 -11 -16   7   33.24    8.50
  11  16  -7   34.52    8.68
 -16  11   7   29.34    9.11
 -16  11   8   16.72    7.37
 -11 -16   8    7.57    5.14
  11  16  -8   21.49    6.94
  11  16  -9   17.75    7.42
 -10 -16   0    6.15    4.42
  10  16   0    1.05    1.39
 -16  10   0   -0.31    2.16
 -16  10  -1    4.31    3.08
  10  16  -1    8.57    4.15
 -10 -16   1    4.91    3.43
 -10 -16  -1    0.40    2.39
 -16  10   1    5.72    3.29
 -16  10  -2    7.95    3.60
 -10 -16   2    4.08    3.21
 -10 -16  -2    6.94    3.52
  10  16  -2   15.73    4.78
 -16  10   2    4.66    5.09
  10  16  -3    0.57    1.91
 -16  10  -3    2.74    2.90
 -10 -16   3    2.85    2.77
 -10 -16  -3   -1.83    2.83
 -16  10   3   -1.64    2.77
 -10 -16   4    7.21    3.78
 -10 -16  -4    5.44    3.83
 -16  10   4    2.91    3.23
 -16  10  -4    4.39    2.72
  10  16  -4   10.52    4.39
 -10 -16   5    3.71    2.45
 -10 -16  -5    9.36    4.46
 -16  10   5    8.14    5.08
  10  16  -5    5.40    3.05
 -10 -16   6    4.98    3.82
 -10 -16  -6    0.84    2.74
  10  16  -6    2.11    3.29
 -16  10   6    4.72    4.11
 -16  10   7    3.44    3.34
 -10 -16   7    3.40    3.40
  10  16  -7   -2.19    3.39
 -16  10   7   -2.92    2.62
 -16  10   8    9.90    5.51
 -10 -16   8   -2.69    4.52
  10  16  -8    5.42    3.83
  10  16  -9    1.17    2.68
   9  16   0    3.93    3.15
  -9 -16   0   -0.47    3.55
 -16   9   0   -1.23    2.73
   9  16  -1    0.71    2.61
  -9 -16   1    1.74    2.61
  -9 -16  -1    0.02    3.27
 -16   9   1    3.91    4.26
 -16   9  -2   17.64    4.49
  -9 -16   2   27.00    7.55
  -9 -16  -2   25.85    8.88
   9  16  -2   26.82    6.17
 -16   9   2   28.57    6.81
   9  16  -3   44.19    8.23
 -16   9  -3   64.97    8.99
  -9 -16   3   37.60    8.30
  -9 -16  -3   48.46    9.24
 -16   9   3   55.11   10.23
  -9 -16   4   38.96    9.13
  -9 -16  -4   43.20    8.61
 -16   9   4   47.55   10.26
 -16   9  -4   53.86    8.50
   9  16  -4   56.75    9.87
  -9 -16   5   41.21    9.17
  -9 -16  -5   28.25    6.87
 -16   9   5   23.57    7.33
   9  16  -5   34.75    7.75
  -9 -16   6   12.42    5.92
  -9 -16  -6   17.91    5.85
   9  16  -6   10.93    5.42
 -16   9   6   14.12    6.80
 -16   9   7   11.98    4.92
  -9 -16   7    9.52    4.60
   9  16  -7    7.04    2.98
 -16   9   7    6.90    4.06
 -16   9   8    1.89    2.74
  -9 -16   8    3.16    3.88
   9  16  -8   -1.05    2.55
 -16   9   8    7.03    5.54
   9  16  -9    1.13    2.39
 -16   8   0  515.64   27.28
   8  16   0  525.60   25.54
 -16   8   1  543.52   29.03
   8  16  -1  535.67   26.22
 -16   8  -2  487.90   22.68
   8  16  -2  473.43   25.39
 -16   8   2  469.23   28.06
   8  16  -3  215.33   17.88
  -8 -16   3  193.17   18.76
 -16   8   3  211.68   19.69
 -16   8  -3  207.29   15.05
  -8 -16   4   62.65   11.05
  -8 -16  -4   76.45   11.62
 -16   8   4   83.20   12.78
   8  16  -4   74.66   10.87
  -8 -16   5   16.37    6.48
  -8 -16  -5   20.98    5.73
   8  16  -5   22.87    6.47
 -16   8   5   35.65    9.09
 -16   8   6   -1.55    4.00
  -8 -16   6    7.94    4.86
  -8 -16  -6    1.79    1.64
   8  16  -6    2.03    3.57
 -16   8   6    2.41    2.44
 -16   8   7    7.92    5.30
  -8 -16   7   19.97    6.46
   8  16  -7    4.92    3.58
 -16   8   7    5.27    4.45
 -16   8   8   31.84    8.88
   8  16  -8   39.74    9.72
 -16   8   8   33.48    9.67
   8  16  -9   20.32    7.22
   7  16   0    0.95    2.71
 -16   7   0    2.63    2.71
   7  16  -1    1.25    1.57
   7  16   1    2.17    2.78
 -16   7   1    1.41    4.44
 -16   7  -2   32.62    5.50
   7  16  -2   39.16    7.63
 -16   7   2   32.29    7.56
   7  16  -3   67.97   10.04
 -16   7  -3   79.18    8.90
 -16   7   3   68.78   11.16
 -16   7   4   78.32   12.46
   7  16  -4   61.60   10.03
 -16   7   5   16.98    6.09
  -7 -16   5   11.38    5.24
   7  16  -5    6.59    4.34
 -16   7   5    5.57    3.50
 -16   7   6    1.95    2.70
  -7 -16   6    2.60    2.28
  -7 -16  -6    1.36    2.51
   7  16  -6    7.66    4.47
 -16   7   6    2.99    2.93
 -16   7   7    7.66    5.51
  -7 -16   7    9.00    4.66
   7  16  -7    2.44    3.48
 -16   7   7    5.01    3.79
 -16   7   8    9.20    5.60
   7  16  -8    2.07    3.49
 -16   7   8   11.14    7.30
   7  16  -9    9.19    4.61
 -16   6   0  810.29   34.21
   6  16   0  853.17   33.26
   6  16   1  800.83   32.23
   6  16  -1  824.41   33.30
 -16   6   1  777.03   34.34
 -16   6  -2  686.29   23.79
   6  16  -2  683.63   30.82
 -16   6   2  706.08   33.99
   6  16  -3  380.90   23.82
 -16   6   3  396.26   26.42
 -16   6   4  152.68   17.60
 -16   6   4  128.30   15.83
   6  16  -4  143.49   15.18
 -16   6   5   23.32    7.35
   6  16  -5   20.46    6.48
 -16   6   5   20.44    6.30
 -16   6   6    2.00    2.43
  -6 -16   6    0.01    2.08
   6  16  -6    3.66    3.93
 -16   6   6   -1.08    2.66
 -16   6   7   17.78    5.53
  -6 -16   7    9.44    4.08
   6  16  -7    9.99    4.43
 -16   6   7   18.83    7.61
 -16   6   8   35.95    8.77
   6  16  -8   38.19    9.29
 -16   6   8   45.42   11.14
  16  -6  -9   55.81   11.62
   6  16  -9   64.52   12.79
  16  -6 -10  102.65   16.38
   5  16   0    3.35    1.55
 -16   5   0    6.13    4.45
   5  16  -1   38.99    7.55
   5  16   1   42.18    7.57
 -16   5   1   44.38    8.60
   5  16  -2    3.98    2.79
 -16   5   2    1.71    2.30
 -16   5   3    1.19    2.17
   5  16  -3    2.68    3.68
 -16   5   3   -0.94    2.96
 -16   5   4   14.36    5.96
 -16   5   4    8.67    5.17
   5  16  -4    6.05    3.31
 -16   5   5   12.76    4.86
   5  16  -5   11.04    4.99
 -16   5   5    2.43    3.94
 -16   5   6   27.17    8.10
 -16   5  -6   23.49    6.34
   5  16  -6   41.03    8.76
 -16   5   6   37.41    9.31
 -16   5   7   14.87    6.17
   5  16  -7   12.84    5.70
  -5 -16   7   16.22    5.47
 -16   5   7   19.25    7.51
 -16   5   8    1.17    2.93
   5  16  -8    4.82    4.45
 -16   5   8    2.46    4.66
  16  -5  -9    0.35    3.47
   5  16  -9    2.57    4.58
 -16   5   9    3.73    4.10
  16  -5 -10   14.63    6.43
   4  16   0   48.60    8.54
 -16   4   0   35.53    7.23
 -16   4   1   10.13    4.75
   4  16   1   12.42    4.41
 -16   4   1    9.23    4.02
   4  16  -1   15.02    4.86
 -16   4   2   12.10    4.91
   4  16  -2   31.54    6.99
 -16   4   2   19.92    5.66
 -16   4   3   21.33    6.62
   4  16  -3   15.80    5.42
 -16   4   3   23.70    6.74
 -16   4   4    0.90    3.46
 -16   4  -4    9.45    4.73
 -16   4   4    4.14    4.21
   4  16  -4    7.34    3.45
 -16   4   5    3.83    3.89
 -16   4  -5   11.64    4.75
   4  16  -5   14.24    4.82
 -16   4   5    2.44    2.63
 -16   4   6    1.24    2.59
 -16   4  -6    8.06    4.21
   4  16  -6    1.47    2.86
 -16   4   6    4.35    4.41
 -16   4   7    0.02    3.72
   4  16  -7    1.53    3.02
 -16   4   7   -3.16    3.44
 -16   4   8    4.09    3.60
  16  -4  -8   -0.06    2.52
   4  16  -8    4.99    4.82
 -16   4   8   11.71    5.75
  16  -4  -9   26.97    8.54
   4  16  -9   17.69    6.29
 -16   4   9   18.96    7.48
  16  -4 -10    0.78    3.00
 -16   3   0    5.45    5.24
 -16   3   0    2.48    3.24
   3  16   0    0.15    3.50
 -16   3   1    7.52    4.55
 -16   3  -1    6.10    4.73
   3  16   1    3.12    3.34
 -16   3   1    7.95    4.48
   3  16  -1    4.48    3.50
 -16   3   2   -1.39    2.67
 -16   3  -2   -1.56    2.17
   3  16  -2   -1.45    2.91
 -16   3   2    3.17    3.43
 -16   3   3   -2.33    3.24
 -16   3  -3    1.72    3.61
   3  16  -3    1.29    2.02
 -16   3   3   -7.71    3.98
 -16   3   4    3.75    2.52
 -16   3  -4    8.82    4.39
 -16   3   4   12.62    5.02
   3  16  -4    7.21    4.26
 -16   3   5    2.26    3.71
   3  16  -5    4.80    3.64
 -16   3   5    0.28    2.37
 -16   3   6    6.07    3.56
   3  16  -6   -0.93    2.01
 -16   3   7    5.40    3.32
  16  -3  -7    1.90    2.39
   3  16  -7    3.29    3.27
 -16   3   7    2.78    2.89
 -16   3   8   11.54    5.28
  16  -3  -8   12.17    4.58
   3  16  -8    8.85    4.94
 -16   3   8   14.38    6.12
  16  -3  -9   12.28    5.34
   3  16  -9   15.71    6.64
 -16   3   9    3.55    4.41
  16  -3 -10   -2.94    3.40
 -16   2   0  273.02   21.51
   2  16   0  310.91   20.92
 -16   2   1  290.90   22.42
 -16   2  -1  292.74   22.16
   2  16   1  330.81   21.76
   2  16  -1  311.61   21.19
 -16   2   1  317.28   22.02
 -16   2   2  134.41   15.34
 -16   2  -2  130.44   14.63
   2  16  -2  129.46   13.95
 -16   2   2  134.57   14.76
 -16   2   3   48.24    9.52
 -16   2  -3   37.47    7.62
   2  16  -3   30.30    6.90
 -16   2   3   56.84   10.24
 -16   2   4   24.09    6.96
 -16   2  -4   31.67    7.02
 -16   2   4   23.93    7.05
   2  16  -4   30.34    6.88
 -16   2   5    5.22    2.10
 -16   2  -5    2.93    2.22
   2  16  -5    2.15    3.36
 -16   2   5    0.16    2.37
  16  -2  -6    9.69    3.72
 -16   2   6    7.66    5.12
   2  16  -6   14.56    6.38
 -16   2   6   15.94    6.45
 -16   2   7    6.74    4.91
  16  -2  -7    6.28    3.78
   2  16  -7    9.39    3.82
 -16   2   7   -0.63    2.46
  16  -2  -8   31.86    7.92
   2  16  -8   43.45   10.13
 -16   2   8   35.96   10.27
  16  -2  -9    2.85    3.12
 -16   2   9    9.98    6.35
  16  -2 -10    1.89    3.41
 -16   1   0   -0.69    2.29
   1  16   0    7.12    3.69
   1  16   1    9.13    4.01
 -16   1   1   14.92    5.59
 -16   1  -1   10.86    4.25
 -16   1   1    8.54    4.15
   1  16  -1   13.18    4.84
 -16   1   2   67.38   11.12
 -16   1  -2   71.23   10.95
   1  16  -2   62.71    9.75
 -16   1   2   67.58   10.76
 -16   1  -3  190.10   17.07
 -16   1   3  145.89   16.31
   1  16  -3  161.27   15.90
 -16   1   3  155.21   16.26
 -16   1  -4  157.41   15.20
  16  -1  -4  163.82   12.60
 -16   1   4  161.72   17.26
 -16   1   4  150.12   16.51
   1  16  -4  162.09   16.32
 -16   1   5  291.27   23.50
 -16   1  -5  311.54   21.06
  16  -1  -5  291.83   18.38
 -16   1   5  279.49   23.21
   1  16  -5  295.65   23.02
 -16   1   6  341.86   25.85
  16  -1  -6  332.05   21.19
 -16   1   6  366.80   27.69
   1  16  -6  374.90   26.87
  16  -1  -7  253.93   19.94
 -16   1   7  258.49   24.27
   1  16  -7  266.94   23.70
 -16   1   7  275.78   23.69
  16  -1  -8  146.23   16.45
   1  16  -8  158.56   19.05
 -16   1   8  159.70   19.60
  16  -1  -9   53.73   10.85
   1  16  -9   74.31   13.58
 -16   1   9   75.55   14.27
  16  -1 -10   22.38    7.39
 -16   0   0  367.37   24.45
   0  16   0  397.05   23.87
 -16   0   1  184.09   17.66
 -16   0  -1  187.51   17.32
   0  16   1  186.24   16.50
   0  16  -1  224.91   18.27
 -16   0   1  185.93   16.91
 -16   0   2   91.86   12.57
 -16   0  -2  102.53   12.50
   0  16  -2  113.93   13.33
 -16   0   2  112.94   13.71
 -16   0  -3   87.49   11.59
 -16   0   3   76.66   11.86
   0  16  -3   73.37   11.00
 -16   0   3   75.74   11.53
 -16   0  -4   35.05    7.29
 -16   0   4   48.78    9.44
 -16   0   4   43.58    9.09
   0  16  -4   47.29    9.45
 -16   0   5    3.81    4.25
 -16   0  -5    3.40    2.17
  16   0  -5    7.67    3.25
   0  16  -5    8.73    4.80
 -16   0   5    4.57    3.26
  16   0  -6    0.45    2.27
   0  16  -6    0.05    3.00
 -16   0   6   -2.06    2.92
 -16   0   6   -0.88    2.74
  16   0  -7   -5.51    3.31
   0  16  -7    6.21    5.22
 -16   0   7   -3.37    3.19
  16   0  -8   18.94    6.00
   0  16  -8   21.40    7.57
 -16   0   8   17.19    7.34
  16   0  -9   15.83    6.01
   0  16  -9   22.42    7.40
 -16   0   9   29.94    9.13
  16   0 -10   15.59    6.19
 -16  -1   0    5.75    3.92
  -1  16   0    3.72    2.96
  -1  16  -1   59.53    9.51
 -16  -1   1   47.77    9.24
 -16  -1  -1   25.93    6.86
  -1  16   1   52.20    9.02
 -16  -1   2  137.01   15.66
 -16  -1  -2  148.66   15.31
  -1  16  -2  130.36   14.60
 -16  -1   2  123.25   13.99
 -16  -1   3  174.79   17.92
 -16  -1  -3  196.89   17.23
  -1  16  -3  197.33   17.77
 -16  -1   3  196.91   18.28
 -16  -1  -4  287.50   20.35
 -16  -1   4  301.86   23.27
  -1  16  -4  282.87   21.79
 -16  -1   4  290.99   23.14
 -16  -1   5  436.56   29.03
 -16  -1  -5  527.55   27.09
  -1  16  -5  530.06   30.98
  16   1  -6  380.26   22.18
 -16  -1   6  428.56   29.49
  -1  16  -6  406.39   28.30
  16   1  -7  279.31   20.50
 -16  -1   7  270.12   24.63
  -1  16  -7  283.91   24.52
  16   1  -8  165.12   16.99
  -1  16  -8  175.38   20.25
 -16  -1   8  195.29   21.53
  16   1  -9   99.99   14.13
  -1  16  -9  128.33   17.83
 -16  -1   9  112.57   16.90
 -16  -2   0   14.62    5.15
  -2  16   0   11.46    5.08
 -16  -2   1   -1.44    2.85
 -16  -2  -1   -1.26    2.55
  -2  16  -1    3.97    4.15
  -2  16   1   -0.61    2.73
 -16  -2   2    2.82    2.87
 -16  -2  -2   -1.18    2.05
  -2  16  -2   -0.45    2.32
 -16  -2   2    2.90    2.05
  -2  16  -3   17.83    6.79
 -16  -2  -3    5.11    2.46
 -16  -2   3    6.60    3.83
 -16  -2   3    9.88    5.71
  -2  16  -4   -0.66    1.85
 -16  -2   4   -1.32    2.69
  -2  16  -5    5.72    4.00
 -16  -2   5    4.41    4.07
  -2  16  -6   -0.63    2.56
 -16  -2   6   -0.72    3.70
  -2  16  -7    4.08    3.80
 -16  -2   7   -3.11    3.79
  -2  16  -8    2.95    3.18
 -16  -2   8   -1.12    3.09
  -2  16  -9    4.80    3.51
 -16  -2   9   -6.81    4.50
 -16  -2  10   -6.59    4.72
  -3  16   0    4.10    4.19
  -3  16  -1   24.28    6.78
  -3  16   1   20.70    6.17
 -16  -3   2    1.75    2.96
  -3  16  -2    7.76    5.35
  -3  16  -3   -0.33    1.88
 -16  -3   3    0.41    2.82
  -3  16  -4   15.41    5.25
 -16  -3   4   14.94    5.30
  -3  16  -5   22.60    6.91
 -16  -3   5   16.02    5.72
  -3  16  -6   44.69    9.52
 -16  -3   6   52.53   10.51
  -3  16  -7   37.18    9.04
 -16  -3   7   35.63    8.99
  -3  16  -8   10.49    4.98
 -16  -3   8    6.92    5.55
  -3  16  -9   -0.50    4.00
 -16  -3   9    1.65    1.87
 -16  -3  10   12.14    5.98
 -16  -4   0    5.66    2.95
  -4  16   0   18.48    5.75
  -4  16  -1    2.96    3.89
 -16  -4  -1    0.49    2.08
 -16  -4   1    7.13    3.68
  -4  16   1    0.29    2.52
 -16  -4  -2    3.13    2.79
 -16  -4   2    1.75    2.43
  -4  16  -2   10.98    4.42
 -16  -4   3   20.36    6.37
  -4  16  -3   12.96    5.26
 -16  -4   3   19.66    6.04
  -4  16  -4    1.85    1.87
 -16  -4   4    3.33    3.14
 -16  -4   4   -1.49    2.64
 -16  -4   5    5.60    3.63
  -4  16  -5    3.27    2.26
  -4  16  -6    1.39    3.09
 -16  -4   6    2.71    3.38
  -4  16  -7    9.67    5.15
 -16  -4   7   -1.29    3.03
  -4  16  -8    6.74    4.86
 -16  -4   8    2.54    4.05
  -4  16  -9    2.66    4.84
 -16  -4   9   10.44    6.88
 -16  -4  10    2.69    3.96
  -5  16   0    3.21    3.73
 -16  -5   0    2.07    3.04
 -16  -5  -1   32.30    7.98
 -16  -5   1   20.94    5.89
  -5  16  -1   37.54    7.60
  -5  16   1   29.29    6.71
 -16  -5  -2  105.41   13.09
 -16  -5   2   97.56   13.27
  -5  16  -2  104.09   13.17
 -16  -5  -3  133.97   14.70
 -16  -5   3  148.86   16.45
  -5  16  -3  135.88   15.34
 -16  -5   3  126.56   14.78
  -5  16  -4  189.57   18.56
 -16  -5   4  186.71   18.54
 -16  -5   4  179.24   17.96
 -16  -5   5  149.55   16.87
 -16  -5   5  139.54   16.34
  -5  16  -5  129.22   15.85
  -5  16  -6  124.15   15.88
 -16  -5   6  144.51   17.01
  -5  16  -7   67.28   12.02
 -16  -5   7   70.34   12.29
  -5  16  -8   35.64    9.47
 -16  -5   8   21.00    6.61
  -5  16  -9   25.18    8.06
 -16  -5   9   19.10    6.73
 -16  -5  10   22.41    6.63
 -16  -6   0  377.77   25.45
  -6  16   0  340.47   23.34
 -16  -6  -1  398.45   26.04
 -16  -6   1  403.95   26.49
  -6  16   1  420.66   26.19
  -6  16  -1  404.49   25.68
 -16  -6  -2  236.53   19.82
 -16  -6   2  247.61   21.04
  -6  16  -2  259.60   20.85
 -16  -6  -3  190.06   17.93
 -16  -6   3  184.39   18.31
  -6  16  -3  190.60   18.18
 -16  -6  -4   78.50   11.38
 -16  -6   4   72.14   11.86
  -6  16  -4   87.13   12.75
 -16  -6   4   72.39   11.59
  -6  16  -5    7.33    4.42
 -16  -6  -5    3.10    3.21
 -16  -6   5    6.81    4.95
 -16  -6   5    5.61    4.20
 -16  -6   6    1.79    3.37
  -6  16  -6    1.31    3.29
 -16  -6   6    2.66    2.95
  -6  16  -7   33.86    9.16
 -16  -6   7   25.63    7.88
  -6  16  -8   25.73    8.46
 -16  -6   8   32.32    8.36
 -16  -6   9   23.53    7.37
 -16  -6  10   39.00   10.37
 -16  -7   0   -1.90    3.55
  -7  16   0    3.58    3.22
 -16  -7  -1   44.72    8.99
 -16  -7   1   43.14    9.07
  -7  16   1   47.37    9.00
  -7  16  -1   47.48    8.86
 -16  -7  -2   92.46   12.74
 -16  -7   2   92.38   13.12
  -7  16  -2   87.13   12.31
 -16  -7  -3  134.38   15.07
 -16  -7   3  139.72   16.41
  -7  16  -3  142.18   15.92
 -16  -7  -4  142.50   15.48
 -16  -7   4  154.89   17.35
  -7  16  -4  143.55   16.23
  -7  16  -5  131.25   15.86
 -16  -7  -5  106.78   13.44
 -16  -7   5  138.50   16.53
 -16  -7   5  104.48   14.07
 -16  -7   6  178.01   18.94
  -7  16  -6  135.08   16.76
 -16  -7   6  144.91   16.87
 -16  -7   7   46.20    9.71
  -7  16  -7   44.63   10.05
 -16  -7   7   43.92    9.71
  -7  16  -8   16.58    7.08
 -16  -7   8   20.37    6.96
 -16  -7   9   19.22    7.30
 -16  -7  10    4.82    4.20
  -8  16   0  468.73   27.90
 -16  -8   0  447.67   28.49
 -16  -8  -1  383.70   26.10
 -16  -8   1  367.62   25.87
  -8  16   1  386.12   25.57
  -8  16   1  430.47   21.83
  -8  16  -1  369.53   24.90
 -16  -8  -2  355.35   25.05
 -16  -8   2  324.58   24.69
  -8  16  -2  341.81   24.36
 -16  -8  -3  300.62   22.82
 -16  -8   3  346.23   25.55
  -8  16  -3  288.55   22.73
 -16  -8  -4  107.98   13.73
 -16  -8   4  110.69   14.68
  -8  16  -4  105.97   14.12
 -16  -8   5   18.74    6.37
  -8  16  -5   10.81    4.63
 -16  -8  -5    5.16    3.69
 -16  -8   5    6.51    3.79
 -16  -8  -6    4.87    3.93
 -16  -8   6    6.79    4.47
 -16  -8   6    0.58    2.73
  -8  16  -6    6.61    4.43
 -16  -8   7    9.44    4.75
  -8  16  -7   15.56    5.70
 -16  -8   7   14.53    6.01
 -16  -8   8   29.90    7.99
  -8  16  -8   33.58    9.37
 -16  -8   8   33.27    9.13
 -16  -8   9   35.02    8.83
 -16  -9   0    0.81    3.06
  -9  16   0    2.28    2.97
 -16  -9  -1    2.14    3.59
 -16  -9   1   -1.21    2.70
  -9  16   1    2.72    2.80
  -9  16  -1    8.76    4.64
  -9  16  -2    2.21    1.96
 -16  -9  -2    7.63    4.71
 -16  -9   2   -2.52    3.91
  -9  16   2    4.90    2.92
 -16  -9  -3    3.08    3.47
 -16  -9   3   -0.91    3.12
  -9  16  -3   -0.12    2.70
 -16  -9  -4   -1.88    2.68
 -16  -9   4    0.03    2.25
  -9  16  -4   -0.32    1.88
  -9  16  -5   32.85    8.14
 -16  -9  -5   19.63    6.72
 -16  -9   5   33.66    8.92
  -9  16  -6   12.49    5.10
 -16  -9  -6    5.86    3.21
 -16  -9   6   11.03    4.90
 -16  -9   6    7.36    4.34
 -16  -9   7    8.64    4.68
  -9  16  -7    5.52    5.57
 -16  -9   7    0.49    3.32
 -16  -9   8   -4.88    3.68
  -9  16  -8   -0.70    3.56
 -16 -10   0   14.12    5.28
 -10  16   0   11.50    4.87
 -16 -10  -1    5.38    2.53
 -16 -10   1    3.30    2.69
 -10  16   1    5.53    3.10
 -10  16  -1    5.97    3.95
 -16 -10  -2    3.15    1.82
 -16 -10   2    7.92    4.80
 -10  16  -2    4.39    2.20
 -10  16   2    3.85    2.77
 -16 -10  -3    4.16    4.01
 -16 -10   3    1.06    3.62
 -10  16   3    0.56    2.71
 -10  16  -3   -2.04    2.25
 -16 -10  -4   -1.73    2.52
 -16 -10   4    1.01    3.71
 -10  16   4    0.42    2.65
 -10  16  -4    0.79    2.86
 -16 -10  -5   16.75    5.63
 -16 -10   5    9.48    5.42
 -10  16  -5   11.66    5.09
 -10  16  -6    7.84    4.97
 -16 -10   6    6.77    4.84
 -16 -10   7    1.43    2.54
 -10  16  -7   -1.08    2.24
 -16 -10   7   -0.46    2.54
 -16 -10   8    2.01    3.95
 -10  16  -8   11.79    6.31
 -16 -10   8    3.23    5.17
 -16 -11   0    1.30    3.11
 -11  16   0    0.43    2.50
 -11  16  -1   -1.37    1.87
 -16 -11  -1    2.06    3.79
 -16 -11   1    4.48    4.21
 -16 -11  -2   -1.29    3.28
 -16 -11   2    4.57    4.24
 -11  16  -2    5.38    3.33
 -11  16   2    3.76    2.94
 -11  16  -3    3.54    2.94
 -16 -11  -3   -1.17    3.65
 -16 -11   3    5.61    4.95
 -11  16   3    4.89    3.53
 -16 -11  -4   -0.27    3.50
 -16 -11   4   -4.27    4.32
 -11  16   4   -3.43    4.16
 -11  16  -4   -1.22    3.84
 -16 -11  -5    2.82    3.32
 -16 -11   5   12.16    5.38
 -11  16  -5    2.16    3.14
 -11  16   5   13.01    6.11
 -11  16  -6    4.97    3.37
 -16 -11   6    9.64    4.85
 -11  16   6    6.12    4.96
 -11  16  -7    3.44    3.60
 -16 -11   7   10.71    5.84
 -16 -11   8    2.45    3.39
 -11  16  -8    6.43    4.75
 -16 -12   0  367.05   27.47
 -12  16   0  333.87   24.55
 -12  16  -1  197.09   18.91
 -16 -12  -1  226.81   21.48
 -16 -12   1  214.12   21.12
 -16 -12  -2  181.29   18.93
 -16 -12   2  182.73   19.66
 -12  16   2  204.76   17.75
 -12  16  -2  167.66   17.66
 -12  16  -3  179.19   18.43
 -16 -12  -3  172.73   18.52
 -16 -12   3  183.55   19.94
 -12  16   3  190.68   18.31
 -16 -12  -4   82.60   12.83
 -16 -12   4   64.96   11.78
 -12  16   4   93.16   13.60
 -12  16  -4  101.30   14.00
 -16 -12  -5   14.18    5.23
 -16 -12   5   16.02    6.98
 -12  16  -5   30.97    8.15
 -12  16   5   28.61    8.49
 -16 -12   6   -1.13    4.05
 -12  16  -6    1.92    3.32
 -12  16   6   10.41    5.59
 -12  16  -7    2.85    2.99
 -16 -12   7   -2.33    4.57
 -12  16   7   -0.24    2.72
 -16 -12   8   20.64    7.58
 -16 -13   0   -0.03    3.50
 -16 -13  -1   -2.51    2.99
 -16 -13   1   -0.87    3.04
 -13  16  -1   -4.48    4.07
 -16 -13  -2   11.84    4.63
 -16 -13   2   24.05    8.13
 -13  16   2   22.81    6.11
 -13  16  -2   28.14    7.51
 -13  16  -3   86.68   12.95
 -16 -13  -3   91.78   14.13
 -16 -13   3   72.27   13.19
 -13  16   3   84.72   12.53
 -16 -13  -4   92.71   13.62
 -16 -13   4   80.80   13.61
 -13  16   4  105.07   14.60
 -13  16  -4   90.36   13.57
 -16 -13  -5  108.90   14.83
 -16 -13   5   98.08   15.52
 -13  16   5   76.33   13.43
 -13  16  -5   86.79   13.51
 -16 -13   6   62.05   12.66
 -13  16  -6   73.06   12.76
 -13  16   6   59.62   12.14
 -13  16  -7   77.59   13.44
 -16 -13   7   76.47   13.54
 -13  16   7   81.70   14.85
 -16 -13   8   87.55   14.53
 -16 -14   0  187.98   20.41
 -16 -14  -1  184.88   20.08
 -16 -14   1  183.35   20.32
 -14  16  -1  169.86   17.64
 -16 -14  -2  155.84   18.62
 -16 -14   2  148.35   18.67
 -14  16  -2  158.57   17.39
 -16 -14  -3   94.41   14.38
 -16 -14   3   93.56   14.84
 -14  16  -3  110.51   14.79
 -14  16   3   99.91   13.68
 -14  16  -4   41.83    9.46
 -16 -14  -4   46.23   10.15
 -16 -14   4   53.37   11.13
 -14  16   4   38.68    9.07
 -16 -14  -5   13.46    5.98
 -16 -14   5   25.32    8.15
 -14  16   5   41.04    9.81
 -14  16  -5   17.44    6.83
 -16 -14   6    1.04    2.84
 -14  16  -6    8.23    4.95
 -14  16   6    2.37    3.98
 -16 -14   7   14.64    6.42
 -14  16  -7    9.25    6.60
 -16 -15   0    1.98    2.00
 -16 -15  -1    6.78    5.58
 -16 -15   1   -2.04    3.18
 -15  16  -1    0.13    2.77
 -16 -15  -2   85.54   14.04
 -16 -15   2   83.69   14.32
 -15  16  -2   63.19   11.19
 -16 -15  -3  148.28   18.40
 -16 -15   3  158.60   19.92
 -15  16  -3  132.20   16.33
 -15  16   3  133.46   16.57
 -15  16  -4  152.37   17.78
 -16 -15  -4  134.76   17.29
 -16 -15   4  126.34   17.82
 -15  16   4  162.14   18.92
 -16 -15  -5  113.99   15.87
 -16 -15   5  102.09   16.23
 -15  16   5  122.38   17.25
 -15  16  -5  134.16   17.00
 -16 -15   6   96.52   15.72
 -15  16  -6   93.88   14.64
 -15  16   6  121.96   18.56
 -15  16  -7   70.44   13.01
 -16 -16   0   21.80    7.53
 -16 -16   1   11.29    4.87
 -16 -16  -1    6.45    4.22
 -16 -16  -2    5.76    2.50
 -16 -16   2    0.66    2.87
 -16  16  -2    5.31    3.67
 -16 -16  -3    7.75    4.99
 -16 -16   3    9.06    4.08
 -16  16   3    4.23    3.29
 -16  16  -3    7.45    5.33
 -16 -16  -4   -3.32    4.23
 -16 -16   4    4.02    2.81
 -16  16  -4    7.85    4.95
 -16  16   4    6.49    4.71
 -16  16  -5    0.58    2.80
 -16 -16  -5    4.34    3.39
 -16 -16   5    4.47    3.30
 -16  16   5   -3.36    3.28
 -16  16   6   22.38    8.53
 -16  16  -6   -1.76    2.34
 -16 -17   0   -0.36    2.78
 -16 -17   1   -1.63    3.74
 -16 -17  -1    4.10    2.77
 -16 -17   2    0.27    3.00
 -16 -17  -2   -2.02    3.05
 -17  16  -2    1.71    2.84
 -17  16  -3    3.26    2.45
 -16 -17  -3    6.49    4.29
 -16 -17   3    4.22    5.90
 -16 -17  -4   -0.70    4.26
 -17  16   4  -15.25    6.28
 -16 -17  -5   -1.16    2.96
 -17  16   5    2.06    2.59
 -15 -17   0  261.66   25.21
 -15 -17   1  307.80   27.48
 -15 -17  -1  295.08   26.50
 -15 -17   2  248.71   24.58
 -15 -17  -2  218.23   22.76
 -17  15  -2  195.00   19.14
 -17  15  -3  145.49   16.73
 -15 -17   3  140.52   19.09
 -15 -17  -3  133.33   17.46
 -17  15   3  112.60   15.39
 -15 -17   4   49.52   11.47
 -15 -17  -4   37.68    9.37
 -17  15   4   55.36   10.99
 -15 -17  -5   17.88    6.63
 -15 -17   5   10.27    5.33
 -17  15   5   15.35    6.33
 -14 -17   0    3.37    4.60
 -14 -17   1    0.38    2.21
 -14 -17  -1    3.35    2.16
 -14 -17   2    6.31    5.19
 -14 -17  -2   12.51    6.32
 -17  14  -2    9.46    4.23
 -17  14   2   10.77    4.20
 -17  14  -3    1.93    2.54
 -14 -17   3    3.72    4.50
 -14 -17  -3    9.11    4.56
 -17  14   3   -0.27    3.14
 -14 -17   4    0.68    2.89
 -14 -17  -4   16.45    6.73
 -17  14   4    8.34    3.34
 -14 -17   5    2.20    2.58
 -14 -17  -5    5.31    3.21
 -17  14   5    5.56    4.59
 -14 -17   6   23.34    8.18
 -17  14   6   14.38    6.09
 -13 -17   0   17.54    5.44
 -13 -17  -1    3.32    2.96
 -17  13   1    1.93    2.04
 -17  13  -2   -6.10    3.40
 -13 -17   2    7.86    4.46
 -13 -17  -2   -6.53    4.37
 -17  13   2    5.75    4.31
 -13 -17   3    1.41    3.13
 -13 -17  -3    6.02    4.41
 -17  13   3    4.56    3.71
 -17  13  -3    2.08    2.88
 -13 -17   4    0.70    3.29
 -13 -17  -4   -1.08    3.53
 -17  13   4   -5.27    3.79
 -13 -17  -5   -3.46    5.13
 -17  13   5   -4.42    3.34
 -13 -17   6    5.25    5.13
 -17  13   6    6.48    5.67
 -13 -17   7   -1.78    4.34
 -12 -17   0   -2.69    3.81
 -17  12   0    2.25    3.39
 -12 -17   1    3.92    2.49
 -12 -17  -1    4.12    3.91
 -17  12   1    8.75    4.28
 -17  12  -2    8.27    3.33
 -12 -17   2   10.71    5.99
 -12 -17  -2   13.58    6.52
 -17  12   2   10.61    4.39
 -12 -17   3   29.31    8.49
 -12 -17  -3   34.19    8.69
 -17  12   3   35.80    8.25
 -12 -17   4   64.84   12.12
 -12 -17  -4   80.26   12.79
 -17  12   4   74.80   12.92
 -12 -17   5   79.16   13.76
 -12 -17  -5   58.26   11.13
 -17  12   5   64.90   12.92
 -12 -17   6   50.17   11.26
 -17  12   6   50.30   11.78
 -12 -17   7   11.81    6.03
 -17  12   8   55.88   12.37
 -11 -17   0   44.60   10.10
 -17  11   0   39.93    8.05
 -11 -17   1   55.81   11.01
 -11 -17  -1   59.67   11.30
 -17  11   1   86.90   12.28
 -17  11  -2   33.70    6.98
 -11 -17   2   29.74    8.37
 -11 -17  -2   28.50    7.99
 -17  11   2   32.24    8.03
 -11 -17   3   14.21    5.82
 -11 -17  -3   24.45    7.35
 -17  11   3   20.58    7.12
  11  17  -4   17.84    5.77
 -11 -17   4   26.52    8.35
 -11 -17  -4   19.74    6.63
 -17  11   4   16.04    6.55
 -11 -17   5    9.14    4.71
 -11 -17  -5    3.85    3.60
 -17  11   5    2.47    3.65
  11  17  -5   12.88    5.08
 -11 -17   6    2.70    3.66
 -11 -17  -6    0.40    1.94
 -17  11   6    1.14    3.31
  11  17  -6   -0.05    1.83
 -17  11   7    7.31    5.59
 -11 -17   7   -7.10    5.51
  11  17  -7    3.64    3.97
 -17  11   7    1.53    4.34
 -17  11   8    5.05    4.50
  11  17  -8   14.57    5.67
 -10 -17   0   -0.40    1.95
  10  17   0    2.19    1.97
 -17  10   0    2.91    2.58
 -10 -17   1   11.94    5.35
 -10 -17  -1    5.97    2.69
  10  17  -1   10.87    4.65
 -17  10   1    9.69    4.29
 -10 -17   2   62.70   11.33
 -10 -17  -2   71.31   11.73
 -17  10   2   71.15   11.40
  10  17  -2   73.05   10.13
  10  17  -3  169.72   16.06
 -10 -17   3  197.72   20.37
 -10 -17  -3  163.34   17.90
 -17  10   3  178.80   18.65
  10  17  -4  250.06   20.25
 -10 -17   4  279.15   24.35
 -10 -17  -4  260.72   22.47
 -17  10   4  279.36   24.38
 -10 -17   5  358.44   27.85
 -10 -17  -5  355.33   26.09
 -17  10   5  364.47   29.01
  10  17  -5  350.74   24.93
 -10 -17   6  303.63   25.89
 -10 -17  -6  332.15   25.04
 -17  10   6  356.98   30.06
  10  17  -6  320.65   24.87
 -17  10   7  327.58   28.65
 -10 -17   7  318.19   26.69
 -17  10   7  322.91   29.50
  10  17  -7  323.32   26.09
 -17  10   8  222.42   23.72
  10  17  -8  206.82   22.04
  -9 -17   0    4.05    3.61
   9  17   0    3.62    2.98
 -17   9   0    2.30    2.81
   9  17  -1    0.74    1.76
  -9 -17   1    6.36    4.19
  -9 -17  -1    0.81    3.36
 -17   9   1    7.41    4.23
  -9 -17   2   10.64    5.98
  -9 -17  -2    1.99    3.14
   9  17  -2    1.90    2.99
 -17   9   2    2.07    2.09
   9  17  -3    3.37    3.54
  -9 -17   3   -1.62    3.52
  -9 -17  -3    7.77    4.95
 -17   9   3    1.50    3.52
   9  17  -4    2.63    2.45
  -9 -17   4    5.18    4.49
 -17   9   4   -0.18    3.16
  -9 -17   5    3.85    3.73
  -9 -17  -5   -1.03    3.19
 -17   9   5    1.16    2.16
   9  17  -5    8.78    4.70
 -17   9   6   -0.62    3.72
  -9 -17   6    2.49    3.53
  -9 -17  -6    4.49    3.49
   9  17  -6    7.46    4.34
 -17   9   6   -0.36    3.14
 -17   9   7    5.10    2.81
  -9 -17   7    8.49    3.74
   9  17  -7   12.23    5.91
 -17   9   7   19.85    7.84
 -17   9   8    5.13    5.35
   9  17  -8   15.84    6.94
   8  17   0   -1.38    1.81
 -17   8   0    1.05    2.70
   8  17  -1   19.95    5.59
 -17   8   1   23.87    6.60
   8  17  -2   35.56    7.18
 -17   8   2   32.67    8.07
   8  17  -3   97.86   12.58
  -8 -17   3   82.18   12.80
 -17   8   3   72.22   11.67
   8  17  -4  127.30   14.75
  -8 -17   4  107.68   14.83
 -17   8   4  143.43   17.36
 -17   8   5  164.08   19.68
  -8 -17   5  169.04   18.45
  -8 -17  -5  166.84   17.31
 -17   8   5  155.49   18.65
   8  17  -5  173.66   17.80
 -17   8   6  153.74   19.04
  -8 -17  -6  190.74   18.42
  -8 -17   6  178.24   19.20
   8  17  -6  173.04   18.52
 -17   8   6  155.91   19.78
 -17   8   7  193.80   21.38
  -8 -17   7  208.30   20.99
   8  17  -7  202.23   20.88
 -17   8   7  170.09   21.23
 -17   8   8  132.73   17.87
   8  17  -8  151.75   18.83
   7  17   0    9.43    3.88
 -17   7   0    7.45    4.80
   7  17  -1    6.91    3.53
   7  17   1    2.63    1.52
 -17   7   1    6.37    4.48
   7  17  -2   17.73    5.74
 -17   7   2    4.80    2.87
   7  17  -3   49.65    9.29
 -17   7   3   35.42    8.37
   7  17  -4    8.13    4.21
 -17   7   4    1.82    3.10
 -17   7   5    2.00    5.38
  -7 -17   5    2.75    4.04
 -17   7   5   -0.25    2.40
   7  17  -5    0.72    1.96
 -17   7   6    5.13    3.43
  -7 -17   6    3.05    3.22
  -7 -17  -6    6.44    3.19
   7  17  -6    3.82    3.92
 -17   7   6   -0.08    3.82
 -17   7   7   -0.98    2.63
  -7 -17   7    6.82    5.02
   7  17  -7   -1.75    2.72
 -17   7   7   -1.38    2.83
 -17   7   8    8.11    4.38
   7  17  -8    7.25    4.94
 -17   7   8    0.19    4.73
 -17   6   0   -1.58    3.47
   6  17   0    5.05    3.28
   6  17  -1   12.93    5.14
   6  17   1   16.50    5.09
 -17   6   1   12.51    4.61
   6  17  -2   21.06    6.03
 -17   6   2   14.44    5.68
   6  17  -3   11.82    5.21
 -17   6   3    6.18    4.15
   6  17  -4   32.27    7.64
 -17   6   4   21.29    7.30
 -17   6   4   32.56    8.15
 -17   6   5   27.22    9.18
 -17   6   5   17.55    5.75
   6  17  -5   22.76    6.62
 -17   6   6   10.81    5.97
  -6 -17   6   13.85    5.69
   6  17  -6   10.29    4.56
 -17   6   6   14.04    5.73
 -17   6   7    9.24    5.09
  -6 -17   7    5.64    3.83
   6  17  -7   13.67    5.98
 -17   6   7    9.99    6.68
 -17   6   8   -4.59    4.40
   6  17  -8    3.01    3.69
 -17   6   8   -1.94    4.22
  17  -6  -9    1.15    2.97
   5  17   0  130.21   13.66
 -17   5   0  141.36   14.93
   5  17   1   86.78   11.23
   5  17  -1   89.63   11.43
 -17   5   1  118.76   14.02
 -17   5   2  108.04   15.01
   5  17  -2  127.15   14.26
 -17   5   2  135.24   15.45
 -17   5   3   58.23   10.95
   5  17  -3   69.66   10.78
 -17   5   3   49.22    9.71
   5  17  -4   33.14    7.92
 -17   5   4   42.47    9.42
 -17   5   4   36.24    8.84
 -17   5   5   11.04    5.69
 -17   5  -5    7.22    3.83
 -17   5   5    2.89    2.68
   5  17  -5   15.50    5.30
 -17   5   6    5.34    3.33
   5  17  -6    1.61    2.66
 -17   5   6   -0.01    2.62
 -17   5   7   10.19    5.64
  -5 -17   7    6.58    3.70
   5  17  -7    3.70    3.66
 -17   5   7   -0.23    2.30
  17  -5  -8   15.43    5.82
 -17   5   8    7.71    5.47
   5  17  -8   10.72    4.77
 -17   5   8   17.09    7.53
  17  -5  -9    7.65    5.44
  17  -5 -10   16.59    6.62
 -17   4   0    3.36    3.40
   4  17   0    0.33    2.93
 -17   4   0    3.22    3.42
   4  17  -1   13.41    5.40
 -17   4   1   16.29    6.50
 -17   4  -1   20.01    6.53
   4  17   1   19.71    5.75
 -17   4   1    9.37    4.53
 -17   4   2  100.22   14.12
 -17   4  -2  104.49   13.79
   4  17  -2  111.83   13.36
 -17   4   2  109.88   13.95
 -17   4   3  152.90   17.44
 -17   4  -3  152.33   16.48
   4  17  -3  166.68   16.67
 -17   4   3  134.15   15.80
 -17   4   4  214.17   21.01
 -17   4  -4  224.21   19.89
 -17   4   4  192.28   19.44
   4  17  -4  209.42   19.12
 -17   4   5  159.76   18.40
 -17   4  -5  149.93   15.89
 -17   4   5  159.09   18.24
   4  17  -5  170.56   17.76
 -17   4   6  115.86   15.96
   4  17  -6  120.84   15.54
 -17   4   6  108.75   15.94
  17  -4  -7  113.80   14.03
 -17   4   7  119.21   16.47
   4  17  -7  117.74   16.18
 -17   4   7  106.33   16.44
 -17   4   8   74.71   13.20
  17  -4  -8   62.86   11.42
   4  17  -8   46.31   10.15
 -17   4   8   63.17   12.82
  17  -4  -9   30.05    8.60
   4  17  -9   26.04    7.91
 -17   3   0  456.37   29.18
   3  17   0  488.13   27.00
 -17   3   1  611.54   33.81
 -17   3  -1  576.97   32.31
   3  17   1  602.72   29.73
   3  17  -1  652.89   31.35
 -17   3   1  647.39   32.42
 -17   3   2  595.92   33.86
 -17   3  -2  533.96   30.71
   3  17  -2  624.86   31.46
 -17   3   2  626.41   32.84
 -17   3   3  352.02   26.43
 -17   3  -3  388.96   25.94
   3  17  -3  355.11   24.27
 -17   3   3  409.55   27.45
   3  17  -4  107.46   13.81
 -17   3   4  140.44   16.84
 -17   3  -4  131.93   14.76
 -17   3   4  116.08   15.00
 -17   3   5   16.84    6.02
 -17   3  -5   17.52    5.35
 -17   3   5   14.94    6.13
   3  17  -5   12.59    5.51
 -17   3   6    2.19    3.26
   3  17  -6   -1.30    3.80
 -17   3   6    0.12    2.89
 -17   3   7   13.13    5.95
   3  17  -7   10.49    5.04
 -17   3   7    5.13    2.52
 -17   3   8   21.88    6.94
   3  17  -8   36.77    9.62
 -17   3   8   16.15    6.37
   3  17  -9   73.02   13.61
 -17   2   0    6.87    4.44
   2  17   0    1.04    2.34
 -17   2   1    4.05    3.19
 -17   2  -1    4.68    3.39
   2  17  -1    1.19    2.57
   2  17   1    1.17    2.36
 -17   2   1    2.67    1.92
 -17   2   2    6.30    3.84
 -17   2  -2    4.17    2.68
   2  17  -2    2.29    2.62
 -17   2   2    3.55    3.85
 -17   2   3   32.18    7.92
 -17   2  -3   28.64    7.01
   2  17  -3   32.55    7.30
 -17   2   3   24.49    6.79
   2  17  -4   52.75   10.00
 -17   2   4   69.15   11.97
 -17   2  -4   68.95   10.64
 -17   2   4   64.01   11.64
 -17   2   5   56.09   10.77
 -17   2  -5   36.90    7.91
 -17   2   5   57.26   11.49
   2  17  -5   56.62   10.45
 -17   2   6   11.78    5.43
   2  17  -6    8.68    4.68
 -17   2   6   12.68    5.79
 -17   2   7   31.40    8.41
   2  17  -7   37.01    9.20
 -17   2   7   25.86    7.92
   2  17  -8   14.17    6.21
 -17   2   8    5.67    3.92
   2  17  -9   -1.61    3.50
 -17   2   9   -0.48    2.39
 -17   1   0  124.21   15.00
   1  17   0  129.63   13.99
 -17   1   1  216.45   19.79
 -17   1  -1  215.69   19.33
   1  17   1  241.27   19.24
   1  17  -1  234.83   19.06
 -17   1   1  250.39   20.35
 -17   1   2  323.80   24.56
 -17   1  -2  315.90   23.18
   1  17  -2  298.67   22.01
 -17   1   2  299.70   22.78
 -17   1  -3  196.79   18.09
 -17   1   3  164.72   17.75
   1  17  -3  171.35   17.14
 -17   1   3  202.54   19.12
 -17   1   4   43.39    9.65
   1  17  -4   50.25    9.28
 -17   1  -4   51.28    9.21
 -17   1   4   46.67    9.73
 -17   1   5    1.41    3.53
 -17   1  -5    9.43    4.66
 -17   1   5    1.49    3.60
   1  17  -5    0.96    2.57
 -17   1   6    6.44    4.42
   1  17  -6    2.75    2.51
 -17   1   6    1.80    2.94
   1  17  -7   16.26    6.28
 -17   1   7    6.29    4.22
   1  17  -8   24.17    7.67
 -17   1   8   28.21    8.86
 -17   1   9   37.06    9.89
 -17   0   0    0.38    2.41
   0  17   0    0.29    3.50
 -17   0   1    5.27    3.53
 -17   0   1    3.43    3.89
 -17   0  -1   -1.07    2.85
   0  17  -1    3.97    3.01
   0  17   1    4.45    3.25
 -17   0   2    4.00    3.81
 -17   0  -2   -1.42    2.41
   0  17  -2   -0.18    1.73
 -17   0   2    1.40    2.35
 -17   0   3    3.70    3.94
 -17   0  -3   -2.09    2.43
   0  17  -3   -1.43    3.41
 -17   0   3    4.23    3.24
 -17   0   4   11.34    5.11
 -17   0  -4    7.65    4.48
   0  17  -4    2.50    2.13
 -17   0   4   12.84    5.52
 -17   0   5    2.90    3.56
 -17   0  -5    1.21    3.30
 -17   0   5   -1.95    2.25
   0  17  -6    0.37    2.93
 -17   0   6   -2.09    3.29
   0  17  -7    5.75    4.33
 -17   0   7    6.05    4.71
   0  17  -8    2.64    2.89
 -17   0   8   -0.53    3.00
 -17   0   9    5.55    5.08
 -17  -1   0   15.02    5.27
  -1  17   0   20.73    5.81
 -17  -1   1   47.15    9.10
 -17  -1  -1   41.00    8.43
  -1  17  -1   46.22    8.94
  -1  17   1   42.37    8.43
 -17  -1  -2   84.47   12.16
  -1  17  -2   97.85   12.96
 -17  -1   2   84.33   12.38
 -17  -1   2   76.45   11.42
 -17  -1   3   30.91    7.86
 -17  -1  -3   15.07    5.36
  -1  17  -3   36.82    7.84
 -17  -1   3   25.48    6.97
 -17  -1   4    9.92    5.40
 -17  -1  -4   13.86    5.00
  -1  17  -4   12.03    5.33
 -17  -1   4    2.22    2.47
 -17  -1   5    4.21    1.87
  -1  17  -5    1.64    2.97
  -1  17  -6   -2.55    3.66
 -17  -1   6   -0.21    2.26
  -1  17  -7   -0.33    3.57
 -17  -1   7    7.54    4.20
  -1  17  -8   11.08    5.31
 -17  -1   8    9.09    4.96
 -17  -1   9   -0.49    2.80
 -17  -2   0   13.67    5.70
  -2  17   0    5.97    4.50
 -17  -2  -1    3.87    4.19
  -2  17  -1    2.75    3.07
 -17  -2   1    6.56    2.69
  -2  17   1   11.74    4.74
 -17  -2   2    6.59    4.48
 -17  -2  -2    9.70    4.48
  -2  17  -2   16.54    6.21
 -17  -2   2    2.65    2.62
 -17  -2   3   22.66    6.81
  -2  17  -3   35.82    8.35
 -17  -2   3   32.38    7.78
 -17  -2  -3   29.72    6.84
  -2  17  -4   40.67    8.56
 -17  -2   4   43.32    9.42
 -17  -2   5   59.90   11.17
  -2  17  -5   69.58   11.79
  -2  17  -6   91.70   13.72
 -17  -2   6   85.90   13.77
  -2  17  -7   35.89    8.92
 -17  -2   7   48.39   10.28
  -2  17  -8   12.03    6.47
 -17  -2   8   10.74    5.63
 -17  -2   9   14.21    6.55
  -3  17   0  397.36   25.60
  -3  17   1  479.45   28.13
  -3  17  -1  503.52   28.75
  -3  17  -2  407.95   26.56
  -3  17  -3  307.94   23.51
 -17  -3   3  287.70   22.90
  -3  17  -4  156.18   17.17
 -17  -3   4  141.14   16.58
 -17  -3   5   17.55    6.05
  -3  17  -5   19.62    7.02
  -3  17  -6    3.47    2.37
 -17  -3   6    2.22    3.36
  -3  17  -7   13.95    6.30
 -17  -3   7   13.84    6.15
  -3  17  -8   41.63   10.81
 -17  -3   8   80.38   13.96
 -17  -3   9   57.57   12.50
  -4  17   0    1.12    3.66
 -17  -4   0    3.76    2.93
 -17  -4  -1   81.49   12.17
 -17  -4   1   75.47   11.59
  -4  17  -1   99.00   13.12
  -4  17   1   97.82   12.99
 -17  -4   2  125.82   15.40
  -4  17  -2  123.82   14.86
  -4  17  -3  173.56   17.68
 -17  -4   3  168.98   17.80
  -4  17  -4  330.42   24.77
 -17  -4   4  306.81   24.12
 -17  -4   5  335.86   25.82
  -4  17  -5  377.74   27.28
 -17  -4   6  244.54   22.74
  -4  17  -6  263.04   23.67
  -4  17  -7  167.26   19.53
 -17  -4   7  196.32   21.24
  -4  17  -8   94.15   15.22
 -17  -4   8  110.51   16.52
 -17  -4   9   57.13   12.37
  -5  17   0   24.93    6.73
 -17  -5   0   19.48    5.65
 -17  -5  -1   24.77    7.15
 -17  -5   1   24.20    7.07
  -5  17   1   18.90    6.43
  -5  17  -1   23.39    6.61
 -17  -5  -2   52.62    9.72
 -17  -5   2   65.59   11.44
  -5  17  -2   44.25    8.83
 -17  -5  -3   60.30   10.36
 -17  -5   3   52.58    9.80
  -5  17  -3   65.65   11.12
 -17  -5   4   11.17    5.58
  -5  17  -4    2.29    2.52
 -17  -5   4    9.97    4.50
  -5  17  -5    1.30    2.27
 -17  -5   5  -10.66    4.95
  -5  17  -6    7.90    4.01
 -17  -5   6    2.63    2.88
  -5  17  -7    8.98    5.56
 -17  -5   7    0.15    2.18
  -5  17  -8   10.49    6.19
 -17  -5   8   20.46    7.32
 -17  -5   9   15.18    6.47
 -17  -6   0   -1.48    3.57
  -6  17   0    2.40    3.02
 -17  -6  -1   98.20   13.78
 -17  -6   1   82.96   12.56
  -6  17  -1   92.97   12.78
  -6  17   1   98.83   13.21
 -17  -6  -2   34.03    8.20
 -17  -6   2   45.34    9.70
  -6  17  -2   44.88    9.27
 -17  -6  -3   95.60   13.15
 -17  -6   3   97.17   13.95
  -6  17  -3  115.53   14.84
 -17  -6  -4  144.80   16.00
  -6  17  -4  184.37   19.03
 -17  -6   4  169.87   18.45
 -17  -6   4  146.12   16.75
  -6  17  -5  118.85   15.60
 -17  -6   5   87.23   13.45
 -17  -6   5  111.51   15.12
 -17  -6   6   81.69   13.32
 -17  -6   6   90.76   13.77
  -6  17  -6   84.59   13.69
  -6  17  -7  107.88   15.71
 -17  -6   7   79.74   13.39
  -6  17  -8   57.86   12.38
 -17  -6   8   66.53   13.05
 -17  -6   9   -0.30    3.33
 -17  -7   0    4.56    3.07
  -7  17   0    2.36    3.00
  -7  17   1    1.74    1.72
 -17  -7  -1   -0.59    3.21
 -17  -7   1    2.36    3.33
  -7  17  -1   -0.73    2.37
  -7  17  -2   -1.59    3.11
 -17  -7  -2    1.16    2.37
 -17  -7   2    1.00    2.94
 -17  -7  -3    3.91    3.07
 -17  -7   3    6.19    5.95
  -7  17  -3    1.51    2.71
 -17  -7  -4   -2.08    4.66
 -17  -7   4    3.49    3.45
  -7  17  -4   -1.28    2.12
 -17  -7  -5   -0.07    3.09
  -7  17  -5    5.41    4.55
 -17  -7   5   -1.92    3.59
 -17  -7   5    3.84    3.98
  -7  17  -6   -2.05    3.87
 -17  -7   6    0.75    2.87
 -17  -7   6   -0.13    3.75
 -17  -7   7    6.31    3.52
  -7  17  -7    5.18    4.19
 -17  -7   7    1.95    2.71
  -7  17  -8    3.97    2.88
 -17  -7   8   -1.95    3.80
 -17  -7   9   -0.91    2.71
 -17  -8   0    6.19    5.02
  -8  17   0   -1.02    2.94
 -17  -8  -1    7.26    4.20
 -17  -8   1   10.59    4.96
  -8  17  -1    9.27    4.66
  -8  17  -2    5.43    3.68
 -17  -8  -2    8.88    5.45
 -17  -8   2    0.95    2.19
 -17  -8  -3    1.38    2.35
 -17  -8   3    6.72    5.02
  -8  17  -3    2.18    2.97
 -17  -8  -4   18.53    6.02
 -17  -8   4   27.85    7.46
  -8  17  -4   29.95    8.12
 -17  -8  -5   78.13   12.11
 -17  -8   5   72.54   12.39
  -8  17  -5   93.95   14.19
  -8  17  -6   99.71   14.79
 -17  -8   6  128.00   17.00
 -17  -8   6  117.72   15.78
 -17  -8   7   52.77   11.00
  -8  17  -7   75.93   13.48
 -17  -8   7   61.96   12.33
  -8  17  -8   25.17    8.33
 -17  -8   8   24.71    8.24
 -17  -8   9   24.72    7.88
  -9  17   0   53.39    9.97
 -17  -9   0   55.65   10.66
 -17  -9  -1   33.85    7.58
 -17  -9   1   41.53    9.29
  -9  17  -1   56.27   10.36
 -17  -9  -2    0.16    2.30
 -17  -9   2    2.69    3.52
  -9  17  -2   -2.57    4.00
  -9  17   2    5.15    3.17
 -17  -9  -3    7.58    4.43
 -17  -9   3    6.10    3.06
  -9  17   3   18.68    5.73
  -9  17  -3    5.32    3.51
 -17  -9  -4    4.40    3.06
 -17  -9   4    2.86    3.11
  -9  17  -4    0.84    3.06
 -17  -9  -5   10.04    4.62
 -17  -9   5   20.14    7.34
  -9  17  -5   12.50    5.25
  -9  17  -6   -0.03    3.06
 -17  -9   6   -1.71    2.85
 -17  -9   7    3.53    4.26
 -17  -9   7    1.53    3.80
  -9  17  -7    2.62    3.78
 -17  -9   8    0.34    3.45
 -17  -9   8   -6.52    4.40
 -17 -10   0    4.45    3.66
 -10  17   0    3.49    3.32
 -10  17  -1   55.88   10.51
 -17 -10  -1   47.70    9.62
 -17 -10   1   23.18    7.06
 -17 -10  -2   85.43   13.24
 -17 -10   2   91.76   14.19
 -10  17  -2   91.09   13.22
 -10  17   2  107.34   12.61
 -17 -10  -3  168.35   18.17
 -17 -10   3  134.45   16.92
 -10  17   3  179.25   17.30
 -10  17  -3  151.30   17.27
 -17 -10  -4  184.50   18.91
 -17 -10   4  187.51   20.36
 -10  17   4  192.99   19.20
 -10  17  -4  183.28   19.33
 -17 -10  -5  311.06   24.53
 -17 -10   5  299.79   25.82
 -10  17  -5  312.86   25.61
 -10  17  -6  378.31   28.97
 -17 -10   6  391.42   30.01
 -10  17  -7  245.25   24.03
 -17 -10   7  234.40   23.48
 -17 -10   8  131.03   18.02
 -17 -10   8  111.63   16.17
 -17 -11   0  241.29   22.71
 -11  17   0  258.45   22.21
 -17 -11  -1  235.82   22.11
 -17 -11   1  225.47   22.07
 -11  17  -1  232.09   20.90
 -17 -11  -2  154.74   17.87
 -17 -11   2  156.18   18.55
 -11  17  -2  137.81   16.28
 -11  17  -3   42.50    9.40
 -17 -11  -3   48.26   10.05
 -17 -11   3   48.48   10.46
 -11  17   3   80.03   11.90
 -17 -11  -4   43.23    9.44
 -17 -11   4   56.10   11.42
 -11  17   4   54.71   10.32
 -11  17  -4   35.93    8.68
 -17 -11  -5   21.83    6.72
 -17 -11   5   11.06    4.86
 -11  17  -5   19.75    6.53
 -11  17   5   18.43    7.47
 -17 -11   6    2.40    3.33
 -11  17  -6    6.48    5.17
 -11  17   6    6.31    5.15
 -11  17  -7   12.08    5.49
 -17 -11   7   23.53    8.09
 -11  17   7    5.63    4.44
 -17 -11   8   11.96    5.68
 -17 -12   0    0.26    3.57
 -12  17   0    2.77    2.34
 -17 -12  -1   33.79    8.46
 -17 -12   1   43.93   10.07
 -12  17  -1   40.36    8.68
 -17 -12  -2   54.55   11.14
 -17 -12   2   51.76   10.80
 -12  17  -2   47.93    9.82
 -12  17  -3   41.51    9.14
 -17 -12  -3   40.38    9.44
 -17 -12   3   45.21   10.28
 -12  17   3   46.57    9.26
 -17 -12  -4   78.30   12.93
 -17 -12   4   56.65   11.64
 -12  17   4   48.87   10.25
 -12  17  -4   75.81   12.71
 -17 -12  -5   75.37   12.54
 -17 -12   5   68.52   12.55
 -12  17   5   75.60   13.12
 -12  17  -5   69.00   12.13
 -17 -12   6   88.77   14.98
 -12  17  -6  111.64   15.95
 -12  17   6  101.09   15.97
 -12  17  -7   94.84   15.00
 -17 -12   7   82.79   15.12
 -12  17   7   82.24   15.12
 -17 -12   8   35.24    9.73
 -17 -13   0   80.99   13.59
 -13  17  -1   92.65   13.35
 -17 -13  -1  101.79   15.08
 -17 -13   1  104.82   15.37
 -17 -13  -2   52.13   10.53
 -17 -13   2   62.20   12.04
 -13  17  -2   56.49   10.39
 -17 -13  -3   23.20    7.66
 -17 -13   3   31.52    8.72
 -13  17  -3   23.76    7.05
 -13  17   3   24.83    6.97
 -13  17  -4   33.47    8.41
 -17 -13  -4   26.95    7.93
 -17 -13   4   25.59    8.14
 -13  17   4   22.73    6.88
 -17 -13  -5    5.04    2.19
 -17 -13   5   -3.40    5.47
 -13  17   5    0.75    3.97
 -13  17  -5    8.05    5.48
 -17 -13   6   -5.44    5.86
 -13  17  -6    3.76    4.47
 -13  17   6    1.91    4.15
 -17 -13   7    0.19    2.89
 -13  17  -7    0.48    3.60
 -17 -14   0    1.47    3.56
 -17 -14  -1    0.09    2.76
 -17 -14   1    4.19    4.51
 -14  17  -1    2.57    2.88
 -14  17  -2   -0.63    2.65
 -17 -14  -2    3.26    4.01
 -17 -14   2   -3.00    4.07
 -17 -14  -3    1.93    3.11
 -17 -14   3   -0.21    3.03
 -14  17  -3    8.31    5.06
 -14  17  -4   -2.80    3.17
 -17 -14  -4    4.43    4.18
 -17 -14   4    3.39    4.12
 -14  17   4    0.13    2.40
 -17 -14  -5   -1.44    3.46
 -17 -14   5    4.54    8.26
 -14  17   5    2.51    2.49
 -14  17  -5   -3.25    3.34
 -17 -14   6    0.51    4.01
 -14  17  -6    2.66    2.37
 -14  17   6    0.70    2.67
 -17 -15   0  160.19   19.76
 -15  17  -1  130.61   16.54
 -17 -15  -1  142.90   18.73
 -17 -15   1  139.45   18.64
 -17 -15  -2   86.04   14.65
 -17 -15   2   92.18   15.17
 -15  17  -2   87.65   13.42
 -17 -15  -3   59.85   12.26
 -17 -15   3   75.09   14.01
 -15  17  -3   42.26    9.67
 -17 -15  -4   16.70    6.56
 -17 -15   4   15.24    6.99
 -15  17  -4   10.34    5.63
 -15  17   4   13.21    6.57
 -17 -15  -5   -3.42    4.70
 -15  17   5    3.68    9.33
 -15  17  -5   -1.96    4.06
 -15  17   6    6.89    4.89
 -15  17  -6    1.58    3.22
 -17 -16   0    0.15    2.78
 -17 -16  -1    7.09    4.18
 -17 -16   1    8.86    6.49
 -16  17  -2    0.44    2.76
 -17 -16  -2    1.73    4.58
 -17 -16   2   -0.22    3.90
 -16  17  -3   -4.80    3.60
 -17 -16   3   -4.19    6.28
 -17 -16  -4   -3.37    3.67
 -16  17  -4    4.11    3.31
 -16  17  -5    4.16    3.88
 -16  17   5    0.01    3.21
 -16  17  -6    0.59    3.90
 -17 -17   0  484.93   35.59
 -17 -17  -1  325.63   29.04
 -17 -17   1  279.95   27.20
 -17  17  -2  223.12   21.73
 -17 -17  -2  244.41   25.30
 -17 -17  -3  202.13   22.43
 -17  17  -3  177.19   19.60
 -17 -17  -4   40.16    9.52
 -17 -17  -5    1.89    2.96
 -17  17   5    7.79    5.33
 -16 -18   0    0.61    4.17
 -16 -18  -1    5.91    5.23
 -16 -18  -2    2.82    4.91
 -16 -18  -3    0.76    3.59
 -16 -18  -4   -5.54    5.65
 -18  16   4    7.68    5.20
 -16 -18  -5   -0.19    2.80
 -15 -18   0   -3.83    5.41
 -15 -18   1    4.02    2.78
 -15 -18  -1   -0.15    3.52
 -15 -18   2    6.19    4.31
 -15 -18  -2    2.49    2.98
 -15 -18   3   15.90    6.86
 -15 -18  -3    2.04    2.39
 -18  15   3    9.67    6.37
 -15 -18  -4   43.88   10.21
 -18  15   4   20.13    6.95
 -15 -18  -5   23.12    7.58
 -18  15   5   41.98   11.41
 -14 -18   0  239.41   24.39
 -14 -18   1  224.15   23.62
 -14 -18  -1  207.26   22.65
 -14 -18   2  116.45   17.15
 -14 -18  -2  118.37   17.07
 -18  14   2  142.95   16.95
 -14 -18   3   85.08   14.52
 -14 -18  -3   96.10   15.27
 -18  14   3   91.46   13.73
 -14 -18   4   48.40   11.58
 -14 -18  -4   63.20   12.38
 -18  14   4   44.17   10.16
 -14 -18  -5   13.11    5.62
 -18  14   5   24.19    8.52
 -13 -18   0   -1.34    3.51
 -13 -18   1   19.48    8.56
 -13 -18  -1   13.42    6.38
 -18  13   1   12.72    5.72
 -13 -18   2   29.80    8.19
 -13 -18  -2   29.08    8.32
 -18  13   2   30.85    7.45
 -13 -18   3   41.43   10.81
 -13 -18  -3   45.63   10.91
 -18  13   3   39.23    9.02
 -13 -18   4   43.89   11.12
 -13 -18  -4   64.86   12.13
 -18  13   4   74.80   13.38
 -13 -18   5   77.93   14.21
 -13 -18  -5   84.08   13.63
 -18  13   5   67.19   13.36
 -13 -18   6   53.32   12.13
 -12 -18   0  504.31   33.89
 -18  12   0  517.37   29.14
 -12 -18   1  402.50   30.61
 -12 -18  -1  426.35   31.06
 -18  12   1  477.02   29.19
 -12 -18   2  250.98   24.42
 -12 -18  -2  252.59   23.94
 -18  12   2  264.07   22.69
 -12 -18   3  162.18   19.51
 -12 -18  -3  108.48   15.61
 -18  12   3  155.86   18.27
 -12 -18   4  102.66   15.85
 -12 -18  -4  104.75   15.28
 -18  12   4   96.12   14.76
 -12 -18   5   35.11    9.44
 -12 -18  -5   22.54    6.88
 -18  12   5   31.08    8.70
 -12 -18   6    4.08    3.28
 -18  12   6   -8.14    5.10
 -18  12   7    5.84    5.09
 -12 -18   7    1.12    3.77
 -11 -18   0   -1.34    2.74
 -18  11   0    3.61    3.61
 -11 -18   1    3.22    2.76
 -11 -18  -1   -0.92    3.74
 -18  11   1    2.80    3.38
 -11 -18   2    3.55    5.33
 -11 -18  -2    2.77    3.16
 -18  11   2    6.86    4.27
 -11 -18   3    0.82    2.99
 -11 -18  -3   -1.12    2.50
 -18  11   3   -2.30    3.81
 -11 -18   4    4.48    4.72
 -11 -18  -4    0.61    3.17
 -18  11   4    3.12    3.57
 -11 -18   5   13.91    6.69
 -11 -18  -5   -3.05    4.10
 -18  11   5    6.25    5.14
 -11 -18   6    6.00    6.12
 -18  11   6    3.93    4.91
 -18  11   7   11.04    7.37
 -11 -18   7    9.27    5.33
 -18  11   8   -0.49    2.90
 -10 -18   0   49.51   10.83
 -18  10   0   43.52    8.72
 -10 -18   1   42.54    9.46
 -10 -18  -1   40.47    9.57
  10  18  -1   45.49    8.10
 -18  10   1   52.98    9.76
  10  18  -2   39.60    7.89
 -10 -18   2   42.27    9.57
 -10 -18  -2   39.83    9.38
 -18  10   2   35.53    8.50
 -10 -18   3   36.63    9.23
 -10 -18  -3   38.49    9.17
  10  18  -3   51.32    9.63
 -18  10   3   62.74   11.29
  10  18  -4   19.26    5.98
 -10 -18   4   35.24    8.90
 -10 -18  -4   31.08    8.77
 -18  10   4   26.28    7.87
  10  18  -5    3.79    3.70
 -10 -18   5    4.04    3.76
 -10 -18  -5   11.96    5.23
 -18  10   5   11.08    5.66
 -18  10   6    1.24    3.70
 -10 -18   6   -0.43    3.53
 -10 -18  -6    1.58    3.06
 -18  10   6   -0.66    3.18
  10  18  -6   -1.76    2.64
 -18  10   7   -0.39    3.10
 -10 -18   7    0.33    2.76
  10  18  -7    4.31    3.18
 -18  10   8   14.79    6.88
  10  18  -8    8.03    5.22
  -9 -18   0    7.33    4.61
   9  18   0    6.42    4.09
 -18   9   0    5.49    4.31
  -9 -18   1   -0.16    2.04
  -9 -18  -1    7.71    5.14
   9  18  -1    0.08    1.82
 -18   9   1    3.10    3.42
  -9 -18   2    6.19    4.46
  -9 -18  -2    0.08    2.78
 -18   9   2    2.71    3.58
   9  18  -2    3.09    2.99
  -9 -18   3    2.69    4.04
  -9 -18  -3    8.94    4.52
   9  18  -3    2.70    2.05
 -18   9   3   17.44    5.96
   9  18  -4    3.55    2.69
  -9 -18   4    5.49    3.94
  -9 -18  -4   16.61    6.12
 -18   9   4    7.63    4.79
  -9 -18   5    5.17    4.16
  -9 -18  -5    3.67    3.27
 -18   9   5    8.70    4.83
   9  18  -5    3.00    3.23
 -18   9   6   16.04    6.76
  -9 -18   6    2.64    2.33
  -9 -18  -6   10.20    5.42
 -18   9   6    5.29    3.89
   9  18  -6    4.49    3.72
 -18   9   7   -0.70    3.24
  -9 -18   7    2.71    3.45
   9  18  -7    2.07    2.64
 -18   9   7   -1.24    3.80
 -18   9   8    3.30    4.52
   9  18  -8    1.30    2.75
   8  18   0  195.11   16.93
 -18   8   0  197.32   18.50
   8  18  -1  146.56   14.85
 -18   8   1  120.20   14.66
 -18   8   2   59.14   10.53
   8  18  -2   66.52   10.34
  -8 -18   3   21.50    7.11
   8  18  -3   38.39    8.34
 -18   8   3   20.83    6.67
   8  18  -4   18.46    6.01
  -8 -18   4   24.45    7.23
 -18   8   4   21.58    7.47
 -18   8   5    6.11    3.92
  -8 -18   5   -2.03    3.93
  -8 -18  -5   10.58    4.75
 -18   8   5   11.76    5.86
   8  18  -5    8.29    5.13
 -18   8   6   10.15    4.89
  -8 -18   6    5.34    4.34
  -8 -18  -6    1.79    1.83
 -18   8   6    4.23    4.15
   8  18  -6    2.61    2.67
 -18   8   7   30.85    9.49
  -8 -18   7   15.64    6.05
   8  18  -7   18.56    6.77
 -18   8   7    6.18    4.28
 -18   8   8   14.07    6.02
   8  18  -8   29.69    8.39
   7  18   0    0.27    1.80
 -18   7   0    3.40    3.82
   7  18  -1   14.51    5.31
 -18   7   1   22.05    6.61
   7  18  -2   37.09    7.76
 -18   7   2   56.48   10.24
   7  18  -3   66.72   10.66
 -18   7   3   70.44   12.12
 -18   7   4  118.74   16.80
   7  18  -4  103.36   13.79
 -18   7   4  111.54   15.54
 -18   7   5  142.11   18.49
  -7 -18   5  166.95   18.80
 -18   7   5  166.10   19.64
   7  18  -5  132.02   16.02
 -18   7   6  126.65   17.61
  -7 -18   6  149.50   17.81
  -7 -18  -6  145.55   16.24
 -18   7   6  145.09   19.02
   7  18  -6  135.95   16.77
 -18   7   7   85.99   14.61
  -7 -18   7   89.22   13.88
   7  18  -7   94.20   14.79
 -18   7   7   88.35   15.57
 -18   7   8   31.65    8.99
   7  18  -8   32.82    9.54
 -18   6   0  259.69   20.90
   6  18   0  253.42   19.61
   6  18   1  193.29   17.18
 -18   6   1  223.83   19.85
   6  18  -1  185.72   17.01
 -18   6   2   87.14   13.88
   6  18  -2  111.07   13.63
 -18   6   2  105.68   14.03
 -18   6   3   92.53   14.51
   6  18  -3   98.32   13.16
 -18   6   3  105.71   14.42
 -18   6   4   56.59   11.78
   6  18  -4   43.32    8.91
 -18   6   4   61.55   11.76
 -18   6   5    1.77    2.88
 -18   6  -5    2.68    2.51
 -18   6   5   -1.44    4.50
   6  18  -5    7.83    4.02
 -18   6   6    0.16    2.16
  -6 -18   6   -1.00    4.28
 -18   6   6   -1.47    2.39
   6  18  -6   -1.95    2.21
 -18   6   7   29.32    8.56
  -6 -18   7   22.17    6.96
   6  18  -7   33.25    9.32
 -18   6   7   30.83    8.93
 -18   6   8   31.74    8.93
   6  18  -8   35.45    9.37
   5  18   0    0.98    2.04
 -18   5   0    4.23    4.35
 -18   5   1   15.77    5.84
 -18   5  -1   24.98    6.89
   5  18  -1   28.31    6.57
   5  18   1   27.13    7.11
 -18   5   1   28.09    7.41
 -18   5   2  132.92   16.78
 -18   5  -2  111.18   15.24
   5  18  -2  112.03   13.79
 -18   5   2  124.61   15.15
 -18   5   3  213.94   21.72
 -18   5  -3  204.83   19.90
   5  18  -3  232.47   19.94
 -18   5   3  220.56   20.91
 -18   5   4  250.78   23.58
 -18   5  -4  195.82   19.24
   5  18  -4  211.47   19.62
 -18   5   4  198.67   20.53
 -18   5   5  237.51   23.16
 -18   5  -5  284.03   23.16
 -18   5   5  252.54   23.90
   5  18  -5  266.45   22.62
 -18   5   6  272.88   25.09
 -18   5   6  288.63   26.36
   5  18  -6  240.33   22.47
 -18   5   7  119.17   16.78
  -5 -18   7  130.35   16.30
   5  18  -7  166.98   19.34
 -18   5   7  136.95   18.81
 -18   5   8   88.39   14.75
   5  18  -8  102.82   15.95
   4  18   0    9.51    4.82
 -18   4   0    9.44    5.60
 -18   4   1   25.27    7.51
 -18   4  -1   14.39    5.25
   4  18   1   20.67    6.01
   4  18  -1   20.36    6.05
 -18   4   1   17.07    5.79
 -18   4   2   15.41    5.38
 -18   4  -2   26.27    8.31
   4  18  -2   31.48    7.48
 -18   4   2   26.87    7.03
 -18   4   3    7.03    3.34
 -18   4  -3    4.57    3.54
   4  18  -3    5.21    3.08
 -18   4   3    2.53    2.97
 -18   4   4   -4.23    5.06
 -18   4  -4    0.40    3.53
   4  18  -4    1.41    2.06
 -18   4   4    0.24    3.02
 -18   4   5    2.78    2.54
 -18   4  -5    4.88    3.32
 -18   4   5    6.14    4.44
   4  18  -5   -0.39    2.73
 -18   4   6    3.86    2.98
   4  18  -6   -1.16    2.47
 -18   4   6    1.53    3.95
 -18   4   7    0.89    3.26
   4  18  -7    2.44    2.43
 -18   4   7   -1.42    2.29
 -18   4   8    9.48    4.71
   4  18  -8    5.20    3.96
 -18   4   8   12.28    6.73
 -18   3   0    1.69    2.85
   3  18   0    1.91    3.46
 -18   3   1    6.80    4.61
 -18   3  -1    4.50    3.85
   3  18  -1    5.72    3.61
   3  18   1    4.90    3.85
 -18   3   1    7.00    4.08
 -18   3   2   12.43    5.82
 -18   3  -2   -0.02    2.18
   3  18  -2   10.39    4.85
 -18   3   2    4.27    4.22
 -18   3   3   31.80    8.11
 -18   3  -3   31.30    7.52
   3  18  -3   40.63    9.13
 -18   3   3   37.17    8.78
 -18   3   4   30.59    8.74
 -18   3  -4   35.39    8.53
   3  18  -4   31.91    7.89
 -18   3   4   16.94    5.98
 -18   3   5   15.02    6.20
 -18   3  -5   14.45    5.64
 -18   3   5   13.84    6.36
   3  18  -5   17.10    6.10
 -18   3   6    3.19    3.37
   3  18  -6    5.21    3.17
 -18   3   6    0.62    2.91
 -18   3   7    7.66    5.54
   3  18  -7    2.45    1.93
 -18   3   7    7.58    4.45
   3  18  -8   -0.76    2.64
 -18   3   8    4.00    3.69
 -18   2   0   15.61    4.79
   2  18   0   24.53    6.64
 -18   2   1   16.10    5.76
 -18   2  -1   18.17    6.10
   2  18  -1   21.34    6.00
   2  18   1   19.83    6.08
 -18   2   1   18.30    5.60
 -18   2   2   50.27   10.23
 -18   2  -2   19.17    5.11
   2  18  -2   29.76    7.14
 -18   2   2   28.95    7.16
 -18   2   3    7.04    4.54
 -18   2  -3   13.30    5.47
   2  18  -3    5.51    3.01
 -18   2   3    8.76    4.92
 -18   2   4    4.71    4.38
 -18   2  -4    2.83    3.09
   2  18  -4    2.17    2.17
 -18   2   4    4.47    3.99
 -18   2   5    0.60    2.52
 -18   2  -5   -0.72    2.32
 -18   2   5    6.12    5.20
   2  18  -5    1.08    1.99
 -18   2   6    4.82    3.40
   2  18  -6    0.88    2.02
 -18   2   6    5.49    5.86
 -18   2   7   -1.98    3.29
   2  18  -7    1.05    3.22
 -18   2   7    1.64    2.57
   2  18  -8    2.71    3.13
 -18   2   8   -2.17    3.88
 -18   1   0    6.38    4.09
   1  18   0    0.58    2.50
 -18   1   1    4.97    3.08
 -18   1   1   -0.37    2.46
 -18   1  -1    7.18    4.85
   1  18  -1   -1.21    2.08
   1  18   1    2.38    2.99
 -18   1   2   80.15   12.99
 -18   1  -2   82.50   12.43
   1  18  -2  107.40   13.87
 -18   1   2  110.16   14.45
 -18   1   3   91.00   13.79
 -18   1  -3   89.90   12.73
   1  18  -3   81.30   12.27
 -18   1   3   90.56   13.32
 -18   1   4  112.44   15.58
 -18   1  -4  115.39   14.28
   1  18  -4   99.48   13.71
 -18   1   4  101.06   14.32
 -18   1  -5  168.44   16.73
 -18   1   5  155.97   18.44
 -18   1   5  188.24   20.37
   1  18  -5  197.01   19.88
 -18   1   6  174.88   19.86
   1  18  -6  182.46   19.96
 -18   1   6  191.29   21.13
   1  18  -7  133.98   17.58
 -18   1   7  146.48   18.93
   1  18  -8   60.29   12.40
 -18   1   8   57.19   12.56
 -18   0   0  294.14   23.65
   0  18   0  324.55   23.38
 -18   0   1  356.38   26.68
 -18   0  -1  340.67   25.19
   0  18   1  328.55   23.53
   0  18  -1  308.76   23.01
 -18   0   2  313.48   25.02
 -18   0  -2  293.78   23.12
   0  18  -2  325.75   23.88
 -18   0   2  308.96   23.89
 -18   0   3  122.03   16.05
 -18   0  -3  120.97   14.53
   0  18  -3  112.73   14.21
 -18   0   3  108.14   14.39
 -18   0   4   10.54    5.68
 -18   0  -4   25.58    6.85
   0  18  -4   28.21    7.39
 -18   0   4   23.95    7.44
 -18   0   5    1.78    2.86
 -18   0  -5    4.91    2.91
 -18   0   5    8.58    4.75
   0  18  -5    4.18    2.98
   0  18  -6   -1.10    3.59
 -18   0   6    8.07    5.05
   0  18  -7    3.45    3.27
 -18   0   7    1.43    2.95
   0  18  -8    1.83    3.09
 -18   0   8    1.91    2.78
 -18  -1   0   -0.51    3.18
  -1  18   0    2.22    3.21
 -18  -1   1   12.12    5.38
 -18  -1  -1   12.45    5.18
  -1  18  -1   11.89    5.01
  -1  18   1    8.88    4.58
 -18  -1   2   35.34    8.55
 -18  -1  -2   39.53    8.65
  -1  18  -2   53.14   10.07
 -18  -1   2   44.78    9.14
 -18  -1   3   49.95   10.42
 -18  -1  -3   38.28    8.28
  -1  18  -3   55.78   10.27
 -18  -1   3   65.28   11.35
 -18  -1  -4  132.16   14.93
  -1  18  -4  153.12   17.13
 -18  -1   4  154.74   18.18
 -18  -1   4  128.35   16.36
 -18  -1   5  214.29   21.44
  -1  18  -5  230.83   21.60
  -1  18  -6  156.65   18.45
 -18  -1   6  190.92   21.21
  -1  18  -7  178.70   20.42
 -18  -1   7  168.04   20.24
  -1  18  -8  103.54   16.35
 -18  -1   8   88.39   15.49
  -2  18   0  528.90   30.14
 -18  -2   0  521.99   31.58
  -2  18   1  474.54   28.69
  -2  18  -1  479.56   28.90
 -18  -2   1  464.23   30.20
 -18  -2  -1  438.18   28.38
  -2  18  -2  204.54   19.38
 -18  -2   2  253.41   22.47
 -18  -2  -2  246.19   21.15
  -2  18  -3   80.55   12.35
 -18  -2   3   80.99   12.63
  -2  18  -4   75.48   12.27
 -18  -2   4  102.20   14.16
  -2  18  -5   28.15    7.94
 -18  -2   5   28.12    8.04
 -18  -2   6   -1.37    2.55
  -2  18  -6   -0.43    4.30
  -2  18  -7    7.60    3.99
 -18  -2   7    3.57    2.31
  -2  18  -8   40.63    9.99
 -18  -2   8   28.94    9.31
  -3  18   0   -0.10    3.69
  -3  18   1   29.56    7.86
  -3  18  -1   34.46    8.11
  -3  18  -2    5.83    4.23
  -3  18  -3   -0.62    3.24
 -18  -3   3   -3.42    3.71
  -3  18  -4   12.64    6.83
 -18  -3   4   22.45    6.96
  -3  18  -5   19.54    6.75
 -18  -3   5   23.58    7.51
 -18  -3   6   14.68    5.11
  -3  18  -6   19.43    6.91
  -3  18  -7    3.33    2.89
 -18  -3   7   20.67    7.48
  -3  18  -8   15.72    7.33
 -18  -3   8   19.52    7.65
  -4  18   0   29.11    7.70
  -4  18   1   17.26    6.00
  -4  18  -1    7.42    4.28
  -4  18  -2   17.01    5.90
 -18  -4   3    0.50    2.13
  -4  18  -3    3.56    3.05
  -4  18  -4   -0.23    1.97
 -18  -4   4    4.52    3.20
  -4  18  -5   -1.72    3.97
 -18  -4   5    3.95    2.49
 -18  -4   6   -0.57    3.32
  -4  18  -6    2.55    4.31
  -4  18  -7   14.14    6.84
 -18  -4   7    7.08    5.35
  -4  18  -8    6.28    4.85
 -18  -4   8   -0.55    3.11
 -18  -5   0    7.85    5.46
  -5  18   0    4.33    3.66
 -18  -5  -1    5.11    2.89
 -18  -5   1   -0.54    2.89
  -5  18  -1    7.15    4.17
  -5  18   1   -1.15    1.97
  -5  18  -2   -1.13    3.20
 -18  -5  -2    1.50    2.77
 -18  -5   2    0.07    2.74
 -18  -5   3    7.88    4.43
  -5  18  -3    7.27    4.46
  -5  18  -4   11.29    4.96
 -18  -5   4   10.03    4.32
  -5  18  -5   17.93    5.93
 -18  -5   5   15.51    6.27
  -5  18  -6    3.54    4.26
 -18  -5   6    4.23    4.21
  -5  18  -7    3.34    4.13
 -18  -5   7   13.20    5.69
 -18  -5   8    5.82    6.06
  -6  18   0  353.05   25.57
 -18  -6   0  364.34   26.91
 -18  -6  -1  439.50   29.36
 -18  -6   1  435.23   29.55
  -6  18   1  415.65   27.82
  -6  18  -1  392.28   27.16
 -18  -6  -2  293.83   23.75
 -18  -6   2  329.53   26.13
  -6  18  -2  313.91   24.33
 -18  -6  -3  137.34   16.23
 -18  -6   3  130.15   16.66
  -6  18  -3  134.93   16.60
 -18  -6   4   32.73    8.10
  -6  18  -4   28.07    7.30
 -18  -6   5   -4.75    3.71
  -6  18  -5    2.17    2.08
 -18  -6   5   -0.17    2.34
  -6  18  -6   13.21    5.39
 -18  -6   6    4.37    3.27
  -6  18  -7   26.79    8.84
 -18  -6   7    2.68    4.09
 -18  -6   8    2.14    2.76
 -18  -7   0   -0.36    3.25
  -7  18   0    3.84    2.69
 -18  -7  -1   18.12    6.22
 -18  -7   1   19.59    7.16
  -7  18   1    8.38    3.91
  -7  18  -1   24.20    7.10
  -7  18  -2   59.61   10.69
 -18  -7  -2   49.17    9.79
 -18  -7   2   68.88   12.34
 -18  -7  -3   10.33    4.21
 -18  -7   3   14.60    5.43
  -7  18  -3   12.32    5.39
 -18  -7  -4   39.92    8.70
 -18  -7   4   40.76    9.88
  -7  18  -4   57.02   11.08
 -18  -7   5   17.96    6.71
 -18  -7   5   23.77    7.75
  -7  18  -5   20.64    6.93
  -7  18  -6   62.79   12.26
 -18  -7   6   66.00   12.62
 -18  -7   6   63.68   11.68
 -18  -7   7   52.24   11.16
  -7  18  -7   52.60   11.24
 -18  -7   8   18.70    7.52
 -18  -8   0  526.80   33.02
  -8  18   0  537.35   31.94
 -18  -8  -1  487.26   31.34
 -18  -8   1  462.93   31.06
  -8  18  -1  461.94   29.88
 -18  -8  -2  366.77   27.07
 -18  -8   2  360.84   27.69
  -8  18  -2  393.57   27.65
 -18  -8  -3  244.48   22.01
 -18  -8   3  196.08   21.05
  -8  18  -3  220.15   21.23
 -18  -8  -4   55.13   10.52
 -18  -8   4   34.10    8.75
  -8  18  -4   53.47   10.52
 -18  -8  -5    3.26    3.71
 -18  -8   5    2.90    3.12
  -8  18  -5   10.83    5.59
  -8  18  -6   -0.06    2.79
 -18  -8   6   -2.22    3.18
 -18  -8   6   -1.36    2.86
  -8  18  -7   15.63    7.36
 -18  -8   7    8.49    5.05
 -18  -8   7    6.37    4.99
 -18  -8   8   34.50    9.45
 -18  -9   0    3.08    3.33
  -9  18   0    1.52    3.45
  -9  18  -1    9.23    4.88
 -18  -9  -1   -3.96    3.14
 -18  -9   1    2.45    4.59
 -18  -9  -2   12.57    5.94
 -18  -9   2    9.20    4.53
  -9  18  -2   25.14    7.19
  -9  18  -3   72.93   12.32
 -18  -9  -3   62.18   11.27
 -18  -9   3   56.01   11.28
  -9  18   3   64.94   10.56
 -18  -9  -4   71.34   12.11
 -18  -9   4   72.63   13.17
  -9  18  -4   63.76   11.72
 -18  -9  -5  103.75   14.36
 -18  -9   5   91.53   14.79
  -9  18  -5  105.38   15.39
 -18  -9   6  107.76   16.09
  -9  18  -6  127.57   17.50
  -9  18  -7   63.26   12.63
 -18  -9   7   57.53   11.97
 -18  -9   7   55.39   11.66
 -18  -9   8   39.66    9.89
 -18 -10   0   28.96    8.97
 -10  18   0   16.10    5.82
 -10  18  -1   26.59    6.93
 -18 -10  -1   25.86    7.79
 -18 -10   1   33.98    9.15
 -18 -10  -2    7.77    5.10
 -18 -10   2   15.78    6.66
 -10  18  -2   13.37    5.72
 -10  18  -3   20.56    7.06
 -18 -10  -3   34.82    8.99
 -18 -10   3   25.16    7.78
 -10  18   3   28.48    7.26
 -18 -10  -4   16.66    6.98
 -18 -10   4   21.26    7.61
 -10  18   4   15.54    6.12
 -10  18  -4   10.20    5.11
 -18 -10  -5    3.04    2.47
 -18 -10   5    4.07    4.72
 -10  18  -5   -1.47    4.78
 -18 -10   6   -7.66    4.84
 -10  18  -6   -2.19    2.58
 -10  18  -7    1.49    2.43
 -18 -10   7    1.11    3.34
 -18 -10   8   -2.41    3.98
 -18 -10   8   -1.17    5.14
 -18 -11   0    2.33    3.66
 -11  18   0    0.01    2.87
 -18 -11  -1   -4.94    4.96
 -18 -11   1   -1.01    3.40
 -11  18  -1    4.01    3.40
 -18 -11  -2    1.29    2.56
 -18 -11   2    2.18    4.32
 -11  18  -2    5.45    2.29
 -11  18  -3   10.48    5.66
 -18 -11  -3    4.70    3.75
 -18 -11   3    9.42    4.44
 -18 -11  -4   -2.63    3.90
 -18 -11   4   -4.05    3.98
 -11  18   4   -1.08    2.90
 -11  18  -4    0.59    2.58
 -18 -11  -5   -2.88    4.75
 -18 -11   5    4.99    5.50
 -11  18   5    4.19    3.73
 -11  18  -5    1.84    3.47
 -18 -11   6    3.50    4.35
 -11  18  -6   -0.65    3.05
 -11  18   6    7.63    5.52
 -18 -11   7    8.46    4.79
 -11  18   7    0.46    2.87
 -18 -11   8   -1.98    3.96
 -18 -12   0   10.55    5.16
 -12  18   0    4.06    3.01
 -18 -12  -1   10.19    5.41
 -18 -12   1    0.74    4.70
 -12  18  -1   10.34    5.05
 -18 -12  -2   11.65    6.13
 -18 -12   2   12.15    6.88
 -12  18  -2   13.42    5.64
 -18 -12  -3   -3.88    4.89
 -18 -12   3    3.92    4.58
 -12  18  -3    1.23    2.43
 -12  18  -4   -3.52    3.27
 -18 -12  -4    0.01    3.29
 -18 -12   4    0.52    4.77
 -12  18   4    0.89    2.27
 -18 -12  -5    0.71    3.13
 -18 -12   5    7.05    5.58
 -12  18   5   -3.84    4.51
 -12  18  -5    1.84    2.74
 -18 -12   6   -1.94    4.91
 -12  18  -6    5.93    3.98
 -12  18   6    1.22    3.56
 -18 -12   7    6.80    6.07
 -18 -13   0   -2.98    4.74
 -18 -13  -1   23.45    8.04
 -18 -13   1   12.60    5.77
 -13  18  -1   12.14    5.02
 -13  18  -2  118.81   16.09
 -18 -13  -2  128.93   17.34
 -18 -13   2  161.49   19.71
 -18 -13  -3  189.17   20.84
 -18 -13   3  184.22   21.40
 -13  18  -3  169.79   19.30
 -13  18  -4  165.05   19.27
 -18 -13  -4  167.04   19.52
 -18 -13   4  140.20   19.15
 -13  18   4  178.85   19.62
 -18 -13  -5  179.26   20.20
 -18 -13   5  161.88   20.52
 -13  18   5  199.66   21.47
 -13  18  -5  191.29   21.11
 -13  18   6  199.94   22.68
 -13  18  -6  225.38   23.33
 -18 -14   0    2.03    3.30
 -14  18  -1   13.94    6.09
 -18 -14  -1   12.35    6.36
 -18 -14   1   12.14    6.05
 -18 -14  -2   34.11    9.18
 -18 -14   2   32.97    9.79
 -14  18  -2   24.51    7.34
 -18 -14  -3    0.35    3.88
 -18 -14   3   -1.11    3.80
 -14  18  -3   10.51    5.11
 -14  18  -4    2.13    2.50
 -18 -14  -4  -10.95    5.45
 -18 -14   4   -2.83    4.69
 -18 -14  -5    2.82    3.23
 -14  18   5   -0.69    2.83
 -14  18  -5    7.97    4.77
 -14  18   6    1.72    5.11
 -18 -15   0   -3.59    3.47
 -18 -15  -1   29.90    8.37
 -18 -15   1   36.56    9.74
 -15  18  -1   31.13    8.49
 -18 -15  -2  117.21   17.21
 -18 -15   2   87.54   15.14
 -15  18  -2   84.38   13.71
 -18 -15  -3  198.09   22.03
 -18 -15   3  182.30   22.06
 -15  18  -3  179.05   19.95
 -18 -15  -4  260.69   25.39
 -15  18  -4  222.87   22.70
 -18 -15  -5  210.47   22.86
 -15  18  -5  248.57   24.19
 -15  18   5  241.21   24.51
 -18 -16   0   47.99   11.07
 -18 -16  -1   51.92   11.81
 -18 -16  -2   25.20    7.94
 -16  18  -2   35.14    8.71
 -16  18  -3   19.85    7.01
 -18 -16  -3   14.01    6.14
 -18 -16  -4    3.11    4.50
 -16  18  -4   10.02    5.26
 -16  18  -5    2.78    4.10
 -18 -16  -5    2.44    4.44
 -17  18  -2   -1.30    4.18
 -17  18  -3    5.01    4.11
 -17  18  -4   24.98    8.98
 -15 -19   0   86.08   15.56
 -15 -19  -1   78.39   14.70
 -15 -19  -2   42.72   10.81
 -15 -19  -3   18.95    7.57
 -15 -19  -4   22.08    7.90
 -19  15   4   27.00    8.67
 -15 -19  -5   -1.10    3.68
 -14 -19   0   -1.08    3.61
 -14 -19   1   17.45    7.35
 -14 -19  -1   40.32   10.50
 -14 -19   2   66.33   13.26
 -14 -19  -2   51.99   12.23
 -14 -19  -3  104.25   16.14
 -19  14   3   86.06   13.98
 -14 -19  -4  156.46   19.70
 -19  14   4  153.87   19.61
 -14 -19  -5  166.26   20.03
 -13 -19   0    5.35    5.05
 -13 -19   1    4.83    3.79
 -13 -19  -1   -0.08    4.30
 -19  13   1    0.22    2.52
 -13 -19   2   -4.51    4.70
 -13 -19  -2   -9.32    5.25
 -19  13   2   -2.52    2.53
 -13 -19   3    2.03    2.83
 -13 -19  -3   -3.03    3.89
 -19  13   3    0.97    4.58
 -13 -19   4   -2.49    4.83
 -13 -19  -4    1.76    3.19
 -19  13   4   -3.07    4.35
 -13 -19  -5    2.80    3.14
 -19  13   5    4.81    5.21
 -12 -19   0    8.32    6.82
 -12 -19   1   -3.68    3.72
 -12 -19  -1    1.56    4.07
 -19  12   1    1.42    2.71
 -12 -19   2    0.75    2.36
 -12 -19  -2    1.29    3.69
 -19  12   2    4.60    4.65
 -12 -19   3    0.25    3.41
 -19  12   3   -2.04    2.62
 -12 -19   4    2.16    4.33
 -12 -19  -4   -0.10    3.24
 -19  12   4    4.62    5.05
 -12 -19   5    6.86    4.74
 -12 -19  -5    7.22    5.61
 -19  12   5   -1.53    4.07
 -11 -19   0   34.15   10.02
 -19  11   0   32.02    7.74
 -11 -19   1   24.88    8.15
 -11 -19  -1   35.87    9.56
 -19  11   1   22.78    6.96
 -11 -19   2   16.65    6.71
 -11 -19  -2   34.01   10.01
 -19  11   2   31.60    7.82
 -11 -19   3   19.35    8.18
 -11 -19  -3   20.25    7.17
 -19  11   3   24.90    7.65
 -11 -19   4    3.57    3.51
 -11 -19  -4    9.09    5.14
 -19  11   4   -0.46    2.56
 -11 -19   5    0.52    3.46
 -19  11   5   -3.27    4.21
 -19  11   6   -3.29    4.22
 -11 -19   6    6.20    5.06
 -19  11   7   -5.47    4.62
 -10 -19   0    2.63    4.80
 -19  10   0    0.59    2.34
 -10 -19   1   33.66    9.08
 -10 -19  -1   15.86    6.13
 -19  10   1   26.56    7.29
  10  19  -2   38.20    7.99
 -10 -19   2   46.82   10.88
 -10 -19  -2   40.97   10.02
 -19  10   2   44.57    9.87
 -10 -19   3  101.38   15.53
 -10 -19  -3   80.55   13.30
  10  19  -3   77.64   11.68
 -19  10   3   82.64   13.43
  10  19  -4  140.62   16.18
 -10 -19   4  172.75   20.18
 -10 -19  -4  164.83   19.10
 -19  10   4  138.58   18.13
  10  19  -5  121.28   15.73
 -10 -19   5  169.96   20.33
 -10 -19  -5  148.47   17.99
 -19  10   5  155.96   19.72
 -19  10   6  111.52   17.57
 -10 -19   6  152.23   19.58
 -19  10   6  157.91   20.82
  10  19  -6  132.68   16.87
 -19  10   7   92.03   16.08
 -10 -19   7  125.85   17.75
  10  19  -7   97.55   14.95
  -9 -19   0  314.02   26.19
   9  19   0  346.18   23.04
 -19   9   0  321.29   23.93
  -9 -19   1  331.78   27.14
  -9 -19  -1  308.05   25.74
 -19   9   1  319.26   24.41
   9  19  -1  326.76   22.70
  -9 -19   2  240.02   23.26
  -9 -19  -2  248.06   23.43
 -19   9   2  243.06   22.37
   9  19  -2  261.74   20.84
  -9 -19   3   93.18   14.97
  -9 -19  -3   69.27   12.24
   9  19  -3   90.87   12.84
 -19   9   3   84.71   13.63
   9  19  -4   33.03    8.14
  -9 -19   4   31.14    8.85
  -9 -19  -4   18.42    6.78
 -19   9   4   27.55    8.14
   9  19  -5   -0.17    3.80
 -19   9   5   11.22    6.14
  -9 -19   5   13.08    6.63
  -9 -19  -5    4.95    2.46
 -19   9   5   16.35    7.70
 -19   9   6   -1.17    3.37
  -9 -19   6   -1.52    2.26
  -9 -19  -6    0.13    2.86
 -19   9   6    0.41    3.58
   9  19  -6    0.20    2.44
 -19   9   7    1.00    3.32
  -9 -19   7    5.85    4.29
   9  19  -7   -1.35    3.54
 -19   9   8   16.31    8.01
   8  19   0    0.56    2.71
 -19   8   0   -0.04    2.66
   8  19  -1    6.79    3.05
 -19   8   1    9.16    5.06
   8  19  -2   42.68    8.64
 -19   8   2   56.36   10.76
  -8 -19   3   59.91   11.62
   8  19  -3   66.07   11.14
 -19   8   3   54.36   11.03
 -19   8   4   98.31   15.74
   8  19  -4   84.19   12.63
  -8 -19   4  100.80   15.13
 -19   8   4   83.79   13.71
   8  19  -5   67.17   11.97
 -19   8   5   89.34   15.34
  -8 -19   5   70.54   12.73
  -8 -19  -5   65.31   11.83
 -19   8   5   73.79   13.52
 -19   8   6  105.30   16.55
  -8 -19   6  113.44   16.18
  -8 -19  -6  112.22   14.89
 -19   8   6   88.51   15.69
   8  19  -6  111.65   15.85
 -19   8   7   72.97   14.18
  -8 -19   7   73.49   13.15
   8  19  -7   71.97   13.16
 -19   8   8   28.66    9.12
 -19   7   0  232.30   20.30
   7  19   0  238.37   19.58
   7  19  -1  193.82   17.83
 -19   7   1  162.25   17.38
   7  19  -2  175.80   17.41
 -19   7   2  154.40   17.49
 -19   7   3   75.38   13.83
   7  19  -3   96.89   13.32
 -19   7   3   87.30   13.90
 -19   7   4    5.68    3.55
   7  19  -4   19.63    6.36
 -19   7   4    6.91    4.19
   7  19  -5    2.86    3.39
 -19   7   5   -1.68    3.55
  -7 -19   5    1.08    2.25
 -19   7   5   -0.31    4.15
 -19   7   6    1.15    3.85
  -7 -19   6    5.25    5.02
 -19   7   6   -1.21    2.87
   7  19  -6   -4.17    3.34
 -19   7   7   13.27    7.29
  -7 -19   7    4.43    4.19
   7  19  -7   11.19    5.69
 -19   7   8    8.96    5.03
   6  19   0   -1.17    2.10
 -19   6   1    2.01    3.14
   6  19   1    0.66    2.64
   6  19  -1    1.20    3.34
 -19   6   1    2.97    4.38
 -19   6   2    8.81    5.19
 -19   6   2   22.66    6.57
   6  19  -2   15.47    5.80
 -19   6   3    8.30    5.12
   6  19  -3    8.30    4.48
 -19   6   3    7.76    3.99
 -19   6   4    1.23    4.04
 -19   6  -4   -0.50    3.18
   6  19  -4    5.41    4.36
 -19   6   4   -1.01    2.79
   6  19  -5    2.97    3.29
 -19   6   5    8.59    5.35
 -19   6  -5   -1.46    3.37
 -19   6   5   -2.25    2.14
 -19   6   6    7.43    6.15
  -6 -19   6    1.27    3.06
 -19   6   6    9.10    5.19
   6  19  -6   13.47    5.47
 -19   6   7    1.36    3.92
  -6 -19   7    3.67    2.27
   6  19  -7    0.69    4.11
 -19   6   7    0.94    2.87
 -19   6   8    2.25    2.92
 -19   5   0   19.09    7.15
   5  19   0   15.74    5.68
 -19   5   1   29.50    8.43
 -19   5  -1   41.08    9.90
   5  19  -1   22.66    6.64
   5  19   1   30.41    7.48
 -19   5   1   31.78    7.84
 -19   5   2   23.94    7.32
 -19   5  -2   30.17    8.69
 -19   5   2   35.26    8.62
   5  19  -2   19.39    6.55
 -19   5   3   19.98    7.29
 -19   5  -3   12.91    5.92
   5  19  -3    5.54    3.55
 -19   5   3   12.84    5.46
 -19   5   4    2.04    2.72
 -19   5  -4    4.16    3.47
   5  19  -4    6.07    3.96
 -19   5   4    1.05    3.04
   5  19  -5    3.87    4.02
 -19   5  -5   -3.48    3.13
 -19   5   5    3.76    4.26
 -19   5   6    5.55    4.91
 -19   5   6   -4.02    4.33
   5  19  -6    7.59    5.58
 -19   5   7    3.89    4.24
  -5 -19   7    8.97    4.39
   5  19  -7    0.83    2.85
 -19   5   7    8.06    4.24
 -19   5   8   10.37    5.90
 -19   4   0   -2.07    3.21
   4  19   0   -0.44    2.73
 -19   4   1    1.42    3.18
 -19   4  -1    0.85    3.13
   4  19  -1    0.07    2.39
   4  19   1    0.02    3.25
 -19   4   1    3.72    3.03
 -19   4   2    3.88    3.34
 -19   4  -2    2.59    2.05
   4  19  -2    0.20    2.46
 -19   4   2    1.68    2.99
 -19   4   3   19.70    6.67
 -19   4  -3    3.78    2.81
   4  19  -3   17.12    5.52
 -19   4   3    8.83    5.46
 -19   4   4   -0.02    3.71
 -19   4  -4   -1.41    2.19
   4  19  -4    5.56    3.81
 -19   4   4    2.57    3.52
   4  19  -5    6.02    4.51
 -19   4   5    0.74    2.75
 -19   4  -5   12.73    5.50
 -19   4   5   12.36    4.66
 -19   4   6   12.35    5.89
 -19   4   6    8.54    5.55
   4  19  -6    8.79    5.51
 -19   4   7   12.01    5.38
   4  19  -7   11.35    5.67
 -19   4   7   13.44    6.55
 -19   4   8    3.42    2.28
 -19   3   0  258.10   23.33
   3  19   0  290.86   22.37
 -19   3   1  385.71   28.88
 -19   3  -1  358.78   27.10
   3  19   1  383.92   25.56
 -19   3   1  383.32   26.93
   3  19  -1  386.37   25.91
 -19   3   2  383.73   29.06
 -19   3  -2  395.69   28.15
   3  19  -2  408.96   27.12
 -19   3   2  433.66   29.01
 -19   3   3  171.51   19.82
 -19   3  -3  182.93   19.17
   3  19  -3  219.65   20.30
 -19   3   3  171.15   18.67
 -19   3   4   30.64    8.84
 -19   3  -4   32.26    7.85
   3  19  -4   43.58    9.39
 -19   3   4   38.70    8.99
 -19   3   5   -3.11    4.73
   3  19  -5   -3.04    4.06
 -19   3  -5   -0.28    3.41
 -19   3   5   -0.73    2.88
 -19   3   6    5.76    4.31
 -19   3   6    1.58    3.69
   3  19  -6   -2.67    2.49
 -19   3   7    2.10    2.68
   3  19  -7   -7.79    4.72
 -19   3   7   -4.74    4.05
 -19   3   8   19.96    7.60
 -19   2   0    0.97    3.28
   2  19   0    0.69    4.31
 -19   2   1   22.99    7.06
 -19   2   1   21.98    7.17
 -19   2  -1   26.26    7.51
   2  19   1   28.01    7.24
   2  19  -1   19.33    5.58
 -19   2   2   66.49   11.86
 -19   2  -2   52.33   10.45
   2  19  -2   68.31   11.24
 -19   2   2   64.55   11.08
 -19   2   3   95.27   14.50
 -19   2  -3   63.48   10.98
   2  19  -3   81.15   12.55
 -19   2   3   78.39   12.99
 -19   2   4  129.19   17.18
 -19   2  -4  123.94   15.31
   2  19  -4  107.16   14.70
 -19   2   4  127.36   16.55
 -19   2   5  119.49   16.80
 -19   2  -5  166.17   17.57
   2  19  -5  153.30   18.00
 -19   2   5  148.28   18.48
 -19   2   6  133.38   17.90
 -19   2   6  135.69   18.38
   2  19  -6  157.29   18.87
   2  19  -7   93.47   14.98
 -19   2   7  114.41   17.47
 -19   2   7   82.82   14.21
 -19   1   0  173.32   18.93
   1  19   0  212.63   19.21
 -19   1   1  227.64   21.85
 -19   1  -1  189.76   19.38
   1  19   1  230.93   20.24
   1  19  -1  233.79   20.45
 -19   1   2  204.35   20.94
 -19   1  -2  204.48   20.12
   1  19  -2  229.48   20.62
 -19   1   2  181.85   18.83
 -19   1   3   73.55   12.70
 -19   1  -3   57.23   10.23
   1  19  -3   76.38   12.46
 -19   1   3   79.95   12.79
 -19   1   4   28.67    7.93
 -19   1  -4   23.23    6.76
   1  19  -4   18.65    6.34
 -19   1   4   27.52    8.22
 -19   1   5   10.33    5.41
 -19   1  -5    2.50    3.19
   1  19  -5    6.70    3.25
 -19   1   5   -0.31    3.20
 -19   1   6   12.57    6.59
 -19   1   6    3.06    4.04
   1  19  -6    5.78    5.04
   1  19  -7   -1.49    4.43
 -19   1   7   -3.24    4.14
 -19   0   0    0.89    2.32
   0  19   0    6.54    4.86
 -19   0   1   15.55    6.21
 -19   0  -1    9.21    5.80
   0  19   1   14.39    5.56
   0  19  -1    8.11    5.27
 -19   0   2   58.94   11.43
 -19   0  -2   40.75    9.09
   0  19  -2   63.85   11.49
 -19   0   2   50.34    9.78
 -19   0   3   34.49    9.05
 -19   0  -3   40.38    8.75
   0  19  -3   46.44    9.53
 -19   0   3   36.54    8.61
 -19   0   4   38.02    9.23
 -19   0  -4   30.84    7.90
   0  19  -4   33.50    8.32
 -19   0   4   37.07    9.39
 -19   0  -5   72.97   11.34
   0  19  -5   67.61   12.07
 -19   0   5   63.40   12.30
 -19   0   5   71.91   12.98
 -19   0   6  109.88   16.25
   0  19  -6  116.32   16.37
   0  19  -7   62.80   12.68
 -19   0   7   80.71   14.84
 -19  -1   0    3.14    3.24
  -1  19   0    9.33    3.95
 -19  -1   1    2.89    3.67
 -19  -1  -1    8.78    4.14
  -1  19   1    4.64    4.12
  -1  19  -1    4.99    3.39
 -19  -1   2   13.26    5.01
 -19  -1   2   22.58    7.32
 -19  -1  -2    2.94    2.44
  -1  19  -2   13.83    5.53
 -19  -1   3   21.06    7.45
 -19  -1  -3   22.21    7.06
  -1  19  -3   20.06    6.38
 -19  -1   3   13.57    5.43
  -1  19  -4    2.48    2.61
 -19  -1   4   13.11    5.46
 -19  -1   4   10.72    6.36
 -19  -1  -4   10.14    4.88
  -1  19  -5    5.72    4.88
 -19  -1   5    1.13    3.09
 -19  -1   6    3.45    3.74
  -1  19  -6    0.02    2.18
  -1  19  -7   11.30    5.46
 -19  -1   7    2.61    2.99
 -19  -1   8    5.21    4.59
  -2  19   0    8.88    5.17
 -19  -2   0    4.27    4.87
  -2  19   1    4.93    3.73
  -2  19  -1    5.24    4.43
 -19  -2   1    4.03    4.25
 -19  -2  -1    2.64    4.06
  -2  19  -2   19.73    6.38
 -19  -2  -2   11.24    4.34
  -2  19  -3   18.17    6.19
 -19  -2   3   23.14    7.34
  -2  19  -4   22.68    7.70
 -19  -2   4   12.40    6.69
  -2  19  -5   21.93    6.98
 -19  -2   5   19.54    6.55
 -19  -2   6   12.82    5.13
  -2  19  -6    2.04    2.74
  -2  19  -7   34.51    9.64
 -19  -2   7   27.60    8.45
 -19  -2   8   14.44    6.92
  -3  19   0    4.83    3.46
  -3  19  -1    3.43    3.64
  -3  19   1    0.48    3.12
  -3  19  -2    4.88    3.97
  -3  19  -3   11.30    4.94
 -19  -3   3    6.06    4.08
  -3  19  -4    8.99    4.66
 -19  -3   4    0.20    2.56
  -3  19  -5   -0.39    4.13
 -19  -3   5    3.87    3.55
  -3  19  -6    3.07    4.56
 -19  -3   6    4.65    4.30
 -19  -3   7    7.92    4.22
  -3  19  -7    4.97    4.17
 -19  -3   8    8.30    5.20
  -4  19   0    2.17    4.02
  -4  19   1   37.93    8.80
  -4  19  -1   42.95    8.96
  -4  19  -2  136.67   16.42
  -4  19  -3  192.60   19.75
  -4  19  -4  267.71   23.80
 -19  -4   4  291.32   25.10
  -4  19  -5  273.68   24.68
 -19  -4   5  292.97   25.78
  -4  19  -6  319.07   27.27
 -19  -4   6  277.74   25.72
 -19  -4   7  224.32   23.59
  -4  19  -7  267.01   25.81
 -19  -4   8   84.29   15.08
  -5  19   0   45.00    9.68
  -5  19  -1   59.22   10.65
  -5  19   1   63.29   11.41
  -5  19  -2   47.65    9.43
  -5  19  -3   42.45    9.96
  -5  19  -4   53.18   10.80
 -19  -5   4   46.24   10.18
  -5  19  -5   16.14    6.43
 -19  -5   5   18.93    6.84
  -5  19  -6    3.11    3.98
 -19  -5   6   -1.03    2.46
 -19  -5   7    1.93    2.78
  -5  19  -7   13.05    5.89
 -19  -5   8   14.15    6.71
 -19  -6   0    4.11    4.09
  -6  19   0    0.19    2.03
 -19  -6  -1   14.63    5.48
 -19  -6   1   30.33    8.66
  -6  19   1   27.62    8.17
  -6  19  -1   29.95    7.88
 -19  -6  -2   66.07   11.82
 -19  -6   2   44.26   10.18
  -6  19  -2   44.68    9.60
 -19  -6   3  106.97   15.52
  -6  19  -3  121.51   15.86
 -19  -6   4  117.92   16.29
  -6  19  -4  140.32   17.41
  -6  19  -5  132.83   17.32
 -19  -6   5  103.88   15.35
  -6  19  -6  110.40   16.15
 -19  -6   6  117.95   17.38
  -6  19  -7   72.61   13.47
 -19  -6   7   60.76   12.28
 -19  -6   8   46.00   11.39
 -19  -7   0   49.48   10.66
  -7  19   0   48.34    9.42
 -19  -7  -1   16.41    6.56
 -19  -7   1   27.65    8.17
  -7  19  -1   15.23    6.01
 -19  -7  -2   11.34    4.94
 -19  -7   2   30.05    8.87
  -7  19  -2   39.30    9.24
 -19  -7  -3   11.42    5.08
 -19  -7   3   20.07    7.16
  -7  19  -3   15.37    6.00
 -19  -7   4   10.88    5.21
  -7  19  -4   10.64    6.12
 -19  -7   5   -0.35    2.73
  -7  19  -5   10.77    6.00
  -7  19  -6    8.96    6.00
 -19  -7   6   -1.52    2.62
 -19  -7   7   11.61    5.62
 -19  -7   8    7.11    6.35
 -19  -8   0    1.52    2.90
  -8  19   0    4.86    5.23
  -8  19  -1    2.08    2.32
 -19  -8  -1    0.55    2.51
 -19  -8   1    2.71    3.56
 -19  -8  -2    2.43    3.36
 -19  -8   2   -1.56    3.60
  -8  19  -2    0.34    2.21
  -8  19  -3    0.94    2.35
 -19  -8  -3    3.03    2.45
 -19  -8   3   -2.03    2.48
 -19  -8  -4   -0.72    2.31
 -19  -8   4   -0.07    2.81
  -8  19  -4    1.81    4.26
 -19  -8   5  -17.87    6.88
  -8  19  -5    3.24    3.28
 -19  -8   6    0.84    2.83
  -8  19  -6   -2.05    2.62
 -19  -8   7    5.67    2.12
 -19  -8   8   -1.25    2.74
 -19  -9   0  216.10   22.17
  -9  19   0  187.21   19.72
  -9  19  -1  178.94   19.32
 -19  -9  -1  169.03   19.42
 -19  -9   1  179.57   20.36
 -19  -9  -2   73.10   12.73
 -19  -9   2   77.38   13.49
  -9  19  -2   92.70   14.10
  -9  19  -3   32.19    8.37
 -19  -9  -3   28.69    7.67
 -19  -9   3   29.87    8.20
 -19  -9  -4   29.51    8.07
 -19  -9   4   22.57    7.22
  -9  19  -4   22.32    7.34
 -19  -9  -5   20.61    6.86
 -19  -9   5   20.52    8.21
  -9  19  -5   27.39    8.32
 -19  -9   6   -4.22    3.94
  -9  19  -6    6.73    3.72
 -19  -9   7   -0.01    3.03
 -19 -10   0    0.03    2.30
 -10  19   0   -1.04    2.98
 -19 -10  -1    5.61    4.16
 -19 -10   1   -3.70    3.77
 -10  19  -1    9.38    5.20
 -19 -10  -2    4.21    3.90
 -19 -10   2    6.71    4.44
 -10  19  -2    2.80    3.83
 -10  19  -3    1.75    2.18
 -19 -10  -3    2.57    4.53
 -19 -10   3   -0.27    3.17
 -19 -10  -4    2.42    3.71
 -19 -10   4    3.78    5.61
 -10  19   4    6.20    3.28
 -10  19  -4    1.28    3.20
 -19 -10  -5    5.21    3.04
 -19 -10   5   -0.29    2.54
 -10  19  -5    0.60    2.14
 -19 -10   6   12.83    6.69
 -10  19  -6    9.83    5.17
 -19 -10   7    3.61    4.84
 -19 -11   0  483.59   33.85
 -11  19   0  484.14   32.27
 -11  19  -1  512.18   33.18
 -19 -11  -1  521.62   34.87
 -19 -11   1  481.26   33.93
 -19 -11  -2  423.93   31.42
 -19 -11   2  427.60   32.25
 -11  19  -2  448.40   31.20
 -19 -11  -3  189.90   20.99
 -19 -11   3  167.83   20.49
 -11  19  -3  165.66   19.06
 -19 -11  -4   75.51   13.12
 -19 -11   4   63.14   12.80
 -11  19  -4   91.20   14.31
 -19 -11  -5   30.72    7.81
 -19 -11   5   21.95    7.81
 -11  19   5   26.80    8.34
 -11  19  -5   23.41    8.02
 -19 -11   6   -6.58    4.85
 -11  19   6    2.89    3.85
 -19 -12   0   -0.93    3.12
 -12  19  -1    3.03    2.11
 -19 -12  -1    6.48    3.69
 -19 -12   1    5.45    4.96
 -19 -12  -2   -5.36    3.34
 -19 -12   2    1.33    2.56
 -19 -12  -3   30.64    8.87
 -19 -12   3   21.53    6.44
 -12  19  -3   22.70    7.73
 -12  19  -4   29.03    8.16
 -19 -12  -4   24.38    7.91
 -19 -12   4   19.10    7.87
 -19 -12  -5   12.39    6.98
 -19 -12   5    5.63    4.06
 -12  19   5   12.08    5.86
 -12  19  -5   17.35    7.10
 -12  19   6    9.24    6.11
 -19 -13   0  209.75   23.34
 -19 -13  -1  190.86   21.74
 -19 -13   1  186.11   21.95
 -13  19  -1  202.78   21.06
 -13  19  -2  135.09   17.43
 -19 -13  -2  127.95   17.72
 -19 -13   2  122.71   17.59
 -19 -13  -3   98.77   15.42
 -19 -13   3   99.54   16.17
 -13  19  -3  111.85   16.17
 -13  19  -4   60.60   11.69
 -19 -13  -4   33.28    9.02
 -19 -13   4   56.07   12.71
 -19 -13  -5   23.58    7.65
 -13  19  -5    7.66    4.30
 -13  19   6    7.51    6.64
 -19 -14   0   -1.47    4.03
 -19 -14  -1   -0.08    4.11
 -19 -14   1   -0.05    3.28
 -14  19  -1   -0.39    2.64
 -19 -14  -2   22.43    8.36
 -19 -14   2   20.07    8.54
 -14  19  -2   18.93    6.34
 -19 -14  -3   10.49    5.05
 -14  19  -3   25.15    7.58
 -19 -14  -4    8.03    4.83
 -14  19  -4   10.73    5.37
 -19 -14  -5    8.30    5.70
 -19 -15   0   14.90    8.49
 -15  19  -1    1.13    2.46
 -19 -15  -1    4.12    3.52
 -15  19  -2   -1.40    3.86
 -19 -15  -2    1.03    4.32
 -15  19  -3    0.87    2.30
 -19 -15  -3   -1.93    5.59
 -19 -15  -4   -8.12    6.36
 -15  19  -4    3.20    2.47
 -19 -15  -5   -1.59    4.09
 -16  19  -2    9.50    4.12
 -16  19  -3   40.48    9.76
 -17  19  -2   25.52    8.06
 -14 -20  -2   73.38   14.27
 -14 -20  -3   51.18   11.53
 -20  14   3   50.59   10.79
 -14 -20  -4   12.05    5.95
 -20  14   4   29.06    9.01
 -14 -20  -5    1.00    3.42
 -13 -20   0   -0.57    4.02
 -13 -20   1   10.21    4.96
 -13 -20  -1    2.78    3.92
 -13 -20  -2   21.07    7.88
 -20  13   2   30.75    9.06
 -13 -20  -3   42.20   10.30
 -20  13   3   49.40   10.90
 -13 -20  -4   16.82    6.18
 -20  13   4   26.25    8.46
 -13 -20  -5   34.30    9.63
 -12 -20   0  364.38   30.50
 -12 -20   1  232.19   24.61
 -12 -20  -1  267.45   26.24
 -20  12   1  234.48   21.77
 -12 -20   2  148.66   19.85
 -12 -20  -2  175.27   20.93
 -20  12   2  143.25   17.68
 -12 -20   3  140.55   19.34
 -12 -20  -3  130.23   18.01
 -20  12   3  121.71   16.67
 -12 -20  -4   67.19   12.80
 -20  12   4   80.78   14.63
 -12 -20  -5    4.82    3.84
 -11 -20   0    0.79    3.54
 -20  11   0   -4.91    4.55
 -11 -20   1   49.73   11.35
 -11 -20  -1   54.58   11.67
 -20  11   1   39.74    8.99
 -11 -20   2   87.75   15.06
 -11 -20  -2   79.93   14.16
 -20  11   2   74.96   12.47
 -11 -20   3  179.69   21.64
 -11 -20  -3  119.65   17.17
 -20  11   3  101.85   15.63
 -11 -20   4  222.79   24.01
 -11 -20  -4  183.95   21.01
 -20  11   4  180.58   20.93
 -11 -20  -5  140.11   18.13
 -20  11   5  169.40   21.10
 -10 -20   0   70.50   13.11
 -20  10   0   52.11    9.87
 -10 -20   1   34.81    9.44
 -10 -20  -1   44.78   10.58
 -20  10   1   55.54   10.66
 -10 -20   2   36.24    9.69
 -10 -20  -2   47.67   10.80
 -20  10   2   28.16    7.94
 -10 -20   3    4.29    4.59
 -10 -20  -3    7.44    3.77
 -20  10   3   14.12    6.28
 -10 -20  -4   -1.12    3.10
 -20  10   4    2.74    2.38
 -20  10   5    5.42    5.24
 -10 -20   5    4.57    4.78
 -10 -20  -5   -1.18    3.66
 -20  10   5    0.57    3.28
 -20  10   6    1.70    3.27
 -10 -20   6    5.30    4.37
  -9 -20   0   -2.06    4.78
   9  20   0    0.35    2.09
  -9 -20   1    0.37    3.21
  -9 -20  -1    0.54    3.44
 -20   9   1    1.54    4.77
   9  20  -1    9.04    4.30
   9  20  -2    0.84    2.35
  -9 -20   2   14.08    5.99
  -9 -20  -2   14.73    5.98
 -20   9   2    0.89    3.22
  -9 -20   3   30.79    9.62
  -9 -20  -3   12.55    6.03
   9  20  -3   21.81    7.26
 -20   9   3   18.32    7.06
 -20   9   4   40.19   10.63
  -9 -20   4   46.63   10.63
  -9 -20  -4   30.83    8.61
   9  20  -4   27.81    7.65
 -20   9   4   23.71    7.99
 -20   9   5   16.86    7.33
   9  20  -5   12.45    5.56
  -9 -20   5   22.11    8.00
  -9 -20  -5   25.33    7.90
 -20   9   5   15.87    6.59
   9  20  -6   10.45    4.78
 -20   9   6   14.47    7.55
  -9 -20   6    8.68    5.17
  -9 -20   7   16.62    6.76
   9  20  -7   21.82    7.47
   8  20   0   34.99    7.81
   8  20  -1   10.04    4.96
 -20   8   1    8.17    4.98
   8  20  -2    0.67    2.20
 -20   8   2    9.83    5.99
 -20   8   3    3.44    2.79
  -8 -20   3    0.15    3.47
   8  20  -3   -7.65    4.15
 -20   8   3   -0.51    3.51
 -20   8   4    6.38    4.10
  -8 -20   4    3.55    4.31
   8  20  -4    9.86    4.80
 -20   8   4    0.31    3.57
 -20   8   5    4.64    4.98
   8  20  -5   18.72    6.82
  -8 -20   5   10.87    5.31
  -8 -20  -5    3.99    2.55
 -20   8   5    7.81    5.50
   8  20  -6    4.66    5.65
 -20   8   6    1.43    5.12
  -8 -20   6   -2.06    3.65
  -8 -20  -6    2.02    3.84
 -20   8   7    5.53    4.65
  -8 -20   7    8.40    5.42
   8  20  -7   10.60    5.33
   7  20   0    0.95    2.44
 -20   7   1    9.07    5.48
   7  20  -1    8.53    4.72
 -20   7   1   19.20    6.31
 -20   7   2   29.99    9.25
   7  20  -2   47.24    9.42
 -20   7   2   38.79    9.25
 -20   7   3   73.84   14.07
   7  20  -3   82.78   12.77
 -20   7   3   88.37   14.06
 -20   7   4   81.06   14.92
 -20   7  -4   72.47   12.94
   7  20  -4   93.16   14.05
 -20   7   4   65.56   12.49
 -20   7   5   76.64   14.85
 -20   7  -5  111.28   15.77
   7  20  -5   79.25   13.17
  -7 -20   5  115.12   16.54
 -20   7   5  110.03   16.86
   7  20  -6  129.12   17.21
 -20   7   6  115.23   17.76
  -7 -20   6  119.96   17.23
 -20   7   6  150.74   20.43
 -20   7   7   78.95   15.00
  -7 -20   7   92.72   15.12
   7  20  -7   69.80   12.97
 -20   6   0   10.31    5.61
   6  20   0   15.37    5.76
 -20   6   1   21.45    7.37
 -20   6  -1   19.03    8.08
   6  20  -1   15.28    5.53
 -20   6   1   18.47    5.53
   6  20  -2   36.40    8.30
 -20   6   2   28.51    8.71
 -20   6  -2   14.37    6.51
 -20   6   2   21.07    7.00
 -20   6   3   21.11    8.48
 -20   6  -3   16.96    6.47
   6  20  -3    2.99    3.51
 -20   6   3   20.26    7.37
 -20   6   4    1.64    2.90
 -20   6  -4    1.29    2.53
 -20   6   4    1.05    4.31
 -20   6   5    4.92    4.41
 -20   6  -5    5.83    3.84
   6  20  -5    3.90    3.06
 -20   6   5    8.71    5.71
   6  20  -6    0.06    3.10
 -20   6   6   -2.59    3.62
  -6 -20   6    0.06    3.48
 -20   6   6    0.30    4.98
 -20   6   7   -3.07    4.89
  -6 -20   7    2.52    4.38
   6  20  -7    4.75    3.08
 -20   6   8   -2.76    4.56
 -20   5   0   -1.22    3.01
   5  20   0    0.17    1.98
 -20   5   1   13.97    6.55
 -20   5  -1   11.85    5.69
   5  20  -1   21.48    6.90
 -20   5   1   23.32    7.49
   5  20  -2  105.90   14.17
 -20   5   2   84.26   14.59
 -20   5  -2   84.55   13.91
 -20   5   2  104.52   14.80
 -20   5   3  184.94   21.58
 -20   5  -3  179.29   20.04
   5  20  -3  226.29   21.08
 -20   5   3  192.19   20.54
 -20   5   4  294.03   26.99
 -20   5  -4  342.26   27.21
   5  20  -4  278.78   23.86
 -20   5   4  318.18   27.30
 -20   5  -5  249.39   22.95
 -20   5   5  235.45   24.61
   5  20  -5  258.27   23.62
 -20   5   5  280.48   26.32
 -20   5   6  247.09   25.35
 -20   5   6  215.74   23.85
   5  20  -6  284.00   25.69
 -20   5   7  236.39   25.18
  -5 -20   7  245.63   23.64
   5  20  -7  236.46   24.13
 -20   5   8  168.07   21.25
 -20   4   0   37.74    9.65
   4  20   0   55.06   10.03
 -20   4   1   87.14   14.40
 -20   4  -1   79.31   13.63
   4  20  -1   87.66   12.94
 -20   4   1   60.55   11.06
   4  20   1   90.13   12.73
   4  20  -2  164.80   17.71
 -20   4   2  146.22   18.86
 -20   4  -2  128.86   16.77
 -20   4   2  146.94   17.65
 -20   4   3  114.31   16.85
 -20   4  -3  101.25   14.68
   4  20  -3  108.82   14.77
 -20   4   3  114.32   15.71
 -20   4   4   37.08    9.78
 -20   4  -4   32.92    8.39
   4  20  -4   27.49    8.07
 -20   4   4   26.24    8.24
 -20   4   5   12.39    5.11
 -20   4  -5   13.70    5.22
   4  20  -5    9.78    5.25
 -20   4   5    5.22    4.92
   4  20  -6   -5.97    4.20
 -20   4   6    6.25    4.43
 -20   4   6   -1.05    2.61
 -20   4   7    4.73    3.99
   4  20  -7   -4.35    3.79
 -20   4   8    3.41    2.78
 -20   3   0    0.10    3.38
   3  20   0    3.94    4.96
 -20   3   1    3.60    4.37
 -20   3  -1   12.08    5.79
   3  20   1   12.28    5.64
   3  20  -1   10.79    5.05
   3  20  -2   35.97    8.33
 -20   3   2   29.71    8.34
 -20   3  -2   23.05    7.11
 -20   3   2   41.55    9.39
 -20   3   3   57.44   11.64
 -20   3  -3   55.14   10.96
   3  20  -3   53.82   10.43
 -20   3   3   50.32   10.87
 -20   3   4   61.00   12.30
 -20   3  -4   51.76   10.32
   3  20  -4   67.14   12.08
 -20   3   4   67.82   12.46
 -20   3   5   53.10   11.27
 -20   3  -5   45.34    9.60
   3  20  -5   56.11   11.45
 -20   3   5   50.16   11.21
   3  20  -6   29.65    8.23
 -20   3   6   19.39    7.66
 -20   3   6   35.06    9.73
 -20   3   7   56.64   12.51
   3  20  -7   30.23    9.44
 -20   2   0   11.82    5.47
   2  20   0   16.43    5.80
 -20   2   1   10.69    5.47
 -20   2  -1   22.27    7.43
   2  20   1   16.58    6.32
   2  20  -1   22.97    7.01
   2  20  -2   28.96    8.18
 -20   2   2   34.03    9.06
 -20   2  -2   22.68    7.10
 -20   2   2   23.66    7.39
 -20   2   3   14.55    5.98
 -20   2  -3   10.90    5.81
   2  20  -3   20.05    6.71
 -20   2   3   16.23    6.15
 -20   2   4   13.61    6.36
 -20   2  -4    0.46    2.87
   2  20  -4   16.85    7.08
 -20   2   4   21.63    7.91
 -20   2   5   22.05    8.22
 -20   2  -5   11.11    5.46
   2  20  -5   26.23    8.67
 -20   2   5    3.63    4.55
   2  20  -6   -3.33    3.87
 -20   2   6   -2.93    3.21
 -20   2   6    2.43    3.36
   2  20  -7   11.91    6.97
 -20   2   7    2.26    2.78
 -20   1   0    4.27    5.05
   1  20   0    3.18    2.45
 -20   1   1    9.88    5.54
 -20   1  -1    2.90    4.23
   1  20  -1    0.50    2.71
   1  20   1    3.59    3.11
   1  20  -2   10.98    4.97
 -20   1   2    7.34    5.66
 -20   1  -2    7.02    4.89
 -20   1   2    1.16    3.80
 -20   1   3    2.36    2.40
 -20   1  -3   -0.85    3.67
   1  20  -3    2.40    3.39
 -20   1   3    0.53    3.03
 -20   1   4   -1.49    2.79
 -20   1  -4    2.70    3.18
   1  20  -4   -0.34    2.18
 -20   1   4    6.42    5.94
 -20   1   5    4.53    2.61
 -20   1  -5   16.14    6.26
   1  20  -5   11.10    6.47
 -20   1   5   11.62    5.83
   1  20  -6   -0.02    2.35
 -20   1   6    6.92    4.37
 -20   1   6    6.41    4.63
 -20   1   7    3.91    4.50
   1  20  -7    1.50    3.00
 -20   0   0  198.28   20.90
   0  20   0  191.74   19.16
 -20   0   1  236.57   22.81
 -20   0  -1  224.50   21.93
   0  20   1  270.97   22.69
   0  20  -1  257.61   22.30
 -20   0   2  188.46   19.78
 -20   0   2  216.12   22.19
 -20   0  -2  180.31   19.51
   0  20  -2  181.40   19.02
 -20   0   3   98.69   15.87
 -20   0  -3   67.46   11.99
   0  20  -3   87.21   13.60
 -20   0   3   95.30   14.44
 -20   0   4   38.23    9.22
 -20   0  -4   36.29    8.62
   0  20  -4   45.60   10.10
 -20   0   4   41.66    9.79
   0  20  -5   -0.94    4.56
 -20   0   5    3.45    5.05
   0  20  -6    5.33    3.46
 -20   0   6   -1.10    2.60
 -20   0   7    3.41    2.87
   0  20  -7   10.74    5.36
 -20  -1   0    4.99    4.31
  -1  20   0   -0.16    2.26
 -20  -1   1    2.42    3.98
 -20  -1  -1   -1.60    2.56
  -1  20  -1    3.53    4.00
  -1  20   1    8.59    4.63
 -20  -1   2    1.62    4.02
 -20  -1  -2   -4.87    4.69
  -1  20  -2    3.78    2.83
  -1  20  -3   14.65    6.12
 -20  -1   3   12.93    5.38
 -20  -1   3    4.28    3.66
 -20  -1  -3    8.07    3.44
  -1  20  -4    3.45    2.49
 -20  -1   4   12.72    6.19
  -1  20  -5   11.53    5.72
 -20  -1   5    9.89    6.34
  -1  20  -6    0.01    3.30
 -20  -1   6   10.81    5.49
 -20  -1   7   -1.87    2.61
  -1  20  -7   -4.40    3.99
  -2  20   0  375.90   27.13
 -20  -2   0  367.26   28.30
  -2  20   1  468.54   30.40
  -2  20  -1  476.15   30.89
  -2  20  -2  397.34   28.42
  -2  20  -3  220.35   21.51
 -20  -2   3  191.27   20.59
  -2  20  -4   82.39   13.60
 -20  -2   4   99.64   15.09
  -2  20  -5   14.60    6.41
 -20  -2   5   10.62    6.63
  -2  20  -6    0.35    2.33
 -20  -2   6    4.40    4.58
 -20  -2   7   21.61    8.33
  -3  20   0    2.15    4.36
  -3  20   1    5.73    3.28
  -3  20  -1    0.24    2.93
  -3  20  -2   13.15    5.52
  -3  20  -3   11.91    5.56
  -3  20  -4   18.59    6.17
 -20  -3   4   13.09    5.33
  -3  20  -5   52.04   11.50
 -20  -3   5   39.23    9.55
  -3  20  -6   48.08   11.15
 -20  -3   6   65.10   13.10
 -20  -3   7   18.97    7.12
  -4  20   0  124.04   15.92
  -4  20   1   82.72   13.02
  -4  20  -1   81.42   13.02
  -4  20  -2   26.77    7.68
  -4  20  -3   35.20    8.73
  -4  20  -4    6.85    5.10
 -20  -4   4   17.00    6.23
  -4  20  -5   12.24    5.51
 -20  -4   5    5.49    4.10
  -4  20  -6    5.22    4.67
 -20  -4   6   -2.53    3.27
 -20  -4   7   12.74    6.32
  -5  20   0    2.92    4.67
  -5  20  -1    2.07    2.63
  -5  20   1    0.44    3.25
  -5  20  -2    1.20    1.93
  -5  20  -3    8.88    4.97
  -5  20  -4    3.06    2.88
  -5  20  -5    1.92    2.75
 -20  -5   5    4.55    3.27
  -5  20  -6   -1.14    3.67
 -20  -5   6    2.34    2.11
 -20  -5   7   18.54    7.91
  -6  20   0   10.08    4.67
 -20  -6   0    4.69    4.53
 -20  -6   1    7.89    4.71
  -6  20  -1    7.80    3.80
 -20  -6   2   20.89    6.90
  -6  20  -2   22.95    7.11
  -6  20  -3   22.51    7.68
  -6  20  -4    0.46    2.37
  -6  20  -5    4.60    3.56
  -6  20  -6    2.56    3.60
 -20  -6   6    4.86    4.41
 -20  -6   7    9.72    6.44
 -20  -7   0   -1.43    5.48
  -7  20   0    0.59    2.13
  -7  20  -1   22.09    7.25
 -20  -7  -1   19.93    6.44
 -20  -7   1   18.56    6.73
 -20  -7  -2   67.42   12.14
 -20  -7   2   74.53   13.45
  -7  20  -2   74.34   13.00
  -7  20  -3  134.76   17.56
 -20  -7   3  150.32   19.31
 -20  -7   4  140.28   18.74
  -7  20  -4  146.85   18.62
  -7  20  -5  268.55   25.54
  -7  20  -6  255.30   25.31
 -20  -7   6  247.62   24.90
 -20  -7   7  140.67   19.33
 -20  -8   0    6.48    4.65
  -8  20   0    9.01    5.40
  -8  20  -1   20.12    6.50
 -20  -8  -1   10.22    5.60
 -20  -8   1   17.01    6.37
 -20  -8  -2   36.01    9.36
 -20  -8   2   27.31    8.36
  -8  20  -2   32.24    8.76
  -8  20  -3    0.25    3.22
 -20  -8  -3    7.15    4.75
 -20  -8   3    4.25    2.90
 -20  -8  -4    5.65    4.13
 -20  -8   4   11.30    6.98
  -8  20  -4   10.41    5.17
 -20  -8   5   -0.05    3.45
  -8  20  -5   -0.38    2.59
 -20  -9   0    2.42    2.53
  -9  20   0    2.87    2.70
 -20  -9  -1   15.99    6.94
 -20  -9   1   25.92    8.99
  -9  20  -1   18.55    6.86
 -20  -9  -2   84.38   14.10
 -20  -9   2   63.70   12.49
  -9  20  -2   94.88   14.82
 -20  -9  -3  189.21   20.95
 -20  -9   3  163.50   20.29
  -9  20  -3  171.20   19.84
 -20  -9  -4  249.93   24.03
 -20  -9   4  239.98   25.09
  -9  20  -4  254.01   24.40
 -20  -9   5  291.55   27.64
  -9  20  -5  325.87   28.32
 -20  -9   6  281.85   27.32
 -10  20   0   19.24    7.04
 -20 -10   0   19.37    7.80
 -20 -10  -1   21.79    7.09
 -20 -10   1   12.67    6.10
 -10  20  -1   10.02    4.66
 -20 -10  -2   23.16    8.26
 -20 -10   2   28.82    8.80
 -10  20  -2    9.28    5.20
 -20 -10  -3    0.41    4.22
 -10  20  -3   -0.44    3.15
 -10  20  -4   -1.03    2.35
 -20 -10  -4   -3.39    3.36
 -20 -10  -5    4.75    3.21
 -20 -10   5   -1.36    3.32
 -10  20  -5    5.97    5.23
 -11  20   0   -0.13    3.35
 -20 -11   0    6.61    5.46
 -11  20  -1    0.11    2.85
 -20 -11  -1    3.22    4.76
 -20 -11   1   -0.09    4.14
 -20 -11  -2    7.26    5.08
 -20 -11   2   20.33    7.74
 -11  20  -2   13.67    5.81
 -20 -11  -3   26.13    8.25
 -20 -11   3   29.91    9.41
 -11  20  -3   25.59    8.61
 -11  20  -4   55.90   11.77
 -20 -11  -4   42.65    9.95
 -20 -11   4   49.47   12.17
 -20 -11  -5   44.71   10.65
 -11  20   6   41.89   10.95
 -20 -12   0   20.68    7.28
 -20 -12  -1   -0.03    2.99
 -20 -12   1    1.39    2.93
 -12  20  -1   -0.20    3.06
 -12  20  -2    3.53    3.78
 -20 -12  -2   -2.08    3.29
 -20 -12   2    7.13    5.06
 -20 -12   3    4.63    4.04
 -12  20  -3    2.56    3.16
 -12  20  -4   -0.40    2.79
 -20 -12  -4    7.24    4.76
 -20 -12  -5   -3.71    3.34
 -20 -13   0   -1.73    4.84
 -13  20  -1   -0.54    3.51
 -20 -13  -1    0.73    4.11
 -20 -13   1   -2.22    5.22
 -20 -13  -2   -3.64    3.23
 -13  20  -2   10.71    4.99
 -20 -13  -3    3.18    4.06
 -13  20  -3   10.35    5.48
 -20 -13  -4   17.61    7.82
 -20 -13  -5   22.68    7.98
 -20 -14  -1  188.45   22.75
 -14  20  -1  192.10   21.34
 -20 -14  -2  115.05   17.77
 -14  20  -2   98.96   15.42
 -14  20  -3   74.00   13.54
 -20 -14  -3   55.74   11.90
 -20 -14  -4   45.44   11.58
 -20 -14  -5   43.60   10.76
 -15  20  -2   12.32    6.26
 -21  14   3   47.90   10.90
 -21  13   2   61.54   11.56
 -21  13   3   42.93   10.08
 -12 -21   0    9.91    6.89
 -12 -21  -1    7.09    6.03
 -21  12   1   -2.66    3.43
 -12 -21  -2   -0.75    2.24
 -21  12   2    9.43    6.11
 -12 -21  -3   -1.13    2.88
 -21  12   3    4.13    3.75
 -12 -21  -4   -2.39    2.70
 -12 -21  -5   -3.41    4.49
 -11 -21   0   33.40   10.59
 -11 -21   1   20.91    7.94
 -11 -21  -1   24.23    8.73
 -21  11   1   12.45    5.28
 -11 -21   2    3.50    3.90
 -11 -21  -2    9.10    5.68
 -21  11   2    6.57    4.12
 -11 -21  -3    3.92    3.06
 -21  11   3    1.82    4.52
 -11 -21  -4   10.09    5.94
 -21  11   4   -3.18    2.83
 -11 -21  -5    9.73    5.44
 -10 -21   0    0.96    2.90
 -10 -21   1    8.84    5.48
 -10 -21  -1    7.19    5.37
 -21  10   1    1.24    4.36
 -10 -21   2    7.13    5.88
 -10 -21  -2   -5.20    4.32
 -21  10   2    1.05    2.32
 -10 -21   3   -1.18    5.27
 -10 -21  -3   -0.21    3.02
 -21  10   3    9.79   10.11
 -10 -21  -4    3.26    4.44
 -21  10   4    3.45    2.69
 -10 -21  -5    3.59    2.89
  -9 -21   0  561.80   36.94
  -9 -21   1  462.85   33.90
  -9 -21  -1  419.68   31.95
 -21   9   1  457.16   31.05
  -9 -21   2  227.89   23.95
  -9 -21  -2  177.68   20.86
 -21   9   2  225.93   22.40
   9  21  -2  213.10   20.00
 -21   9   3  113.95   18.07
  -9 -21   3  102.89   16.49
  -9 -21  -3  146.86   18.69
 -21   9   3  117.78   16.67
   9  21  -3  113.78   15.08
 -21   9   4   75.56   15.11
  -9 -21   4   95.07   15.29
  -9 -21  -4   72.97   13.45
   9  21  -4   84.33   13.35
 -21   9   4   82.09   14.72
   9  21  -5   17.93    6.67
  -9 -21  -5   29.81    8.53
   9  21  -6   -9.26    5.06
   8  21   0    2.31    2.48
   8  21  -1    0.96    2.72
 -21   8   1    7.44    4.35
 -21   8   1    5.25    4.51
 -21   8   2   31.45    9.47
   8  21  -2   17.33    5.89
 -21   8   2   16.15    7.04
 -21   8   3   26.36    8.04
  -8 -21   3   52.06   11.70
 -21   8   3   34.59    9.82
   8  21  -3   34.61    8.99
 -21   8   4   55.42   12.46
 -21   8  -4   38.87   10.03
  -8 -21   4   54.67   11.84
   8  21  -4   55.10   11.12
 -21   8   4   35.77    9.47
 -21   8   5   70.04   14.03
 -21   8  -5   38.09    9.79
   8  21  -5   57.00   11.78
  -8 -21   5   43.62   10.73
  -8 -21  -5   60.25   12.12
 -21   8   5   48.21   11.60
   8  21  -6   24.04    8.03
 -21   7   0  318.42   28.58
   7  21   0  318.71   24.28
 -21   7   1  274.16   26.78
 -21   7  -1  266.59   26.03
 -21   7   1  344.43   26.86
   7  21  -1  323.31   24.62
 -21   7   2  153.06   20.15
 -21   7  -2  161.23   20.00
   7  21  -2  178.02   18.58
 -21   7   2  168.78   19.29
 -21   7   3  107.63   17.19
 -21   7  -3  101.58   15.91
   7  21  -3   93.94   13.94
 -21   7   3   89.54   14.47
 -21   7   4   38.22   10.22
 -21   7  -4   30.45    7.72
   7  21  -4   54.45   11.01
 -21   7   4   68.60   13.32
 -21   7   5   23.09    9.22
 -21   7  -5    2.82    3.13
  -7 -21   5   24.11    7.31
 -21   7   5   19.22    7.19
 -21   7   6    1.52    3.13
   7  21  -6   -0.18    3.39
  -7 -21   6    0.84    3.18
   6  21   0   -1.38    2.92
 -21   6   0   -0.94    3.80
 -21   6   1   -3.42    2.72
 -21   6  -1    8.86    5.32
   6  21  -1    2.69    3.96
 -21   6   1    1.75    3.18
 -21   6   2    3.51    3.07
 -21   6  -2    7.98    5.58
   6  21  -2    2.78    4.06
 -21   6   2   11.35    5.72
 -21   6   3   56.26   12.65
 -21   6  -3   50.94   11.18
   6  21  -3   43.80    9.54
 -21   6   3   57.97   11.66
 -21   6   4   52.20   11.68
 -21   6  -4   46.59   10.47
   6  21  -4   76.93   13.08
 -21   6   4   58.81   12.02
 -21   6   5   51.31   11.82
 -21   6  -5   55.35   10.95
   6  21  -5   56.87   11.43
 -21   6   5   61.28   12.73
 -21   6   6   44.46   11.93
   6  21  -6   28.24    8.46
  -6 -21   6   35.04    9.94
  -6 -21   7   33.42    9.55
 -21   5   0   -0.52    3.04
   5  21   0    1.28    2.92
 -21   5   1    1.38    3.06
 -21   5   1   -1.78    4.36
 -21   5  -1    0.80    2.31
   5  21  -1    6.02    6.28
 -21   5   2    3.29    2.79
 -21   5  -2    4.76    4.40
   5  21  -2   10.17    4.96
 -21   5   2    8.55    5.72
 -21   5   3   12.60    6.27
 -21   5  -3    3.21    3.12
   5  21  -3   19.60    6.67
 -21   5   3    7.43    5.47
 -21   5   4   12.33    5.04
 -21   5  -4    5.87    4.01
   5  21  -4   10.32    5.90
 -21   5   4   18.54    7.50
 -21   5   5    7.42    4.43
 -21   5  -5    4.85    3.26
   5  21  -5    6.32    4.67
 -21   5   5    3.73    2.74
 -21   5   6    2.37    3.70
   5  21  -6   -3.44    4.12
 -21   5   7    0.97    3.33
  -5 -21   7    5.62    4.91
 -21   4   0    2.40    3.91
   4  21   0   -1.69    2.99
 -21   4   1    7.26    4.94
 -21   4  -1   12.18    6.39
   4  21  -1   11.63    5.49
 -21   4   2   12.74    6.30
 -21   4  -2    4.38    4.11
   4  21  -2   11.58    6.00
 -21   4   3   15.11    7.14
 -21   4  -3   25.01    8.24
   4  21  -3   14.59    6.82
 -21   4   3   21.99    7.06
 -21   4   4   33.44   10.52
 -21   4  -4   38.39    9.52
   4  21  -4   26.22    7.90
 -21   4   4   16.93    6.77
 -21   4   5   24.11    8.25
 -21   4  -5   17.50    6.53
   4  21  -5   27.64    8.38
 -21   4   5   29.79    8.90
 -21   4   6   25.27    9.23
   4  21  -6   29.93    9.23
 -21   4   7    2.36    3.41
 -21   3   0   18.34    6.81
   3  21   0   24.06    7.18
 -21   3   1   17.05    7.27
 -21   3  -1   20.03    7.18
   3  21   1   37.34    8.61
   3  21  -1   29.12    7.70
 -21   3   2   19.13    7.69
 -21   3  -2   -1.41    3.74
   3  21  -2    8.91    4.73
 -21   3   2   10.43    5.74
 -21   3   3    4.15    3.91
 -21   3  -3    6.35    3.97
   3  21  -3   10.14    4.90
 -21   3   3   14.77    5.85
 -21   3   4    2.80    3.65
 -21   3  -4    4.28    3.27
   3  21  -4   14.83    5.73
 -21   3   4   14.82    6.42
 -21   3   5    3.61    5.15
 -21   3  -5    1.71    2.32
   3  21  -5    3.80    4.58
 -21   3   5    3.11    4.94
 -21   3   6   -3.99    3.98
   3  21  -6    2.51    3.07
 -21   3   7    0.47    3.44
 -21   2   0    4.24    5.56
   2  21   0   10.67    5.02
 -21   2   1   32.56    9.21
 -21   2  -1   43.05   10.47
   2  21  -1   33.25    8.56
   2  21   1   35.72    8.45
 -21   2   2  135.70   18.47
 -21   2  -2  140.37   17.92
   2  21  -2  126.20   15.98
 -21   2   2  157.60   18.86
 -21   2   3  234.73   24.34
 -21   2  -3  215.93   21.75
   2  21  -3  245.82   22.91
 -21   2   3  201.56   21.47
 -21   2   4  327.82   28.92
 -21   2  -4  335.08   26.76
   2  21  -4  335.56   27.41
 -21   2   4  350.97   29.02
 -21   2   5  345.68   30.27
 -21   2  -5  386.95   28.37
   2  21  -5  336.20   28.04
 -21   2   5  363.06   30.39
 -21   2   6  253.33   26.07
   2  21  -6  240.73   24.17
 -21   2   6  241.14   25.34
 -21   1   0   10.49    4.42
   1  21   0   11.70    4.86
 -21   1   1    4.16    3.82
 -21   1  -1    7.62    4.39
   1  21   1    7.41    4.06
   1  21  -1    1.29    2.36
 -21   1   2    5.85    4.81
 -21   1  -2   12.14    5.61
   1  21  -2    4.31    2.69
 -21   1   3    6.21    3.48
 -21   1  -3    4.98    4.42
   1  21  -3    7.76    4.66
 -21   1   3    9.31    4.88
 -21   1   4    1.29    4.38
 -21   1  -4    7.48    5.13
   1  21  -4    3.50    3.96
 -21   1   4   10.62    6.07
 -21   1   5   10.69    5.84
 -21   1  -5   19.65    6.42
   1  21  -5   10.93    5.58
 -21   1   5   13.76    7.26
   1  21  -6    3.06    2.65
 -21   1   6    1.35    3.67
 -21   0   0    2.65    4.45
   0  21   0    1.71    2.69
 -21   0   1   12.22    5.84
 -21   0  -1   20.61    8.00
   0  21   1   18.91    6.28
   0  21  -1   17.99    7.20
 -21   0   2   51.70   11.32
 -21   0  -2   52.34   11.02
   0  21  -2   47.63   10.20
 -21   0   3  146.74   19.11
 -21   0  -3  121.77   16.21
   0  21  -3  127.51   16.60
 -21   0   3  113.66   16.19
 -21   0  -4  106.19   14.81
   0  21  -4  138.64   17.69
 -21   0   4  120.48   17.21
 -21   0   4  138.18   18.75
   0  21  -5  251.38   24.55
 -21   0   5  208.28   22.82
   0  21  -6  185.42   21.82
 -21   0   6  218.61   24.36
 -21  -1   0   83.17   14.31
  -1  21   0   84.45   13.33
 -21  -1   1   51.75   11.21
 -21  -1  -1   66.74   12.62
  -1  21   1   62.15   11.28
  -1  21  -1   69.54   12.17
  -1  21  -2   10.79    5.29
 -21  -1   2   12.61    6.52
 -21  -1  -2   22.04    7.51
  -1  21  -3    7.04    4.03
 -21  -1   3    2.24    2.66
 -21  -1  -3    7.58    3.77
 -21  -1   3    3.82    4.50
  -1  21  -4    9.63    5.18
 -21  -1   4    5.36    4.98
  -1  21  -5    9.88    5.61
 -21  -1   5    2.07    3.28
  -1  21  -6    2.22    3.72
 -21  -1   6   -1.77    4.02
  -2  21   0   -0.72    2.35
  -2  21  -1   13.51    5.76
  -2  21   1    6.19    4.72
  -2  21  -2    6.79    4.29
  -2  21  -3    2.40    3.85
  -2  21  -4   -0.09    2.31
 -21  -2   4    1.51    3.85
  -2  21  -5    6.53    5.77
 -21  -2   5    8.76    5.35
  -2  21  -6    1.27    2.47
 -21  -2   6    1.23    3.15
  -3  21   0   26.39    7.90
  -3  21   1   38.37    9.38
  -3  21  -1   45.04   10.37
  -3  21  -2   43.97   10.33
  -3  21  -3   26.64    7.78
  -3  21  -4   22.06    7.43
 -21  -3   4   90.51   15.61
  -3  21  -5    0.78    2.64
 -21  -3   5   -0.70    2.59
  -3  21  -6    4.65    5.57
 -21  -3   6    6.56    4.56
  -4  21   0    1.41    3.65
  -4  21  -1   10.32    5.83
  -4  21  -2   25.74    8.24
  -4  21  -3   48.92   10.81
  -4  21  -4   49.82   10.99
  -4  21  -5   60.43   12.16
 -21  -4   5   58.52   12.31
 -21  -4   6   71.66   13.99
  -5  21   0  395.35   29.30
  -5  21  -1  377.29   28.83
  -5  21  -2  274.01   24.74
  -5  21  -3  223.93   22.79
  -5  21  -4   96.88   15.46
  -5  21  -5   15.77    6.45
 -21  -5   5   29.86    9.32
 -21  -5   6    0.29    3.24
  -6  21   0    8.40    6.37
  -6  21  -1    2.29    4.58
  -6  21  -2   -2.45    4.41
  -6  21  -3    9.84    5.64
  -6  21  -4    6.69    4.88
  -6  21  -5    6.90    5.63
 -21  -6   6    3.40    2.75
 -21  -7   0  377.96   30.63
  -7  21   0  377.57   29.22
 -21  -7  -1  359.29   29.62
 -21  -7   1  352.72   29.81
  -7  21  -1  321.22   26.99
 -21  -7   2  203.26   22.51
  -7  21  -2  249.27   24.08
  -7  21  -3  121.31   17.01
  -7  21  -4  102.81   16.00
  -7  21  -5   51.76   12.09
 -21  -8   0   -0.94    2.65
  -8  21   0   -0.29    2.24
 -21  -8  -1    1.96    2.98
 -21  -8   1    0.64    6.24
  -8  21  -1   -1.68    3.23
 -21  -8  -2  -10.14    5.61
 -21  -8   2    2.33    4.68
  -8  21  -2   -8.58    4.83
 -21  -8   3   -1.34    2.78
  -8  21  -3    7.60    4.62
 -21  -8   4   -3.89    5.56
  -8  21  -4    5.09    3.75
  -9  21   0    0.24    2.66
 -21  -9   0    4.42    3.36
 -21  -9  -1    5.07    4.18
 -21  -9   1   -1.05    2.45
  -9  21  -1    1.82    2.51
 -21  -9  -2    2.01    2.85
 -21  -9   2   -0.21    4.08
  -9  21  -2    9.40    4.93
 -21  -9  -3    8.23    6.19
 -21  -9   3    0.27    4.24
  -9  21  -3    4.40    3.23
  -9  21  -4   -1.33    3.74
 -21  -9  -4   -7.22    4.79
 -21  -9   4   -4.31    4.54
 -21 -10   0    6.90    6.07
 -10  21   0   -0.26    2.83
 -21 -10  -1    8.15    5.63
 -21 -10   1    9.83    6.28
 -10  21  -1   19.85    7.11
 -21 -10  -2   24.16    8.57
 -21 -10   2   32.22    9.16
 -10  21  -2   21.73    7.55
 -21 -10  -3   31.63    9.17
 -21 -10   3   33.97    9.49
 -10  21  -3   37.91    9.67
 -21 -10  -4   48.24   10.47
 -21 -11   0   72.94   14.20
 -21 -11  -1  118.36   17.70
 -21 -11   1  109.40   17.58
 -11  21  -1  123.76   17.27
 -11  21  -2  111.72   16.70
 -21 -11  -2  104.18   16.62
 -21 -11   2   72.04   14.19
 -21 -11  -3   10.32    5.65
 -11  21  -3   19.32    6.95
 -21 -11  -4    5.81    3.25
 -21 -11  -5    4.59    3.65
 -21 -12   0    2.10    3.94
 -21 -12  -1   18.25    7.42
 -12  21  -1   15.56    6.76
 -21 -12  -2  101.98   16.44
 -12  21  -2  102.76   15.88
 -21 -12  -3  204.86   23.30
 -21 -12  -4  187.43   22.15
 -21 -12  -5  187.96   21.87
 -13  21  -1   12.79    5.48
 -21 -13  -4   -1.42    3.23
 -22  12   2    2.69    3.74
 -22  12   3   10.29    5.55
 -22  11   1   28.55    8.19
 -22  11   2  105.93   16.25
 -22  11   3  145.35   19.12
 -10 -22   0   52.96   11.94
 -10 -22  -1   25.21    7.86
 -22  10   1   36.39    8.80
 -10 -22  -2   38.15   10.17
 -22  10   2   39.22    9.80
 -10 -22  -3   26.02    8.53
 -22  10   3   57.17   12.22
 -10 -22  -4   28.00    9.32
 -10 -22  -5   11.42    5.32
  -9 -22   0    2.34    4.38
 -22   9   1    4.32    3.01
  -9 -22   1   23.62    7.68
  -9 -22  -1   21.44    8.00
 -22   9   1    4.09    3.16
 -22   9   2    7.72    6.68
  -9 -22   2    3.36    4.95
  -9 -22  -2    3.40    4.00
  -9 -22  -3   38.12   10.20
 -22   9   3   18.68    6.90
 -22   9  -4   76.97   14.53
  -9 -22  -4   80.26   14.32
 -22   9  -5   60.30   12.58
  -9 -22  -5   65.56   13.12
 -22   8   0   20.43    8.38
   8  22   0   25.81    7.14
 -22   8   1   13.36    6.89
 -22   8  -1   13.16    7.45
   8  22  -1    7.70    4.65
 -22   8   1    7.22    2.97
 -22   8   2    2.17    3.61
 -22   8  -2    9.56    5.52
   8  22  -2    0.66    2.64
 -22   8   2   -0.82    2.38
   8  22  -3   -0.92    2.41
 -22   8   3    7.13    5.77
 -22   8  -3    2.36    3.63
  -8 -22   3   -0.32    3.71
 -22   8   3    5.39    4.89
 -22   8  -4    0.52    3.07
   8  22  -4   -2.59    2.85
 -22   8   4    4.02    5.57
 -22   8  -5    5.26    5.48
  -8 -22  -5   -9.99    5.35
 -22   7   0   -2.57    3.32
   7  22   0   -0.78    2.26
 -22   7   1   -3.05    3.40
 -22   7  -1   10.01    6.28
   7  22  -1    4.47    4.22
 -22   7   2    5.98    5.87
 -22   7  -2    9.29    6.77
   7  22  -2   16.70    7.12
 -22   7   2   18.19    7.70
   7  22  -3   12.84    6.31
 -22   7   3   31.92    9.01
 -22   7  -3   10.20    5.45
 -22   7   3    6.66    5.20
 -22   7   4    8.24    5.92
 -22   7  -4   15.68    7.13
   7  22  -4    5.17    3.56
 -22   7   4   -8.11    5.01
 -22   7  -5   -0.44    3.63
   7  22  -5   -2.56    5.28
 -22   6   0  107.65   16.74
   6  22   0  152.23   17.43
   6  22  -1  137.78   16.70
 -22   6   1  177.18   21.95
 -22   6  -1  124.54   18.11
 -22   6   2  142.86   19.67
 -22   6  -2  148.67   19.68
   6  22  -2  181.76   19.49
 -22   6   2  164.71   19.81
   6  22  -3  118.37   16.06
 -22   6   3  131.56   19.26
 -22   6  -3  119.01   17.16
 -22   6   3  127.32   17.61
 -22   6   4   47.02   12.43
 -22   6  -4   55.66   12.12
   6  22  -4   50.29   10.87
 -22   6   4   50.50   12.17
   6  22  -5   18.95    6.08
 -22   5   0    0.75    4.36
   5  22   0   -2.16    3.47
 -22   5   1   10.48    6.22
 -22   5  -1    6.13    5.66
   5  22  -1    1.95    3.57
 -22   5   2   -2.13    3.25
 -22   5  -2   -1.48    3.32
   5  22  -2    4.23    3.62
 -22   5   2    1.57    3.54
 -22   5   3    5.00    3.88
 -22   5  -3    1.93    2.83
 -22   5   3    6.05    5.69
   5  22  -3    2.78    3.57
 -22   5   4   15.61    7.53
 -22   5  -4   12.77    5.95
   5  22  -4   12.78    5.77
 -22   5   4   10.63    5.71
 -22   5   5    6.42    5.40
   5  22  -5    5.31    3.76
 -22   4   0  252.83   25.44
   4  22   0  288.84   24.34
 -22   4   1  354.19   30.46
 -22   4  -1  379.35   30.84
   4  22  -1  389.40   28.32
 -22   4   2  375.92   31.63
 -22   4  -2  349.20   29.18
 -22   4   2  397.26   30.41
   4  22  -2  410.33   29.51
 -22   4  -3  229.27   23.60
 -22   4   3  200.18   23.39
   4  22  -3  230.50   22.52
 -22   4   3  207.69   22.58
 -22   4   4  104.72   16.87
 -22   4  -4   92.95   14.96
   4  22  -4  116.60   16.44
 -22   4   4  100.56   16.13
 -22   4   5   63.63   13.82
   4  22  -5   33.10    9.05
   3  22   0   -3.14    4.60
 -22   3   0    2.84    4.69
 -22   3   1   -0.85    2.15
 -22   3  -1   -2.16    3.18
   3  22  -1    3.94    4.61
 -22   3   2    6.98    4.84
 -22   3  -2   10.68    5.76
   3  22  -2   11.87    5.16
 -22   3   2   10.84    5.99
 -22   3   3   16.14    7.40
 -22   3  -3    9.84    4.83
   3  22  -3   15.96    6.61
 -22   3   3   21.29    7.31
 -22   3   4    8.75    6.17
 -22   3  -4    1.56    2.92
   3  22  -4   17.74    6.74
 -22   3   4   10.05    6.01
 -22   3   5    3.05    4.01
   3  22  -5    3.04    2.76
   2  22   0   84.48   13.52
 -22   2   0   77.48   14.50
 -22   2   1   92.59   15.56
 -22   2  -1   75.70   13.87
   2  22  -1  101.49   14.89
 -22   2   2   58.27   13.10
 -22   2  -2   48.81   10.60
   2  22  -2   57.48   11.34
 -22   2   3   48.53   11.97
 -22   2  -3   43.51   10.33
   2  22  -3   36.15    9.46
 -22   2   3   42.17   10.62
 -22   2   4   62.47   12.98
 -22   2  -4   40.04    9.63
   2  22  -4   47.63   10.31
 -22   2   4   36.58   10.32
 -22   2   5    9.50    4.41
   2  22  -5   17.19    7.10
 -22   2   5   13.63    5.37
 -22   1   0    9.28    5.83
   1  22   0    6.65    4.46
 -22   1   1    8.68    6.25
 -22   1  -1    2.04    3.17
   1  22  -1    2.51    3.06
 -22   1   2    7.26    5.54
 -22   1  -2    4.03    4.16
   1  22  -2   16.33    6.89
 -22   1   3   -2.02    5.48
 -22   1  -3   -0.11    3.59
   1  22  -3   -0.02    3.02
 -22   1   3    3.33    3.29
 -22   1   4    9.70    6.13
 -22   1  -4    3.95    4.39
   1  22  -4    4.39    4.27
 -22   1   4   -0.44    2.95
   1  22  -5    1.46    2.69
 -22   1   5    4.94    4.57
 -22   1   5    2.43    2.68
 -22   0   0   55.08   12.03
   0  22   0   62.04   11.68
 -22   0   1   65.64   13.05
 -22   0  -1   51.86   11.84
   0  22  -1   40.87    9.41
 -22   0   2   50.42   11.51
 -22   0  -2   55.71   11.53
   0  22  -2   43.35   10.10
 -22   0   3   26.76    8.47
 -22   0  -3   22.01    6.37
   0  22  -3   23.30    7.79
 -22   0   3   17.87    6.68
   0  22  -4   13.80    5.82
 -22   0   4   10.19    4.87
 -22   0   4    7.24    5.33
 -22   0  -4   10.56    6.39
   0  22  -5    2.99    2.06
 -22   0   5    4.41    4.60
  -1  22   0   -1.55    2.47
 -22  -1   0    4.69    5.46
  -1  22  -1   21.79    7.22
 -22  -1   1   16.07    7.51
 -22  -1  -1   37.89    9.68
  -1  22  -2   89.96   14.58
 -22  -1   2   89.81   15.46
 -22  -1  -2   68.14   12.84
  -1  22  -3  108.91   16.24
  -1  22  -4  168.07   20.25
 -22  -1   4  169.32   20.68
  -1  22  -5  192.20   22.21
 -22  -1   5  161.68   20.47
  -2  22   0   93.68   14.41
  -2  22  -1   88.61   14.09
  -2  22  -2   47.32   10.59
  -2  22  -3   32.92    9.07
  -2  22  -4   18.10    6.96
 -22  -2   4    3.31    2.16
  -2  22  -5   -1.87    3.60
 -22  -2   5    0.44    3.77
  -3  22   0    2.34    2.11
  -3  22  -1   62.80   12.25
  -3  22  -2  176.00   20.31
  -3  22  -3  194.78   21.57
  -3  22  -4  318.43   28.11
 -22  -3   5  281.85   27.24
  -4  22   0   -0.70    2.71
  -4  22  -1   -1.73    2.05
  -4  22  -2   -0.15    2.43
  -4  22  -3    0.42    2.71
  -4  22  -4   12.34    7.19
 -22  -4   5    2.22    2.46
  -5  22   0   -3.56    3.74
  -5  22  -1    0.72    3.44
  -5  22  -2   22.42    7.43
  -5  22  -3   61.43   12.13
  -5  22  -4   63.43   12.44
  -6  22   0    1.96    3.39
  -6  22  -1    5.58    4.23
  -6  22  -2   -0.22    3.65
  -6  22  -3    0.77    3.82
  -6  22  -4   -2.34    2.01
  -7  22   0    0.28    2.17
  -7  22  -1   16.27    6.66
  -7  22  -2   32.08    9.07
  -7  22  -3   30.32    8.90
 -22  -8   0  135.12   19.08
  -8  22   0  152.44   19.13
 -22  -8  -1  101.58   16.36
 -22  -8   1  131.05   19.07
  -8  22  -1  108.40   16.27
 -22  -8   2  153.92   20.57
  -8  22  -2  159.16   20.00
 -22  -8   3  115.92   18.01
  -8  22  -3   85.17   14.89
 -22  -9   0   -0.02    4.23
  -9  22   0    0.15    2.27
 -22  -9  -1    2.31    5.87
 -22  -9   1    7.12    5.76
  -9  22  -1    0.50    2.77
  -9  22  -2   22.98    8.36
 -22  -9  -2   29.47    8.46
 -22  -9   2   34.32   10.17
 -22 -10   0  376.82   32.40
 -22 -10  -1  440.57   34.55
 -10  22  -1  342.67   29.21
 -22 -10  -2  285.73   27.72
 -22 -10  -3  156.82   20.57
 -22 -10  -4   51.53   11.62
 -22 -11  -2   13.08    6.39
 -22 -11  -3   -2.46    4.32
 -22 -11  -4   -4.57    6.08
 -23  11   2    9.01    5.72
 -23  10   2    2.39    2.84
 -23   9   2   34.16    9.34
 -23   8  -1    5.29    5.68
   8  23  -1   11.74    5.73
 -23   8  -2   81.27   15.66
   8  23  -2   53.37   11.01
 -23   8   2   48.23   10.88
 -23   8  -3  110.66   18.24
   8  23  -3  122.20   16.35
 -23   8  -4  160.08   20.92
   8  23  -4  165.05   19.86
   7  23   0    6.53    3.96
 -23   7   0   17.13    8.50
 -23   7   1    3.97    5.26
 -23   7  -1    3.14    3.09
   7  23  -1   12.82    6.43
 -23   7  -2    0.80    4.30
   7  23  -2    7.52    4.97
 -23   7   2    9.99    5.83
 -23   7  -3    2.53    4.65
   7  23  -3   -0.55    2.39
 -23   7   3    3.74    2.59
 -23   7  -4    5.93    5.04
   7  23  -4   -7.44    4.65
 -23   6   0    1.91    4.78
   6  23   0   -1.59    3.55
 -23   6   1    9.01    6.24
 -23   6  -1    8.23    5.09
   6  23  -1    3.55    3.12
 -23   6   2   98.93   16.87
 -23   6  -2   83.11   15.10
   6  23  -2  106.66   16.02
 -23   6   2   88.77   14.64
 -23   6  -3  134.01   18.89
   6  23  -3  156.20   18.82
 -23   6   3  157.75   20.20
 -23   6  -4  152.96   20.01
   6  23  -4  203.89   22.22
 -23   5   0   12.02    6.53
   5  23   0    7.23    4.73
 -23   5   1   21.26    8.52
 -23   5  -1   22.98    8.62
   5  23  -1   16.52    6.12
 -23   5   2   14.84    7.28
 -23   5  -2   19.72    8.29
   5  23  -2   11.97    5.79
 -23   5   2   11.53    5.77
 -23   5  -3    2.12    6.21
   5  23  -3    6.07    4.36
 -23   5   3    4.27    3.63
 -23   5  -4    5.51    4.67
   5  23  -4   -0.85    2.81
 -23   4   0    2.62    2.86
   4  23   0   -1.51    3.16
 -23   4   1    5.69    5.40
 -23   4  -1    2.83    4.84
   4  23  -1   11.16    5.81
 -23   4   2    6.71    6.27
 -23   4  -2   -5.64    4.37
   4  23  -2    7.38    4.84
 -23   4   3   -0.39    3.70
 -23   4  -3   -1.50    4.10
   4  23  -3    3.08    3.25
 -23   4  -4   -1.20    2.43
   4  23  -4   -8.98    5.05
 -23   3   0   18.95    8.03
   3  23   0   38.58    9.80
 -23   3   1   16.93    7.06
 -23   3  -1   19.62    7.12
   3  23  -1   18.92    7.32
 -23   3   2    5.70    2.85
 -23   3  -2   15.40    7.81
   3  23  -2    8.53    4.79
 -23   3   3   30.12    9.36
 -23   3  -3   18.60    6.47
   3  23  -3   28.58    8.49
 -23   3   3   22.71    7.86
 -23   3  -4    7.38    4.22
   3  23  -4    3.65    5.08
 -23   2   0    3.13    4.02
   2  23   0   -0.17    2.30
 -23   2   1    0.25    3.98
 -23   2  -1   10.66    4.52
   2  23  -1    4.42    5.03
 -23   2   2   14.21    7.08
 -23   2  -2    9.65    5.45
   2  23  -2   24.23    7.90
 -23   2   3   44.05   11.48
 -23   2  -3   45.27   10.65
   2  23  -3   54.23   11.37
 -23   2   3   60.04   12.55
 -23   2  -4   43.60   10.62
   2  23  -4   59.75   12.43
 -23   1   0  314.59   28.65
   1  23   0  343.27   27.84
 -23   1   1  331.38   29.78
 -23   1  -1  294.97   27.63
   1  23  -1  361.77   28.83
 -23   1   2  252.62   26.59
 -23   1  -2  220.79   23.58
   1  23  -2  261.33   24.96
 -23   1   3  136.24   18.75
 -23   1   3  151.17   20.68
 -23   1  -3  117.68   17.03
   1  23  -3  148.17   18.89
 -23   1   4   93.00   16.46
 -23   1  -4   76.24   13.58
   1  23  -4   81.64   14.55
 -23   0   0    6.00    5.67
   0  23   0    2.40    4.31
 -23   0   1   16.22    8.30
 -23   0  -1    5.84    4.85
   0  23  -1    9.43    4.78
 -23   0   2   10.83    5.90
 -23   0  -2   14.16    6.00
   0  23  -2   29.30    8.50
   0  23  -3   -0.09    4.88
 -23   0   3    0.85    3.43
 -23   0  -3   11.60    6.43
   0  23  -4   32.56    9.76
  -1  23   0  402.80   30.65
  -1  23  -1  312.79   27.03
  -1  23  -2  211.77   22.53
  -1  23  -3  133.46   18.29
  -1  23  -4   61.38   12.52
  -2  23   0    3.99    3.38
  -2  23  -1    4.00    4.64
  -2  23  -2    1.43    2.62
  -2  23  -3   -4.51    3.82
  -3  23   0    5.38    2.84
  -3  23  -1   -2.16    3.85
  -3  23  -2    5.75    4.84
  -3  23  -3   -1.06    2.55
  -4  23   0   -0.57    2.36
  -4  23  -1    9.92    5.44
  -4  23  -2    9.08    5.89
  -4  23  -3   16.67    6.20
  -5  23   0  120.36   17.23
  -5  23  -1  124.46   17.76
  -5  23  -2   91.97   15.16
  -6  23   0    2.58    2.82
  -6  23  -1   17.04    7.32
  -6  23  -2   94.32   15.73
  -7  23   0   41.16   10.23
  -7  23  -1   59.96   12.35
   7  24  -1   -2.36    4.79
   7  24  -2    0.86    3.72
   7  24  -3    9.78    5.97
   6  24   0   -1.11    4.33
   6  24  -1    6.87    3.15
   6  24  -2   58.83   12.22
   6  24  -3   11.17    5.29
 -24   6  -4    7.87    5.53
   5  24   0   -1.84    3.14
   5  24  -1   27.53    8.14
 -24   5  -2   48.14   12.72
   5  24  -2   44.20   10.40
 -24   5  -3   47.12   11.70
   5  24  -3   46.58   10.85
 -24   5  -4   64.91   13.28
 -24   4   0   87.25   15.67
   4  24   0   86.24   14.12
 -24   4  -1   63.99   12.99
   4  24  -1   76.12   13.23
 -24   4  -2   46.30   11.36
   4  24  -2   67.26   12.80
 -24   4  -3   21.13    7.96
   4  24  -3   35.04    9.61
 -24   4  -4   20.61    7.88
 -24   3   0    6.88    5.48
   3  24   0    5.34    3.62
 -24   3  -1   21.18    8.30
   3  24  -1   21.44    7.03
 -24   3  -2  122.92   18.73
   3  24  -2  112.20   16.59
 -24   3  -3  181.46   21.83
   3  24  -3  165.13   20.17
 -24   3  -4  187.24   22.05
 -24   2   0   12.51    6.94
   2  24   0   17.31    6.76
 -24   2   1    3.81    4.78
 -24   2  -1   15.73    5.42
   2  24  -1   19.03    7.35
 -24   2  -2    1.93    4.95
   2  24  -2    0.60    1.92
 -24   2  -3   -2.38    4.98
   2  24  -3    0.92    2.37
 -24   2  -4   -2.99    3.55
 -24   1   0    0.43    2.89
   1  24   0    2.47    2.12
 -24   1   1   16.64    7.79
 -24   1  -1   11.22    6.06
   1  24  -1    1.31    3.92
 -24   1  -2   51.00   12.06
   1  24  -2   27.30    8.85
 -24   1  -3   32.18    9.01
 -24   1  -4   47.02   11.08
   0  24   0    5.26    3.82
 -24   0   0    2.18    4.64
   0  24  -1   -1.87    3.36
 -24   0   1    4.48    4.26
 -24   0  -1    3.84    3.92
   0  24  -2   -1.14    2.03
 -24   0  -2    7.25    5.61
  -1  24   0    6.32    5.27
  -1  24  -1   25.13    8.32
  -1  24  -2   23.98    8.53
  -2  24   0  121.18   17.48
  -2  24  -1  134.98   18.42
  -3  24   0    2.67    2.97
  -3  24  -1   39.11    9.82
   7  25  -2  157.84   19.69
   6  25  -1   -4.26    3.87
   5  25   0  200.10   21.97
   5  25  -1  236.27   24.04
   4  25   0    3.70    2.30
   4  25  -1    3.52    3.59
   3  25   0    0.29    2.06
   0   0   0    0.00    0.00
;
_shelx_res_checksum              56913
_shelx_res_file
;
TITL sad in P4/n
    SAD.res
    created by SHELXL-2018/3 at 10:41:27 on 07-Sep-2018
CELL 0.71073 19.2977 19.2977 10.0366 90 90 90
ZERR 4 0.0004 0.0004 0.0008 0 0 0
LATT 1
SYMM 0.5-X,0.5-Y,+Z
SYMM 0.5-Y,+X,+Z
SYMM +Y,0.5-X,+Z

SFAC C H N Nd O
UNIT 96 184 24 8 92
ISOR 0.01 0.02 C12 C13
ISOR 0.01 0.02 N3

L.S. 40
PLAN  5
SIZE 0.35 0.2 0.15
TEMP -100
BOND
fmap 2
acta
OMIT -3 55
OMIT -1 3 0
OMIT 2 2 0
REM <HKL>G:/CML-X-ray/cml131025/tetra%20enNdpdta/sad.hkl</HKL>

WGHT    0.037500   26.761600
FVAR       0.12108
ND1   4    0.394552    0.542956    0.041277    11.00000    0.00911    0.00968 =
         0.03580   -0.00049    0.00181    0.00061
C1    1    0.217341    0.502055    0.061064    11.00000    0.00363    0.02654 =
         0.05705    0.00421    0.00328   -0.00163
AFIX  23
H1A   2    0.213438    0.508691    0.158586    11.00000   -1.20000
H1B   2    0.174965    0.478239    0.029531    11.00000   -1.20000
AFIX   0
C2    1    0.224118    0.571559   -0.007036    11.00000    0.01655    0.03194 =
         0.05955    0.00234   -0.00697    0.00546
C3    1    0.273480    0.437886   -0.110567    11.00000    0.01885    0.03093 =
         0.04446   -0.00207   -0.01398   -0.00349
AFIX  23
H3A   2    0.254215    0.476653   -0.163494    11.00000   -1.20000
H3B   2    0.240999    0.398339   -0.117482    11.00000   -1.20000
AFIX   0
C4    1    0.343472    0.416847   -0.168630    11.00000    0.01694    0.02507 =
         0.04449   -0.01065   -0.00731    0.00433
C5    1    0.372991    0.518999    0.401165    11.00000    0.05032    0.04174 =
         0.03130   -0.00444    0.02138   -0.00168
AFIX  23
H5A   2    0.410698    0.545124    0.445325    11.00000   -1.20000
H5B   2    0.349862    0.490368    0.469878    11.00000   -1.20000
AFIX   0
C6    1    0.321507    0.569479    0.345756    11.00000    0.05103    0.03441 =
         0.05415   -0.01774    0.02357    0.00059
C7    1    0.478056    0.460369    0.327090    11.00000    0.03444    0.04028 =
         0.01911    0.00332   -0.00686   -0.00116
AFIX  23
H7A   2    0.482549    0.421363    0.390574    11.00000   -1.20000
H7B   2    0.497990    0.502093    0.369808    11.00000   -1.20000
AFIX   0
C8    1    0.518563    0.444055    0.203984    11.00000    0.02133    0.01450 =
         0.02658    0.00273   -0.00562    0.00049
C9    1    0.278712    0.395194    0.110899    11.00000    0.01877    0.01806 =
         0.04946    0.00115   -0.00073   -0.00784
AFIX  23
H9A   2    0.313910    0.363372    0.073405    11.00000   -1.20000
H9B   2    0.232979    0.372665    0.099888    11.00000   -1.20000
AFIX   0
C10   1    0.292653    0.402685    0.258683    11.00000    0.02958    0.02455 =
         0.03980    0.01234    0.01348    0.00118
AFIX  23
H10A  2    0.269939    0.363700    0.305627    11.00000   -1.20000
H10B  2    0.270523    0.446006    0.290002    11.00000   -1.20000
AFIX   0
C11   1    0.369630    0.404236    0.299509    11.00000    0.02907    0.02161 =
         0.03650    0.00938    0.00764    0.00199
AFIX  23
H11A  2    0.373638    0.384273    0.390046    11.00000   -1.20000
H11B  2    0.395632    0.373571    0.238241    11.00000   -1.20000
AFIX   0
C12   1    0.191567    0.750597    0.279535    10.65000    0.05392    0.04441 =
         0.09859   -0.02024   -0.00134   -0.02082
C13   1    0.259149    0.740255    0.184059    10.35000    0.02967    0.01118 =
         0.01411    0.00432    0.00098    0.01181
N1    3    0.278955    0.459365    0.030400    11.00000    0.01365    0.02226 =
         0.04153    0.00263   -0.00554   -0.00027
N2    3    0.403587    0.472717    0.299850    11.00000    0.03086    0.02439 =
         0.01978    0.00195    0.00824    0.00072
N3    3    0.162264    0.674325    0.336567    11.00000    0.11432    0.09668 =
         0.16335   -0.07021   -0.07488   -0.01125
AFIX 137
H3C   2    0.187310    0.661505    0.409327    11.00000   -1.20000
H3D   2    0.166760    0.641597    0.271866    11.00000   -1.20000
H3E   2    0.116825    0.678496    0.359447    11.00000   -1.20000
AFIX   0
O1    5    0.282719    0.587838   -0.054074    11.00000    0.01328    0.02887 =
         0.07698    0.01913    0.00194    0.00451
O2    5    0.171998    0.610116   -0.014170    11.00000    0.01069    0.03553 =
         0.08655    0.00905   -0.00701    0.00581
O3    5    0.395776    0.437783   -0.107597    11.00000    0.01359    0.02529 =
         0.04429   -0.01320   -0.00197    0.00170
O4    5    0.321718    0.581317    0.221725    11.00000    0.02382    0.02781 =
         0.06034   -0.00665    0.01245    0.00473
O5    5    0.343249    0.382703   -0.272926    11.00000    0.03694    0.07851 =
         0.06921   -0.04540   -0.01812    0.01476
O6    5    0.282776    0.598026    0.429216    11.00000    0.11458    0.06192 =
         0.10749   -0.01038    0.07032    0.03895
O7    5    0.490573    0.454012    0.092091    11.00000    0.01389    0.01446 =
         0.02188    0.00177    0.00135    0.00139
O8    5    0.580877    0.425155    0.213087    11.00000    0.02344    0.03845 =
         0.04420    0.01112   -0.00640    0.00505
O1W   5    0.478912    0.598911    0.190687    11.00000    0.01865    0.02591 =
         0.05792   -0.02025    0.00638   -0.00016
AFIX   7
H1WA  2    0.519712    0.591438    0.161921    11.00000   -1.50000
H1WB  2    0.471345    0.642342    0.192540    11.00000   -1.50000
AFIX   0
O2W   5    0.250000    0.250000    0.428696    10.25000    0.11296    0.11296 =
         0.07541    0.00000    0.00000    0.00000
O3W   5    0.250000    0.250000   -0.142891    10.25000    0.16276    0.16276 =
         0.19081    0.00000    0.00000    0.00000
AFIX   6
O4W   5    0.179337    0.526490    0.589426    11.00000    0.06565    0.12802 =
         0.06252    0.02100    0.02822   -0.01681
H4WA  2    0.210535    0.548549    0.631584    11.00000   -1.50000
H4WB  2    0.197778    0.493212    0.546504    11.00000   -1.50000
AFIX   6
O5W   5    0.224346    0.392778    0.572233    11.00000    0.03970    0.17460 =
         0.03276   -0.00462   -0.00032   -0.02317
H5WA  2    0.266926    0.389182    0.592557    11.00000   -1.50000
H5WB  2    0.201375    0.382220    0.641548    11.00000   -1.50000

AFIX   0
HKLF 4




REM  sad in P4/n
REM wR2 = 0.1169, GooF = S = 1.039, Restrained GooF = 1.044 for all data
REM R1 = 0.0489 for 3215 Fo > 4sig(Fo) and 0.0689 for all 4198 data
REM 267 parameters refined using 18 restraints

END

WGHT      0.0360     26.7145

REM Highest difference peak  2.110,  deepest hole -1.070,  1-sigma level  0.151
Q1    1   0.2212  0.6934  0.1624  11.00000  0.05    2.11
Q2    1   0.1954  0.7580  0.1938  11.00000  0.05    1.53
Q3    1   0.1036  0.7016  0.3407  11.00000  0.05    1.53
Q4    1   0.1704  0.6731  0.3068  11.00000  0.05    0.89
Q5    1   0.2488  0.5776  0.3825  11.00000  0.05    0.84
;
_shelx_shelxl_version_number     2018/3
_shelx_space_group_comment
;
The symmetry employed for this shelxl refinement is uniquely defined
by the following loop, which should always be used as a source of
symmetry information in preference to the above space-group names.
They are only intended as comments.
;
loop_
_space_group_symop_operation_xyz
'x, y, z'
'-x+1/2, -y+1/2, z'
'-y+1/2, x, z'
'y, -x+1/2, z'
'-x, -y, -z'
'x-1/2, y-1/2, -z'
'y-1/2, -x, -z'
'-y, x-1/2, -z'
loop_
_atom_site_label
_atom_site_type_symbol
_atom_site_fract_x
_atom_site_fract_y
_atom_site_fract_z
_atom_site_U_iso_or_equiv
_atom_site_adp_type
_atom_site_occupancy
_atom_site_site_symmetry_order
_atom_site_calc_flag
_atom_site_refinement_flags_posn
_atom_site_refinement_flags_adp
_atom_site_refinement_flags_occupancy
Nd1 Nd 0.39455(2) 0.54296(2) 0.04128(3) 0.01820(12) Uani 1 1 d . . .
C1 C 0.2173(3) 0.5021(3) 0.0611(8) 0.0291(16) Uani 1 1 d . . .
H1A H 0.213438 0.508691 0.158586 0.035 Uiso 1 1 calc R U .
H1B H 0.174965 0.478239 0.029531 0.035 Uiso 1 1 calc R U .
C2 C 0.2241(4) 0.5716(4) -0.0070(8) 0.0360(18) Uani 1 1 d . . .
C3 C 0.2735(3) 0.4379(4) -0.1106(7) 0.0314(16) Uani 1 1 d . . .
H3A H 0.254215 0.476653 -0.163494 0.038 Uiso 1 1 calc R U .
H3B H 0.240999 0.398339 -0.117482 0.038 Uiso 1 1 calc R U .
C4 C 0.3435(3) 0.4168(4) -0.1686(8) 0.0288(16) Uani 1 1 d . . .
C5 C 0.3730(4) 0.5190(4) 0.4012(8) 0.0411(19) Uani 1 1 d . . .
H5A H 0.410698 0.545124 0.445325 0.049 Uiso 1 1 calc R U .
H5B H 0.349862 0.490368 0.469878 0.049 Uiso 1 1 calc R U .
C6 C 0.3215(5) 0.5695(4) 0.3458(9) 0.047(2) Uani 1 1 d . . .
C7 C 0.4781(4) 0.4604(4) 0.3271(7) 0.0313(16) Uani 1 1 d . . .
H7A H 0.482549 0.421363 0.390574 0.038 Uiso 1 1 calc R U .
H7B H 0.497990 0.502093 0.369808 0.038 Uiso 1 1 calc R U .
C8 C 0.5186(3) 0.4441(3) 0.2040(6) 0.0208(13) Uani 1 1 d . . .
C9 C 0.2787(3) 0.3952(3) 0.1109(8) 0.0288(16) Uani 1 1 d . . .
H9A H 0.313910 0.363372 0.073405 0.035 Uiso 1 1 calc R U .
H9B H 0.232979 0.372665 0.099888 0.035 Uiso 1 1 calc R U .
C10 C 0.2927(4) 0.4027(4) 0.2587(7) 0.0313(16) Uani 1 1 d . . .
H10A H 0.269939 0.363700 0.305627 0.038 Uiso 1 1 calc R U .
H10B H 0.270523 0.446006 0.290002 0.038 Uiso 1 1 calc R U .
C11 C 0.3696(4) 0.4042(3) 0.2995(7) 0.0291(16) Uani 1 1 d . . .
H11A H 0.373638 0.384273 0.390046 0.035 Uiso 1 1 calc R U .
H11B H 0.395632 0.373571 0.238241 0.035 Uiso 1 1 calc R U .
C12 C 0.1916(8) 0.7506(8) 0.2795(18) 0.066(4) Uani 0.65 1 d . U P
C13 C 0.2591(13) 0.7403(12) 0.1841(15) 0.018(5) Uani 0.35 1 d . U P
N1 N 0.2790(3) 0.4594(3) 0.0304(6) 0.0258(12) Uani 1 1 d . . .
N2 N 0.4036(3) 0.4727(3) 0.2999(5) 0.0250(12) Uani 1 1 d . . .
N3 N 0.1623(6) 0.6743(5) 0.3366(13) 0.125(5) Uani 1 1 d . U .
H3C H 0.187310 0.661505 0.409327 0.150 Uiso 1 1 calc R U .
H3D H 0.166760 0.641597 0.271866 0.150 Uiso 1 1 calc R U .
H3E H 0.116825 0.678496 0.359447 0.150 Uiso 1 1 calc R U .
O1 O 0.2827(2) 0.5878(3) -0.0541(6) 0.0397(14) Uani 1 1 d . . .
O2 O 0.1720(2) 0.6101(3) -0.0142(6) 0.0443(15) Uani 1 1 d . . .
O3 O 0.3958(2) 0.4378(2) -0.1076(5) 0.0277(11) Uani 1 1 d . . .
O4 O 0.3217(2) 0.5813(3) 0.2217(6) 0.0373(13) Uani 1 1 d . . .
O5 O 0.3432(3) 0.3827(4) -0.2729(7) 0.0615(19) Uani 1 1 d . . .
O6 O 0.2828(5) 0.5980(4) 0.4292(9) 0.095(3) Uani 1 1 d . . .
O7 O 0.4906(2) 0.4540(2) 0.0921(4) 0.0167(9) Uani 1 1 d . . .
O8 O 0.5809(2) 0.4252(3) 0.2131(5) 0.0354(12) Uani 1 1 d . . .
O1W O 0.4789(2) 0.5989(2) 0.1907(5) 0.0342(12) Uani 1 1 d . . .
H1WA H 0.519712 0.591438 0.161921 0.051 Uiso 1 1 d R U .
H1WB H 0.471345 0.642342 0.192540 0.051 Uiso 1 1 d R U .
O2W O 0.250000 0.250000 0.4287(17) 0.100(6) Uani 1 4 d S T P
O3W O 0.250000 0.250000 -0.143(3) 0.172(10) Uani 1 4 d S T P
O4W O 0.1793(4) 0.5265(5) 0.5894(9) 0.085(3) Uani 1 1 d G . .
H4WA H 0.210535 0.548549 0.631584 0.128 Uiso 1 1 d G U .
H4WB H 0.197778 0.493212 0.546504 0.128 Uiso 1 1 d G U .
O5W O 0.2243(4) 0.3928(6) 0.5722(6) 0.082(3) Uani 1 1 d G . .
H5WA H 0.266926 0.389182 0.592557 0.124 Uiso 1 1 d G U .
H5WB H 0.201375 0.382220 0.641548 0.124 Uiso 1 1 d G U .
loop_
_atom_site_aniso_label
_atom_site_aniso_U_11
_atom_site_aniso_U_22
_atom_site_aniso_U_33
_atom_site_aniso_U_23
_atom_site_aniso_U_13
_atom_site_aniso_U_12
Nd1 0.00911(17) 0.00968(18) 0.0358(2) -0.00049(14) 0.00181(14) 0.00061(11)
C1 0.004(3) 0.027(4) 0.057(5) 0.004(3) 0.003(3) -0.002(2)
C2 0.017(3) 0.032(4) 0.060(5) 0.002(4) -0.007(3) 0.005(3)
C3 0.019(3) 0.031(4) 0.044(4) -0.002(3) -0.014(3) -0.003(3)
C4 0.017(3) 0.025(4) 0.044(4) -0.011(3) -0.007(3) 0.004(3)
C5 0.050(5) 0.042(5) 0.031(4) -0.004(4) 0.021(4) -0.002(4)
C6 0.051(5) 0.034(5) 0.054(6) -0.018(4) 0.024(4) 0.001(4)
C7 0.034(4) 0.040(4) 0.019(3) 0.003(3) -0.007(3) -0.001(3)
C8 0.021(3) 0.015(3) 0.027(3) 0.003(3) -0.006(3) 0.000(2)
C9 0.019(3) 0.018(3) 0.049(5) 0.001(3) -0.001(3) -0.008(3)
C10 0.030(4) 0.025(4) 0.040(4) 0.012(3) 0.013(3) 0.001(3)
C11 0.029(4) 0.022(4) 0.036(4) 0.009(3) 0.008(3) 0.002(3)
C12 0.054(7) 0.044(7) 0.099(9) -0.020(6) -0.001(7) -0.021(6)
C13 0.030(10) 0.011(9) 0.014(6) 0.004(6) 0.001(6) 0.012(7)
N1 0.014(3) 0.022(3) 0.042(3) 0.003(3) -0.006(2) 0.000(2)
N2 0.031(3) 0.024(3) 0.020(3) 0.002(2) 0.008(2) 0.001(2)
N3 0.114(8) 0.097(8) 0.163(10) -0.070(7) -0.075(8) -0.011(6)
O1 0.013(2) 0.029(3) 0.077(4) 0.019(3) 0.002(2) 0.005(2)
O2 0.011(2) 0.036(3) 0.087(4) 0.009(3) -0.007(3) 0.006(2)
O3 0.014(2) 0.025(2) 0.044(3) -0.013(2) -0.002(2) 0.0017(18)
O4 0.024(3) 0.028(3) 0.060(4) -0.007(3) 0.012(3) 0.005(2)
O5 0.037(3) 0.079(5) 0.069(4) -0.045(4) -0.018(3) 0.015(3)
O6 0.115(7) 0.062(5) 0.107(7) -0.010(4) 0.070(6) 0.039(5)
O7 0.014(2) 0.014(2) 0.022(2) 0.0018(17) 0.0014(17) 0.0014(16)
O8 0.023(3) 0.038(3) 0.044(3) 0.011(2) -0.006(2) 0.005(2)
O1W 0.019(2) 0.026(3) 0.058(3) -0.020(2) 0.006(2) -0.0002(19)
O2W 0.113(9) 0.113(9) 0.075(12) 0.000 0.000 0.000
O3W 0.163(15) 0.163(15) 0.19(3) 0.000 0.000 0.000
O4W 0.066(5) 0.128(8) 0.063(5) 0.021(5) 0.028(4) -0.017(5)
O5W 0.040(4) 0.175(9) 0.033(3) -0.005(4) 0.000(3) -0.023(5)
loop_
_atom_type_symbol
_atom_type_description
_atom_type_scat_dispersion_real
_atom_type_scat_dispersion_imag
_atom_type_scat_source
C C 0.0033 0.0016 'International Tables Vol C Tables 4.2.6.8 and 6.1.1.4'
H H 0.0000 0.0000 'International Tables Vol C Tables 4.2.6.8 and 6.1.1.4'
N N 0.0061 0.0033 'International Tables Vol C Tables 4.2.6.8 and 6.1.1.4'
Nd Nd -0.1943 3.0179 'International Tables Vol C Tables 4.2.6.8 and 6.1.1.4'
O O 0.0106 0.0060 'International Tables Vol C Tables 4.2.6.8 and 6.1.1.4'
loop_
_geom_angle_atom_site_label_1
_geom_angle_atom_site_label_2
_geom_angle_atom_site_label_3
_geom_angle
_geom_angle_site_symmetry_1
_geom_angle_site_symmetry_3
N1 Nd1 C8 118.08(17) . 5_665
N1 Nd1 N2 79.20(17) . .
N2 Nd1 C8 137.23(16) . 5_665
O1 Nd1 C8 98.00(17) . 5_665
O1 Nd1 N1 59.45(15) . .
O1 Nd1 N2 123.16(17) . .
O1 Nd1 O3 93.43(16) . .
O1 Nd1 O7 122.01(15) . 5_665
O1 Nd1 O7 157.21(15) . .
O1 Nd1 O8 73.08(16) . 5_665
O2 Nd1 C8 81.23(18) 8_665 5_665
O2 Nd1 N1 123.25(17) 8_665 .
O2 Nd1 N2 123.87(18) 8_665 .
O2 Nd1 O1 65.52(17) 8_665 .
O2 Nd1 O3 137.39(19) 8_665 .
O2 Nd1 O7 87.26(15) 8_665 5_665
O2 Nd1 O7 135.16(15) 8_665 .
O2 Nd1 O8 70.94(18) 8_665 5_665
O3 Nd1 C8 64.79(16) . 5_665
O3 Nd1 N1 60.83(16) . .
O3 Nd1 N2 98.73(16) . .
O3 Nd1 O7 72.77(13) . 5_665
O3 Nd1 O7 64.80(14) . .
O3 Nd1 O8 67.47(16) . 5_665
O4 Nd1 C8 157.03(17) . 5_665
O4 Nd1 N1 74.77(17) . .
O4 Nd1 N2 60.76(17) . .
O4 Nd1 O1 71.31(19) . .
O4 Nd1 O2 75.84(18) . 8_665
O4 Nd1 O3 134.32(16) . .
O4 Nd1 O7 118.39(16) . .
O4 Nd1 O7 151.75(15) . 5_665
O4 Nd1 O8 138.77(17) . 5_665
O4 Nd1 O1W 78.06(17) . .
O7 Nd1 C8 79.37(15) . 5_665
O7 Nd1 C8 24.83(14) 5_665 5_665
O7 Nd1 N1 101.54(14) . .
O7 Nd1 N1 133.29(15) 5_665 .
O7 Nd1 N2 58.28(14) . .
O7 Nd1 N2 114.63(14) 5_665 .
O7 Nd1 O7 60.12(15) . 5_665
O7 Nd1 O8 49.33(13) 5_665 5_665
O7 Nd1 O8 102.43(14) . 5_665
O8 Nd1 C8 24.92(15) 5_665 5_665
O8 Nd1 N1 103.94(17) 5_665 .
O8 Nd1 N2 160.47(15) 5_665 .
O1W Nd1 C8 95.39(17) . 5_665
O1W Nd1 N1 144.70(18) . .
O1W Nd1 N2 67.95(17) . .
O1W Nd1 O1 130.39(17) . .
O1W Nd1 O2 69.77(18) . 8_665
O1W Nd1 O3 135.06(14) . .
O1W Nd1 O7 74.87(14) . 5_665
O1W Nd1 O7 72.31(14) . .
O1W Nd1 O8 111.34(16) . 5_665
N1 C1 C2 109.3(5) . .
O1 C2 C1 117.8(6) . .
O2 C2 C1 118.9(6) . .
O2 C2 O1 123.3(7) . .
N1 C3 C4 112.1(5) . .
O3 C4 C3 116.3(6) . .
O5 C4 C3 117.5(6) . .
O5 C4 O3 126.2(7) . .
N2 C5 C6 113.8(7) . .
O4 C6 C5 118.7(7) . .
O6 C6 C5 115.7(9) . .
O6 C6 O4 125.5(9) . .
N2 C7 C8 112.8(5) . .
C7 C8 Nd1 162.9(4) . 5_665
O7 C8 Nd1 59.6(3) . 5_665
O7 C8 C7 118.7(5) . .
O8 C8 Nd1 63.2(4) . 5_665
O8 C8 C7 120.0(6) . .
O8 C8 O7 121.2(6) . .
N1 C9 C10 117.0(6) . .
C9 C10 C11 115.7(6) . .
N2 C11 C10 116.5(5) . .
C13 C12 C13 17.0(12) 2_565 .
C13 C12 N3 111.3(13) . .
C13 C12 N3 126.1(15) 2_565 .
C12 C13 C12 97.4(15) 2_565 .
C13 C13 C12 113(5) 2_565 2_565
C13 C13 C12 50(4) 2_565 .
C1 N1 Nd1 108.5(4) . .
C3 N1 Nd1 105.1(4) . .
C3 N1 C1 107.3(5) . .
C3 N1 C9 106.7(5) . .
C9 N1 Nd1 118.1(4) . .
C9 N1 C1 110.5(5) . .
C5 N2 Nd1 107.8(4) . .
C5 N2 C7 111.0(6) . .
C7 N2 Nd1 107.2(4) . .
C11 N2 Nd1 112.7(4) . .
C11 N2 C5 111.5(5) . .
C11 N2 C7 106.7(5) . .
C2 O1 Nd1 122.7(5) . .
C2 O2 Nd1 141.5(5) . 7_565
C4 O3 Nd1 123.0(4) . .
C6 O4 Nd1 133.3(5) . .
Nd1 O7 Nd1 119.88(15) . 5_665
C8 O7 Nd1 95.6(4) . 5_665
C8 O7 Nd1 125.9(4) . .
C8 O8 Nd1 91.9(4) . 5_665
loop_
_geom_bond_atom_site_label_1
_geom_bond_atom_site_label_2
_geom_bond_distance
_geom_bond_site_symmetry_2
Nd1 C8 2.989(7) 5_665
Nd1 N1 2.755(5) .
Nd1 N2 2.933(5) .
Nd1 O1 2.515(5) .
Nd1 O2 2.507(5) 8_665
Nd1 O3 2.520(4) .
Nd1 O4 2.409(5) .
Nd1 O7 2.577(4) .
Nd1 O7 2.590(4) 5_665
Nd1 O8 2.669(5) 5_665
Nd1 O1W 2.463(5) .
C1 C2 1.511(10) .
C1 N1 1.479(8) .
C2 O1 1.265(9) .
C2 O2 1.253(8) .
C3 C4 1.526(9) .
C3 N1 1.478(9) .
C4 O3 1.248(8) .
C4 O5 1.237(9) .
C5 C6 1.498(12) .
C5 N2 1.477(9) .
C6 O4 1.266(10) .
C6 O6 1.251(9) .
C7 C8 1.496(9) .
C7 N2 1.482(9) .
C8 O7 1.261(7) .
C8 O8 1.260(7) .
C9 C10 1.514(10) .
C9 N1 1.479(8) .
C10 C11 1.541(10) .
C11 N2 1.475(8) .
C12 C13 1.63(3) .
C12 C13 1.36(3) 2_565
C12 N3 1.677(19) .
C13 C13 0.52(3) 2_565
