#------------------------------------------------------------------------------
#$Date: 2020-07-28 00:14:56 +0300 (Tue, 28 Jul 2020) $
#$Revision: 254599 $
#$URL: file:///home/coder/svn-repositories/cod/cif/4/51/78/4517876.cif $
#------------------------------------------------------------------------------
#
# This file is available in the Crystallography Open Database (COD),
# http://www.crystallography.net/
#
# All data on this site have been placed in the public domain by the
# contributors.
#
data_4517876
loop_
_publ_author_name
'Kong, Xiang-Jing'
'Ji, Xiaoting'
'He, Tao'
'Xie, Lin-Hua'
'Zhang, Yong-Zheng'
'Lv, Haoyuan'
'Ding, Caifeng'
'Li, Jian-Rong'
_publ_section_title
;
 Green-Emission Metal-Organic Framework-Based Nanoprobe for Imaging Dual
 Tumor Biomarkers in Living Cells.
;
_journal_name_full               'ACS applied materials &amp; interfaces'
_journal_paper_doi               10.1021/acsami.0c10038
_journal_year                    2020
_chemical_formula_sum            'C108 H52 N4 O36 Zr6'
_chemical_formula_weight         2528.85
_space_group_crystal_system      tetragonal
_space_group_IT_number           123
_space_group_name_Hall           '-P 4 2'
_space_group_name_H-M_alt        'P 4/m m m'
_atom_sites_solution_hydrogens   geom
_audit_creation_method           SHELXL-2014
_cell_angle_alpha                90
_cell_angle_beta                 90
_cell_angle_gamma                90
_cell_formula_units_Z            1
_cell_length_a                   18.0404(3)
_cell_length_b                   18.0404(3)
_cell_length_c                   20.6034(4)
_cell_measurement_reflns_used    3626
_cell_measurement_temperature    293(2)
_cell_measurement_theta_max      71.5950
_cell_measurement_theta_min      4.2930
_cell_volume                     6705.5(2)
_computing_cell_refinement       'CrysAlisPro 1.171.40.53 (Rigaku OD, 2019)'
_computing_data_collection       'CrysAlisPro 1.171.40.53 (Rigaku OD, 2019)'
_computing_data_reduction        'CrysAlisPro 1.171.40.53 (Rigaku OD, 2019)'
_computing_structure_refinement  'SHELXL-2014 (Sheldrick, 2014)'
_diffrn_ambient_temperature      293(2)
_diffrn_detector_area_resol_mean 10.3376
_diffrn_measured_fraction_theta_full 0.999
_diffrn_measured_fraction_theta_max 0.983
_diffrn_measurement_device_type  'SuperNova, Dual, Cu at home/near, AtlasS2'
_diffrn_measurement_method       '\w scans'
_diffrn_radiation_type           CuK\a
_diffrn_radiation_wavelength     1.54178
_diffrn_reflns_av_R_equivalents  0.0523
_diffrn_reflns_av_unetI/netI     0.0375
_diffrn_reflns_Laue_measured_fraction_full 0.999
_diffrn_reflns_Laue_measured_fraction_max 0.983
_diffrn_reflns_limit_h_max       22
_diffrn_reflns_limit_h_min       -21
_diffrn_reflns_limit_k_max       19
_diffrn_reflns_limit_k_min       -18
_diffrn_reflns_limit_l_max       25
_diffrn_reflns_limit_l_min       -16
_diffrn_reflns_number            14088
_diffrn_reflns_point_group_measured_fraction_full 0.999
_diffrn_reflns_point_group_measured_fraction_max 0.983
_diffrn_reflns_theta_full        67.679
_diffrn_reflns_theta_max         72.385
_diffrn_reflns_theta_min         3.256
_diffrn_source                   'micro-focus sealed X-ray tube'
_exptl_absorpt_coefficient_mu    2.135
_exptl_absorpt_correction_T_max  1.00000
_exptl_absorpt_correction_T_min  0.60679
_exptl_absorpt_correction_type   multi-scan
_exptl_absorpt_process_details
; 
CrysAlisPro 1.171.40.53 (Rigaku Oxford Diffraction, 2019) 
Empirical absorption correction using spherical harmonics, 
 implemented in SCALE3 ABSPACK scaling algorithm. 
;
_exptl_crystal_density_diffrn    0.626
_exptl_crystal_description       block
_exptl_crystal_F_000             1256
_refine_diff_density_max         1.078
_refine_diff_density_min         -1.506
_refine_diff_density_rms         0.109
_refine_ls_extinction_method     none
_refine_ls_goodness_of_fit_ref   0.997
_refine_ls_hydrogen_treatment    constr
_refine_ls_matrix_type           full
_refine_ls_number_parameters     132
_refine_ls_number_reflns         3751
_refine_ls_number_restraints     347
_refine_ls_restrained_S_all      1.117
_refine_ls_R_factor_all          0.1127
_refine_ls_R_factor_gt           0.0928
_refine_ls_shift/su_max          0.000
_refine_ls_shift/su_mean         0.000
_refine_ls_structure_factor_coef Fsqd
_refine_ls_weighting_details
'w=1/[\s^2^(Fo^2^)+(0.1844P)^2^+12.9905P] where P=(Fo^2^+2Fc^2^)/3'
_refine_ls_weighting_scheme      calc
_refine_ls_wR_factor_gt          0.2728
_refine_ls_wR_factor_ref         0.2994
_reflns_Friedel_coverage         0.000
_reflns_number_gt                2657
_reflns_number_total             3751
_reflns_threshold_expression     'I > 2\s(I)'
_cod_data_source_file            am0c10038_si_002.cif
_cod_data_source_block           BUT-88
_cod_original_cell_volume        6705.5(3)
_cod_database_code               4517876
_shelx_space_group_comment
; 
The symmetry employed for this shelxl refinement is uniquely defined 
by the following loop, which should always be used as a source of 
symmetry information in preference to the above space-group names. 
They are only intended as comments. 
;
_shelxl_version_number           2014-1
_shelx_res_file
; 
TITL shelxt_a.res in P4/mmm 
CELL  1.54178  18.0404  18.0404  20.6034   90.000   90.000   90.000 
ZERR     1.00   0.0003   0.0003   0.0004    0.000    0.000    0.000 
LATT   1 
SYMM  - X, - Y,   Z 
SYMM  - Y,   X,   Z 
SYMM    Y, - X,   Z 
SYMM  - X,   Y, - Z 
SYMM    X, - Y, - Z 
SYMM    Y,   X, - Z 
SYMM  - Y, - X, - Z 
SFAC  C    H    N    O    ZR 
UNIT  108 52 4 36 6 
MERG   2 
ABIN 
SADI c1 c2 c2 c3 c3 c4 c4 c5 c5 c6 
SADI c1 c3 c2 c4 c3 c5 c4 c6 c5 c1 
FLAT c1 c2 c3 c4 c5 c6 
SADI c11 c12 c12 c13 c13 c14 c14 c15 c15 c16 
SADI c11 c13 c12 c14 c13 c15 c14 c16 c15 c11 
FLAT c11 c12 c13 c14 c15 c16 
isor 0.05 C1 C2 C4 C5 C6 C8 C9 C10 C11 C12 C13 C14 C15 C16 N1 O5 
  
isor 0.02 o4 c12 c13 c9 
isor 0.01 C3 
DELU 
SIMU 
FMAP   2 
PLAN   20 
ACTA 
BOND   $H 
L.S.  20    0   78 
WGHT    0.184400   12.990499 
FVAR       0.30812 
C1    1    0.336630    0.336630    0.293144    10.50000    0.22104    0.22104 = 
         0.03289   -0.00621   -0.00621   -0.14689 
C2    1    0.348712    0.348712    0.229099    10.50000    0.22575    0.22575 = 
         0.04139   -0.00604   -0.00604   -0.14847 
AFIX  43 
H2    2    0.383839    0.383839    0.217041    10.50000   -1.20000 
AFIX   0 
C3    1    0.312060    0.312060    0.182322    10.25000    0.12489    0.12489 = 
         0.03331   -0.00517   -0.00517   -0.05848 
AFIX  43 
H3    2    0.322211    0.322211    0.138970    10.25000   -1.20000 
AFIX   0 
C4    1    0.260602    0.260602    0.197650    10.50000    0.30039    0.30039 = 
         0.04898   -0.00659   -0.00659   -0.21844 
C5    1    0.248110    0.248110    0.261746    10.50000    0.34795    0.34795 = 
         0.05624   -0.00113   -0.00113   -0.27346 
AFIX  43 
H5    2    0.213129    0.213129    0.274436    10.50000   -1.20000 
AFIX   0 
C6    1    0.286395    0.286395    0.307170    10.50000    0.32024    0.32024 = 
         0.04781   -0.00482   -0.00482   -0.23695 
AFIX  43 
H6    2    0.276633    0.276633    0.350660    10.50000   -1.20000 
AFIX   0 
C7    1    0.378997    0.378997    0.344400    10.50000    0.17705    0.17705 = 
         0.03139   -0.00335   -0.00335   -0.09887 
C8    1    0.052561    0.052561    0.000000    10.25000    0.12424    0.12424 = 
         0.04539    0.00000    0.00000   -0.05092 
C9    1    0.076666    0.000000    0.000000    10.12500    0.09509    0.15462 = 
         0.02369    0.00000    0.00000    0.00000 
C10   1    0.161168    0.000000    0.000000    10.12500    0.11750    0.12330 = 
         0.11078    0.00000    0.00000    0.00000 
C11   1    0.140130    0.140130    0.054349    10.50000    0.32913    0.32913 = 
         0.04760   -0.00102   -0.00102   -0.25376 
C12   1    0.191848    0.191848    0.035531    10.50000    0.30532    0.30532 = 
         0.06054    0.00243    0.00243   -0.22413 
C13   1    0.231122    0.231122    0.081425    10.50000    0.29859    0.29859 = 
         0.06030   -0.00601   -0.00601   -0.21916 
AFIX  43 
H13   2    0.266154    0.266154    0.068948    10.50000   -1.20000 
AFIX   0 
C14   1    0.217447    0.217447    0.146585    10.50000    0.34045    0.34045 = 
         0.05754   -0.00365   -0.00365   -0.26753 
C15   1    0.165772    0.165772    0.164739    10.50000    0.33648    0.33648 = 
         0.04215    0.00045    0.00045   -0.25432 
AFIX  43 
H15   2    0.157474    0.157474    0.208692    10.50000   -1.20000 
AFIX   0 
C16   1    0.125750    0.125750    0.119870    10.50000    0.32791    0.32791 = 
         0.04608    0.00134    0.00134   -0.25404 
AFIX  43 
H16   2    0.090767    0.090767    0.132554    10.50000   -1.20000 
AFIX   0 
N1    3    0.105912    0.105912    0.000000    10.25000    0.26085    0.26085 = 
         0.04746    0.00000    0.00000   -0.18829 
O1    4    0.500000    0.596160    0.441322    10.50000    0.12856    0.12567 = 
         0.05487   -0.04125    0.00000    0.00000 
O2    4    0.420106    0.279536    0.500000    10.50000    0.53272    0.11414 = 
         0.04305    0.00000    0.00000   -0.13857 
O3    4    0.425498    0.425498    0.325673    10.50000    0.10903    0.10903 = 
         0.03102   -0.00592   -0.00592   -0.04044 
O4    4    0.363398    0.363398    0.402279    10.50000    0.20685    0.20685 = 
         0.02818   -0.00758   -0.00758   -0.13332 
O5    4    0.193347    0.000000    0.049839    10.25000    0.14910    0.16591 = 
         0.22142    0.00000   -0.09337    0.00000 
ZR1   5    0.500000    0.500000    0.379977    10.12500    0.06752    0.06752 = 
         0.01542    0.00000    0.00000    0.00000 
ZR2   5    0.402910    0.402910    0.500000    10.25000    0.13825    0.13825 = 
         0.01905    0.00000    0.00000   -0.07766 
HKLF    4 
  
REM  shelxt_a.res in P4/mmm 
REM R1 =  0.0928 for    2657 Fo > 4sig(Fo)  and  0.1127 for all    3751 data 
REM    132 parameters refined using    347 restraints 
  
END 
  
WGHT      0.2000      0.0000 
  
REM Highest difference peak  1.078,  deepest hole -1.506,  1-sigma level  0.109 
Q1    1   0.3668  0.3668  0.5000  10.25000  0.05    1.08 
Q2    1   0.4632  0.4632  0.3797  10.50000  0.05    1.03 
Q3    1   0.3454  0.2755  0.1830  11.00000  0.05    1.01 
Q4    1   0.0736  0.1413  0.0000  10.50000  0.05    0.92 
Q5    1   0.1519  0.2311  0.0332  11.00000  0.05    0.91 
Q6    1   0.1884  0.2707  0.0800  11.00000  0.05    0.89 
Q7    1   0.4357  0.3881  0.5000  10.50000  0.05    0.80 
Q8    1   0.1776  0.1066  0.0530  11.00000  0.05    0.69 
Q9    1   0.1876  0.2614  0.1475  11.00000  0.05    0.56 
Q10   1   0.1624  0.0929  0.1172  11.00000  0.05    0.49 
Q11   1   0.4425  0.2355  0.4665  11.00000  0.05    0.47 
Q12   1   0.2059  0.3031  0.2594  11.00000  0.05    0.47 
Q13   1   0.3391  0.2504  0.3072  11.00000  0.05    0.45 
Q14   1   0.3011  0.2223  0.1980  11.00000  0.05    0.44 
Q15   1   0.4197  0.2233  0.5000  10.50000  0.05    0.40 
Q16   1   0.1334  0.2022  0.1620  11.00000  0.05    0.34 
Q17   1   0.5000  0.6397  0.4269  10.50000  0.05    0.31 
Q18   1   0.3952  0.3199  0.2328  11.00000  0.05    0.30 
Q19   1   0.3186  0.2381  0.3515  11.00000  0.05    0.28 
Q20   1   0.4045  0.3346  0.4022  11.00000  0.05    0.28 
;
_shelx_res_checksum              59791
_shelx_hkl_file
; 
   0   0   2 6140.40   31.04 
   0   0   3   34.47    3.25 
   0   0   4 3920.50   35.48 
   0   0   5  919.80   19.40 
   0   0   6 6565.85   56.91 
   0   0   7 1730.41   32.32 
   0   0   8 1795.97   35.77 
   0   0   9 3051.65   50.07 
   0   0  10 3441.84   56.90 
   0   0  11 1896.35   44.87 
   0   0  12 1457.31   41.78 
   0   0  13  274.53   19.78 
   0   0  14  592.57   20.63 
   0   0  14  614.87   30.51 
   0   0  15  565.95   20.95 
   0   0  16 2077.19   41.31 
   0   0  17 1222.00   32.81 
   0   0  18 1556.04   37.53 
   0   0  19  678.95   24.94 
   0   0  20  529.90   21.71 
   0   0  21   89.24    9.27 
   0   0  22  287.71   14.79 
   0   0  23  165.45   10.35 
   0  -1  -1 9999.00   29.25 
   1   0   2 1373.98   15.09 
   0   1   2 1329.86   15.32 
   0  -1   3  531.48   11.59 
   0   1   3  511.43   11.60 
   1   0   3  522.88   11.40 
   0  -1   4   26.37    3.64 
   0   1   4   22.32    3.44 
   1   0   4   26.84    3.78 
  -1   0   4   23.65    3.54 
   1   0   5 1196.97   21.97 
  -1   0   5 1200.02   23.18 
   0  -1   5 1213.32   22.22 
   0   1   5 1242.98   22.81 
   1   0   6  697.08   18.74 
   0  -1   6  723.29   19.07 
  -1   0   6  728.54   19.50 
   0   1   6  733.91   19.48 
  -1   0   7 3423.08   45.71 
   0  -1   7 3363.26   44.55 
   1   0   7 3400.49   44.53 
   0   1   7 3481.07   45.84 
   1   0   8  710.00   22.33 
  -1   0   8  762.23   23.32 
   0   1   8  741.16   23.14 
   0  -1   8  736.38   22.70 
   0  -1   9 1271.81   31.95 
   1   0   9 1209.27   31.18 
  -1   0   9 1230.68   31.90 
   0   1   9 1229.09   31.86 
  -1   0  10 1568.86   38.93 
   1   0  10 1536.67   37.74 
   0  -1  10 1639.63   39.29 
   0   1  10 1542.91   38.15 
   1   0  11 1373.45   37.87 
   0   1  11 1330.84   37.81 
   0  -1  11 1275.11   36.81 
  -1   0  11 1402.52   39.00 
   0  -1  12  409.97   22.40 
   0   1  12  404.52   22.57 
  -1   0  12  382.58   21.91 
   1   0  12  380.96   21.74 
   0  -1  13  231.73   18.17 
   0   1  13  247.82   18.83 
  -1   0  13  228.60   18.41 
  -1   0  14  105.57   13.57 
   0  -1  14  116.78   13.88 
   1   0  14  109.47    8.98 
   0   1  14  117.29    9.43 
   0  -1  14  109.92    9.07 
  -1   0  14  111.56    9.06 
  -1   0  15  875.13   38.08 
   1   0  15  882.07   25.89 
   0   1  15  884.40   26.22 
  -1   0  15  890.95   26.46 
   0  -1  15  911.38   26.42 
   0  -1  16  779.56   25.36 
   1   0  16  750.35   24.92 
  -1   0  16  774.45   25.72 
   0   1  16  780.05   25.56 
  -1   0  17 1622.17   37.89 
   0   1  17 1652.70   37.99 
   0  -1  17 1602.88   37.40 
   1   0  17 1634.22   37.74 
   0   1  18  683.77   25.01 
  -1   0  18  664.11   24.91 
   0  -1  18  658.51   24.58 
   1   0  18  672.41   24.95 
   0  -1  19  804.88   26.96 
   1   0  19  833.80   27.55 
   0   1  19  838.67   27.72 
  -1   0  19  827.07   27.23 
   0  -1  20   46.08    7.17 
   0   1  20   54.95    7.91 
   1   0  20   56.70    7.96 
  -1   0  20   50.23    7.41 
   0  -1  21   55.46    7.50 
   1   0  21   53.96    7.40 
  -1   0  21   38.72    6.25 
   0   1  21   52.55    7.63 
  -1   0  22   78.89    8.40 
   0  -1  22   69.95    7.79 
   1   0  22   79.01    8.25 
   0   1  22   80.32    8.44 
  -1   0  23  265.85   13.14 
   1   0  23  288.20   13.42 
   0   1  23  285.83   13.47 
   0  -1  23  271.37   12.93 
  -1   0  24  161.31    9.13 
   1  -1   0 8447.88   29.05 
   1  -1   1 3330.03   17.99 
  -1  -1  -1 3357.11   14.42 
  -1  -1  -2 2530.80   13.67 
   1  -1   2 2484.30   17.68 
   1  -1   2 2456.16   19.41 
  -1   1   3  113.60    5.71 
   1  -1   3  104.47    5.06 
   1  -1   4    9.40    2.83 
   1   1   4   18.07    3.94 
  -1   1   4   10.41    2.99 
   1  -1   5    3.39    2.95 
  -1   1   5    4.13    3.18 
   1   1   5   10.94    3.88 
  -1   1   6 1670.44   29.59 
   1   1   6 1606.13   28.54 
   1  -1   6 1693.54   28.59 
  -1  -1   6 1643.26   29.72 
   1   1   7  606.22   19.14 
  -1   1   7  618.56   19.68 
   1  -1   7  626.54   19.21 
  -1  -1   7  624.96   19.63 
  -1   1   8 1359.05   31.66 
   1   1   8 1318.42   30.63 
  -1  -1   8 1360.84   31.35 
   1  -1   8 1339.36   30.30 
   1  -1   9  298.85   15.55 
  -1  -1   9  288.46   15.96 
   1   1   9  309.18   16.16 
  -1   1   9  311.14   16.58 
  -1   1  10  978.56   30.83 
  -1  -1  10 1020.86   31.30 
   1  -1  10 1013.95   30.23 
   1   1  10 1026.25   30.94 
   1  -1  11  367.38   19.86 
  -1  -1  11  385.39   20.71 
  -1   1  11  368.13   20.64 
  -1   1  12  304.47   19.65 
  -1  -1  12  294.48   19.45 
   1  -1  12  289.08   18.96 
  -1  -1  13   14.32    5.40 
  -1   1  13   15.98    6.39 
   1  -1  13   16.71    6.62 
  -1  -1  14  152.03   15.50 
  -1   1  14  166.90   16.58 
  -1   1  14  166.72   11.25 
  -1  -1  14  162.11   11.10 
   1  -1  14  159.29   10.72 
   1   1  14  173.64   11.31 
  -1  -1  15  227.50   20.13 
  -1   1  15  240.92   14.05 
   1   1  15  244.09   13.82 
  -1  -1  15  257.04   14.43 
   1  -1  15  247.94   13.86 
  -1  -1  16 1080.24   44.34 
   1  -1  16 1140.17   30.55 
   1   1  16 1132.67   30.63 
  -1   1  16 1158.61   31.30 
  -1  -1  16 1127.46   30.75 
  -1  -1  17  611.44   23.32 
   1  -1  17  617.14   23.22 
   1   1  17  626.59   23.61 
  -1   1  17  629.10   23.67 
  -1  -1  18 1108.12   31.83 
   1   1  18 1110.41   31.93 
  -1   1  18 1136.30   32.14 
   1  -1  18 1120.60   31.84 
  -1   1  19  179.92   13.30 
   1   1  19  167.28   13.08 
   1  -1  19  173.17   12.98 
  -1  -1  19  163.04   12.42 
   1  -1  20   44.95    7.16 
   1   1  20   58.64    8.10 
  -1   1  20   34.30    6.12 
  -1  -1  20   45.73    6.82 
   1   1  21    3.99    4.49 
  -1   1  21   -2.31    4.93 
  -1  -1  21   -0.67    3.95 
   1  -1  21    6.72    4.72 
   1   1  22   84.31    8.69 
  -1  -1  22   68.32    7.64 
   1  -1  22   67.29    7.67 
  -1   1  22   71.92    7.82 
  -1  -1  23   94.00    8.07 
   1   1  23   95.36    8.24 
  -1   1  23   95.80    8.44 
  -1   1  24  268.07   11.60 
  -1  -1  24  269.51   11.29 
   0  -2   0 1353.68   14.73 
   0  -2   1 1591.86   16.63 
   0  -2  -1 1570.06   15.66 
   0  -2   2 1210.28   15.95 
   0  -2  -2 1214.33   14.43 
   0   2   3  710.87   14.31 
   0   2   4  342.17   11.24 
   0   2   5   55.86    5.55 
   0  -2   5   50.97    5.12 
   0   2   6   80.03    7.07 
   0  -2   6   90.90    7.11 
  -2   0   6   96.09    7.59 
   0  -2   7  134.21    9.30 
   0   2   7  149.23    9.98 
  -2   0   7  146.86   10.00 
   0  -2   8 1259.67   29.62 
   0   2   8 1308.40   30.82 
  -2   0   8 1287.79   30.80 
   0   2   9  133.70   11.19 
   0  -2   9  133.09   10.88 
  -2   0   9  123.07   10.80 
   0  -2  10  145.84   12.20 
   0   2  10  124.47   12.02 
  -2   0  10  138.33   12.06 
   0  -2  11    5.72    4.72 
  -2   0  11   -2.92    4.86 
   0   2  11    7.66    5.55 
   0  -2  12    0.42    4.06 
  -2   0  12   -3.86    5.12 
  -2   0  13   49.29    9.29 
   0  -2  13   50.29    8.58 
   0  -2  14   10.85    5.51 
  -2   0  14    5.38    4.39 
   0  -2  14   11.42    3.82 
   0   2  14   11.83    4.14 
   2   0  14   17.48    4.46 
  -2   0  14    4.84    2.77 
   0  -2  15   79.52   12.49 
  -2   0  15   74.90   12.21 
   0   2  15   71.80    8.04 
   0  -2  15   78.82    8.20 
   2   0  15   71.18    7.55 
  -2   0  15   78.89    8.17 
  -2   0  16  546.25   32.07 
   2   0  16  581.52   22.11 
  -2   0  16  588.69   22.56 
   0   2  16  574.37   22.17 
   0  -2  16  566.18   21.65 
  -2   0  17  262.31   15.81 
   0   2  17  277.80   16.04 
   2   0  17  275.69   15.71 
   0  -2  17  276.93   15.68 
  -2   0  18  814.53   27.35 
   2   0  18  789.56   26.74 
   0  -2  18  802.54   26.78 
   0   2  18  805.72   27.20 
   2   0  19    3.30    4.77 
   0   2  19   -2.73    5.39 
   0  -2  19    0.14    3.91 
  -2   0  19    5.50    5.26 
   0  -2  20   27.33    5.84 
   2   0  20   39.58    6.83 
  -2   0  20   21.20    5.10 
   0   2  20   22.24    5.54 
   2   0  21   54.83    7.47 
   0   2  21   44.52    7.22 
  -2   0  21   46.10    6.85 
   0  -2  21   50.31    7.17 
  -2   0  22    1.52    3.74 
   0  -2  22    4.93    3.70 
   2   0  22    4.16    4.05 
   0   2  22    3.89    4.49 
   0   2  23   53.58    6.71 
   0  -2  23   50.92    5.94 
  -2   0  23   39.89    5.86 
  -2   0  24  138.29    8.44 
   1  -2   0  796.98   11.69 
  -1  -2   0  799.34   11.30 
   2  -1   1  669.84    8.85 
  -1  -2  -1  669.88    9.97 
   1  -2   1  704.24    6.26 
  -1   2   1  680.28    8.44 
   1  -2   1  693.26   11.17 
   1  -2  -1  680.57   11.20 
  -1   2   2  258.60    7.04 
   1  -2   2  270.78    6.17 
  -1  -2  -2  258.28    6.12 
   2  -1   2  269.81    5.66 
   1  -2   2  255.51    7.17 
  -1  -2  -3   19.64    2.03 
  -1   2   3   24.67    3.13 
  -2  -1  -3   28.90    1.37 
   1  -2   3   26.77    2.75 
  -1   2   4 1672.84   24.24 
   1  -2   4 1675.86   22.38 
   2  -1   4 1721.44   23.38 
   1  -2   5   26.52    3.78 
  -2   1   5   25.50    4.23 
   2  -1   5   30.31    4.39 
  -1   2   5   27.09    4.31 
   2  -1   6    4.04    3.17 
  -1   2   6    4.04    3.17 
   1  -2   6    1.60    2.44 
  -2   1   6    0.57    2.66 
   1  -2   7  329.36   13.92 
  -1   2   7  342.78   14.81 
  -2   1   7  323.72   14.62 
   2  -1   7  321.33   13.90 
  -2  -1   7  322.15   14.57 
  -1  -2   7  328.47   14.50 
   1  -2   8   57.78    6.86 
  -1   2   8   58.86    7.34 
  -1  -2   8   52.78    6.78 
  -2   1   8   42.06    6.56 
   2  -1   8   48.87    6.63 
  -2  -1   8   53.49    6.95 
  -1   2   9  262.73   15.28 
  -1  -2   9  288.18   15.62 
  -2  -1   9  266.31   15.41 
   2  -1   9  279.04   15.04 
  -2   1   9  259.33   15.07 
   1  -2   9  257.72   14.40 
   1  -2  10   44.61    7.15 
  -2  -1  10   42.62    7.24 
  -1   2  10   50.35    7.81 
   2  -1  10   47.03    7.76 
  -2   1  10   43.90    7.53 
  -1  -2  10   43.48    7.19 
  -2   1  11   34.93    7.41 
  -1  -2  11   35.33    8.05 
  -2  -1  11   36.56    7.38 
  -1   2  11   34.49    7.48 
   1  -2  11   40.47    7.32 
   1  -2  12   95.87   11.13 
  -2   1  12   92.67   11.53 
  -2  -1  12   73.02   10.08 
  -1   2  12   89.79   11.48 
  -1  -2  12   80.22   10.62 
  -2   1  13   23.92    6.66 
  -1  -2  13   19.17    6.60 
  -1   2  13   21.19    7.09 
   1  -2  13   17.81    6.57 
  -2  -1  13   31.33    8.26 
  -2   1  14   32.31    7.54 
  -1  -2  14   25.26    7.16 
  -2  -1  14   28.77    7.72 
   2  -1  14   30.87    4.91 
  -1  -2  14   28.22    4.86 
  -2   1  14   29.22    4.75 
   1  -2  14   30.94    5.32 
   1   2  14   24.95    4.72 
  -2  -1  14   26.09    4.53 
   2   1  14   34.01    5.69 
  -1   2  14   27.71    5.07 
  -1  -2  15  130.72   15.56 
  -2   1  15  128.53   15.41 
  -2  -1  15  120.75   14.74 
  -2  -1  15  128.30   10.36 
  -1  -2  15  132.79   10.48 
   1   2  15  124.95   10.21 
  -2   1  15  128.71   10.25 
   2   1  15  115.82    9.66 
   1  -2  15  150.33   11.03 
   2  -1  15  126.10   10.15 
  -1   2  15  128.81   10.44 
  -2  -1  16  200.85   19.79 
  -1  -2  16  168.52   18.09 
   1   2  16  238.66   14.48 
  -1   2  16  220.83   14.05 
  -2   1  16  223.79   14.09 
   2   1  16  210.72   13.36 
  -1  -2  16  214.69   13.68 
  -2  -1  16  207.07   13.46 
   1  -2  16  214.51   13.28 
   2  -1  16  200.24   13.09 
  -2  -1  17  661.34   35.93 
   2  -1  17  708.85   25.12 
   2   1  17  725.19   25.51 
   1  -2  17  700.85   24.71 
  -1   2  17  720.83   25.48 
  -1  -2  17  718.45   25.05 
  -2  -1  17  726.45   25.70 
   1   2  17  699.26   25.20 
  -2   1  17  720.61   25.78 
   2  -1  18  183.67   13.13 
  -2  -1  18  183.32   13.43 
   2   1  18  191.73   13.69 
   1   2  18  182.70   13.40 
  -2   1  18  189.67   13.51 
  -1  -2  18  202.61   13.87 
   1  -2  18  182.79   13.13 
  -1   2  18  209.73   14.48 
  -1  -2  19    1.13    4.82 
   1   2  19    1.60    5.00 
  -2  -1  19    5.82    4.93 
   2   1  19    7.85    4.49 
  -1   2  19    5.59    5.14 
   2  -1  19   -1.26    4.72 
  -2   1  19   17.19    6.01 
   1  -2  19    5.21    3.97 
   2   1  20   56.71    8.11 
  -2  -1  20   52.30    7.13 
   2  -1  20   59.87    8.07 
  -2   1  20   59.32    7.89 
  -1  -2  20   48.53    7.09 
   1   2  20   51.28    7.74 
  -1   2  20   43.93    7.05 
   1  -2  20   57.39    7.70 
  -2  -1  21   15.71    4.53 
  -2   1  21   14.70    5.30 
   1  -2  21   18.83    5.12 
  -1  -2  21   16.24    4.61 
  -1   2  21   20.64    5.54 
   1   2  21   20.56    5.47 
   2   1  21   27.15    6.51 
   2  -1  21   27.15    6.46 
   2   1  22   16.13    5.45 
   1   2  22   13.81    4.93 
   2  -1  22   18.82    5.39 
  -1  -2  22   11.02    4.09 
   1  -2  22   13.45    4.73 
  -1   2  22    9.33    4.37 
  -2   1  22    4.22    4.00 
  -2  -1  22    4.67    3.47 
  -2   1  23   36.78    5.43 
  -1  -2  23   42.70    5.57 
   1   2  23   50.35    6.52 
  -2  -1  23   40.24    5.63 
  -1   2  23   41.86    5.79 
  -2   1  24   87.25    6.99 
  -1   2  24   83.65    6.78 
  -2  -1  24   80.84    6.52 
   2  -2   0 1504.19   17.15 
   2  -2   1   12.64    2.11 
  -2  -2  -1   13.33    1.64 
  -2  -2  -2  399.58    7.16 
  -2   2   2  394.64    8.82 
   2  -2   2  395.33    8.89 
   2  -2   3  118.22    5.48 
   2  -2   3  100.76    5.00 
  -2  -2  -3   91.14    3.63 
  -2   2   3  109.76    5.94 
  -2  -2  -4  372.21    7.42 
   2  -2   4  401.02   11.10 
  -2   2   4  400.75   12.23 
   2  -2   5   70.62    5.58 
  -2   2   5   70.61    6.17 
  -2  -2  -5   71.48    3.74 
  -2   2   6   22.00    4.18 
   2  -2   6   22.16    3.83 
   2  -2   7    2.75    2.63 
  -2   2   7   -1.31    3.64 
  -2  -2   8    3.69    3.71 
  -2   2   8    3.56    3.48 
   2  -2   8    3.11    3.40 
   2  -2   9  171.42   11.87 
  -2  -2   9  168.22   12.80 
  -2   2   9  172.65   12.51 
  -2  -2  10   46.51    7.55 
  -2   2  10   47.70    7.84 
   2  -2  10   46.88    7.51 
   2  -2  11  239.26   15.96 
  -2   2  11  228.65   16.47 
  -2  -2  11  224.80   16.09 
  -2  -2  12   77.47   10.78 
  -2   2  12   87.42   10.50 
  -2  -2  13  253.43   19.16 
  -2   2  13  261.02   19.34 
  -2  -2  14   47.98    9.61 
  -2   2  14   39.82    8.75 
  -2   2  14   38.02    5.98 
   2  -2  14   37.12    5.68 
   2   2  14   45.23    6.48 
  -2  -2  14   38.69    5.56 
  -2  -2  15    4.19    5.32 
  -2   2  15   -4.99    4.06 
   2  -2  15   -4.44    4.26 
   2   2  15   -5.89    4.70 
  -2  -2  15   -0.41    3.23 
  -2  -2  16  243.76   21.59 
  -2   2  16  251.53   15.06 
  -2  -2  16  263.85   15.10 
   2  -2  16  256.73   14.68 
   2   2  16  258.50   15.12 
  -2  -2  17  397.62   28.15 
  -2  -2  17  431.20   19.69 
  -2   2  17  411.47   19.66 
   2  -2  17  419.75   19.31 
   2   2  17  442.58   20.00 
  -2  -2  18    5.27    5.14 
   2  -2  18   -1.48    4.49 
   2   2  18   -3.12    4.74 
  -2   2  18    8.25    5.17 
  -2  -2  19   12.12    5.52 
   2  -2  19    1.14    3.96 
  -2   2  19    8.17    5.89 
   2   2  19    1.85    4.65 
  -2   2  20   35.44    6.71 
  -2  -2  20   25.75    5.30 
   2   2  20   37.27    7.18 
   2  -2  20   36.21    6.57 
   2   2  21  100.37    9.94 
   2  -2  21   91.82    8.97 
  -2  -2  21   91.50    8.92 
  -2   2  21   86.60    8.94 
  -2  -2  22    8.20    3.64 
  -2   2  22    3.79    3.83 
  -2   2  23   -1.64    3.36 
  -2  -2  23    0.79    2.68 
  -2  -2  24   40.41    4.63 
  -2   2  24   41.24    5.14 
   0  -3   0  233.14    7.54 
   0  -3  -1  368.38    9.33 
   0  -3   1  369.50    9.64 
   0  -3   2 1258.44   18.70 
   0  -3  -2 1279.83   17.34 
   3   0   2 1302.00    8.62 
   0  -3  -3   24.31    3.12 
   0  -3  -4 2459.85   26.70 
   0  -3   6  294.77   12.46 
   0   3   6  291.12   12.82 
   0  -3   7   40.31    5.46 
   0   3   7   50.33    6.55 
  -3   0   7   29.70    5.62 
  -3   0   8   13.62    4.70 
   0  -3   8   17.37    4.48 
   0   3   8   19.93    5.52 
  -3   0   9   29.80    6.15 
   0  -3   9   28.31    5.28 
   0  -3  10 1284.17   34.58 
  -3   0  10 1323.11   36.08 
  -3   0  11  319.29   19.44 
   0  -3  11  341.10   19.29 
   0  -3  12  847.01   31.94 
  -3   0  12  782.85   31.64 
  -3   0  13  352.98   22.55 
   0  -3  13  352.45   21.77 
   0  -3  14  244.61   19.19 
  -3   0  14  266.24   20.63 
   0   3  14  236.50   13.58 
  -3   0  14  241.86   13.65 
   0  -3  14  203.36   11.98 
   3   0  14  231.85   12.97 
  -3   0  15    2.65    4.24 
   0  -3  15   -1.15    4.89 
   0  -3  15    1.71    2.85 
  -3   0  15    1.84    3.54 
   3   0  15   -5.25    4.17 
   0   3  15    3.04    3.44 
  -3   0  16   47.87   10.59 
   0  -3  16   50.60    7.06 
   3   0  16   42.62    6.58 
  -3   0  16   40.60    5.77 
   0   3  16   45.08    7.04 
  -3   0  17  306.80   17.02 
   0   3  17  329.21   17.42 
   0  -3  17  314.70   16.52 
   3   0  17  329.62   17.10 
   0   3  18   14.73    5.01 
   3   0  18   20.78    5.76 
  -3   0  18   19.11    5.52 
   0  -3  18   20.20    5.33 
   0  -3  19  277.08   15.63 
  -3   0  19  304.34   17.03 
   3   0  19  284.17   16.32 
   0   3  19  287.54   16.43 
   0   3  20  313.85   16.98 
  -3   0  20  310.83   16.59 
   0  -3  20  300.11   15.95 
   3   0  20  306.14   16.23 
   0   3  21  139.20   11.21 
   0  -3  21  124.19   10.12 
  -3   0  21  131.83   10.64 
   3   0  21  147.12   11.37 
   0  -3  22  138.64    9.74 
  -3   0  22  150.96   10.75 
   0   3  22  154.70   10.96 
  -3   0  23    5.84    3.27 
   0   3  23   14.48    4.68 
  -3   0  24   36.73    4.75 
   1  -3   0    7.71    2.47 
  -1  -3   0    7.39    2.20 
   3  -1   1   86.32    3.81 
   1  -3  -1   86.42    5.00 
  -1  -3  -1   84.76    4.56 
  -1  -3   1   78.91    4.73 
   1  -3   1   86.47    4.94 
   1  -3  -2   57.64    4.29 
  -1  -3  -2   55.55    3.94 
   1  -3   2   63.62    4.71 
   3  -1   2   58.82    3.20 
   1  -3  -3  277.51    9.16 
  -1  -3  -3  265.56    7.83 
   3  -1   3  266.96    6.23 
   1  -3   3  258.28    7.60 
   1  -3   3  256.02    8.98 
  -1   3   3  272.00    9.10 
   1  -3   4  437.62   11.60 
  -1   3   4  448.98   12.97 
  -1  -3  -5  418.07   11.02 
  -1   3   5  446.94   14.33 
   1  -3   5  428.29   12.85 
  -1  -3  -6  149.09    7.12 
  -3   1   6  151.60   10.29 
  -1   3   6  176.30   10.11 
   1  -3   6  162.00    8.94 
   1  -3   7   11.95    3.51 
  -1  -3   7   15.94    4.08 
  -1   3   7   17.09    4.43 
  -3   1   7   17.99    4.31 
  -3  -1   8   18.12    5.52 
  -3   1   8   22.99    5.47 
   1  -3   8   17.92    4.40 
  -1   3   8   16.15    4.85 
  -1  -3   8   19.39    4.75 
  -1  -3   9   21.31    5.46 
  -1   3   9   25.76    6.34 
  -3  -1   9   18.82    5.54 
   1  -3   9   13.02    4.30 
  -3   1   9   12.54    4.56 
  -1  -3  10   54.81    8.10 
  -3   1  10   48.60    7.20 
  -1   3  10   52.27    8.23 
   1  -3  10   47.43    7.00 
  -3  -1  10   45.52    7.61 
  -3   1  11  786.71   30.01 
  -3  -1  11  846.70   30.83 
   1  -3  11  866.34   29.74 
  -1  -3  11  857.68   30.69 
  -1   3  11  857.53   31.05 
  -3   1  12  434.84   23.82 
   1  -3  12  420.07   22.42 
  -3  -1  12  432.94   23.61 
  -1  -3  12  423.39   23.24 
   1  -3  13  545.13   26.79 
  -3  -1  13  517.98   27.14 
  -1  -3  13  541.64   27.50 
  -3   1  13  542.89   27.88 
  -1   3  13  486.21   18.44 
   1   3  13  485.11   18.10 
   3   1  13  492.99   18.01 
  -3   1  13  479.17   18.27 
  -3  -1  14  148.15   15.82 
   1  -3  14  132.39   14.45 
  -1  -3  14  136.78   14.96 
  -3   1  14  147.78   15.78 
  -3   1  14  120.69    9.84 
  -3  -1  14  134.29   10.12 
   1   3  14  143.77   10.55 
  -1  -3  14  113.76    9.28 
   3  -1  14  129.34    9.79 
   3   1  14  118.79    9.37 
  -1   3  14  128.94   10.11 
   1  -3  14  109.26    8.91 
  -1  -3  15   16.18    6.65 
  -3  -1  15   19.36    7.56 
  -3   1  15   20.93    8.11 
  -1   3  15   13.83    4.50 
   3   1  15    6.27    3.16 
  -3  -1  15   12.03    4.04 
   3  -1  15    7.75    3.66 
   1   3  15   13.98    4.73 
  -1  -3  15   13.81    4.39 
  -3   1  15    2.91    4.08 
   1  -3  15    3.33    2.90 
  -3   1  16  111.34   14.96 
  -3  -1  16  105.12   14.51 
  -1  -3  16  116.44   14.85 
   3   1  16  113.35    9.93 
   3  -1  16  120.66   10.51 
   1  -3  16  117.82    9.92 
  -1   3  16  143.94   11.49 
   1   3  16  123.23   10.65 
  -3  -1  16  108.95   10.20 
  -3   1  16  106.60   10.24 
  -1  -3  16  118.70   10.15 
  -3  -1  17  196.79   20.24 
   3   1  17  213.01   14.18 
  -3   1  17  214.99   14.23 
   1  -3  17  214.54   13.61 
  -3  -1  17  210.13   14.16 
  -1  -3  17  223.92   14.02 
   3  -1  17  211.67   13.87 
   1   3  17  208.39   13.93 
  -1   3  17  238.32   14.85 
   3  -1  18   -0.90    4.17 
  -3   1  18   -1.75    4.52 
   1   3  18   -3.11    5.65 
  -1   3  18   -0.56    4.27 
  -1  -3  18   -6.32    4.64 
   3   1  18    2.37    4.93 
   1  -3  18    2.97    4.11 
  -3  -1  18    3.41    4.24 
  -3   1  19   94.86   10.33 
   1  -3  19   88.45    9.37 
  -1   3  19   90.29    9.98 
  -1  -3  19   91.57    9.34 
   3   1  19  109.47   10.58 
   3  -1  19   91.93    9.59 
  -3  -1  19   89.57    9.62 
   1   3  19   81.51    9.34 
  -3  -1  20  206.43   13.67 
   1   3  20  207.54   13.98 
   3  -1  20  199.92   13.27 
  -1   3  20  193.46   13.24 
  -3   1  20  203.74   13.83 
  -1  -3  20  208.69   13.31 
   3   1  20  209.00   13.92 
   1  -3  20  198.18   13.03 
   3   1  21  224.01   13.79 
  -3   1  21  204.08   13.15 
  -1   3  21  220.38   13.96 
   1  -3  21  196.62   12.28 
  -1  -3  21  205.35   12.67 
   3  -1  21  221.72   13.45 
   1   3  21  230.65   14.02 
  -3  -1  21  227.25   13.57 
  -1  -3  22   62.55    6.85 
   1   3  22   66.68    7.68 
  -3  -1  22   60.06    6.98 
  -1   3  22   65.96    7.73 
  -3   1  22   58.53    7.31 
  -1  -3  23    7.31    3.23 
  -1   3  23    7.03    3.86 
  -3  -1  23    1.21    2.98 
   1   3  23    9.64    4.28 
  -3   1  23    3.31    3.29 
  -3   1  24    7.66    3.07 
  -1   3  24   14.45    3.78 
  -3  -1  24    9.67    3.02 
  -3   1  25   16.69    3.03 
   3  -2   0  696.34   13.02 
   2  -3   0  675.69   13.67 
  -2  -3   0  674.91   13.00 
   2  -3  -1  581.87   12.93 
  -2   3   1  586.55    8.12 
   3  -2   1  563.81   11.30 
  -2  -3  -1  582.98   11.28 
   2  -3   1  588.82   12.86 
   2  -3  -2  823.76   15.89 
  -2   3   2  858.16   13.09 
   3  -2   2  822.83   13.55 
  -2  -3  -2  843.23   13.32 
   2  -3   2  839.83   15.48 
  -2  -3  -3  811.52   13.08 
  -2   3   3  803.14   15.19 
  -3  -2  -3  780.45    8.68 
   3  -2   3  829.92   13.81 
   2  -3   3  841.68   12.98 
   2  -3   3  811.00   15.70 
  -3  -2  -4  398.80    5.94 
   2  -3   4  427.72   12.05 
   2  -3   4  414.34   11.08 
  -2  -3  -4  423.62    9.66 
  -2   3   4  418.85   12.50 
   3  -2   4  423.40   10.43 
  -3  -2  -5  205.67    4.85 
  -2   3   5  219.27   10.19 
  -3   2   5  212.04   10.35 
  -2  -3  -5  212.42    7.22 
   2  -3   5  199.04    8.90 
  -2  -3  -6   48.41    3.89 
   2  -3   6   49.69    5.21 
  -2   3   6   50.12    5.79 
  -3   2   6   41.39    5.64 
  -3  -2  -6   44.60    2.69 
  -3   2   7   13.74    4.22 
  -2   3   7   14.03    4.38 
  -3  -2  -7    8.23    1.56 
   2  -3   7   15.90    3.79 
  -2  -3  -7   10.04    2.11 
  -3  -2  -8    1.74    1.33 
  -3   2   8    2.13    3.67 
   2  -3   8    7.32    3.66 
  -2  -3  -8    1.57    1.84 
  -2   3   8    0.16    3.27 
  -2  -3  -9   15.77    3.28 
  -3   2   9   13.05    4.61 
   2  -3   9   21.42    5.16 
  -3  -2   9   15.86    5.49 
  -2   3   9   21.08    5.64 
  -2  -3   9   14.33    4.65 
  -2  -3 -10  119.88    7.96 
  -3   2  10  149.88   12.69 
  -2   3  10  134.86   12.15 
  -3  -2  10  122.40   11.86 
   2  -3  10  145.71   11.59 
  -2  -3  10  135.51   12.19 
   2  -3  11  129.70   12.03 
  -3   2  11  151.97   13.69 
  -2  -3  11  130.75   12.61 
  -2   3  11  150.91   13.51 
  -3  -2  11  153.35   13.89 
  -3   2  12  551.97   26.79 
  -2  -3  12  570.22   26.87 
  -2   3  12  591.58   27.17 
  -3  -2  12  544.33   26.40 
  -2  -3  13  349.15   22.46 
  -3  -2  13  320.07   21.71 
  -2   3  13  318.10   21.45 
  -3   2  13  340.26   21.90 
  -2   3  13  329.89   15.53 
   2   3  13  328.78   15.07 
  -3   2  13  311.06   14.96 
   3   2  13  340.19   15.18 
  -3  -2  14  132.97   15.03 
  -3   2  14  150.95   15.64 
  -2  -3  14  140.73   15.81 
   3  -2  14  135.06    9.95 
   3   2  14  150.80   10.67 
  -3   2  14  157.30   11.04 
  -2  -3  14  151.54   10.77 
  -3  -2  14  143.27   10.64 
   2  -3  14  135.24    9.91 
   2   3  14  163.26   11.40 
  -2   3  14  137.61   10.50 
  -3   2  15    3.51    5.60 
  -2  -3  15   -5.88    6.74 
  -3  -2  15   -1.08    4.65 
   3   2  15   -2.30    4.10 
  -3  -2  15   -4.72    4.16 
  -2   3  15   -5.33    4.26 
   3  -2  15   -2.31    3.60 
  -2  -3  15    2.13    3.14 
  -3   2  15   -1.65    4.00 
   2   3  15   -4.58    4.43 
  -3  -2  16  179.10   18.46 
  -2  -3  16  195.85   19.44 
   2   3  16  211.90   14.10 
   2  -3  16  204.76   13.11 
  -2  -3  16  220.88   13.81 
   3  -2  16  204.76   13.30 
   3   2  16  211.09   13.80 
  -2   3  16  209.23   13.82 
  -3  -2  16  204.09   13.46 
  -3   2  16  205.79   13.61 
  -2  -3  17    6.05    6.16 
  -3  -2  17   10.62    5.79 
  -2  -3  17   14.63    5.19 
  -3  -2  17    7.82    4.21 
   3   2  17    5.95    4.27 
  -2   3  17   14.47    5.05 
   2  -3  17   -0.08    3.60 
   2   3  17    6.12    4.28 
   3  -2  17   11.69    5.36 
  -3   2  17    8.55    3.88 
   2  -3  18    6.12    4.08 
   3  -2  18    2.65    4.27 
  -2  -3  18   11.21    4.73 
  -2   3  18    3.25    4.12 
  -3   2  18    5.86    4.53 
   2   3  18    3.53    4.55 
   3   2  18    5.65    5.12 
  -3  -2  18    3.33    3.65 
  -3   2  19   14.05    5.66 
   2   3  19    7.85    4.92 
   2  -3  19    6.40    4.17 
   3   2  19   12.95    5.32 
  -2  -3  19   -0.93    4.86 
   3  -2  19   16.04    5.43 
  -2   3  19   10.01    5.25 
  -3  -2  19    7.92    4.80 
  -3   2  20  102.28   10.54 
   3  -2  20  100.29    9.74 
   2  -3  20   87.20    8.91 
   2   3  20   96.81    9.95 
  -3  -2  20  104.83    9.94 
   3   2  20   97.97   10.11 
  -2  -3  20   88.97    9.00 
  -2   3  20   79.76    8.61 
   3   2  21  134.16   11.00 
  -2  -3  21  117.83    9.72 
   2  -3  21  119.42    9.97 
  -3   2  21  119.30   10.12 
  -2   3  21  115.15    9.88 
   2   3  21  132.73   11.01 
  -3  -2  21  124.21   10.03 
  -3   2  22   31.62    5.66 
  -3  -2  22   44.66    6.19 
  -2  -3  22   39.26    5.93 
   2   3  22   51.70    7.13 
  -2   3  22   38.06    6.06 
  -2   3  23   -1.08    3.40 
  -3   2  23   -1.09    3.16 
  -2  -3  23    3.40    2.75 
  -3  -2  23    3.21    2.86 
  -3   2  24    8.19    3.14 
  -3  -2  24    8.59    2.59 
  -2   3  24   10.92    3.36 
  -3   2  25   45.43    4.22 
   3  -3   0 6694.68   44.54 
   3  -3  -1   78.27    5.53 
   3  -3   1   85.55    5.79 
  -3   3   2  765.49   13.22 
   3  -3   2  813.97   15.82 
  -3  -3  -2  784.54   12.93 
  -3   3   3   16.60    2.78 
   3  -3   3   19.70    3.56 
  -3  -3  -3   15.80    2.11 
  -3   3   4  726.88   16.88 
  -3  -3  -4  736.79   11.72 
   3  -3   4  715.61   15.85 
  -3   3   5  786.50   19.32 
  -3  -3  -5  745.54   12.16 
  -3  -3  -6   42.95    3.28 
  -3   3   6   49.14    5.72 
  -3   3   7   11.51    3.49 
  -3  -3  -7   14.27    2.27 
  -3  -3  -8  161.94    6.81 
  -3   3   8  184.14   12.21 
  -3   3   9  742.82   25.93 
  -3   3  10  120.51   11.36 
  -3  -3  10  105.57   11.35 
  -3  -3  11   17.38    5.90 
  -3   3  11   13.86    4.76 
  -3   3  12  278.52   19.13 
  -3  -3  12  256.20   18.83 
  -3  -3  13  212.50   17.86 
  -3   3  13  231.21   18.30 
  -3   3  13  210.09   12.62 
   3   3  13  222.56   12.71 
  -3  -3  14  113.52   13.88 
  -3   3  14  106.59   13.38 
   3   3  14  111.05    9.56 
  -3  -3  14   96.26    8.82 
  -3   3  14  113.50    9.82 
   3  -3  14   93.64    8.48 
  -3  -3  15   68.63   11.59 
  -3  -3  15   75.87    8.03 
  -3   3  15   80.14    8.46 
   3  -3  15   81.47    8.52 
   3   3  15   85.11    8.94 
  -3  -3  16   10.93    5.30 
  -3  -3  16   12.97    4.95 
  -3   3  16   14.68    4.57 
   3  -3  16   15.27    4.89 
   3   3  16   12.95    4.22 
  -3  -3  17    9.89    6.63 
   3   3  17   -3.09    4.73 
  -3   3  17   -2.60    4.14 
  -3  -3  17   -2.34    4.20 
   3  -3  17    2.20    3.59 
  -3   3  18   83.23    9.44 
  -3  -3  18   91.52    9.64 
   3   3  18   86.61    9.90 
   3  -3  18   91.57    9.49 
   3  -3  19    7.13    4.83 
   3   3  19   15.21    5.51 
  -3   3  19   11.27    5.46 
  -3  -3  19    8.48    5.04 
   3   3  20   43.10    7.41 
  -3   3  20   45.14    7.71 
  -3  -3  20   27.69    5.23 
   3   3  21   70.82    8.49 
  -3  -3  21   57.28    7.07 
  -3   3  21   43.28    6.17 
  -3   3  22   12.51    4.54 
  -3  -3  22   19.00    4.46 
  -3   3  23    3.15    3.30 
  -3  -3  23    1.15    2.45 
  -3   3  24   38.67    4.81 
   0  -4   0  268.10    9.45 
   0  -4  -1  546.77   13.22 
   0  -4   1  556.60   13.74 
   4   0   2 2018.92   14.95 
   0  -4  -2 2025.99   25.11 
   0  -4   2 2065.66   26.80 
   0  -4   3  269.73   10.34 
   0  -4  -3  299.12   10.04 
   0  -4  -4  754.25   16.17 
   0  -4  -5 1271.64   22.15 
   0  -4  -6  783.88   18.57 
   0  -4   6  792.16   20.43 
   0  -4  -7  134.21    8.21 
   0  -4   7  132.22    9.51 
   0  -4  -8  177.55    9.96 
  -4   0   8  185.59   12.74 
   0  -4   8  205.87   12.39 
   0  -4   9   -3.38    3.80 
   0  -4  -9   -0.99    3.13 
  -4   0   9    1.27    3.85 
   0  -4 -10  376.98   16.07 
  -4   0  10  369.56   19.84 
   0  -4  10  402.15   19.53 
   0  -4 -11 2014.36   39.11 
   0  -4  11 2114.89   47.70 
  -4   0  11 2022.36   48.31 
   0  -4 -12 1262.21   32.81 
  -4   0  12 1303.95   40.98 
   0  -4  12 1305.73   40.10 
   0  -4  13 1079.33   38.18 
  -4   0  13 1055.45   38.95 
   0   4  13 1015.94   27.06 
   4   0  13 1028.69   26.36 
  -4   0  13  973.33   26.40 
  -4   0  14  387.39   25.19 
   0  -4  14  371.62   23.74 
   0   4  14  384.34   17.41 
   4   0  14  380.84   16.92 
   0  -4  14  314.72   14.90 
  -4   0  14  366.18   17.02 
  -4   0  15  113.35   14.44 
   0  -4  15  108.52   14.10 
   4   0  15  107.24    9.77 
   0   4  15  117.13   10.22 
  -4   0  15   97.47    9.19 
   0  -4  15   93.66    8.64 
  -4   0  16    0.42    4.53 
   0  -4  16    4.85    3.49 
   4   0  16    4.63    4.69 
   0   4  16   10.23    5.00 
  -4   0  16   -1.37    4.69 
  -4   0  17  110.33   15.17 
   0  -4  17  128.71   10.54 
   4   0  17  112.88   10.47 
   0   4  17  137.22   11.72 
  -4   0  17  120.13   10.92 
   4   0  18  433.80   19.71 
   0   4  18  446.82   20.41 
   0  -4  18  417.63   18.69 
  -4   0  18  448.52   20.74 
  -4   0  19  328.88   17.68 
   0  -4  19  320.03   16.27 
   0   4  19  339.79   17.81 
   4   0  19  350.08   17.57 
   0   4  20  414.88   19.28 
   0  -4  20  381.14   17.10 
  -4   0  20  410.63   19.03 
   4   0  20  420.02   18.87 
  -4   0  21  451.91   18.96 
   0   4  21  422.34   18.76 
   0  -4  21  404.75   16.41 
   0   4  22  237.72   13.15 
  -4   0  22  223.77   12.81 
  -4   0  23   60.34    6.56 
   0   4  23   72.84    7.12 
  -4   0  24   21.14    3.91 
   1  -4   0  184.14    8.18 
  -1  -4   0  181.68    7.98 
   4  -1   1  984.07   14.28 
  -1  -4  -1  995.72   17.35 
   1  -4  -1  977.46   17.77 
   1  -4   1  990.70   18.21 
  -1  -4   1 1015.82   18.52 
  -1  -4   2    2.62    2.93 
   1  -4   2   13.94    3.87 
   1  -4  -2   12.15    3.66 
   4  -1   2    8.70    2.14 
  -1  -4  -2    6.01    2.96 
   1  -4  -3  355.36   11.25 
   1  -4   3  342.76   11.69 
  -1  -4  -3  349.82   10.52 
   4  -1   3  343.16    7.26 
   1  -4  -4 1806.53   26.63 
  -1  -4  -4 1712.28   23.31 
   1  -4   4 1767.07   23.34 
   1  -4   4 1792.49   27.52 
   1  -4  -5  822.02   18.77 
  -1  -4  -5  767.18   16.22 
   1  -4   5  781.47   17.39 
  -1  -4  -6  374.98   11.96 
   1  -4  -6  389.19   13.79 
   1  -4   6  384.27   13.69 
  -1   4   6  407.52   15.26 
  -1  -4  -7  199.47    9.32 
  -1   4   7  230.37   12.57 
   1  -4   7  214.96   11.15 
  -4   1   7  228.76   12.71 
  -1   4   8    8.95    4.71 
   1  -4   8    1.03    3.17 
  -1  -4  -8    4.88    2.77 
  -4   1   8    2.11    3.87 
  -1  -4   8    4.07    3.13 
  -4  -1   9   10.47    4.80 
  -4   1   9   11.46    4.98 
  -1  -4   9    7.56    3.94 
   1  -4   9    8.22    3.73 
  -1  -4  -9    7.42    2.99 
  -1  -4 -10  158.52   10.16 
  -4   1  10  157.26   13.13 
  -1  -4  10  152.98   12.59 
   1  -4  10  146.16   11.62 
  -4  -1  10  152.93   13.02 
  -1  -4 -11  900.25   24.84 
  -4   1  11  897.23   32.32 
   1  -4  11  906.96   30.83 
  -4  -1  11  878.59   32.14 
  -1  -4  11  924.48   31.85 
   1  -4 -12 1334.13   35.22 
  -1  -4  12 1360.59   41.17 
   1  -4  12 1346.69   39.18 
  -4   1  12 1335.18   41.97 
  -4  -1  12 1299.57   41.46 
   1  -4 -13  736.84   27.37 
  -4   1  13  755.18   33.22 
  -1  -4  13  728.69   32.53 
  -4  -1  13  701.73   31.96 
   1  -4  13  708.78   30.38 
  -1   4  13  705.91   22.69 
   1   4  13  690.64   22.17 
  -4   1  13  680.71   22.03 
   4   1  13  690.02   21.66 
  -4  -1  13  659.82   21.75 
   4  -1  13  646.30   20.89 
  -4  -1  14  328.07   23.36 
   1  -4  14  364.60   23.29 
  -4   1  14  364.28   24.49 
  -1  -4  14  351.11   23.42 
   4  -1  14  359.36   16.24 
  -1  -4  14  289.91   14.48 
   1  -4  14  308.33   14.58 
  -1   4  14  354.89   16.78 
  -4   1  14  329.78   16.12 
   4   1  14  355.76   16.37 
   1   4  14  347.70   16.50 
  -4  -1  14  351.31   16.59 
  -4   1  15   58.87   11.03 
  -1  -4  15   55.74   10.44 
  -4  -1  15   55.55   10.67 
  -1   4  15   58.93    7.88 
   1   4  15   68.33    8.21 
  -4  -1  15   54.22    7.16 
   4   1  15   56.12    7.32 
  -4   1  15   42.60    6.17 
  -1  -4  15   45.31    6.29 
   4  -1  15   53.98    7.34 
   1  -4  15   45.10    6.04 
  -4  -1  16   48.84   11.11 
  -4   1  16   47.52   10.55 
  -1  -4  16   62.66   12.15 
   4  -1  16   52.58    7.39 
  -1  -4  16   55.34    7.08 
   4   1  16   55.05    7.76 
  -4   1  16   58.76    7.85 
   1  -4  16   41.09    6.01 
  -4  -1  16   49.24    7.12 
  -1   4  16   58.61    7.85 
   1   4  16   61.15    7.95 
  -1  -4  17    7.68    5.91 
  -4   1  17    2.73    4.90 
  -4  -1  17    5.09    6.73 
   1  -4  17    6.39    4.33 
  -4   1  17   -1.85    4.52 
   1   4  17   -3.71    5.58 
  -1  -4  17    9.56    4.37 
   4  -1  17    4.26    4.15 
  -1   4  17   10.49    5.05 
  -4  -1  17    3.91    3.90 
   4   1  17    4.27    4.35 
   1  -4  18   18.81    4.69 
  -1   4  18   38.65    7.85 
   1   4  18   15.39    4.91 
  -4   1  18   32.71    6.97 
   4   1  18   31.98    6.99 
  -1  -4  18   17.70    3.89 
   4  -1  18   25.64    6.13 
  -4  -1  18   21.43    5.70 
   4  -1  19  294.75   16.31 
   1  -4  19  300.77   15.57 
  -4  -1  19  322.14   17.26 
  -1   4  19  302.25   16.81 
   4   1  19  303.66   16.55 
   1   4  19  312.21   17.33 
  -1  -4  19  309.51   15.99 
  -4   1  19  327.57   17.48 
   4   1  20  364.76   17.65 
  -1   4  20  325.88   17.16 
  -1  -4  20  325.58   15.95 
   1   4  20  332.72   17.52 
  -4  -1  20  345.22   17.38 
   1  -4  20  316.77   15.42 
  -4   1  20  343.48   17.35 
  -1  -4  21  278.68   13.87 
   1   4  21  278.02   15.32 
  -4  -1  21  282.33   15.07 
  -4   1  21  305.63   16.03 
  -1   4  21  273.91   15.15 
   1  -4  21  264.76   13.38 
  -1   4  22  201.64   12.36 
  -4  -1  22  204.72   12.22 
   1   4  22  200.62   12.08 
  -1  -4  22  179.95   10.11 
  -4   1  22  198.46   12.31 
   1   4  23   58.26    6.68 
  -1   4  23   58.52    6.48 
  -4  -1  23   46.41    5.82 
  -4   1  23   49.18    5.95 
  -4   1  24    0.46    2.35 
  -1   4  24    5.79    3.23 
  -4  -1  24    5.37    2.75 
   4  -2   0  161.19    6.96 
   2  -4   0  168.79    8.16 
  -2  -4   0  157.99    7.51 
   4  -2   1  199.46    7.49 
  -2  -4   1  187.88    8.42 
   2  -4   1  198.48    8.76 
   2  -4  -1  194.34    8.77 
  -2  -4  -1  213.24    8.18 
   4  -2   2   13.13    2.82 
   2  -4   2    8.51    2.66 
  -2  -4  -2   17.08    3.16 
   2  -4  -2   13.20    3.49 
   2  -4  -3  216.40    9.51 
  -2  -4  -3  208.17    8.01 
   2  -4   3  202.87    9.07 
   4  -2   3  197.85    7.12 
  -2   4   3  204.29    8.00 
   2  -4   3  204.27    6.25 
   2  -4  -4  772.35   18.26 
  -2  -4  -4  758.92   15.04 
   2  -4   4  781.74   18.12 
   4  -2   4  758.01   14.14 
   2  -4   4  751.36   14.42 
  -2   4   4  769.63   17.18 
  -2   4   5 1205.21   23.94 
  -2  -4  -5 1130.02   18.99 
   2  -4   5 1176.32   20.70 
  -2  -4  -6   43.76    4.21 
  -2   4   6   37.09    5.50 
  -4   2   6   30.88    4.79 
   2  -4   6   35.70    4.57 
  -2   4   7    1.59    3.09 
  -2  -4  -7    0.12    1.96 
   2  -4   7   -1.10    2.33 
  -4   2   7   -0.23    3.23 
  -2  -4  -8  197.88    9.36 
  -2   4   8  198.46   12.84 
  -4   2   8  200.11   13.07 
   2  -4   8  197.16   11.56 
  -4   2   9  231.51   15.07 
   2  -4   9  251.14   13.86 
  -2  -4   9  261.32   15.70 
  -2   4   9  253.39   15.19 
  -2  -4  -9  232.86   10.66 
  -2  -4  10    1.03    3.77 
  -4   2  10   -1.35    3.73 
  -4  -2  10   -0.92    4.19 
  -2   4  10    4.07    4.10 
   2  -4  10    3.47    3.46 
  -4   2  11   62.20    9.08 
  -2   4  11   71.41   10.24 
  -2  -4  11   61.82    9.17 
  -4  -2  11   60.22    9.03 
   2  -4  11   69.62    9.24 
  -2  -4  12  522.85   26.50 
  -4   2  12  561.92   27.24 
  -4  -2  12  552.86   27.13 
   2  -4  12  536.85   24.74 
   2   4  13  403.82   17.08 
   4   2  13  418.24   17.07 
  -4   2  13  399.22   17.18 
  -2   4  13  386.50   16.90 
   4  -2  13  359.07   15.62 
  -4  -2  13  381.07   16.64 
  -2  -4  13  385.67   23.67 
  -4  -2  13  369.34   23.72 
  -4   2  13  405.59   24.70 
   2  -4 -14  192.17   15.53 
  -4  -2  14  165.34   16.74 
  -4   2  14  185.36   17.56 
  -2  -4  14  185.96   17.46 
  -4  -2  14  180.12   12.15 
  -2   4  14  189.48   12.52 
   4   2  14  196.43   12.42 
  -4   2  14  189.63   12.39 
   2  -4  14  158.22   10.76 
   2   4  14  194.35   12.62 
  -2  -4  14  163.82   11.17 
   4  -2  14  193.79   12.01 
  -2  -4  15   28.31    8.22 
  -4   2  15   26.87    8.20 
  -4  -2  15   39.81    9.48 
  -4  -2  15   30.55    4.99 
  -2  -4  15   29.37    5.40 
   4  -2  15   26.92    5.78 
  -4   2  15   20.48    4.89 
  -2   4  15   31.72    5.87 
   2   4  15   18.99    4.62 
   4   2  15   27.69    5.43 
   2  -4  15   27.83    5.09 
  -4   2  16    1.15    5.19 
  -2  -4  16    7.56    5.36 
  -4  -2  16   -2.89    5.35 
  -4   2  16   -1.68    4.49 
   2  -4  16   -3.99    3.77 
   4  -2  16   -0.86    3.48 
  -2  -4  16    1.21    2.94 
  -2   4  16    5.79    4.44 
   4   2  16    2.79    4.03 
  -4  -2  16    0.16    3.60 
   2   4  16   -0.61    4.80 
  -2  -4  17    0.75    4.36 
  -4  -2  17   12.56    6.86 
   2   4  17    8.29    4.61 
   2  -4  17    5.08    3.35 
  -2  -4  17   10.40    4.54 
  -4  -2  17    8.21    3.92 
   4   2  17   11.43    5.47 
   4  -2  17    6.45    3.93 
  -4   2  17    5.68    4.01 
  -2   4  17    5.73    4.57 
  -4  -2  18   26.54    6.26 
  -2   4  18   28.94    6.31 
  -2  -4  18   34.34    6.19 
   2  -4  18   25.02    5.66 
   4  -2  18   35.46    6.88 
   2   4  18   19.95    5.82 
  -4   2  18   28.38    5.95 
   4   2  18   31.30    6.97 
  -2  -4  19   11.81    4.03 
   4  -2  19   25.08    6.60 
   2   4  19   26.55    6.42 
  -4  -2  19   18.04    5.51 
   4   2  19   25.45    6.94 
  -4   2  19   20.40    6.10 
   2  -4  19   23.17    5.29 
  -2   4  19   24.03    6.84 
  -4  -2  20  155.34   11.70 
   4   2  20  168.87   12.91 
   2  -4  20  155.98   10.94 
  -2  -4  20  149.80   11.03 
  -4   2  20  154.74   12.32 
  -2   4  20  136.19   11.28 
   2   4  20  147.74   11.98 
  -4   2  21  156.27   11.75 
   2   4  21  148.23   11.18 
  -4  -2  21  136.47   10.39 
  -2  -4  21  141.63   10.03 
  -2   4  21  126.78   10.36 
   2   4  22   78.07    8.42 
  -4  -2  22   62.91    6.98 
  -2  -4  22   60.24    6.12 
  -2   4  22   66.48    7.32 
  -4   2  22   69.25    7.56 
  -4  -2  23    6.16    2.92 
  -2   4  23    6.38    3.68 
  -4   2  23    3.98    3.28 
  -4   2  24    6.94    3.08 
  -2   4  24    9.49    3.12 
  -4  -2  24    7.53    2.35 
   4  -3   0 1631.04   23.63 
   3  -4   0 1609.24   24.85 
   4  -3  -1  801.73   17.28 
   4  -3   1  798.29   16.42 
   3  -4   1  788.85   17.48 
   3  -4  -1  805.87   17.63 
  -3   4   1  765.60    9.12 
  -3  -4  -1  828.08   16.21 
  -3  -4  -2    8.90    2.29 
  -3   4   2    8.84    1.88 
   3  -4  -2    6.35    2.97 
   4  -3   2   12.80    3.14 
   3  -4   2   11.10    3.06 
   3  -4  -3  319.87   11.85 
  -3   4   3  292.87    9.64 
  -3  -4  -3  310.20    9.58 
   4  -3   3  307.75   10.25 
   3  -4   3  319.14   11.46 
   3  -4  -4   95.34    6.90 
   4  -3   4   88.47    5.76 
  -3   4   4   89.36    6.08 
  -4   3   4   85.28    6.12 
   3  -4   4   97.69    6.77 
  -3  -4  -4   98.60    5.54 
  -3   4   5  254.50   11.28 
   3  -4   5  253.34   11.03 
   4  -3   5  246.70    9.79 
  -4   3   5  243.16   11.60 
  -3  -4  -5  257.54    8.70 
  -4   3   6   12.49    3.61 
  -3  -4  -6   12.12    2.36 
  -3   4   6   10.89    3.42 
  -3   4   7  276.29   14.00 
  -3  -4  -7  265.42    9.38 
  -4   3   7  271.71   13.98 
  -3   4   8 1482.64   33.93 
  -4   3   8 1418.55   33.57 
  -3   4   9  665.37   24.71 
  -4   3   9  636.95   24.28 
  -4  -3  10  186.28   14.80 
  -3   4  10  207.94   14.75 
  -4   3  10  219.75   15.39 
  -3  -4  10  198.58   15.15 
  -4  -3  11   14.66    6.02 
  -4   3  11   18.88    5.95 
  -3  -4  11   20.86    6.25 
  -3   4  11   13.74    5.48 
  -3  -4  12   12.99    5.98 
  -3   4  12   11.20    5.57 
  -4   3  12    9.94    5.13 
  -4  -3  12    6.71    4.46 
  -4   3  13  164.11   15.65 
  -3  -4  13  167.26   16.13 
  -4  -3  13  173.21   16.72 
  -3   4  13  157.79   15.45 
  -3   4  13  152.69   10.76 
   4  -3  13  132.87    9.54 
  -4   3  13  171.68   11.43 
  -4  -3  13  149.49   10.48 
   4   3  13  160.31   10.83 
   3   4  13  169.67   11.32 
  -4   3  14    1.58    5.16 
  -3  -4  14    6.75    4.91 
  -4  -3  14   -0.66    4.74 
  -3   4  14   -0.90    3.64 
   3   4  14    0.51    3.26 
  -4   3  14    5.15    4.24 
   4   3  14   -0.70    3.46 
   4  -3  14    5.82    3.08 
  -4  -3  14   -2.76    2.91 
  -3  -4  14   -0.65    2.54 
   3  -4  14    2.50    2.76 
   3  -4 -15   10.27    4.62 
  -3  -4  15   11.53    5.53 
  -4  -3  15   13.81    6.38 
  -4   3  15   12.03    7.04 
  -4  -3  15   14.12    4.05 
  -3  -4  15   11.46    3.69 
   3  -4  15   13.35    4.20 
  -4   3  15    7.13    3.58 
  -3   4  15    8.86    3.80 
   3   4  15   18.60    4.86 
   4  -3  15   17.24    4.87 
   4   3  15   18.08    5.48 
  -4  -3  16    0.63    5.09 
  -3  -4  16   -1.32    4.57 
  -4  -3  16    1.28    4.15 
  -3   4  16   -2.15    3.88 
   4  -3  16    2.96    4.56 
   4   3  16    2.40    4.53 
   3   4  16   -4.45    4.68 
  -4   3  16   -2.37    4.47 
  -3  -4  16   -0.88    3.47 
   3  -4  16    7.37    4.46 
  -3  -4  17  117.36   15.64 
  -4  -3  17  101.04   15.07 
   4   3  17  134.41   11.62 
  -4  -3  17  136.61   11.58 
  -3  -4  17  141.23   11.33 
   3   4  17  141.22   11.88 
  -4   3  17  139.84   11.82 
   3  -4  17  143.00   11.03 
  -3   4  17  129.96   11.39 
   4  -3  17  135.79   10.91 
  -3   4  18   30.32    6.52 
   3  -4  18   33.42    6.24 
   4  -3  18   35.45    6.66 
  -4   3  18   22.59    5.44 
  -3  -4  18   28.97    5.90 
   4   3  18   29.69    7.27 
   3   4  18   38.17    7.00 
  -4  -3  18   26.40    5.48 
  -3   4  19   67.40    8.85 
   3  -4  19   63.05    8.01 
   4   3  19   72.93    9.30 
  -4  -3  19   52.62    7.29 
  -4   3  19   59.32    8.18 
   3   4  19   66.09    9.06 
  -3  -4  19   53.20    6.96 
  -4  -3  20   12.01    5.19 
   4   3  20   19.95    6.24 
   3   4  20   14.37    5.85 
  -3  -4  20    4.56    3.29 
  -4   3  20   14.16    5.69 
  -3   4  20   10.30    5.72 
   3   4  21   52.97    7.98 
  -3  -4  21   32.84    5.35 
  -4   3  21   41.73    6.95 
  -3   4  21   30.73    5.66 
  -4  -3  21   34.21    5.68 
  -3  -4  22   -0.13    2.49 
  -3   4  22   -1.37    3.83 
  -4   3  22   -2.15    4.22 
  -4  -3  22   -2.57    3.42 
  -3   4  23    3.00    3.03 
  -4  -3  23    8.21    2.87 
  -4   3  23    5.99    3.04 
  -4   3  24   35.71    4.57 
  -3   4  24   38.13    4.60 
   4  -4   0 5315.20   47.03 
   4  -4   1  784.60   18.13 
   4  -4  -1  792.56   18.45 
   4  -4   2    2.49    2.51 
   4  -4  -2    0.92    2.56 
  -4   4   2    3.51    1.48 
   4  -4   3   19.39    3.43 
  -4   4   3   22.85    3.14 
   4  -4  -3   14.23    3.03 
  -4   4   4  181.18    8.63 
   4  -4   4  195.87    9.43 
  -4  -4  -4  180.78    6.89 
  -4  -4  -5   10.55    1.80 
  -4   4   5    8.06    2.69 
   4  -4   5   11.23    2.89 
  -4  -4  -6   36.46    2.98 
  -4   4   6   35.06    4.92 
  -4   4   7 1393.82   31.20 
  -4   4   8 1579.99   35.73 
  -4   4   9  876.43   28.31 
  -4   4  10  498.55   23.02 
  -4  -4  11  164.37   15.13 
  -4   4  11  161.23   14.24 
  -4  -4  12    7.59    5.11 
  -4   4  12    5.92    4.88 
   4   4  12    4.63    3.17 
  -4   4  12    5.89    3.11 
  -4  -4  13    5.69    4.60 
  -4   4  13   -2.40    4.41 
  -4  -4  13    5.15    2.99 
   4  -4  13    4.82    3.08 
   4   4  13    5.83    3.60 
  -4   4  13    1.87    2.75 
  -4   4  14   19.21    6.29 
  -4  -4  14   15.87    5.99 
  -4  -4  14   19.84    4.50 
   4   4  14   25.02    5.30 
  -4   4  14   17.32    4.54 
   4  -4  14   20.25    4.48 
  -4  -4  15   -9.04    7.23 
   4  -4 -15    5.44    5.74 
   4   4  15    1.92    3.87 
  -4   4  15    0.13    3.60 
   4  -4  15    4.59    3.04 
  -4  -4  15    3.85    3.39 
   4  -4 -16  156.72   16.50 
  -4  -4  16  191.57   20.03 
   4   4  16  202.91   13.71 
  -4   4  16  185.95   13.06 
  -4  -4  16  198.61   13.10 
   4  -4  16  207.60   12.86 
  -4  -4  17  154.03   11.92 
   4  -4  17  137.69   11.02 
  -4   4  17  140.22   11.72 
   4   4  17  169.48   13.10 
  -4   4  18  217.42   14.60 
  -4  -4  18  212.93   13.58 
   4   4  18  230.58   15.03 
  -4  -4  19   55.50    7.09 
   4   4  19   57.34    8.79 
  -4   4  19   48.10    7.78 
  -4   4  20   22.79    6.08 
  -4  -4  20   16.29    4.18 
   4   4  20   29.52    6.73 
  -4   4  21   -6.16    5.39 
  -4  -4  21    1.63    3.05 
  -4   4  22   -4.64    4.61 
  -4  -4  22    2.28    2.49 
  -4   4  23   37.78    5.16 
  -4   4  24   99.46    6.70 
   0  -5   0 1532.03   24.62 
   0  -5  -1  426.55   13.14 
   0  -5   1  434.84   13.59 
   5   0   2 1506.97   15.73 
   0  -5  -2 1512.88   24.47 
   0  -5   2 1549.78   25.81 
   0  -5   3  881.08   20.22 
   0  -5  -3  826.33   18.19 
   0  -5  -4 2151.32   30.07 
   0  -5  -5 1801.91   28.47 
   0  -5   6 1197.66   25.40 
   0  -5  -6 1207.65   24.25 
   0  -5  -7  755.50   20.16 
   0  -5   7  814.12   22.98 
   0  -5  -8   61.48    6.39 
   0  -5   8   61.53    7.32 
   0  -5  -9  138.62    9.79 
  -5   0   9  138.70   12.23 
   0  -5   9  127.09   10.48 
   0  -5 -10   40.25    6.02 
   0  -5  10   30.20    6.30 
  -5   0  10   36.29    6.93 
   0  -5 -11 1544.56   35.47 
   0  -5  11 1559.40   41.10 
  -5   0  11 1591.15   43.93 
   0  -5 -12 1996.64   42.21 
  -5   0  12 1975.05   51.93 
   0  -5  12 2067.34   50.15 
  -5   0  13 1089.55   40.37 
   0  -5  13 1068.73   38.36 
   5   0  13 1117.63   27.66 
  -5   0  13 1120.29   28.63 
   0   5  13 1104.78   28.62 
  -5   0  14  510.99   29.35 
   0  -5  14  518.96   27.94 
  -5   0  14  515.27   20.44 
   0   5  14  527.59   20.56 
   5   0  14  496.80   19.36 
   0  -5  15  151.57   15.94 
  -5   0  15  118.19   15.09 
   0   5  15  146.62   11.46 
   5   0  15  140.38   10.99 
  -5   0  15  141.53   11.52 
  -5   0  16   15.55    7.24 
  -5   0  16    0.89    4.90 
   0   5  16   11.40    4.73 
   5   0  16   15.45    5.12 
  -5   0  17  224.36   21.84 
   0  -5  17  227.27   13.45 
   0   5  17  270.24   15.84 
  -5   0  17  233.52   14.86 
   5   0  17  252.98   14.99 
  -5   0  18  172.93   13.18 
   0  -5  18  160.99   11.40 
   5   0  18  165.67   12.62 
   0   5  18  167.50   12.78 
  -5   0  19  375.66   18.65 
   0   5  19  394.09   19.04 
   0   5  20  434.03   19.59 
  -5   0  20  465.09   19.98 
   0   5  21  485.35   19.43 
  -5   0  21  499.12   19.87 
   0   5  22  308.44   14.24 
  -5   0  22  283.14   14.17 
  -5   0  23  148.91    9.54 
   0   5  23  169.90    9.75 
  -5   0  24   35.49    4.50 
  -1  -5   0  174.65    8.56 
   1  -5   0  171.28    8.73 
  -1  -5  -1  666.61   16.04 
   1  -5   1  642.11   16.45 
  -1  -5   1  650.19   16.65 
   1  -5  -1  647.82   16.39 
  -1  -5   2  417.44   13.59 
   1  -5  -2  419.84   13.36 
   1  -5   2  436.66   13.90 
  -1  -5  -2  442.50   13.18 
   5  -1   2  425.32    9.75 
   1  -5   3  463.22   14.82 
   1  -5  -3  464.71   14.30 
   5  -1   3  439.44    9.08 
  -1  -5  -3  463.05   13.52 
   1  -5  -4 1073.58   22.02 
   1  -5   4 1097.14   23.39 
   1  -5   4 1042.06   18.21 
   5  -1   4 1023.17   12.06 
  -1  -5  -4 1067.68   20.74 
   1  -5  -5 2061.94   31.53 
  -1  -5  -5 2057.55   29.25 
   1  -5   5 2024.86   28.30 
   1  -5  -6  800.37   20.71 
   1  -5   6  770.81   19.42 
  -1  -5  -6  763.44   18.66 
   1  -5  -7  209.89   11.34 
  -1  -5  -7  208.86   10.36 
   1  -5   7  216.91   11.38 
  -5   1   8   55.73    7.27 
   1  -5   8   54.59    6.54 
   1  -5  -8   57.94    6.52 
  -1  -5   8   61.52    7.40 
  -1  -5  -8   69.52    6.59 
   1  -5  -9   67.58    7.25 
   1  -5   9   69.65    7.76 
  -1  -5  -9   71.30    7.05 
  -1  -5   9   76.97    8.86 
  -5   1   9   65.66    8.94 
   1  -5 -10  230.01   13.82 
  -5   1  10  204.80   15.51 
   1  -5  10  210.52   13.97 
  -5  -1  10  228.55   16.06 
  -1  -5 -10  222.51   12.34 
  -1  -5  10  223.13   15.13 
   1  -5 -11  739.27   25.77 
  -1  -5 -11  743.33   23.43 
   1  -5  11  759.81   28.00 
  -5  -1  11  730.55   30.74 
  -1  -5  11  755.46   29.62 
  -5   1  11  770.19   30.40 
   1  -5 -12 1344.87   36.27 
  -5   1  12 1366.30   42.87 
  -1  -5  12 1352.49   41.40 
   1  -5  12 1333.51   39.20 
  -5  -1  12 1326.45   42.69 
   1  -5 -13  891.10   30.91 
  -1  -5  13  924.98   36.40 
  -5   1  13  921.42   37.41 
   1  -5  13  930.93   34.97 
  -5  -1  13  876.75   36.36 
  -5  -1  13  885.99   25.62 
   5  -1  13  901.77   24.87 
   5   1  13  917.68   25.46 
  -5   1  13  910.44   25.90 
   1   5  13  899.04   25.61 
  -1   5  13  911.19   26.16 
   1  -5  14  388.13   24.17 
  -5  -1  14  408.21   26.28 
  -1  -5  14  406.92   25.45 
  -5   1  14  416.10   26.53 
   5   1  14  404.25   17.52 
  -5   1  14  399.11   18.09 
   1   5  14  404.34   18.09 
  -5  -1  14  428.20   18.48 
  -1   5  14  414.74   18.55 
   5  -1  14  426.32   17.83 
  -1  -5  15   13.55    5.97 
  -5   1  15    8.21    5.44 
  -5  -1  15    8.09    5.34 
   5  -1  15   13.26    4.66 
   5   1  15   13.57    4.64 
  -5   1  15   14.10    4.52 
  -1   5  15    8.62    4.18 
   1   5  15   11.53    4.76 
  -5  -1  15   12.74    4.66 
  -5   1  16   30.13    8.32 
  -5  -1  16   21.20    8.14 
  -1  -5  16   29.04    8.92 
  -1   5  16   32.71    6.51 
  -5  -1  16   30.89    5.68 
   1   5  16   22.02    5.45 
  -5   1  16   22.51    4.74 
   5  -1  16   36.12    6.24 
   5   1  16   28.18    6.01 
  -5  -1  17   32.27    8.79 
  -5   1  17   33.62    9.87 
  -1  -5  17   24.53    7.80 
  -1   5  17   40.51    6.98 
   5   1  17   28.99    6.71 
   1   5  17   26.22    5.97 
   5  -1  17   39.54    7.11 
  -1  -5  17   26.90    4.80 
   1  -5  17   30.73    5.69 
  -5  -1  17   39.03    6.54 
  -5   1  17   36.14    6.40 
  -1   5  18  140.16   11.90 
  -1  -5  18  110.85    9.59 
  -5  -1  18  122.47   11.20 
   5  -1  18  124.73   11.04 
   1   5  18  105.09   10.62 
  -5   1  18  126.96   11.62 
   5   1  18  145.56   12.01 
   1  -5  18  107.16    9.45 
  -5  -1  19  194.45   13.53 
  -1   5  19  154.54   11.95 
  -5   1  19  187.49   13.56 
   1   5  19  197.18   13.80 
  -5  -1  20  376.19   17.93 
  -5   1  20  368.30   17.90 
   1   5  20  358.83   17.75 
  -1   5  20  361.00   17.91 
  -5   1  21  382.20   17.27 
   1   5  21  355.71   16.62 
  -1   5  21  372.72   17.14 
  -5  -1  21  369.96   17.04 
  -1   5  22  232.00   12.62 
   1   5  22  246.94   12.78 
  -5   1  22  239.35   12.97 
  -5  -1  22  241.77   12.91 
  -5   1  23   76.49    7.14 
  -5  -1  23   79.70    6.88 
  -1   5  23   86.23    7.16 
  -5  -1  24   18.54    3.26 
  -5   1  24   16.16    3.46 
   2  -5   0    4.24    3.04 
  -2  -5   0   11.71    3.44 
  -2  -5  -1   21.98    3.86 
   5  -2   1   18.03    2.98 
   2  -5  -1   17.58    3.82 
  -2  -5   1   19.54    3.46 
   2  -5   1   15.61    3.73 
   5  -2   2   30.71    3.43 
   2  -5  -2   27.43    4.75 
  -2  -5  -2   33.99    4.34 
   2  -5   2   24.77    4.31 
   2  -5   3  191.09    5.78 
  -2  -5  -3  211.94    8.92 
   2  -5   3  202.98   10.06 
   2  -5  -3  190.71    9.74 
   5  -2   3  187.56    7.49 
   2  -5  -4  479.69   15.45 
  -2  -5  -4  485.76   13.84 
   2  -5   4  465.87   11.17 
   5  -2   4  468.18   11.23 
   2  -5   4  481.71   15.89 
   2  -5  -5  631.53   18.43 
   2  -5   5  613.19   14.84 
  -2  -5  -5  642.93   16.07 
   2  -5  -6  207.75   11.51 
   2  -5   6  201.89    9.67 
  -2  -5  -6  215.07    9.76 
  -5   2   7    5.99    3.86 
  -2  -5  -7    7.23    2.81 
   2  -5  -7    5.36    3.46 
   2  -5   7    6.78    3.12 
   2  -5  -8  714.83   22.20 
  -2  -5  -8  701.89   18.62 
   2  -5   8  732.30   21.95 
  -5   2   8  721.49   25.22 
   2  -5  -9  156.14   11.03 
   2  -5   9  160.36   11.25 
  -2  -5  -9  158.25    9.45 
  -2  -5   9  165.98   12.97 
  -5   2   9  157.07   12.80 
  -2  -5  10   20.49    5.85 
   2  -5 -10   13.32    4.80 
  -5   2  10    7.28    3.57 
  -5  -2  10    6.81    4.25 
   2  -5  10   12.66    4.22 
   2  -5 -11  127.97   11.10 
  -5   2  11  136.19   13.36 
  -5  -2  11  126.78   13.55 
   2  -5  11  123.93   11.17 
  -2  -5  11  143.15   13.34 
   2  -5 -12  304.81   18.09 
   5   2  12  282.29   13.90 
  -5   2  12  281.38   14.03 
  -5   2  12  301.05   20.47 
   2  -5  12  280.25   17.93 
  -5  -2  12  300.37   20.82 
  -2  -5  12  283.20   19.38 
   2  -5 -13  456.50   23.31 
  -2  -5  13  438.61   25.89 
  -5   2  13  457.16   26.42 
  -5  -2  13  428.85   25.90 
   2   5  13  437.76   18.10 
  -5   2  13  444.85   18.26 
   5  -2  13  411.35   16.82 
  -5  -2  13  423.89   17.93 
  -2   5  13  458.75   18.83 
   5   2  13  444.40   17.87 
  -2  -5  14   39.88    8.95 
   2  -5 -14   38.33    7.82 
  -5  -2  14   34.90    8.92 
  -5   2  14   33.98    8.63 
  -5  -2  14   48.03    6.93 
   5   2  14   42.63    6.75 
   2   5  14   33.65    5.82 
  -5   2  14   38.35    5.99 
   5  -2  14   41.66    6.18 
  -2   5  14   31.35    5.74 
  -5  -2  15    3.52    4.82 
  -2  -5  15    2.64    4.56 
  -5   2  15    8.42    5.59 
   5   2  15    8.33    4.61 
   5  -2  15    4.04    4.18 
  -5   2  15    8.07    4.45 
  -5  -2  15    7.53    4.22 
  -2   5  15    3.37    3.54 
   2   5  15    3.90    3.72 
  -5   2  16   23.40    8.98 
  -2  -5  16    8.28    5.37 
  -5  -2  16   11.36    6.70 
   5   2  16   21.75    6.06 
   5  -2  16   16.57    5.08 
  -2   5  16   17.51    5.49 
  -5  -2  16    8.46    3.58 
   2   5  16    8.56    4.46 
  -2  -5  16   13.33    4.28 
  -5   2  16    3.03    4.59 
  -2  -5  17   28.95    8.86 
  -5  -2  17   27.08    5.56 
  -2   5  17   34.98    7.07 
  -2  -5  17   31.93    6.04 
   2   5  17   26.32    5.97 
  -5   2  17   27.76    5.93 
   5  -2  17   35.29    7.02 
   5   2  17   27.82    6.58 
   2  -5  17   22.99    5.11 
   5   2  18   11.56    5.96 
  -2   5  18   11.04    5.35 
  -2  -5  18   -5.64    4.48 
  -5   2  18   -0.17    4.41 
  -5  -2  18   -2.28    4.31 
   2  -5  18    6.06    3.25 
   2   5  18    2.61    4.73 
  -2   5  19   38.78    7.19 
   2   5  19   22.55    5.79 
  -5   2  19   32.76    6.89 
  -5  -2  19   32.30    6.60 
   2   5  20  122.56   10.96 
  -5  -2  20  118.64   10.35 
  -5   2  20  116.46   10.76 
  -2   5  20  106.75   10.03 
   2   5  21  158.34   11.31 
  -5   2  21  154.25   11.37 
  -5  -2  21  155.26   11.08 
  -2   5  21  147.67   11.05 
  -5   2  22   80.87    7.94 
  -2   5  22   82.36    7.89 
  -5  -2  22   69.04    6.97 
  -5   2  23   11.32    3.81 
  -2   5  23   13.53    3.78 
  -5  -2  23   12.78    3.43 
  -2   5  24   12.83    3.26 
  -5   2  24    5.74    2.66 
   3  -5   0  762.71   19.09 
   5  -3   0  787.14   17.81 
   3  -5  -1  285.17   12.00 
  -3  -5  -1  279.25   10.68 
   3  -5   1  282.16   11.83 
   5  -3   1  284.26   10.67 
   5  -3  -1  275.44   10.91 
   3  -5   2   46.70    5.16 
  -3  -5  -2   51.56    4.96 
   5  -3   2   56.21    5.16 
   3  -5  -2   56.72    5.80 
  -3  -5  -3   48.66    4.65 
   3  -5   3   48.34    5.65 
   5  -3   3   52.24    4.67 
   3  -5  -3   52.36    5.80 
  -3  -5  -4  223.41    9.28 
  -3   5   4  223.83    9.60 
   5  -3   4  217.60    9.19 
   3  -5   4  226.90   11.10 
   3  -5  -4  221.31   11.19 
  -3  -5  -5   26.32    3.53 
   3  -5  -5   26.59    4.49 
  -3   5   5   27.39    4.32 
   3  -5   5   33.32    4.71 
  -5   3   5   26.64    4.27 
   5  -3   5   28.31    3.50 
  -3  -5  -6   13.26    2.81 
   3  -5  -6    7.34    3.25 
  -5   3   6   10.96    3.47 
  -3   5   6   14.84    3.68 
  -5   3   7  887.75   25.38 
  -3   5   7  897.77   25.06 
  -3  -5  -7  900.74   19.39 
   3  -5  -7  916.77   24.71 
  -3   5   8 1286.48   32.01 
  -5   3   8 1257.28   32.36 
   3  -5  -8 1252.01   30.25 
  -3   5   9  505.92   21.52 
  -5   3   9  481.47   21.44 
   3  -5  -9  468.79   19.56 
  -3   5  10  194.90   14.56 
  -5   3  10  189.17   14.69 
  -3  -5  10  190.25   14.94 
   3  -5 -10  185.26   13.07 
  -3  -5  11   12.89    5.41 
   3  -5 -11   10.13    3.63 
  -5   3  11   11.44    5.11 
  -5  -3  11    6.24    4.05 
  -5  -3  12   14.35    6.06 
  -3  -5  12   18.21    7.06 
  -5   3  12   13.84    5.74 
   3  -5 -12    5.41    3.74 
   3   5  12   15.07    3.93 
  -5   3  12   14.68    3.76 
   5   3  12   15.91    4.24 
  -3   5  12   15.48    4.18 
  -5   3  13    9.26    5.33 
   3  -5 -13    4.52    3.81 
  -3  -5  13    6.33    4.22 
  -5  -3  13    7.99    4.13 
  -5   3  13    7.65    3.26 
  -3   5  13    2.85    3.26 
   5   3  13    8.93    3.99 
   5  -3  13    9.75    4.01 
   3   5  13    9.49    3.52 
  -5  -3  13   11.87    3.69 
   3  -5 -14   -0.01    3.89 
  -5  -3  14    0.21    4.94 
  -5   3  14    2.32    4.66 
  -3  -5  14   -0.37    4.99 
   3   5  14   -1.72    3.48 
  -5  -3  14   -0.41    3.07 
  -5   3  14    1.04    3.20 
  -3   5  14   -2.18    3.71 
   5   3  14    3.22    3.79 
   5  -3  14    3.18    3.29 
  -3  -5  15    1.62    4.76 
  -5  -3  15    0.08    5.11 
  -5   3  15    7.34    6.29 
   3  -5 -15    4.11    3.58 
   5  -3  15   11.38    4.63 
  -3   5  15   -2.45    3.87 
   3   5  15   -2.18    4.29 
  -5  -3  15   -7.67    4.51 
  -5   3  15    1.19    3.45 
   5   3  15    4.16    4.39 
  -3  -5  15   -2.24    2.83 
  -5  -3  16  116.79   15.91 
  -3  -5  16  109.10   14.59 
  -5   3  16  122.80   15.85 
   3  -5  16  118.60    9.61 
  -3  -5  16  112.32    9.71 
  -3   5  16  119.10   10.86 
   5  -3  16  127.49   10.58 
  -5   3  16  118.75   10.80 
   3   5  16  135.06   11.51 
   5   3  16  137.49   11.55 
  -5  -3  16  129.76   10.81 
   3  -5  17   98.07    8.99 
  -5   3  17  111.17   10.50 
   5   3  17  124.96   11.08 
  -5  -3  17  120.41   10.84 
   3   5  17  107.65   10.58 
  -3  -5  17  101.98    9.19 
  -3   5  17  116.61   10.83 
  -3  -5  18   94.02    8.99 
  -3   5  18  104.16   10.43 
  -5  -3  18   95.62    9.64 
   3   5  18  105.51   10.72 
   5   3  18  116.49   11.04 
  -5   3  18   97.43   10.06 
  -5  -3  19    6.62    4.83 
  -3   5  19    2.33    4.43 
  -5   3  19    8.17    5.32 
   3   5  19   12.30    5.31 
  -3  -5  19   -4.59    3.60 
  -3   5  20   -6.03    5.10 
  -5   3  20    9.62    4.83 
   3   5  20    2.77    5.37 
  -5  -3  20    2.66    3.79 
  -3   5  21   -1.65    4.91 
  -5   3  21   11.12    4.53 
  -5  -3  21   -1.41    3.64 
  -5   3  22    2.88    3.75 
  -5  -3  22    4.05    2.54 
  -3   5  22   -1.05    3.49 
  -5   3  23    6.21    2.96 
  -5  -3  23    5.73    2.23 
  -3   5  23    8.39    3.38 
  -5   3  24   59.29    5.29 
  -3   5  24   52.65    4.96 
   4  -5   0  609.91   17.66 
   5  -4   0  596.14   17.00 
   4  -5   1 1250.26   25.49 
   4  -5  -1 1285.37   25.63 
   5  -4   1 1231.88   23.84 
   5  -4  -1 1273.90   24.87 
   5  -4   2   49.20    5.36 
   4  -5  -2   54.57    5.97 
   4  -5   2   51.16    5.77 
   5  -4  -2   58.05    5.96 
  -5   4   3   39.84    4.14 
  -4   5   3   33.97    3.45 
   5  -4   3   46.37    5.06 
  -4  -5  -3   44.58    4.40 
   5  -4  -3   34.65    4.78 
   4  -5   3   45.55    5.48 
   4  -5  -3   46.00    5.76 
   4  -5  -4   12.11    3.41 
  -5   4   4   12.16    2.72 
  -4   5   4   13.23    2.77 
   4  -5   4   13.69    3.71 
  -4  -5  -4   12.67    2.58 
   5  -4   4   15.36    3.57 
  -4  -5  -5    7.83    2.25 
  -4   5   5    6.88    2.46 
  -5   4   5    8.31    2.74 
   5  -4   5    9.14    2.84 
   4  -5   5    7.18    2.70 
   4  -5  -5    3.97    3.64 
  -4  -5  -6  759.69   15.99 
  -5   4   6  752.39   21.50 
  -4   5   6  738.31   21.14 
   4  -5  -6  767.32   22.58 
  -5   4   7 1285.58   30.48 
  -4   5   7 1301.06   29.96 
   4  -5  -7 1297.94   30.85 
  -4   5   8  923.82   27.36 
  -5   4   8  926.06   27.95 
  -4   5   9 1069.91   31.26 
  -5   4   9 1044.70   31.45 
  -5   4  10  520.12   23.86 
  -4   5  10  516.13   23.25 
  -5   4  11  172.03   14.70 
  -4  -5  11  168.68   15.62 
  -4   5  11  157.97   14.08 
  -5  -4  11  154.76   14.82 
   4  -5 -11  155.78   13.06 
  -5   4  12   59.48    9.81 
  -4  -5  12   40.17    8.37 
   4  -5 -12   42.25    7.77 
  -5  -4  12   44.62    8.20 
  -4   5  12   56.23    9.28 
  -5   4  12   43.68    6.24 
   5   4  12   44.44    5.96 
   4   5  12   38.95    5.78 
  -4   5  12   46.37    6.12 
  -5  -4  13   24.69    7.10 
   4  -5 -13   20.52    5.74 
  -4  -5  13   21.81    6.92 
  -5   4  13   19.74    6.73 
   5  -4  13   20.15    4.65 
   4   5  13   24.42    5.21 
  -5   4  13   19.66    4.68 
  -4   5  13   24.02    5.31 
   5   4  13   27.20    5.36 
  -5  -4  13   18.91    4.36 
  -5   4  14   -0.48    3.99 
  -5  -4  14   -1.15    4.42 
   4  -5 -14    5.08    4.00 
  -4  -5  14    3.71    4.24 
   4   5  14    8.18    4.08 
   5   4  14    9.41    4.40 
  -5   4  14    5.96    4.10 
  -4  -5  14    1.58    2.71 
  -4   5  14    2.48    3.70 
   5  -4  14   11.48    4.22 
  -5  -4  14    6.32    3.44 
   5  -4 -15  116.51   14.64 
   4  -5 -15  122.09   14.44 
  -5   4  15  130.31   10.67 
   5   4  15  149.91   11.75 
   4   5  15  155.07   11.93 
  -4  -5  15  127.67   10.03 
  -5  -4  15  141.01   11.04 
  -4   5  15  135.81   11.06 
  -4  -5  15  121.10   15.49 
  -5  -4  15  106.66   14.45 
   5  -4 -16  200.88   19.82 
  -5  -4  16  204.51   20.93 
  -4  -5  16  213.47   21.14 
  -4   5  16  238.75   15.08 
  -4  -5  16  236.46   13.74 
  -5  -4  16  269.38   15.15 
   5   4  16  253.83   15.34 
   5  -4  16  227.98   12.51 
   4   5  16  270.23   15.58 
  -5   4  16  242.53   14.90 
  -4  -5  17  310.34   15.87 
   4   5  17  352.74   18.30 
  -4   5  17  349.26   17.93 
  -5  -4  17  344.04   17.33 
  -5   4  17  338.08   17.84 
   5   4  17  359.21   18.18 
  -4  -5  18  213.03   12.98 
  -4   5  18  227.80   14.93 
   4  -5  18  196.94   11.50 
   5   4  18  263.89   15.75 
  -5   4  18  227.69   15.08 
   4   5  18  237.49   14.81 
  -5  -4  18  241.68   14.42 
   4   5  19   50.62    8.05 
  -5  -4  19   41.95    6.28 
  -4  -5  19   32.03    5.38 
  -5   4  19   38.55    7.17 
  -4   5  19   42.11    7.18 
  -5  -4  20   17.10    4.67 
  -4   5  20   16.86    5.56 
  -5   4  20   18.84    5.58 
  -5  -4  21   10.40    3.65 
  -5   4  21   17.80    5.28 
  -4   5  21    4.47    4.03 
  -4   5  22    1.10    3.43 
  -5   4  22    4.07    3.42 
  -5   4  23   53.35    5.75 
  -4   5  23   51.01    5.57 
  -5   4  24  134.00    7.53 
  -4   5  24  132.82    7.32 
   5  -5   0  721.64   19.97 
   5  -5  -1  570.13   17.89 
   5  -5   1  599.19   18.34 
   5  -5  -2  231.07   11.87 
   5  -5   2  248.43   12.08 
  -5   5   3    1.48    1.45 
   5  -5   3    3.26    2.80 
   5  -5  -3    3.89    3.31 
   5  -5   4   23.52    4.58 
  -5   5   4   18.53    3.11 
   5  -5  -4   14.36    3.77 
   5  -5  -5  165.21   10.79 
  -5   5   5  154.68    9.05 
   5  -5   5  164.41   10.22 
   5  -5  -6 1514.51   32.85 
  -5   5   6 1499.49   30.52 
   5  -5  -7  976.68   27.63 
  -5   5   7 1046.08   27.79 
  -5   5   8 1014.11   28.82 
  -5   5   9  893.93   29.30 
  -5   5  10  643.04   26.04 
  -5   5  11  334.78   20.13 
  -5  -5  11  308.31   21.02 
  -5  -5  12   54.96    9.97 
  -5   5  12   47.50    8.73 
   5  -5 -12   53.18    8.66 
  -5   5  12   55.94    6.75 
   5   5  12   53.03    6.67 
  -5  -5  13   48.83    9.74 
  -5   5  13   67.22   10.60 
   5  -5 -13   43.21    8.08 
   5   5  13   64.59    7.68 
  -5   5  13   60.48    7.19 
  -5  -5  13   45.66    6.01 
   5  -5 -14   27.06    6.06 
  -5  -5  14   23.50    7.16 
  -5  -5  14   30.92    5.06 
   5   5  14   42.42    6.84 
  -5   5  14   37.45    6.29 
   5  -5 -15  255.94   21.41 
   5   5  15  276.72   15.40 
  -5  -5  15  238.08   13.78 
  -5   5  15  243.62   14.61 
  -5  -5  15  223.46   21.29 
   5  -5 -16  344.48   25.51 
  -5  -5  16  349.88   27.42 
  -5  -5  16  391.02   17.77 
  -5   5  16  405.95   19.12 
   5   5  16  432.45   19.39 
   5   5  17  466.43   20.33 
   5  -5  17  412.18   17.03 
  -5  -5  17  450.80   19.21 
  -5   5  17  448.85   20.19 
  -5   5  18  238.33   15.07 
   5  -5  18  210.42   11.91 
  -5  -5  18  226.41   13.16 
  -5  -5  19  129.07    9.60 
  -5   5  19  113.81   10.83 
  -5   5  20    8.31    4.53 
  -5   5  21   -3.82    4.45 
  -5   5  22   29.20    5.01 
  -5   5  23   96.22    7.18 
  -5   5  24  142.54    7.29 
   0  -6   0    7.38    3.56 
   0  -6  -1  876.32   20.49 
   0  -6   1  850.84   20.66 
   6   0   2  990.81   14.90 
   0  -6  -2 1037.14   22.38 
   0  -6   2 1033.48   23.24 
   0  -6   3  613.32   18.40 
   0  -6  -3  612.25   17.64 
   0  -6  -4 1573.89   28.25 
   0  -6  -5 2759.42   38.30 
   0  -6  -6 1769.69   31.69 
   0  -6  -7  549.65   18.50 
   0  -6   7  578.64   19.43 
   0  -6  -8  125.05    9.55 
   0  -6   8  132.82   10.22 
   0  -6   9   14.01    3.73 
   0  -6  -9   20.21    4.67 
   0  -6  10  316.15   17.53 
  -6   0  10  329.19   19.88 
   0  -6 -10  321.70   16.21 
   0  -6  11  670.39   27.30 
   0  -6 -11  700.12   24.82 
  -6   0  11  651.23   29.54 
   0  -6  12 1558.67   43.94 
   0  -6 -12 1437.46   37.11 
  -6   0  12 1503.89   46.48 
   0   6  12 1321.04   30.42 
  -6   0  12 1412.90   31.64 
   6   0  12 1428.28   30.64 
   0  -6  13  999.10   37.34 
  -6   0  13  986.12   39.64 
   0   6  13  991.54   27.29 
  -6   0  13  978.26   27.36 
   6   0  13 1009.28   26.76 
  -6   0  14  414.94   27.00 
   0  -6  14  401.39   24.71 
   0   6  14  454.69   19.30 
   6   0  14  396.53   17.51 
  -6   0  14  414.90   18.58 
   0  -6  15   11.20    6.15 
  -6   0  15    9.57    6.08 
  -6   0  15    5.08    4.07 
   6   0  15   14.53    5.46 
   0   6  15   16.10    5.41 
  -6   0  16  117.86   15.89 
   0   6  16  154.68   12.22 
  -6   0  16  117.81   10.95 
   6   0  16  125.77   11.10 
   0   6  17  247.65   15.14 
  -6   0  17  224.09   14.78 
   0   6  18   60.43    8.25 
  -6   0  18   72.85    8.82 
  -6   0  19  131.04   11.26 
   0   6  19  140.57   11.59 
   0   6  20  357.70   17.23 
  -6   0  20  345.32   17.18 
  -6   0  21  332.03   15.97 
   0   6  21  301.83   15.00 
  -6   0  22  277.32   13.67 
   0   6  22  260.61   12.62 
  -6   0  23  118.69    8.32 
  -6   0  24   21.94    3.50 
  -1  -6   0  340.19   13.12 
   1  -6   0  315.98   12.71 
   1  -6  -1   95.04    7.56 
  -1  -6  -1  104.14    7.63 
   1  -6   1   93.01    7.22 
  -1  -6   1  100.22    7.54 
   6  -1   2  379.21   10.29 
   1  -6  -2  391.80   14.17 
  -1  -6   2  377.42   14.32 
   1  -6   2  391.53   14.55 
  -1  -6  -2  381.38   13.54 
   1  -6  -3  609.80   17.85 
  -1  -6  -3  623.88   17.36 
   6  -1   3  556.37   11.30 
   1  -6   3  609.08   18.62 
  -1  -6  -4 1089.93   23.11 
   1  -6   4 1152.13   26.02 
   1  -6   4 1097.66   18.90 
   1  -6  -4 1119.39   24.54 
   1  -6   5 1636.65   25.90 
   1  -6  -5 1715.39   31.13 
  -1  -6  -5 1693.89   29.57 
   1  -6  -6 1223.04   27.24 
  -1  -6  -6 1207.18   25.52 
   1  -6   6 1179.04   24.12 
  -1  -6  -7  441.96   16.00 
   1  -6  -7  416.10   16.59 
   1  -6   7  433.20   15.85 
   1  -6  -8   44.69    6.28 
  -1  -6  -8   42.31    5.75 
  -1  -6   8   42.32    6.11 
   1  -6   8   47.27    6.08 
  -1  -6   9   -1.31    4.12 
   1  -6   9    1.85    2.61 
   1  -6  -9    1.23    2.82 
  -1  -6  -9    0.78    2.56 
  -6   1   9    1.04    3.58 
   1  -6 -10   67.70    8.19 
  -6   1  10   62.22    9.44 
  -1  -6 -10   70.60    7.60 
  -6  -1  10   64.80    9.31 
   1  -6  10   63.29    8.17 
  -1  -6  10   74.61    9.15 
   1  -6 -11  607.51   23.80 
  -6   1  11  637.39   28.95 
  -6  -1  11  626.12   29.48 
   1  -6  11  627.49   25.44 
  -1  -6  11  610.84   26.73 
  -1  -6  12  942.76   34.99 
  -6  -1  12  929.81   36.78 
   1  -6 -12  942.51   31.01 
   1  -6  12  918.11   32.64 
  -6   1  12  947.73   36.63 
  -1   6  12  832.06   24.36 
  -6  -1  12  869.53   24.80 
   6   1  12  902.62   24.45 
   6  -1  12  854.24   23.85 
   1   6  12  818.35   23.73 
  -6   1  12  867.96   24.82 
  -1  -6  13  795.83   34.06 
   1  -6 -13  724.27   28.35 
  -6   1  13  785.53   35.07 
  -6  -1  13  765.11   35.28 
   1  -6  13  779.03   31.94 
   6  -1  13  784.53   23.54 
  -6  -1  13  752.19   24.14 
  -1   6  13  765.62   24.24 
  -6   1  13  735.51   23.82 
   6   1  13  775.54   23.51 
   1   6  13  750.46   23.83 
  -1  -6  14  173.61   16.84 
   1  -6  14  161.79   15.52 
  -6   1  14  181.82   18.09 
  -6  -1  14  171.35   17.72 
   1   6  14  185.85   12.60 
   6   1  14  155.68   11.44 
  -6   1  14  161.56   11.68 
  -6  -1  14  162.84   11.91 
  -1   6  14  165.99   11.93 
   6  -1  14  173.89   11.82 
  -6  -1  15   47.76   10.42 
  -6   1  15   46.89   10.32 
  -1  -6  15   58.50   11.04 
  -6   1  15   61.67    8.10 
  -1   6  15   45.98    7.10 
   6   1  15   47.53    7.31 
   1   6  15   45.67    6.80 
  -6  -1  15   52.01    7.58 
   6  -1  15   53.62    7.53 
  -6   1  16   31.03    8.75 
  -6  -1  16   49.42   11.04 
  -1  -6  16   42.69    9.79 
   1   6  16   32.72    5.88 
  -6   1  16   46.93    7.41 
  -6  -1  16   37.16    6.43 
  -1   6  16   46.48    7.36 
   6   1  16   43.33    7.86 
  -1   6  17   49.35    7.80 
   1   6  17   47.66    7.35 
  -6   1  17   39.56    6.66 
  -6  -1  17   41.72    7.25 
   1   6  18   85.98    9.48 
  -6   1  18   75.34    8.92 
  -1   6  18   61.69    7.84 
  -6  -1  18   68.47    8.43 
  -6  -1  19   83.58    9.23 
  -6   1  19   86.16    9.54 
   1   6  19   84.75    9.24 
  -1   6  19   82.06    8.88 
   1   6  20  205.94   13.29 
  -6   1  20  215.09   13.78 
  -1   6  20  200.12   13.13 
  -6  -1  20  220.41   13.60 
  -6   1  21  313.38   15.67 
  -6  -1  21  304.55   15.18 
  -1   6  21  306.40   15.10 
   1   6  21  282.79   14.46 
  -1   6  22  168.83   10.43 
   1   6  22  171.73   10.44 
  -6  -1  22  158.28   10.19 
  -6   1  22  175.37   11.05 
  -6  -1  23   78.28    6.50 
  -1   6  23   88.53    6.98 
  -6   1  23   76.35    6.82 
  -6  -1  24    5.57    2.25 
  -6   1  24    7.62    2.80 
   2  -6   0    5.12    3.10 
  -2  -6   0    7.83    3.13 
   6  -2   0    1.62    2.37 
   2  -6  -1   11.41    3.90 
   2  -6   1   10.15    3.69 
  -2  -6  -1   10.52    3.69 
  -2  -6   1   11.73    3.23 
   6  -2   1   13.52    2.86 
   2  -6   2   38.75    5.46 
   6  -2   2   39.81    4.20 
  -2  -6  -2   40.63    5.05 
   2  -6  -2   42.30    5.81 
  -2  -6  -3   50.29    5.12 
   2  -6   3   45.27    2.75 
   6  -2   3   50.64    4.40 
   2  -6   3   56.33    6.30 
   2  -6  -3   59.91    6.46 
   2  -6   4  496.32   11.34 
   2  -6  -4  535.16   17.63 
   6  -2   4  503.98   12.13 
  -2  -6  -4  531.81   15.99 
   2  -6   4  544.89   18.34 
   2  -6   5  483.01   13.06 
   2  -6  -5  491.55   17.44 
  -2  -6  -5  512.28   16.07 
   2  -6   5  524.42   18.51 
   2  -6   6  361.93   12.81 
   2  -6  -6  387.51   16.00 
  -2  -6  -6  394.89   14.42 
   2  -6  -7   63.77    7.30 
  -2  -6  -7   64.27    6.40 
   2  -6   7   62.30    6.21 
   2  -6  -8  217.62   13.42 
  -6   2   8  233.84   14.91 
  -2  -6  -8  234.21   11.96 
   2  -6   8  232.02   12.29 
   2  -6  -9  106.23    9.74 
  -2  -6  -9  116.29    9.05 
   2  -6   9  108.02    9.21 
  -2  -6   9  111.37   10.74 
  -6   2   9  100.69   10.71 
  -2  -6  10   -1.90    3.37 
   2  -6  10    2.76    3.33 
  -6   2  10   -0.15    3.61 
   2  -6 -10   -1.24    3.29 
   2  -6 -11  176.89   13.63 
   2  -6  11  180.08   13.49 
  -6  -2  11  158.64   15.28 
  -2  -6  11  172.44   14.89 
  -6   2  11  181.02   15.54 
   2  -6 -12  328.54   19.12 
   6   2  12  347.23   15.35 
  -6   2  12  314.67   15.12 
   6  -2  12  308.47   14.46 
   2   6  12  306.67   14.62 
  -6  -2  12  308.16   14.87 
  -2   6  12  300.77   14.82 
  -6   2  12  329.90   21.93 
   2  -6  12  343.78   19.46 
  -6  -2  12  333.56   22.63 
  -2  -6  12  319.68   21.13 
   2  -6 -13  167.87   14.34 
  -2  -6  13  164.00   16.05 
  -6   2  13  160.50   16.81 
  -6  -2  13  172.44   17.17 
   6   2  13  177.73   11.81 
   6  -2  13  182.76   11.72 
  -6  -2  13  171.24   11.78 
  -2   6  13  160.71   11.42 
   2   6  13  181.73   12.00 
  -6   2  13  162.45   11.42 
  -6   2  14   43.31    9.52 
  -2  -6  14   48.46    9.66 
  -6  -2  14   43.93    9.41 
   2  -6 -14   42.58    7.78 
   2   6  14   36.55    6.13 
   6   2  14   43.18    6.76 
  -6   2  14   51.04    7.10 
  -6  -2  14   48.71    6.91 
  -2   6  14   45.58    6.78 
  -6   2  15   43.11   10.47 
  -2  -6  15   22.59    6.20 
  -6  -2  15   17.19    6.58 
  -2   6  15   24.97    5.76 
   6   2  15   28.79    6.56 
  -6   2  15   28.31    5.93 
   2   6  15   25.32    5.42 
  -6  -2  15   24.74    5.58 
  -6  -2  16   19.08    7.32 
  -2  -6  16   16.81    6.92 
  -6   2  16    8.70    5.42 
   2   6  16   25.17    6.21 
  -2   6  16   35.04    6.65 
  -6  -2  16   21.26    5.34 
   6   2  16   28.29    6.65 
  -6   2  16   28.41    6.30 
  -6   2  17   13.71    5.11 
  -6  -2  17   18.69    5.27 
  -2   6  17   15.92    5.52 
   2   6  17   21.94    6.10 
   2   6  18   -0.11    4.36 
  -2   6  18    0.82    5.01 
  -6  -2  18   -0.57    3.94 
  -6   2  18   -3.38    4.67 
  -2   6  19   28.70    5.52 
  -6  -2  19   42.47    6.87 
   2   6  19   28.64    6.39 
  -6   2  19   37.19    6.55 
  -6  -2  20   79.41    8.79 
  -2   6  20   55.43    7.28 
   2   6  20   68.95    8.00 
  -6   2  20   67.30    8.29 
   2   6  21   99.46    9.01 
  -6   2  21  103.52    9.28 
  -6  -2  21  103.41    8.88 
  -2   6  21   93.97    8.54 
  -6  -2  22   74.08    6.90 
  -2   6  22   87.97    7.82 
  -6   2  22   84.22    7.98 
  -6   2  23    7.19    3.29 
  -2   6  23    6.88    3.23 
  -6  -2  23    7.38    2.90 
  -6   2  24    1.69    2.38 
   3  -6   0   17.79    4.41 
   6  -3   0   16.30    3.44 
  -3  -6   0   12.05    3.08 
   3  -6   1  307.09   13.35 
   3  -6  -1  292.96   13.03 
   6  -3   1  297.11   11.56 
  -3  -6  -1  293.30   12.33 
   6  -3  -1  290.57   11.87 
   3  -6   2   24.38    4.38 
  -3  -6  -2   32.21    4.68 
   3  -6  -2   37.24    5.83 
   6  -3   2   32.30    4.34 
   6  -3   3   27.56    3.97 
   3  -6   3   31.34    5.29 
  -3  -6  -3   25.22    4.27 
   3  -6  -3   30.96    5.19 
  -3  -6  -4   43.25    5.03 
   6  -3   4   45.31    4.73 
   3  -6   4   35.28    5.30 
   3  -6  -4   46.26    6.23 
  -3  -6  -5  106.30    7.48 
   3  -6   5  101.77    8.36 
   6  -3   5   96.94    6.24 
   3  -6  -5  102.55    8.84 
  -3  -6  -6  188.89    9.72 
  -6   3   6  188.11   11.52 
   3  -6  -6  174.90   11.36 
  -6   3   7  427.12   19.22 
  -3  -6  -7  453.56   15.15 
   3  -6  -7  456.16   18.61 
  -3  -6  -8  462.12   15.67 
  -6   3   8  480.17   20.81 
   3  -6  -8  455.53   19.35 
  -6   3   9  531.46   23.31 
   3  -6  -9  518.69   21.48 
  -6   3  10   94.65   10.90 
  -3  -6  10   88.47   10.89 
   3  -6 -10   89.22    9.87 
  -6  -3  11   -2.76    4.85 
  -3  -6  11   -1.88    4.03 
  -6   3  11   -1.19    4.45 
   3  -6 -11   -0.61    3.25 
  -6  -3  12   13.09    6.23 
  -3  -6  12    9.32    4.10 
  -6   3  12   15.40    6.13 
   3  -6 -12   15.69    5.08 
   6  -3  12   12.56    3.22 
  -6   3  12   13.81    4.48 
  -6  -3  12   14.25    3.88 
   3   6  12   16.06    4.35 
  -3   6  12   13.41    3.49 
   6   3  12   15.75    4.73 
  -6   3  13    7.60    4.96 
   3  -6 -13    9.17    5.10 
  -3  -6  13    5.10    4.69 
  -6  -3  13    6.14    5.24 
   6  -3  13    6.99    2.66 
  -6   3  13    8.41    3.56 
   3   6  13    5.71    3.42 
   6   3  13   16.01    4.84 
  -6  -3  13    9.48    3.70 
  -3   6  13    4.55    2.73 
  -6   3  14    9.40    5.63 
  -6  -3  14    0.45    5.11 
  -3  -6  14    1.74    3.97 
   3  -6 -14    3.64    4.60 
   6  -3  14    3.61    2.38 
  -6   3  14    7.11    4.05 
   6   3  14   15.23    5.30 
  -3   6  14    1.19    3.37 
  -6  -3  14    4.65    3.48 
   3   6  14    2.50    3.23 
  -3  -6  15   36.60    9.33 
  -6  -3  15   35.07    8.95 
  -6   3  15   41.05    9.72 
  -6  -3  15   48.37    7.14 
  -6   3  15   51.54    7.55 
   3   6  15   46.88    7.15 
  -3   6  15   42.62    6.63 
   6   3  15   57.05    7.90 
  -3  -6  16  123.30   16.06 
  -6  -3  16  129.69   16.65 
  -6   3  16  142.66   17.04 
  -6   3  16  154.65   12.05 
   6   3  16  171.60   12.78 
   3   6  16  162.42   12.60 
  -6  -3  16  147.55   11.73 
  -3   6  16  165.54   12.42 
  -3   6  17  185.92   13.31 
  -6  -3  17  182.17   13.18 
   3   6  17  211.10   14.34 
  -6   3  17  193.49   13.72 
   3   6  18   87.81    9.80 
  -3   6  18   87.56    9.54 
  -6  -3  18   65.89    8.23 
  -6   3  18   68.71    8.32 
   3  -6  19    4.62    2.95 
   3   6  19   11.19    5.46 
  -3   6  19   11.03    4.98 
  -6  -3  19    2.42    3.62 
  -6   3  19    2.51    4.14 
  -3   6  20   -4.96    4.84 
   3   6  20    8.10    5.32 
  -6   3  20    4.38    4.14 
  -6  -3  20   11.41    4.38 
  -6  -3  21    4.14    2.83 
  -3   6  21   -0.72    4.07 
  -6  -3  22    6.82    2.90 
  -3   6  22    8.11    3.51 
  -6  -3  23    8.55    2.52 
  -3   6  23    5.69    2.95 
  -6   3  23    3.53    2.68 
  -6   3  24   49.94    4.74 
  -3   6  24   55.90    4.81 
   4  -6   0  385.98   15.39 
   6  -4   0  371.80   14.10 
   6  -4  -1  294.74   12.79 
   4  -6  -1  293.07   13.56 
   4  -6   1  303.28   13.83 
   6  -4   1  302.97   12.74 
   6  -4  -2  245.17   12.05 
   4  -6  -2  230.31   12.32 
   6  -4   2  244.08   11.53 
   4  -6   2  237.26   12.25 
   6  -4   3   -0.34    2.27 
   6  -4  -3   -1.30    3.47 
   4  -6   3    5.98    3.77 
  -4  -6  -3   -2.00    2.85 
   4  -6  -3    4.49    3.84 
   6  -4   4   21.54    4.34 
  -6   4   4   20.70    3.55 
   4  -6   4   20.77    4.49 
  -4  -6  -4   21.94    3.65 
   4  -6  -4   16.96    4.84 
   4  -6  -5   84.73    8.02 
  -4  -6  -5   91.78    6.98 
   6  -4   5   86.60    7.01 
   4  -6   5   94.17    8.36 
  -6   4   5   85.36    7.29 
   4  -6  -6  879.93   25.77 
  -4  -6  -6  881.75   19.92 
  -6   4   6  887.42   24.32 
   4  -6  -7  666.02   23.26 
  -4   6   7  665.80   21.66 
  -6   4   7  689.84   22.96 
   4  -6  -8  798.26   26.29 
  -4   6   8  732.02   24.19 
  -6   4   8  766.02   25.88 
   4  -6  -9  684.20   25.45 
  -6   4   9  673.07   26.07 
   4  -6 -10  325.86   18.56 
  -6   4  10  308.85   18.66 
   4  -6 -11  101.11   11.06 
  -6   4  11  112.77   12.39 
  -4  -6  11  115.76   13.21 
  -6   4  11   93.91    8.37 
   6   4  11   96.66    8.35 
  -4  -6  12    4.00    4.69 
   4  -6 -12   19.09    7.56 
  -6   4  12    6.55    5.27 
  -6  -4  12    9.19    4.98 
  -4   6  12    6.37    2.90 
  -6  -4  12    0.30    2.57 
  -6   4  12    5.18    3.26 
   6   4  12    7.76    4.33 
   4   6  12    5.61    3.01 
  -4  -6  13   14.30    6.47 
  -6  -4  13   16.51    6.49 
   4  -6 -13    9.92    5.23 
  -6   4  13   12.02    6.07 
   6  -4  13   12.53    3.64 
  -6  -4  13   14.17    3.94 
  -4   6  13    8.35    3.05 
   4   6  13   13.23    4.24 
  -6   4  13   14.90    4.71 
   6   4  13   19.88    5.00 
  -4  -6  14    6.81    4.79 
  -6  -4  14   13.52    7.44 
  -6   4  14    6.39    4.78 
   4  -6 -14    7.68    5.04 
   6  -4  14   18.33    4.16 
  -6   4  14    9.12    4.13 
  -6  -4  14   12.91    3.92 
  -4   6  14    3.44    3.59 
   6   4  14   18.86    5.44 
   4   6  14   16.92    5.22 
   4  -6 -15  159.67   16.36 
   6  -4 -15  172.85   18.44 
   4   6  15  191.15   13.10 
  -6  -4  15  187.38   12.76 
   6   4  15  198.13   13.30 
  -6   4  15  208.97   13.71 
   6  -4  15  172.72   11.14 
  -4   6  15  182.64   12.67 
  -6  -4  15  153.61   17.62 
  -4  -6  15  172.97   18.54 
  -6   4  15  158.81   17.42 
   6  -4 -16  277.72   23.96 
  -6  -4  16  266.41   23.70 
  -4  -6  16  244.65   22.75 
  -6   4  16  315.82   16.95 
   4   6  16  331.79   17.21 
   6  -4  16  302.22   14.72 
  -4   6  16  317.31   16.91 
  -6  -4  16  321.62   16.76 
   4   6  17  396.48   19.05 
  -4   6  17  398.92   19.05 
  -6   4  17  429.60   19.98 
  -6  -4  17  414.87   19.03 
   4  -6  18  109.45    8.88 
  -4   6  18  126.06   10.90 
  -6  -4  18  120.89   10.41 
  -6   4  18  120.98   11.18 
   4   6  18  146.03   11.91 
   4  -6  19   34.65    4.98 
  -4   6  19   53.50    7.52 
  -6   4  19   47.14    7.41 
  -6  -4  19   44.11    6.40 
  -4   6  20   -1.57    4.15 
  -6   4  20    3.71    3.92 
  -6  -4  20   -0.59    2.85 
  -4   6  21   -6.97    4.08 
  -6  -4  21   -1.24    3.26 
  -6   4  21    0.61    3.83 
  -6   4  22    8.86    3.11 
  -4   6  22    2.82    2.92 
  -4   6  23   50.39    5.25 
  -6   4  23   43.86    5.19 
  -6   4  24  105.68    6.41 
   6  -5   0  916.37   23.58 
   5  -6   0  900.66   24.24 
   6  -5   1  295.07   13.59 
   5  -6   1  299.24   14.19 
   5  -6  -1  303.15   14.30 
   6  -5  -1  287.46   13.52 
   6  -5  -2  179.45   10.95 
   5  -6   2  188.82   11.51 
   5  -6  -2  196.16   11.68 
   6  -5   2  194.20   11.09 
   6  -5   3   29.02    4.82 
  -6   5   3   28.03    3.48 
   5  -6   3   32.56    5.16 
   6  -5  -3   35.31    5.58 
   5  -6  -3   32.22    5.71 
   6  -5  -4   -3.77    4.12 
   5  -6   4    3.16    3.12 
   6  -5   4    6.10    3.66 
  -5   6   4    4.26    2.03 
  -6   5   4    0.63    2.06 
   5  -6  -4   -2.14    3.66 
   6  -5  -5  459.61   18.56 
   5  -6  -5  475.17   18.99 
  -6   5   5  488.48   16.27 
  -5   6   5  490.08   15.75 
   6  -5   5  466.62   17.16 
   5  -6   5  500.34   19.26 
   6  -5  -6  560.43   20.71 
   5  -6  -6  571.91   21.26 
  -6   5   6  544.43   18.82 
   6  -5   6  573.62   19.24 
  -5   6   6  578.76   18.84 
   5  -6   6  574.16   20.82 
   6  -5  -7  791.34   25.76 
   5  -6  -7  818.25   26.34 
  -6   5   7  813.06   24.57 
  -5   6   7  820.32   24.15 
   5  -6  -8  984.99   29.90 
  -5   6   8  985.59   28.57 
  -6   5   8  966.55   28.88 
   5  -6  -9  830.98   28.68 
  -6   5   9  808.49   28.14 
  -5   6   9  825.29   27.70 
   5  -6 -10  366.56   20.13 
  -6   5  10  395.02   20.94 
  -5   6  10  398.91   20.55 
   5  -6 -11  126.61   12.66 
  -6   5  11  135.33   13.22 
  -5  -6  11  117.05   13.75 
  -5   6  11  109.34    9.11 
  -6   5  11  118.68    9.35 
   5   6  11  111.92    8.89 
   6   5  11  124.15    9.64 
  -5  -6  12   58.78   10.63 
  -6   5  12   68.61   10.43 
   5  -6 -12   68.47   10.14 
   6  -5 -12   68.73    9.98 
  -6  -5  12   56.84   10.14 
  -5   6  12   67.36    7.43 
   5   6  12   70.79    7.78 
  -6   5  12   56.60    6.93 
   6   5  12   63.52    7.42 
   6  -5 -13    6.54    4.87 
  -6  -5  13    7.70    6.01 
  -5  -6  13    7.73    5.41 
  -6   5  13   11.88    5.29 
   5  -6 -13    1.93    4.67 
  -5   6  13   12.27    3.99 
   6   5  13   13.41    5.01 
  -6   5  13    7.74    3.24 
   5   6  13   15.23    4.85 
  -6  -5  13    9.37    3.52 
   5   6  14   88.82    9.07 
  -5   6  14   75.79    8.29 
   6  -5  14   80.60    7.97 
  -6   5  14   82.86    8.80 
  -6  -5  14   71.44    7.62 
   6   5  14   86.57    9.36 
  -6  -5  14   76.55   13.41 
   6  -5 -14   76.21   11.47 
   5  -6 -14   75.17   11.51 
  -5  -6  14   88.94   13.82 
   5  -6 -15   99.79   13.86 
  -6  -5  15  101.97   14.84 
   6  -5 -15  102.46   13.91 
  -5  -6  15  100.87   14.54 
  -5   6  15  108.80   10.12 
  -6   5  15  115.16   10.54 
   6  -5  15  123.16    9.58 
   5   6  15  126.83   11.05 
  -6  -5  15  103.52    9.51 
  -5   6  16  478.58   20.63 
   6  -5  16  434.28   17.85 
   5   6  16  480.91   20.45 
  -6   5  16  463.37   20.49 
  -6  -5  16  462.16   19.47 
   5  -6  17  325.62   15.48 
  -6   5  17  374.22   18.48 
  -5   6  17  363.02   18.17 
  -6  -5  17  357.61   16.88 
   6  -5  17  324.69   15.23 
  -6  -5  18  238.87   13.52 
  -5   6  18  252.65   15.04 
   6  -5  18  210.16   11.87 
  -6   5  18  245.13   15.10 
   5  -6  18  223.38   12.40 
   5  -6  19   33.13    4.82 
  -6  -5  19   36.53    5.84 
  -5   6  19   38.48    6.54 
  -6   5  19   43.51    7.10 
  -6   5  20    3.17    4.08 
  -5   6  20    8.29    4.63 
  -5   6  21   -5.82    4.10 
  -6   5  21    7.42    4.05 
  -5   6  22   22.29    4.20 
  -6   5  22   16.72    3.64 
  -5   6  23   77.81    6.18 
  -6   5  23   71.18    6.10 
   6  -6   0  785.48   23.78 
   6  -6  -1  828.04   24.40 
   6  -6   1  859.59   24.80 
   6  -6   2    2.40    3.37 
   6  -6  -2   12.77    4.54 
   6  -6   3   37.19    5.52 
   6  -6  -3   48.58    6.87 
   6  -6  -4   76.53    8.31 
   6  -6   4   75.83    8.00 
   6  -6   5   65.70    7.43 
   6  -6  -5   53.58    7.06 
   6  -6  -6  305.74   16.35 
  -6   6   6  325.68   14.13 
   6  -6   6  321.49   15.90 
   6  -6  -7  716.38   25.44 
  -6   6   7  697.95   22.44 
   6  -6  -8  512.76   22.42 
  -6   6   8  497.84   20.53 
   6  -6  -9  668.35   26.46 
  -6   6   9  685.92   25.65 
   6  -6 -10  361.11   20.54 
  -6   6  10  381.88   20.35 
   6  -6 -11   61.34    9.49 
  -6   6  11   71.33    9.85 
  -6   6  11   59.50    6.92 
   6  -6 -12   56.09    9.32 
  -6  -6  12   45.80   10.23 
  -6   6  12   53.99    7.01 
  -6  -6  13   -3.07    5.76 
   6  -6 -13    4.14    4.35 
  -6   6  13    1.41    3.30 
  -6  -6  14    7.85    5.52 
   6  -6 -14   10.71    6.08 
  -6   6  14   15.94    5.22 
   6  -6 -15   99.40   14.32 
  -6  -6  15  102.34   15.29 
   6  -6  15  132.44   10.29 
  -6   6  15  119.95   10.63 
   6  -6  16  230.21   13.27 
  -6   6  16  226.04   14.37 
  -6   6  17  335.65   17.54 
   6  -6  17  311.83   15.15 
   6  -6  18  148.94   10.12 
  -6   6  18  135.71   11.63 
   6  -6  19   18.31    3.81 
  -6   6  19   22.58    5.47 
  -6   6  20   12.55    4.61 
  -6   6  21  -13.05    4.70 
  -6   6  22   -4.86    3.34 
  -6   6  23   69.31    5.66 
   0  -7   0    6.43    4.17 
   0  -7  -1    1.45    3.27 
   0  -7   1    3.07    3.67 
   0  -7  -2   63.54    6.67 
   0  -7   2   68.06    7.02 
   7   0   2   61.78    4.30 
   0  -7  -3  563.37   18.24 
   0  -7   3  562.38   19.08 
   0  -7  -4 1171.04   26.57 
   0  -7  -5 1800.82   33.86 
   0  -7  -6 1262.10   29.27 
   0  -7   7  251.06   13.22 
   0  -7  -7  235.09   13.20 
   0  -7  -8  105.08    9.40 
   0  -7   8  117.26    9.91 
   0  -7   9    7.16    3.42 
   0  -7  -9    8.93    4.56 
   0  -7  10   60.60    8.10 
   0  -7 -10   65.01    8.14 
  -7   0  10   48.51    8.94 
   0  -7  11  325.11   19.24 
   0  -7 -11  315.37   17.73 
  -7   0  11  322.54   21.68 
  -7   0  11  273.16   13.87 
   0  -7  12  486.78   24.86 
  -7   0  12  509.40   28.26 
  -7   0  12  452.07   18.47 
   0  -7  13  447.28   25.09 
  -7   0  13  448.25   27.94 
  -7   0  13  435.09   18.83 
   0   7  13  433.06   18.27 
   0  -7  14   34.33    8.32 
  -7   0  14   38.03    9.73 
   0   7  14   37.29    6.39 
  -7   0  14   39.91    6.61 
  -7   0  15   17.08    7.15 
   0   7  15   23.78    5.87 
  -7   0  15   17.30    5.31 
  -7   0  16   56.45   12.64 
   0   7  16   37.39    6.40 
  -7   0  16   48.52    8.11 
   0   7  17   -0.06    5.30 
  -7   0  17   -4.00    4.76 
   0   7  18   15.14    5.15 
  -7   0  18   15.48    4.99 
   0   7  19   11.85    4.86 
  -7   0  19   14.90    4.76 
  -7   0  20   60.66    7.68 
   0   7  20   60.77    7.58 
   0   7  21  170.10   11.00 
  -7   0  21  177.51   11.80 
  -7   0  22  107.54    8.53 
   0   7  22   97.43    7.68 
  -7   0  23   38.08    4.76 
   1  -7   0   90.41    7.77 
  -1  -7   0   94.15    7.74 
   1  -7   1    9.61    4.38 
   1  -7  -1    5.63    3.28 
  -1  -7  -1    7.74    3.56 
  -1  -7   1    6.06    3.35 
   7  -1   1    5.17    1.93 
  -1  -7  -2  133.48    8.93 
   1  -7   2  136.04    9.55 
  -1  -7   2  137.04    9.59 
   1  -7  -2  131.49    9.44 
   7  -1   2  137.87    6.95 
   1  -7   3  121.29    9.46 
   7  -1   3  110.26    5.67 
   1  -7  -3  123.31    9.16 
  -1  -7  -3  121.80    8.54 
  -1  -7   3  106.40    8.63 
   1  -7  -4  946.59   24.82 
  -1  -7  -4 1019.92   24.47 
   1  -7   4  976.78   25.96 
   1  -7  -5 1251.58   28.82 
  -1  -7  -5 1235.52   27.38 
   1  -7   5 1182.12   22.25 
  -1  -7  -6  938.57   24.68 
   1  -7  -6  955.34   25.70 
   1  -7   6  902.18   21.34 
   1  -7   7   13.33    3.00 
   1  -7  -7   23.23    5.88 
  -1  -7  -7   15.07    4.26 
   1  -7   8   55.00    6.34 
  -1  -7  -8   54.29    6.99 
   1  -7  -8   60.14    7.75 
  -1  -7   8   60.85    7.71 
  -1  -7   9   39.56    6.81 
   1  -7   9   39.54    5.78 
  -7   1   9   35.72    7.85 
   1  -7  -9   43.92    6.96 
  -1  -7  -9   46.13    6.73 
  -7   1  10   16.86    5.97 
  -1  -7  10   10.34    4.27 
   1  -7  10   11.63    4.27 
   1  -7 -10   14.79    4.92 
  -1  -7 -10   12.54    4.22 
  -1  -7  11  217.95   16.45 
  -7  -1  11  247.29   19.34 
   1  -7 -11  220.43   15.23 
   1  -7  11  232.06   15.81 
  -7   1  11  229.93   18.19 
  -7   1  11  211.54   12.23 
  -7  -1  11  207.75   12.13 
  -1  -7  12  446.99   24.54 
  -7  -1  12  454.91   26.77 
   1  -7  12  424.24   22.45 
   1  -7 -12  416.57   21.74 
  -7   1  12  449.49   26.69 
  -7  -1  12  426.21   17.97 
  -1   7  12  369.63   16.41 
   1   7  12  383.32   16.53 
  -7   1  12  443.42   18.24 
  -7   1  13  251.22   20.68 
  -1  -7  13  240.28   19.18 
  -7  -1  13  232.95   20.15 
  -7  -1  13  226.72   13.91 
  -7   1  13  220.19   13.53 
  -1   7  13  230.93   13.65 
   1   7  13  230.82   13.56 
  -7   1  14   49.53   10.17 
  -7  -1  14   55.98   11.37 
  -1  -7  14   54.54   10.17 
   1   7  14   42.79    6.56 
  -7  -1  14   52.10    7.31 
  -7   1  14   41.66    6.64 
  -1   7  14   51.48    7.08 
  -7  -1  15    7.38    6.04 
  -7   1  15    9.49    6.79 
  -1  -7  15    3.66    4.91 
  -7  -1  15    2.17    3.67 
  -1   7  15    6.96    3.88 
  -7   1  15   11.00    4.82 
   1   7  15   -1.87    4.80 
  -7   1  16   -1.69    4.29 
  -7  -1  16   -7.06    6.03 
  -7   1  16    1.10    3.99 
   1   7  16   -5.89    5.05 
  -7  -1  16    0.38    3.91 
  -1   7  16    6.06    4.33 
  -7  -1  17   -4.52    4.87 
   1   7  17    0.39    4.41 
  -7   1  17    0.08    4.89 
  -1   7  17   -6.94    5.41 
  -7   1  18   -2.58    4.54 
   1   7  18    7.10    4.68 
  -7  -1  18   -0.05    4.48 
  -1   7  18   -6.56    5.68 
  -7  -1  19   12.80    4.73 
   1   7  19   18.16    5.38 
  -1   7  19    7.93    3.89 
  -7   1  19    7.96    4.23 
  -1   7  20   78.95    8.36 
   1   7  20   64.56    7.59 
  -7   1  20   70.12    8.21 
  -7  -1  20   63.06    7.63 
  -1   7  21   76.66    7.77 
  -7  -1  21   86.59    8.48 
  -7   1  21  108.15    9.48 
   1   7  21   90.09    8.20 
  -7  -1  22   94.80    7.82 
  -7   1  22  114.20    9.04 
  -1   7  22  111.66    8.14 
  -7  -1  23   21.48    3.77 
  -7   1  23   19.27    3.68 
  -7   1  24    0.39    1.78 
   2  -7   0   92.31    8.11 
  -2  -7   0   84.83    7.54 
   7  -2   0   91.06    6.84 
   2  -7  -1   20.26    4.69 
   2  -7   1   12.97    3.93 
  -2  -7  -1   15.79    4.10 
  -2  -7   1   14.38    3.49 
   7  -2   1   14.68    3.14 
   2  -7   2   44.38    6.13 
   7  -2   2   37.77    4.39 
  -2  -7  -2   37.22    5.37 
   2  -7  -2   43.17    6.49 
   2  -7  -3  111.13    8.93 
   7  -2   3  104.97    6.39 
  -2  -7  -3  119.82    8.53 
   2  -7   3  107.89    9.05 
  -2  -7  -4  202.80   10.85 
   7  -2   4  191.88    7.72 
   2  -7   4  211.17   12.59 
   2  -7  -4  227.30   12.56 
  -2  -7  -5  522.54   17.64 
   2  -7  -5  538.36   19.49 
   2  -7   5  537.92   20.28 
   2  -7   6   28.69    4.09 
  -2  -7  -6   28.94    4.71 
  -2  -7  -7   29.87    5.07 
   2  -7  -7   29.19    5.63 
   2  -7   7   27.59    4.18 
   2  -7  -8  118.66   10.47 
  -2  -7  -8  109.64    8.93 
   2  -7   8  110.01    8.56 
  -7   2   8  107.52   10.73 
  -2  -7  -9  203.41   12.37 
   2  -7   9  205.21   12.42 
   2  -7  -9  208.87   13.97 
  -2  -7   9  210.51   15.04 
  -7   2   9  198.78   15.90 
  -2  -7  10    7.02    4.03 
   2  -7 -10    8.52    4.11 
  -7   2  10    1.81    3.63 
   2  -7 -11   79.15    9.80 
  -2  -7  11   76.42   10.55 
  -7  -2  11   69.62   10.54 
  -7   2  11   81.16   11.19 
  -7  -2  11   62.54    6.90 
  -7   2  11   66.05    7.01 
  -7   2  12  181.58   16.91 
   2  -7 -12  192.11   15.15 
  -7  -2  12  171.69   16.83 
  -2  -7  12  178.24   16.04 
  -7   2  12  173.53   11.47 
  -2   7  12  157.54   10.96 
   2   7  12  146.59   10.42 
   7  -2  12  141.91    9.32 
  -7  -2  12  173.68   11.72 
  -7   2  13   65.74   10.81 
   2  -7 -13   79.65   10.54 
  -7  -2  13   71.17   11.76 
  -2  -7  13   71.54   10.95 
  -2   7  13   77.70    8.24 
  -7   2  13   80.28    8.43 
  -7  -2  13   81.54    8.52 
   2   7  13   73.07    7.82 
  -7   2  14   26.13    7.75 
  -2  -7  14   20.01    6.57 
  -7  -2  14   34.71    8.91 
   2   7  14   18.16    4.61 
  -7   2  14   24.98    5.61 
  -7  -2  14   19.08    4.67 
  -2   7  14   25.16    5.61 
  -2  -7  15    0.39    4.63 
  -7  -2  15    5.58    4.46 
  -7   2  15   13.16    7.46 
  -7   2  15   14.16    5.23 
  -2   7  15   14.79    4.36 
  -7  -2  15   11.82    4.52 
   2   7  15   12.33    5.37 
  -2   7  16   67.70    8.33 
   2   7  16   57.52    8.12 
  -7   2  16   48.82    7.41 
  -7  -2  16   55.46    7.83 
   2   7  17   40.01    7.06 
  -7   2  17   39.54    6.93 
  -2   7  17   47.34    7.60 
  -7  -2  17   38.97    6.74 
   2   7  18   16.30    5.29 
  -7  -2  18    8.54    4.16 
  -2   7  18   12.88    4.73 
  -7   2  18    5.17    4.22 
  -7   2  19    8.85    4.78 
  -2   7  19   13.36    4.29 
  -7  -2  19   14.23    4.62 
   2   7  19   13.10    4.66 
   2  -7  20   32.22    4.88 
   2   7  20   45.89    7.01 
  -7  -2  20   33.20    6.01 
  -7   2  20   35.01    6.07 
  -2   7  20   26.55    5.12 
  -7   2  21   58.53    7.42 
  -7  -2  21   46.73    6.26 
  -2   7  21   45.63    6.25 
  -2   7  22   32.89    4.77 
  -7  -2  22   30.90    4.43 
  -7  -2  23    4.85    2.34 
  -7   2  23   -1.46    3.21 
  -2   7  23    7.43    3.09 
  -7   2  24    7.81    2.38 
   3  -7   0   14.27    4.61 
  -3  -7   0    4.92    2.99 
   7  -3   0   12.27    3.61 
   3  -7  -1  182.08   11.33 
   3  -7   1  180.57   11.24 
  -3  -7  -1  182.79   10.66 
   7  -3   1  192.87   10.04 
   7  -3  -1  184.53   10.32 
  -3  -7  -2   76.93    7.23 
   3  -7   2   83.39    8.13 
   7  -3   2   82.90    6.68 
   3  -7  -2   82.06    8.08 
   7  -3   3    0.80    2.53 
  -3  -7  -3    2.26    2.74 
   3  -7   3    6.57    4.02 
   3  -7  -3    1.78    4.03 
   7  -3   4   95.08    6.59 
  -3  -7  -4  106.73    8.29 
   3  -7  -4  111.50    9.54 
   3  -7   4   94.69    8.64 
   7  -3   5   17.54    3.01 
   3  -7   5   15.83    4.51 
  -3  -7  -5   18.89    4.37 
   3  -7  -5   16.42    5.19 
  -3  -7  -6  192.50   10.87 
   3  -7  -6  186.02   12.69 
  -3  -7  -7  143.65    9.56 
  -7   3   7  117.92   10.34 
   3  -7  -7  131.40   11.11 
   3  -7  -8  379.56   18.36 
  -7   3   8  363.86   19.35 
   3  -7  -9  278.91   16.37 
  -7   3   9  289.93   18.00 
   3  -7 -10   71.94    9.09 
  -3  -7  10   77.72   10.35 
  -7   3  10   81.44   10.22 
  -3  -7  11    4.91    4.37 
   3  -7 -11    4.38    4.29 
  -7   3  11    3.39    3.82 
   7  -3  11    4.11    2.52 
  -7   3  11    4.49    2.89 
  -7  -3  11    3.12    2.22 
  -7   3  12   53.12    9.07 
  -3  -7  12   57.80    9.98 
   3  -7 -12   59.61    9.11 
  -7  -3  12   60.16   10.92 
  -7   3  12   56.03    7.02 
   7  -3  12   49.68    5.89 
  -3   7  12   55.10    6.62 
  -7  -3  12   47.67    6.40 
   3   7  12   51.88    6.57 
  -7  -3  13   13.03    5.77 
  -7   3  13   11.44    5.84 
  -3  -7  13   12.09    4.57 
   3  -7 -13    8.74    5.70 
   7  -3  13   15.31    3.79 
  -7  -3  13    4.31    2.89 
  -3   7  13    7.18    3.18 
  -7   3  13    9.22    3.79 
   3   7  13    8.75    4.02 
  -3  -7  14    2.69    4.86 
  -7  -3  14   -1.57    5.33 
   3  -7 -14    6.45    4.51 
  -7   3  14    4.10    4.72 
   7  -3  14    4.23    2.68 
  -7  -3  14    4.05    3.84 
  -7   3  14    2.71    3.54 
   3   7  14    4.28    3.76 
  -3   7  14    0.55    3.51 
  -3  -7  15   75.28   12.61 
  -7   3  15   78.30   12.82 
  -7  -3  15   67.67   11.82 
  -3   7  15   85.28    9.25 
   3   7  15   88.68    9.11 
  -7  -3  15   84.34    9.41 
  -7   3  15   95.04    9.85 
   7  -3  15   77.27    7.50 
  -7   3  16  194.27   13.84 
  -3   7  16  201.53   13.56 
   3   7  16  197.10   13.64 
  -7  -3  16  195.19   13.49 
   3   7  17  207.60   14.00 
  -7   3  17  186.36   13.46 
  -3   7  17  182.90   13.08 
  -7  -3  17  191.76   13.34 
  -7  -3  18   22.22    5.37 
  -3   7  18   39.28    6.76 
   3   7  18   37.72    7.02 
  -7   3  18   28.71    6.29 
  -7  -3  19   -1.82    3.74 
  -3   7  19   -6.76    5.13 
  -7   3  19   -1.20    4.74 
   3  -7  20   26.37    4.39 
  -7  -3  20   25.65    5.29 
  -3   7  20   25.27    5.27 
  -7   3  20   29.16    6.14 
  -7  -3  21   39.83    5.55 
  -7   3  21   30.44    5.58 
  -3   7  21   24.90    5.16 
  -3   7  22    3.04    3.05 
  -7  -3  22    2.29    2.22 
  -7   3  22    6.65    3.61 
  -7   3  23    2.73    2.45 
  -3   7  23    9.08    3.00 
   4  -7   0  374.13   16.53 
   7  -4   0  366.52   14.96 
   4  -7  -1   69.12    7.96 
   4  -7   1   71.95    7.79 
   7  -4   1   76.98    7.29 
   7  -4  -1   64.84    6.80 
   4  -7  -2  116.29    9.79 
   7  -4   2  113.28    8.56 
   4  -7   2   98.73    8.72 
  -4  -7  -2   99.28    8.14 
   7  -4  -2  110.10    8.65 
   7  -4   3   10.58    2.99 
   4  -7   3   19.73    5.36 
  -4  -7  -3   14.03    3.42 
   7  -4  -3   10.79    4.06 
   4  -7  -3   17.32    5.19 
   7  -4   4   24.64    4.47 
   4  -7   4   29.73    5.51 
   4  -7  -4   23.12    5.59 
  -4  -7  -4   24.12    4.43 
   7  -4   5  110.64    7.70 
   4  -7   5  110.49    9.64 
   4  -7  -5  112.98   10.07 
  -7   4   5  112.50    8.69 
  -4  -7  -5  118.70    8.54 
  -7   4   6  139.56   10.37 
  -4  -7  -6  141.77    9.12 
   4  -7  -6  148.59   11.50 
   4  -7   6  124.77   10.52 
   4  -7  -7  349.97   17.49 
  -7   4   7  324.22   16.35 
  -7   4   8  529.88   22.23 
   4  -7  -8  508.13   21.86 
  -7   4   9  416.43   21.26 
   4  -7  -9  410.51   20.37 
  -7   4  10  135.00   13.19 
   4  -7 -10  132.13   12.31 
  -7   4  10  114.21    9.06 
  -7   4  11    1.71    4.05 
   4  -7 -11    0.45    3.77 
  -4  -7  11   -2.14    4.83 
   7  -4  11    3.48    2.43 
  -4   7  11    1.65    2.32 
   4   7  11    2.91    2.94 
  -7   4  11    2.81    2.51 
  -7  -4  11   -6.05    3.18 
  -4  -7  12   -5.64    5.28 
  -7   4  12    0.59    4.20 
   4  -7 -12    0.17    3.88 
  -7  -4  12    0.34    5.43 
   7  -4  12    1.45    2.42 
  -7   4  12   -1.72    2.61 
  -7  -4  12    4.99    3.06 
   4   7  12   -0.09    2.83 
  -4   7  12   -3.10    3.48 
  -7  -4  13   10.34    6.06 
  -7   4  13   13.21    5.79 
  -4  -7  13    6.21    6.07 
   4  -7 -13   11.66    5.68 
   7  -4  13   12.17    3.52 
   4   7  13    8.40    4.32 
  -4   7  13    8.51    3.65 
  -7  -4  13    8.30    3.42 
  -7   4  13   13.44    4.30 
  -7  -4  14   11.46    7.39 
  -7   4  14   18.18    7.23 
   4  -7 -14   14.85    5.91 
  -4  -7  14   12.46    6.41 
   7  -4  14   20.72    4.35 
  -7  -4  14   11.63    4.13 
  -7   4  14   14.08    4.55 
   4   7  14   24.24    5.92 
  -4   7  14   19.59    4.84 
  -4  -7  15   25.94    5.93 
  -7   4  15   45.32    9.95 
   4  -7 -15   38.44    8.87 
   7  -4 -15   48.43   10.62 
  -7  -4  15   43.69   10.40 
   7  -4  15   46.90    6.00 
  -7   4  15   58.83    8.10 
  -4   7  15   49.59    7.09 
   4   7  15   63.89    8.07 
  -7  -4  15   47.59    6.90 
   4   7  16  342.46   17.20 
  -7   4  16  335.45   17.88 
  -4   7  16  331.27   17.15 
   7  -4  16  318.98   15.15 
  -7  -4  16  334.25   17.09 
  -7  -4  17  211.18   13.71 
  -7   4  17  206.70   14.39 
  -4   7  17  225.53   14.24 
   4   7  17  218.28   14.32 
  -7   4  18   88.08    9.73 
   4  -7  18   96.91    8.58 
   4   7  18  107.53   10.28 
  -7  -4  18   85.36    8.83 
  -4   7  18  109.49   10.27 
   4  -7  19    3.49    3.02 
  -7  -4  19    1.44    3.04 
  -4   7  19    8.20    4.49 
  -7   4  19    1.80    4.07 
   4  -7  20   13.75    3.25 
  -4   7  20    5.71    3.32 
  -7  -4  20   15.86    4.41 
  -7   4  20   10.53    4.80 
  -7  -4  21   17.67    3.59 
  -7   4  21   28.87    5.58 
  -4   7  21   18.94    4.17 
  -4   7  22   -2.26    2.91 
  -7   4  22  -12.72    4.34 
  -7   4  23   14.24    3.21 
  -4   7  23   23.21    3.63 
   7  -5   0  667.45   21.53 
   5  -7   0  652.50   22.40 
   7  -5  -1  302.73   14.73 
   7  -5   1  298.50   14.43 
   5  -7   1  293.38   15.04 
   5  -7  -1  296.83   15.37 
   7  -5   2    9.40    3.97 
   5  -7   2   10.21    3.95 
   7  -5  -2   10.74    4.03 
   5  -7  -2    9.46    4.52 
   7  -5   3    9.45    3.35 
   5  -7   3   10.57    4.42 
   7  -5  -3   10.08    4.06 
   5  -7  -3   17.07    5.48 
  -7   5   4    9.52    2.66 
   7  -5   4   10.80    4.02 
   7  -5  -4    5.76    3.52 
   5  -7   4    9.45    4.03 
   5  -7  -4   10.97    5.17 
   5  -7   5    9.38    3.58 
  -7   5   5   12.36    3.34 
   7  -5  -5   10.96    4.07 
   5  -7  -5   12.03    4.77 
   7  -5   5    9.72    2.96 
   5  -7  -6  124.89   10.92 
   5  -7   6  122.07   10.44 
   7  -5   6  116.09    8.83 
  -7   5   6  125.49    9.53 
   7  -5  -6  116.98   10.29 
  -7   5   7  438.56   18.64 
   7  -5  -7  432.93   19.92 
   5  -7  -7  443.25   20.45 
  -7   5   8  258.43   15.27 
   5  -7  -8  261.95   16.18 
  -7   5   9  579.19   24.69 
   5  -7  -9  533.07   23.93 
   5  -7 -10  146.80   13.33 
  -7   5  10  162.08   14.05 
   7  -5  10  156.25   10.03 
  -7   5  10  137.06   10.01 
  -7   5  11    9.97    4.74 
   5  -7 -11   14.73    6.22 
  -5  -7  11    3.38    4.99 
   7  -5 -11   15.25    5.18 
   7  -5  11   15.23    3.71 
  -5   7  11   12.21    3.94 
   5   7  11   16.06    4.46 
  -7   5  11   14.59    4.27 
  -5  -7  12   10.39    6.39 
   5  -7 -12    8.64    5.16 
   7  -5 -12    5.54    4.30 
  -7   5  12    6.09    4.11 
  -7  -5  12    7.42    6.05 
   7  -5  12    8.25    3.27 
  -5   7  12    3.16    3.06 
  -7   5  12    1.03    3.26 
   5   7  12   10.00    4.13 
  -7  -5  12    2.40    2.89 
  -7  -5  13    3.25    5.99 
  -7   5  13    1.55    3.87 
   7  -5 -13    0.85    5.83 
  -5  -7  13    6.81    5.50 
   5  -7 -13    3.92    4.83 
   7  -5  13    7.67    3.27 
  -7  -5  13    4.97    3.68 
  -7   5  13    3.96    3.21 
  -5   7  13    0.28    3.36 
   5   7  13    7.04    3.98 
  -7  -5  14   -3.78    6.09 
  -5  -7  14   -1.10    5.30 
   7  -5 -14    1.12    5.37 
   5  -7 -14    2.28    4.16 
  -7   5  14    1.60    4.26 
   7  -5  14    0.88    2.49 
  -7  -5  14   -1.03    3.44 
  -7   5  14    0.67    3.78 
  -5   7  14   -4.48    4.09 
   5   7  14    9.42    4.69 
  -7  -5  15   75.10   13.12 
   7  -5 -15   72.49   12.50 
   5  -7 -15   71.26   11.95 
  -5  -7  15   58.98   11.46 
  -7   5  15   86.61    9.57 
  -7  -5  15   77.28    8.11 
   7  -5  15   87.03    8.27 
   5   7  15   96.45    9.65 
  -5   7  15   74.57    8.18 
   7  -5  16  141.78   10.46 
  -5   7  16  164.88   12.31 
  -7   5  16  149.12   11.91 
  -7  -5  16  135.81   10.61 
   7  -5  17  262.39   13.76 
   5  -7  17  288.61   14.67 
  -7  -5  17  279.05   14.95 
  -7   5  17  290.94   16.68 
  -5   7  17  296.40   16.18 
   5  -7  18   65.96    7.09 
  -5   7  18   67.40    8.49 
  -7  -5  18   63.88    7.32 
   7  -5  18   54.75    6.16 
  -7   5  18   61.44    8.04 
   5  -7  19    1.35    2.20 
  -5   7  19    8.23    4.72 
  -7   5  19    0.27    3.77 
  -7  -5  19    5.67    3.13 
   5  -7  20   26.30    3.95 
  -5   7  20   22.01    4.76 
  -7   5  20   31.07    6.01 
  -7   5  21   14.59    4.26 
  -5   7  21    3.47    3.30 
  -7   5  22   -6.49    3.73 
  -5   7  22   -0.54    2.48 
  -7   5  23   34.73    4.32 
  -5   7  23   30.41    3.80 
   7  -6   0  845.65   25.83 
   6  -7   0  858.67   26.43 
   7  -6  -1  173.92   12.15 
   7  -6   1  172.39   12.05 
   6  -7  -1  163.78   12.06 
   6  -7   1  163.30   11.92 
   7  -6   2   26.61    5.27 
   6  -7   2   24.71    5.75 
   7  -6  -2   28.13    6.10 
   6  -7  -2   26.24    5.69 
   7  -6  -3  286.94   15.39 
   6  -7  -3  298.35   16.05 
   7  -6   3  284.42   14.98 
   6  -7   3  282.88   15.39 
   7  -6   4    4.45    4.10 
   6  -7  -4   -1.32    3.91 
   6  -7   4    6.91    4.10 
   7  -6  -4    3.64    3.47 
   7  -6   5    5.46    3.43 
   6  -7   5    0.20    3.33 
   7  -6  -5    7.10    4.09 
   6  -7  -5    4.67    4.28 
   7  -6  -6   73.63    8.84 
   6  -7  -6   79.98    9.17 
   7  -6   6   66.30    7.41 
   6  -7   6   67.91    7.73 
   7  -6  -7   92.52    9.82 
   6  -7  -7  102.00   10.61 
   6  -7  -8  352.63   19.33 
   7  -6  -8  383.46   20.19 
   6  -7  -9   80.32   10.15 
   7  -6  -9   65.72    9.00 
   7  -6 -10  194.77   15.61 
   6  -7 -10  184.32   15.24 
   7  -6  10  198.85   11.33 
  -7   6  10  158.84   11.02 
  -6   7  10  156.18   10.52 
   6  -7 -11   88.04   11.08 
   7  -6 -11   78.52   10.69 
  -6   7  11   75.91    7.97 
   7  -6  11   85.68    7.99 
  -7   6  11   78.21    8.05 
   7  -6 -12   21.23    6.33 
   6  -7 -12   27.32    7.46 
  -7  -6  12    9.71    5.62 
  -6  -7  12   17.56    7.62 
   7  -6  12   26.50    4.68 
  -7   6  12   16.54    4.16 
  -6   7  12   20.56    4.84 
  -7  -6  13    5.86    5.33 
  -6  -7  13    4.34    5.19 
   6  -7 -13    2.11    4.90 
   7  -6 -13    9.13    5.18 
   7  -6  13   18.01    4.55 
  -6   7  13   10.98    3.96 
  -7   6  13   14.10    4.78 
  -7  -6  14    3.32    4.60 
  -6  -7  14   11.14    6.56 
   7  -6 -14    5.96    4.74 
   6  -7 -14   15.29    6.90 
   7  -6  14    9.41    3.68 
  -7   6  14    7.51    3.81 
  -6   7  14    2.55    3.34 
   7  -6  15   23.13    4.99 
  -7   6  15   13.49    4.16 
  -6   7  15   16.30    4.49 
  -7   6  16  105.78   10.17 
   6  -7  16  129.32   10.26 
   7  -6  16  117.11    9.69 
  -6   7  16  122.53   10.81 
  -6   7  17  101.12    9.81 
  -7   6  17   95.68    9.46 
   7  -6  17   83.78    8.08 
   6  -7  17   81.68    7.96 
  -6   7  18   73.60    8.36 
   7  -6  18   59.45    6.61 
  -7   6  18   72.95    8.74 
   6  -7  18   62.62    6.78 
   7  -6  19    1.25    2.15 
   6  -7  19    1.94    2.36 
  -6   7  19   -1.02    3.10 
   6  -7  20   18.70    3.56 
  -6   7  20   31.82    5.66 
  -7   6  20   27.19    5.35 
  -7   6  21   37.81    5.36 
  -6   7  21   38.10    5.08 
  -7   6  22   -3.44    3.05 
  -6   7  22   -3.07    2.74 
  -7   6  23   12.82    2.65 
   7  -7   0  102.05   10.23 
   7  -7  -1  363.06   17.95 
   7  -7   1  363.26   18.20 
   7  -7   2   75.63    8.65 
   7  -7  -2   82.52    9.52 
   7  -7  -3  243.96   15.27 
   7  -7   3  230.58   14.44 
   7  -7  -4  460.40   20.69 
   7  -7   4  466.42   20.62 
   7  -7   5   19.55    4.73 
   7  -7  -5   11.27    4.91 
   7  -7   6    7.12    3.19 
   7  -7  -6    7.57    4.87 
   7  -7  -7   43.93    7.46 
   7  -7  -8   45.68    8.03 
   7  -7  -9   44.68    8.01 
  -7   7   9   34.15    5.17 
   7  -7 -10   28.65    7.51 
  -7   7  10   16.22    3.88 
   7  -7 -11   58.43   10.01 
   7  -7  11   58.58    6.88 
  -7   7  11   39.29    5.98 
   7  -7 -12   32.84    7.81 
  -7  -7  12   30.27    9.02 
   7  -7  12   33.14    5.72 
  -7   7  12   29.91    5.26 
   7  -7 -13  132.00   15.44 
  -7  -7  13  127.39   16.95 
  -7   7  13  121.41   10.47 
   7  -7  13  143.05   10.69 
  -7  -7  14   25.76    8.27 
   7  -7 -14   34.32    8.63 
   7  -7  14   34.52    5.82 
  -7   7  14   30.06    5.78 
   7  -7  15   -0.29    3.07 
  -7   7  15  -10.00    4.96 
   7  -7  16   18.76    4.66 
  -7   7  16   15.43    4.85 
   7  -7  17   35.57    5.57 
  -7   7  17   37.17    6.32 
   7  -7  18    6.03    2.89 
  -7   7  18    9.37    4.27 
   7  -7  19    8.42    2.75 
  -7   7  19    7.18    3.73 
  -7   7  20   66.22    7.08 
  -7   7  21   55.33    6.00 
  -7   7  22    4.15    2.48 
   0  -8   0 1071.78   27.06 
   0  -8  -1  412.79   16.91 
   0  -8   1  397.28   16.83 
   0  -8  -2  102.54    8.80 
   0  -8   2  103.74    9.23 
   8   0   2  105.20    6.26 
   0  -8  -3   -5.08    3.89 
   0  -8   3   -4.65    4.85 
   0  -8  -4  243.09   13.40 
   0  -8  -5  358.27   16.34 
   0  -8  -6  126.16   10.29 
   0  -8   6  129.77    9.26 
   0  -8  -7  118.09   10.46 
   0  -8   7  123.24    9.55 
   0  -8  -8  322.18   17.02 
   0  -8   8  340.42   16.63 
   0  -8  -9  174.33   13.11 
   0  -8   9  177.43   12.81 
  -8   0  10   17.11    4.84 
   0  -8 -10   24.87    5.53 
   0  -8  10   20.14    5.02 
  -8   0  11    0.96    4.40 
   0  -8 -11    8.93    3.68 
  -8   0  12   91.85   13.00 
   0   8  12   79.38    7.77 
  -8   0  12   80.75    8.12 
  -8   0  13    2.10    4.73 
  -8   0  13    0.86    2.97 
   0   8  13    7.08    3.53 
  -8   0  14   -5.18    6.25 
   0   8  14    1.04    3.64 
  -8   0  14    3.54    3.68 
  -8   0  15   18.41    6.64 
  -8   0  15   26.53    5.99 
   0   8  15   19.41    4.97 
  -8   0  16   56.64    8.48 
   0   8  16   63.22    7.85 
  -8   0  17   57.76    8.13 
   0   8  17   62.80    7.82 
   0   8  18   36.61    6.32 
  -8   0  18   31.24    5.95 
  -8   0  19    7.06    4.27 
   0   8  19    8.06    4.47 
  -8   0  20   -4.43    4.01 
   0   8  20    5.93    3.72 
  -8   0  21   12.89    4.61 
   0   8  21   12.53    4.14 
  -8   0  22   29.54    4.84 
  -8   0  23   -0.56    2.16 
   1  -8   0  499.91   18.90 
  -1  -8   0  523.58   19.07 
   1  -8  -1  404.76   17.01 
   1  -8   1  424.53   17.53 
  -1  -8  -1  409.71   16.89 
  -1  -8   1  454.79   18.13 
   8  -1   1  442.48   14.29 
   8  -1   2  216.71    9.40 
   1  -8  -2  226.44   12.95 
  -1  -8  -2  219.63   12.53 
   1  -8   2  215.99   12.84 
  -1  -8   2  212.77   12.81 
   1  -8  -3   10.27    4.16 
  -1  -8  -3    3.58    3.76 
   1  -8   3    9.91    3.45 
  -1  -8   3    7.31    3.91 
  -1  -8  -4  140.73   10.31 
   1  -8   4  135.36   10.50 
   1  -8  -4  150.14   11.01 
   1  -8  -5  301.50   15.51 
  -1  -8  -5  285.75   14.48 
  -1  -8  -6   15.56    4.69 
   1  -8  -6   11.75    4.67 
   1  -8  -7   67.59    8.32 
  -1  -8  -7   60.93    7.67 
   1  -8  -8  296.57   16.61 
  -1  -8  -8  311.80   16.32 
  -1  -8   8  306.16   16.68 
  -1  -8  -9  225.10   14.43 
   1  -8  -9  233.65   15.33 
  -1  -8   9  229.59   15.26 
  -1  -8 -10   28.90    6.10 
  -1  -8  10   22.77    5.95 
   1  -8 -10   27.34    6.29 
  -8   1  10   15.63    5.82 
  -8   1  11   19.32    6.66 
  -1  -8  11   14.22    4.90 
  -8  -1  11   12.21    5.06 
   1  -8 -11   21.00    5.78 
  -8  -1  12   40.10    9.14 
  -1  -8  12   38.17    7.86 
  -8   1  12   37.72    9.56 
   1  -8 -12   38.06    7.41 
  -8   1  12   40.73    6.34 
   1   8  12   28.80    4.97 
  -1   8  12   34.26    5.38 
  -8  -1  12   30.72    5.09 
  -8  -1  13   23.63    8.46 
  -8   1  13   24.24    7.36 
  -8  -1  13   25.96    5.48 
   1   8  13   16.55    4.15 
  -1   8  13   21.79    4.92 
  -8   1  13   23.50    5.46 
  -8   1  14   -1.13    5.61 
  -8  -1  14    0.68    5.39 
   1   8  14    1.84    3.31 
  -1   8  14    6.21    3.72 
  -8  -1  14    6.77    4.09 
  -8   1  14    4.23    3.40 
  -8   1  15   32.91    9.25 
  -8  -1  15   35.71    9.00 
  -8  -1  15   36.34    6.77 
  -8   1  15   42.22    7.27 
  -1   8  15   50.84    7.27 
   1   8  15   33.26    5.92 
  -8  -1  16   70.74    8.91 
  -8   1  16   70.31    9.24 
  -1   8  16   67.89    8.13 
   1   8  16   76.75    8.54 
   1   8  17   76.03    8.89 
  -1   8  17   54.12    7.07 
  -8  -1  17   56.16    7.70 
  -8   1  17   58.76    8.22 
  -8   1  18   49.41    7.24 
  -8  -1  18   48.84    7.35 
  -1   8  18   46.52    7.06 
   1   8  18   53.52    7.34 
  -8   1  19   -1.70    4.89 
   1   8  19    4.06    3.65 
  -8  -1  19   -0.21    4.27 
  -1   8  19    1.20    4.05 
   1   8  20    7.69    4.23 
  -8  -1  20    0.39    3.62 
  -8   1  20   -4.32    4.07 
  -1   8  20   -0.36    3.62 
   1  -8  21   14.32    3.05 
  -8  -1  21   18.69    4.63 
  -8   1  21   20.08    4.69 
  -1   8  21   21.72    4.42 
  -1   8  22   17.80    3.87 
  -8   1  22   13.77    3.98 
  -8  -1  22   13.28    3.49 
  -8  -1  23   -0.36    2.11 
  -8   1  23   -4.92    2.99 
   2  -8   0  158.23   11.12 
  -2  -8   0  183.54   11.62 
   8  -2   0  182.30   10.18 
   2  -8  -1  360.88   16.32 
   2  -8   1  357.63   16.45 
  -2  -8  -1  341.57   15.69 
  -2  -8   1  343.80   15.90 
   8  -2   1  369.92   13.81 
   8  -2   2   77.98    6.40 
   2  -8  -2   76.62    8.34 
   2  -8   2   75.22    8.32 
  -2  -8  -2   69.26    7.78 
   2  -8  -3   15.39    4.82 
  -2  -8  -3   23.29    5.03 
   2  -8   3   15.34    4.78 
   8  -2   3   15.34    3.13 
   2  -8  -4  160.36   11.80 
  -2  -8  -4  169.19   11.27 
   2  -8   4  160.28   11.96 
  -2  -8  -5   48.85    6.04 
   2  -8   5   60.97    7.69 
   2  -8  -5   59.33    7.66 
  -2  -8  -6    3.10    2.80 
   2  -8  -6    6.64    4.61 
   2  -8  -7   80.18    9.16 
  -2  -8  -7   65.31    7.33 
   2  -8  -8  279.83   16.87 
  -2  -8  -8  258.02   14.60 
   2  -8  -9  228.40   15.73 
  -2  -8  -9  223.53   13.81 
  -2  -8   9  214.46   15.75 
  -8   2   9  223.54   17.38 
  -2  -8  10   38.68    7.58 
  -8   2  10   42.93    8.05 
   2  -8 -10   47.44    8.01 
  -8   2  11   17.58    6.66 
  -2  -8  11    9.75    4.53 
   2  -8 -11   11.88    4.70 
   8  -2  11   11.06    3.18 
   2   8  11   10.42    3.11 
  -8   2  12   49.26    9.57 
  -2  -8  12   50.93    8.72 
   2  -8 -12   58.27    9.16 
  -8  -2  12   50.78   11.12 
   8  -2  12   44.21    5.65 
  -8  -2  12   52.40    6.91 
   2   8  12   40.34    5.97 
  -8   2  12   47.11    6.55 
  -2   8  12   43.23    6.13 
  -8   2  13    5.81    4.58 
  -2  -8  13   13.75    5.55 
  -8  -2  13   11.43    6.31 
   2  -8 -13   23.49    6.56 
   8  -2  13   14.71    3.52 
  -8  -2  13   19.38    4.69 
   2   8  13   14.80    4.70 
  -8   2  13   20.85    5.07 
  -2   8  13   21.62    4.78 
  -8   2  14   -5.91    6.26 
  -8  -2  14    2.91    4.78 
  -2  -8  14   -8.02    5.75 
  -8  -2  14    3.67    3.65 
  -8   2  14   -1.17    3.57 
   2   8  14   -6.77    4.24 
  -2   8  14    1.33    3.53 
  -8   2  15   69.99   12.41 
  -8  -2  15   77.10   13.35 
  -2   8  15  100.67    9.58 
   2   8  15   74.00    8.39 
  -8  -2  15   75.27    9.13 
  -8   2  15   80.12    9.34 
  -8   2  16  114.64   10.99 
  -2   8  16  119.99   10.53 
  -8  -2  16  121.05   11.04 
   2   8  16  121.51   10.50 
   2   8  17  113.71   10.18 
  -8   2  17  112.02   10.60 
  -8  -2  17  102.31   10.04 
  -2   8  17  101.88    9.56 
  -8   2  18   15.16    4.76 
   2   8  18   27.96    5.83 
  -2   8  18   10.94    3.85 
  -8  -2  18   19.97    5.13 
   2   8  19   14.16    4.82 
  -2   8  19    5.90    3.93 
  -8  -2  19   13.49    4.48 
  -8   2  19    3.01    3.99 
   2  -8  20   16.74    3.68 
  -2   8  20   17.18    4.70 
  -8  -2  20   16.61    4.48 
  -8   2  20   21.84    5.33 
   2  -8  21   13.53    2.93 
  -2   8  21   21.15    4.48 
  -8   2  21   22.86    5.16 
  -8  -2  21   28.36    5.35 
  -2   8  22    8.26    3.02 
  -8  -2  22    0.99    2.62 
  -8   2  23   -3.82    3.02 
   8  -3   0  380.88   15.39 
  -3  -8   0  376.10   16.85 
   3  -8   0  379.91   17.30 
   3  -8  -1    6.07    4.04 
   3  -8   1    0.74    4.41 
  -3  -8  -1    2.76    3.43 
   8  -3  -1   10.95    3.54 
   8  -3   1    9.81    3.89 
   8  -3   2  112.60    8.15 
   3  -8  -2  113.65   10.13 
   3  -8   2  122.68   10.41 
  -3  -8  -2  105.55    9.20 
   8  -3   3    6.73    2.92 
   3  -8   3    2.72    3.87 
  -3  -8  -3    5.74    3.05 
   3  -8  -3    8.19    4.76 
   3  -8   4   36.47    6.51 
  -3  -8  -4   54.25    6.59 
   3  -8  -4   43.73    7.17 
   3  -8   5   -2.08    4.01 
  -3  -8  -5    4.53    3.41 
   3  -8  -5    3.85    4.30 
  -3  -8  -6    4.97    3.41 
   3  -8  -6    5.73    3.92 
   3  -8  -7   79.57    9.34 
  -3  -8  -7   87.77    8.24 
  -8   3   7   81.83    9.14 
  -8   3   8  211.09   15.57 
   3  -8  -8  236.36   15.56 
   3  -8  -9  286.52   17.60 
  -8   3   9  263.95   17.89 
  -8   3  10   24.45    6.20 
   3  -8 -10   18.61    5.77 
  -3  -8  10   14.88    5.76 
   8  -3  10   20.84    3.95 
  -3  -8  11    7.80    4.41 
  -8   3  11   11.73    5.00 
   3  -8 -11   18.95    6.07 
   8  -3  11   13.56    3.60 
   3   8  11   10.19    3.36 
  -8   3  11   14.91    3.81 
  -3   8  11    9.99    2.88 
  -8  -3  11   13.66    3.66 
  -8   3  12   53.11    9.33 
  -3  -8  12   54.99    9.95 
   3  -8 -12   55.51    9.24 
  -8  -3  12   51.03   10.85 
   8  -3  12   45.61    6.02 
  -8   3  12   45.91    6.60 
   3   8  12   45.04    6.28 
  -8  -3  12   49.22    6.85 
  -3   8  12   38.50    5.70 
  -8  -3  13   41.71    9.77 
  -8   3  13   47.39    9.60 
  -3  -8  13   45.28    9.13 
   3  -8 -13   47.74    8.98 
   8  -3  13   47.63    6.02 
  -3   8  13   45.14    6.47 
   3   8  13   45.30    6.45 
  -8   3  13   42.50    6.82 
  -8  -3  13   47.61    6.97 
  -3  -8  14    3.35    4.28 
  -8  -3  14   -0.94    5.10 
  -8   3  14    0.51    4.38 
   3  -8 -14   -1.55    4.21 
   8  -3  14   -0.56    2.38 
   3   8  14    5.92    3.82 
  -8  -3  14   -0.68    3.32 
  -8   3  14    5.58    4.26 
  -8   3  15   31.21    9.21 
  -8  -3  15   28.51    8.59 
   8  -3  15   39.57    5.52 
  -8  -3  15   42.75    6.97 
  -8   3  15   36.17    6.81 
   3   8  15   51.92    7.41 
  -3   8  15   41.12    6.86 
   3   8  16  176.11   12.42 
  -8  -3  16  165.92   12.59 
  -8   3  16  159.87   12.83 
  -3   8  16  160.12   11.91 
  -8   3  17   91.03    9.63 
  -3   8  17  106.03    9.84 
  -8  -3  17   96.97    9.57 
   3   8  17  103.46    9.78 
  -3   8  18   26.90    5.53 
   3   8  18   37.53    6.86 
  -8  -3  18   36.11    6.28 
  -8   3  18   29.46    6.14 
  -3   8  19   -3.94    3.94 
  -8   3  19    0.15    4.02 
  -8  -3  19    0.23    3.08 
   3  -8  20   26.36    4.42 
  -8   3  20   32.05    6.07 
  -3   8  20   24.96    4.95 
  -8  -3  20   28.43    5.11 
   3  -8  21   36.07    4.08 
  -8  -3  21   45.96    5.42 
  -3   8  21   40.03    5.40 
  -8  -3  22    2.37    1.89 
  -3   8  22    8.96    3.20 
  -8   3  23   -2.14    2.52 
   4  -8   0   55.07    7.38 
   8  -4   0   60.20    6.91 
   8  -4  -1  118.83    9.50 
   4  -8  -1  107.72   10.09 
   4  -8   1   89.62    8.91 
   8  -4   1  109.72    9.04 
   8  -4  -2   67.06    7.52 
   8  -4   2   63.80    6.91 
   4  -8   2   69.79    8.51 
  -4  -8  -2   49.80    6.70 
   4  -8  -2   67.36    8.35 
   8  -4   3    4.23    2.68 
   4  -8   3    5.21    4.39 
  -4  -8  -3    1.92    2.83 
   8  -4  -3    2.85    3.47 
   4  -8  -3    7.55    4.55 
   8  -4   4   33.94    5.01 
   4  -8   4   38.16    6.75 
  -4  -8  -4   28.85    5.33 
   8  -4  -4   25.01    5.20 
   4  -8  -4   29.28    5.92 
   4  -8   5   56.49    7.75 
  -4  -8  -5   50.66    6.44 
  -8   4   5   52.10    6.35 
   4  -8  -5   47.96    7.57 
  -4  -8  -6   -2.28    3.01 
   4  -8   6   -5.71    5.04 
   4  -8  -6   -3.46    3.79 
  -8   4   6   -1.75    3.39 
   4  -8  -7   84.77    9.79 
  -8   4   7   73.87    8.60 
   4  -8  -8   93.32   10.56 
  -8   4   8   97.65   10.35 
   4  -8  -9  192.97   14.83 
  -8   4   9  199.94   15.14 
   4  -8 -10   25.85    7.05 
  -8   4  10   30.22    6.74 
   8  -4  10   21.71    4.30 
  -8   4  11   12.02    5.72 
   4  -8 -11   22.43    6.59 
  -4  -8  11   16.85    6.40 
   8  -4  11   17.42    4.08 
   4   8  11   12.24    3.90 
  -8   4  11   18.33    4.30 
  -8  -4  11   12.63    3.64 
  -4   8  11   14.95    3.85 
  -4  -8  12   60.96   11.00 
  -8   4  12   50.25    9.61 
   4  -8 -12   46.20    8.89 
  -8  -4  12   40.37   10.28 
   4   8  12   47.04    6.57 
   8  -4  12   54.69    6.54 
  -8  -4  12   47.59    6.56 
  -8   4  12   44.30    6.80 
  -4   8  12   39.88    5.98 
  -8  -4  13   43.19   10.21 
  -4  -8  13   57.98   11.06 
   4  -8 -13   51.79    9.90 
  -8   4  13   57.34   10.16 
   4   8  13   56.45    7.17 
   8  -4  13   60.47    6.95 
  -4   8  13   44.60    6.33 
  -8  -4  13   54.99    7.23 
  -8   4  13   56.04    7.49 
  -8  -4  14   12.52    5.05 
  -4  -8  14   16.91    6.26 
   4  -8 -14   14.31    5.85 
  -8   4  14   14.01    6.80 
   8  -4  14   15.94    3.91 
  -8  -4  14   12.71    4.92 
  -8   4  14   15.89    4.89 
   4   8  14   17.73    5.29 
  -4   8  14    8.63    4.25 
   8  -4  15   34.90    5.82 
  -8   4  15   31.52    6.86 
  -4   8  15   36.37    6.63 
   4   8  15   42.05    6.77 
  -8  -4  15   31.90    5.82 
  -4   8  16   87.31    9.14 
  -8   4  16   91.89    9.97 
   8  -4  16   70.36    7.32 
   4   8  16   96.52    9.88 
  -8  -4  16   66.54    7.96 
  -4   8  17   94.16    9.33 
  -8  -4  17   77.12    8.31 
  -8   4  17   77.93    9.19 
   4  -8  18   24.18    5.02 
  -4   8  18   25.87    6.14 
  -8   4  18   21.84    5.90 
  -8  -4  18   14.60    4.35 
   4  -8  19   13.75    3.84 
  -8  -4  19    9.84    3.88 
  -8   4  19   12.26    5.22 
  -8   4  20   66.05    7.85 
  -8  -4  20   59.34    6.57 
   4  -8  20   49.49    5.36 
  -4   8  20   48.84    6.25 
  -8  -4  21   42.10    4.69 
  -4   8  21   46.63    5.66 
  -8   4  21   52.47    6.53 
  -8   4  22   17.15    3.83 
  -4   8  22   16.96    3.50 
  -8   4  23    1.83    2.11 
   8  -5   0   96.81    9.27 
   5  -8   0   70.83    8.44 
   5  -8  -1   63.45    8.33 
   5  -8   1   56.26    7.56 
   8  -5   1   67.03    7.66 
   8  -5  -1   70.01    7.77 
   8  -5   2   26.75    5.83 
   5  -8   2   19.76    4.74 
   8  -5  -2   22.98    5.39 
   5  -8  -2   32.98    6.89 
   8  -5  -3  392.59   17.97 
   5  -8  -3  370.33   18.45 
   5  -8   3  382.82   18.74 
   8  -5   3  366.43   16.35 
   5  -8  -4   56.89    8.43 
   5  -8   4   62.58    7.93 
   8  -5   4   60.82    6.83 
   8  -5  -4   57.36    7.63 
   8  -5  -5   98.61    9.49 
   5  -8  -5   97.76   10.41 
   5  -8   5  100.89   10.20 
  -8   5   6    0.73    2.24 
   5  -8   6   -2.24    4.29 
   8  -5  -6   -0.37    3.89 
   5  -8  -6    8.04    4.65 
   8  -5  -7    3.04    3.55 
  -8   5   7    5.95    2.90 
   5  -8  -7   10.80    5.05 
   8  -5  -8  151.03   13.02 
  -8   5   8  141.20   11.84 
   5  -8  -8  148.49   13.17 
  -8   5   9    1.03    3.27 
   8  -5  -9    4.90    3.62 
   5  -8  -9    9.75    5.26 
   8  -5   9    3.71    2.71 
  -8   5  10   71.94    9.96 
   8  -5 -10   73.65   10.19 
   5  -8 -10   75.57    9.97 
   8  -5  10   66.39    6.93 
  -8   5  10   66.08    7.49 
   8  -5 -11    2.89    4.46 
   5  -8 -11    4.32    4.45 
  -5  -8  11   -1.00    4.62 
  -8   5  11    6.35    4.06 
   8  -5  11   -0.12    2.63 
  -8   5  11   -0.37    2.95 
  -8  -5  11    0.85    2.21 
  -5   8  11   -0.13    2.32 
   8  -5 -12  101.04   13.24 
   5  -8 -12  109.90   12.98 
  -8   5  12  105.74   12.75 
  -5  -8  12   95.93   13.87 
  -8  -5  12   87.62   13.72 
  -8   5  12  106.03    9.69 
  -5   8  12   97.51    9.00 
  -8  -5  12   97.33    9.05 
   8  -5  12  105.48    8.92 
  -8  -5  13   65.34   12.47 
   5  -8 -13   91.69   12.57 
  -5  -8  13   84.80   12.91 
   8  -5 -13   91.60   13.57 
   8  -5  13   88.42    8.49 
  -8   5  13   89.65    9.24 
  -8  -5  13   82.27    8.31 
  -5   8  13   87.20    8.76 
  -8  -5  14   54.93   11.54 
  -5  -8  14   32.96    8.28 
   8  -5 -14   34.06    8.90 
   5  -8 -14   36.66    8.51 
   8  -5  14   31.61    5.15 
  -8   5  14   46.23    7.22 
  -8  -5  14   39.17    6.28 
  -5   8  14   29.12    5.57 
   8  -5  15   -0.98    2.80 
  -8   5  15    3.64    4.02 
  -5   8  15   -1.88    3.50 
  -8  -5  15    0.59    2.97 
   8  -5  16   54.57    6.78 
  -5   8  16   52.98    7.22 
  -8  -5  16   46.30    6.41 
  -8   5  16   50.41    7.84 
   8  -5  17   34.92    5.24 
   5  -8  17   45.46    6.54 
  -5   8  17   44.87    6.92 
  -8   5  17   30.81    6.39 
   8  -5  18    6.87    2.62 
   5  -8  18   11.81    4.22 
  -5   8  18    6.02    4.07 
  -8   5  18   -0.08    4.39 
  -8  -5  18    6.91    2.98 
   5  -8  19   23.03    4.50 
  -5   8  19   26.88    5.30 
  -8   5  19   15.44    4.61 
  -8   5  20   72.99    8.02 
   5  -8  20   58.87    5.69 
  -5   8  20   57.99    6.52 
  -5   8  21   69.56    6.68 
  -8   5  21   75.49    7.31 
  -5   8  22   17.10    3.39 
  -8   5  22   12.43    3.11 
  -8   5  23   -1.88    2.11 
   8  -6   0  293.36   16.06 
   6  -8   0  285.85   16.41 
   6  -8   1    9.36    4.73 
   8  -6  -1   18.68    5.53 
   8  -6   1   11.58    4.52 
   6  -8  -1    9.84    4.59 
   6  -8   2   69.57    8.35 
   8  -6   2   74.37    8.25 
   8  -6  -2   72.03    8.49 
   6  -8  -2   72.46    9.28 
   6  -8  -3  330.39   17.86 
   8  -6  -3  310.15   16.97 
   8  -6   3  303.15   16.01 
   6  -8   3  318.94   17.54 
   8  -6  -4  581.15   22.95 
   6  -8  -4  571.72   23.62 
   8  -6   4  570.89   21.83 
   6  -8   4  591.69   23.97 
   8  -6  -5   74.15    8.89 
   6  -8  -5   86.10    9.89 
   8  -6   5   71.75    7.82 
   6  -8   5   75.26    9.25 
   6  -8   6   43.57    7.12 
   8  -6  -6   48.34    7.49 
   6  -8  -6   42.63    7.75 
   8  -6  -7    8.99    4.38 
   6  -8  -7   17.31    5.60 
   8  -6   8    3.47    2.57 
   6  -8  -8    4.73    4.64 
   8   6   9   31.55    4.87 
   8  -6  -9   30.35    6.60 
   6  -8  -9   39.51    7.66 
   8  -6   9   38.10    5.41 
   8  -6 -10   -1.12    4.31 
   6  -8 -10    7.47    5.53 
   8  -6  10    6.18    3.28 
  -6   8  10    4.06    2.81 
  -8   6  10   -1.59    2.99 
   6  -8 -11   13.71    6.12 
   8  -6 -11   11.11    5.68 
   8  -6  11   12.54    3.97 
  -6   8  11   10.07    3.49 
  -8   6  11    8.35    3.78 
   8  -6  12  102.45    9.08 
  -8   6  12   95.28    9.43 
  -6   8  12   82.28    8.43 
   6  -8 -12   95.12   12.56 
   8  -6 -12   94.23   12.88 
  -6  -8  12   88.28   13.66 
   8  -6 -13  215.80   19.71 
   6  -8 -13  178.14   17.30 
  -8  -6  13  183.01   20.60 
  -6  -8  13  194.12   19.99 
  -8   6  13  202.70   13.49 
  -6   8  13  183.78   12.33 
   8  -6  13  196.81   12.46 
  -6  -8  14   62.25   11.93 
   8  -6  14   64.45    7.55 
  -8   6  14   61.63    7.99 
  -6   8  14   51.47    7.03 
   8  -6  15   -0.07    3.25 
   6  -8  15    8.08    4.01 
  -6   8  15   -7.07    4.81 
  -8   6  15   -1.83    3.75 
   8  -6  16    0.22    2.81 
   6  -8  16    8.14    3.83 
  -6   8  16    5.78    3.59 
   8  -6  17   27.75    5.09 
   6  -8  17   32.05    5.70 
  -6   8  17   22.67    5.37 
  -8   6  17   23.09    5.25 
   8  -6  18   -2.40    2.20 
   6  -8  18    0.13    2.80 
  -6   8  18    5.38    3.95 
  -8   6  18   -1.06    3.62 
   6  -8  19   24.67    4.42 
  -6   8  19   29.83    5.51 
  -8   6  19   31.47    6.03 
  -6   8  20   66.50    6.76 
   6  -8  20   63.64    5.79 
  -6   8  21   76.13    6.66 
  -8   6  21   99.52    7.78 
  -6   8  22   13.18    3.07 
  -8   6  22    5.84    2.47 
   8  -7   0  187.67   13.87 
   7  -8   0  187.86   13.95 
   8  -7   1    3.55    3.85 
   7  -8   1    3.69    3.65 
   8  -7  -1    2.51    4.46 
   7  -8  -1    6.63    5.27 
   8  -7   2   40.51    7.00 
   7  -8   2   42.61    7.05 
   8  -7  -2   48.81    7.91 
   7  -8  -2   33.43    6.72 
   8  -7  -3  401.95   20.08 
   7  -8  -3  384.37   20.16 
   8  -7   3  379.79   19.28 
   7  -8   3  398.53   20.40 
   7  -8  -4  569.16   24.09 
   8  -7  -4  555.36   23.51 
   8  -7   4  562.82   23.17 
   7  -8   4  543.38   23.68 
   7  -8  -5  328.78   18.73 
   8  -7   5  299.53   16.98 
   8  -7  -5  320.16   18.22 
   7  -8   5  309.49   18.48 
   8  -7   6   12.27    3.34 
   7  -8   6   17.63    3.51 
   7  -8   6   16.43    4.60 
   8  -7  -6   11.94    5.01 
   7  -8  -6   24.21    6.53 
   8   7   7    3.56    2.50 
   7   8   7    4.30    2.14 
   7  -8   7    3.52    2.71 
   8  -7   7    2.79    2.55 
   8  -7  -7    2.65    3.26 
   8   7   8    4.82    2.50 
   7   8   8    4.41    2.24 
   8  -7  -8    6.17    4.22 
   7  -8  -8    6.77    4.98 
   8  -7   8    8.90    3.35 
   7   8   9   -0.91    1.96 
   8   7   9    1.26    2.07 
   8  -7  -9    1.06    4.03 
   7  -8  -9    3.37    4.83 
   8  -7   9    6.19    3.40 
  -7   8   9    0.32    1.99 
  -8   7   9    1.72    2.45 
   8  -7 -10    0.15    4.58 
   7  -8 -10   -2.53    4.46 
   8  -7  10    3.66    3.00 
  -7   8  10   -2.31    2.74 
  -8   7  10    1.33    2.72 
   8  -7 -11   45.10    9.04 
   7  -8 -11   48.95    9.19 
   7  -8  11   53.42    6.83 
   8  -7  11   54.87    7.07 
  -7   8  11   47.22    6.38 
  -8   7  11   40.65    6.18 
  -8  -7  12   14.53    7.76 
   8  -7 -12   12.20    5.91 
   7  -8 -12   18.43    7.92 
  -7  -8  12    9.18    6.14 
   8  -7  12    8.60    3.92 
   7  -8  12   22.78    5.37 
  -8   7  12   12.46    4.30 
  -7   8  12   10.26    4.28 
   8  -7 -13  191.86   18.84 
   7  -8 -13  218.01   19.55 
  -8  -7  13  185.34   20.57 
  -7  -8  13  170.18   19.24 
   8  -7  13  238.49   14.07 
   7  -8  13  263.15   14.62 
  -8   7  13  236.28   14.48 
  -7   8  13  233.35   14.25 
  -8   7  14   91.87    9.42 
   7  -8  14   86.39    8.96 
   8  -7  14   81.01    8.42 
  -7   8  14   67.94    8.13 
   8  -7  15   17.93    4.42 
   7  -8  15   17.93    4.80 
  -7   8  15   16.38    4.85 
  -8   7  15   13.55    4.33 
   7  -8  16    0.35    3.00 
   8  -7  16   -0.24    3.56 
  -7   8  16    0.04    3.68 
  -8   7  16   -4.32    4.67 
   8  -7  17   13.22    3.95 
   7  -8  17   11.95    4.17 
  -7   8  17    8.11    3.88 
  -8   7  17   13.09    4.56 
   8  -7  18   -2.02    2.97 
   7  -8  18    1.10    2.65 
  -8   7  18   -2.28    3.75 
  -7   8  18    1.40    2.98 
   7  -8  19   35.59    4.79 
   8  -7  19   26.73    4.28 
  -8   7  19   39.63    6.05 
  -7   8  19   41.41    5.99 
   7  -8  20   78.50    6.08 
  -7   8  20   82.43    7.19 
  -8   7  21   62.18    5.95 
  -7   8  21   64.66    5.95 
  -8   7  22   16.08    2.97 
   8  -8   0    5.94    4.81 
   8  -8   1   46.11    7.78 
   8  -8  -1   41.04    7.82 
   8  -8  -2  104.02   11.28 
   8  -8   2   92.63   10.32 
   8  -8  -3  244.49   16.84 
   8  -8   3  232.91   16.15 
   8  -8  -4  420.11   21.59 
   8  -8   4  399.84   20.95 
   8  -8  -5  277.51   18.07 
   8  -8   5  249.10   16.76 
   8  -8   5  270.92   13.32 
   8   8   5  224.75   12.19 
   8  -8  -6   58.15    8.73 
   8  -8   6   70.41    7.28 
   8   8   6   59.65    6.39 
   8   8   7    1.92    2.19 
   8  -8  -7    1.09    4.37 
   8  -8   7    6.80    3.46 
   8   8   8    7.47    3.21 
   8  -8  -8    2.73    4.66 
   8  -8   8    2.31    2.75 
  -8   8   8    1.61    2.13 
   8   8   9    2.93    2.50 
   8  -8  -9    4.76    4.80 
   8  -8   9    0.83    2.56 
  -8   8   9    3.01    2.47 
   8   8  10    5.57    2.61 
   8  -8 -10   11.10    5.32 
   8  -8  10   14.38    4.36 
  -8   8  10    4.41    2.84 
   8  -8 -11   76.74   11.36 
  -8   8  11   73.32    7.93 
   8  -8  11   92.10    8.86 
   8  -8 -12   97.49   13.14 
  -8  -8  12   96.86   14.78 
   8  -8  12  125.31   10.24 
  -8   8  12  113.29   10.01 
   8  -8  13   20.37    4.99 
  -8   8  13   16.13    5.16 
  -8   8  14  138.95   11.44 
   8  -8  14  174.24   12.01 
   8  -8  15   26.56    5.64 
  -8   8  15   18.61    4.97 
   8  -8  16   11.19    4.21 
  -8   8  16    1.34    3.19 
   8  -8  17    8.45    3.40 
  -8   8  17    3.33    3.70 
   8  -8  18   -1.44    2.36 
  -8   8  18    1.29    3.22 
   8  -8  19   13.80    3.14 
  -8   8  19   21.78    4.62 
  -8   8  20   77.09    6.77 
   8  -8  20   69.55    5.53 
  -8   8  21   44.93    4.78 
   0  -9   0  893.95   26.65 
   0  -9  -1  915.50   26.77 
   0  -9   1  926.79   27.51 
   0  -9  -2  673.48   23.02 
   0  -9   2  633.27   23.42 
   0  -9  -3  108.88    9.77 
   0  -9   3  102.59    9.70 
   0  -9  -4    2.31    3.70 
   0  -9  -5   -2.01    3.74 
   0  -9  -6  154.38   11.97 
   0  -9  -7  326.65   17.66 
   0  -9  -8  560.39   23.64 
   0  -9  -9  350.62   19.47 
   0  -9 -10  157.39   13.94 
  -9   0  11    6.84    6.16 
  -9   0  12   18.19    7.26 
  -9   0  12   17.69    4.84 
   0   9  12   11.87    3.28 
  -9   0  13   13.91    7.18 
   0   9  13   -4.22    3.89 
  -9   0  13    6.53    3.51 
  -9   0  14   90.83   14.10 
   0   9  14   86.44    8.53 
  -9   0  14   80.35    9.38 
   0   9  15  144.61   11.17 
  -9   0  15  160.41   13.02 
   0   9  16  250.80   14.51 
  -9   0  16  293.44   17.10 
  -9   0  17  302.64   17.38 
   0   9  17  259.65   14.62 
   0   9  18  160.86   11.33 
  -9   0  18  166.76   12.49 
   0   9  19   35.54    5.72 
  -9   0  19   38.87    6.24 
   0   9  20   11.62    3.83 
  -9   0  20   11.22    4.39 
  -9   0  21    2.68    3.29 
  -9   0  22    0.04    2.21 
  -9   0  23    6.94    2.43 
   1  -9   0  783.32   25.37 
  -1  -9   0  798.06   25.29 
   1  -9  -1  717.58   24.03 
   1  -9   1  732.37   24.60 
  -1  -9  -1  711.30   23.68 
  -1  -9   1  722.00   24.58 
   9  -1   2  372.45   13.05 
  -1  -9  -2  376.89   17.46 
   1  -9   2  382.32   18.22 
  -1  -9   2  357.73   17.52 
   1  -9  -2  376.54   17.70 
   1  -9  -3  127.40   10.71 
  -1  -9  -3  121.77   10.07 
   1  -9   3  120.92   10.71 
   1  -9  -4    2.36    3.66 
  -1  -9  -4   -1.18    3.27 
   1  -9   4   -6.53    5.38 
   1  -9  -5    1.49    3.60 
  -1  -9  -5   -1.36    3.58 
   1  -9  -6   78.06    9.04 
  -1  -9  -6   82.56    8.66 
   1  -9  -7  308.83   17.61 
  -1  -9  -7  282.64   16.21 
   1  -9  -8  415.52   21.29 
  -1  -9  -8  428.38   20.39 
  -1  -9   8  423.22   20.14 
   1  -9  -9  349.87   19.93 
  -1  -9  -9  378.57   19.76 
   1  -9 -10   90.14   10.70 
  -9   1  10  103.51   13.61 
   9  -1  10   65.36    6.64 
  -9   1  11    5.64    4.32 
  -9  -1  11   18.28    6.89 
   1  -9 -11   18.61    5.75 
   9  -1  11    8.91    2.88 
  -9  -1  12    0.08    5.69 
  -9   1  12    8.58    7.16 
   1   9  12   -1.62    3.36 
  -1   9  12    6.48    3.44 
  -9  -1  12    6.72    4.05 
  -9   1  12   -1.18    3.19 
  -9  -1  13   23.25    7.86 
  -9   1  13    9.92    4.71 
  -9  -1  13   20.52    5.18 
  -9   1  13   13.93    4.44 
   1   9  13   13.53    3.87 
  -1   9  13   17.84    4.54 
  -9  -1  14   31.90    8.93 
  -9   1  14   31.98   10.03 
   1   9  14   30.21    5.72 
  -9   1  14   38.67    6.92 
  -9  -1  14   30.30    6.14 
  -1   9  14   29.41    5.47 
  -9   1  15  175.66   13.59 
   1   9  15  168.35   11.96 
  -9  -1  15  166.55   12.96 
  -1   9  15  156.14   11.46 
  -1   9  16  221.56   13.62 
   1   9  16  205.59   13.35 
  -9  -1  16  229.35   15.29 
  -9   1  16  231.26   15.30 
   1   9  17  237.03   13.86 
  -1   9  17  234.24   13.94 
  -9  -1  17  267.29   16.04 
  -9   1  17  269.07   16.26 
   1   9  18   88.87    8.68 
  -1   9  18   94.51    8.91 
  -9  -1  18  112.84   10.53 
  -9   1  18   97.92    9.89 
  -1   9  19   34.94    5.65 
   1   9  19   39.36    6.10 
  -9  -1  19   53.46    7.21 
  -9   1  19   37.48    6.04 
  -9   1  20   -3.38    4.07 
  -9  -1  20    1.09    3.18 
  -1   9  20    1.84    3.10 
   1  -9  21    0.01    1.90 
  -9  -1  21    8.21    3.53 
  -9   1  21    0.88    3.01 
  -1   9  21    1.53    2.88 
  -9   1  22    4.46    3.20 
  -9  -1  22    6.74    2.86 
  -9   1  23    8.40    2.32 
   9  -2   0  607.75   20.06 
   2  -9   0  566.77   21.81 
  -2  -9   0  586.74   22.02 
   9  -2   1  234.35   12.00 
   2  -9   1  212.02   13.94 
  -2  -9  -1  226.07   14.00 
  -2  -9   1  214.36   13.61 
   2  -9  -1  214.46   13.73 
   9  -2   2  186.85   10.08 
   2  -9  -2  188.52   12.98 
   2  -9   2  177.14   12.74 
  -2  -9  -2  186.02   12.51 
   2  -9  -3   -2.19    4.08 
  -2  -9  -3    4.51    3.58 
   2  -9   3   -4.20    4.81 
   2  -9  -4    3.05    3.62 
  -2  -9  -4    4.84    3.61 
   2  -9   4   -1.71    4.13 
   2  -9  -5    6.58    4.55 
  -2  -9  -5    2.88    2.71 
   2  -9   5   -2.94    5.02 
  -2  -9  -6   10.59    4.27 
   2  -9  -6   13.45    5.51 
   2  -9  -7  102.86   10.91 
  -2  -9  -7   91.51    9.21 
   2  -9  -8  268.55   17.25 
  -2  -9  -8  263.67   15.66 
   2  -9  -9  211.17   15.71 
  -9   2   9  181.53   16.61 
  -2  -9   9  218.85   16.33 
  -9   2  10   55.06    9.65 
  -2  -9  10   64.97    9.65 
   2  -9 -10   58.74    9.34 
   9  -2  10   46.62    5.67 
  -9   2  11    4.41    4.06 
  -2  -9  11   -2.61    3.41 
   2  -9 -11    1.94    4.65 
   9  -2  11   -1.24    2.32 
  -9   2  12   24.20    8.26 
   2  -9 -12   14.35    5.28 
  -9  -2  12   13.33    7.15 
   9  -2  12    7.66    2.83 
  -9  -2  12   14.15    4.16 
   2   9  12   14.39    4.28 
  -2   9  12   11.16    3.70 
  -9   2  12   14.17    4.55 
  -9   2  13    4.19    5.38 
   9  -2  13    4.42    2.68 
  -9  -2  13    4.56    3.20 
   2   9  13    4.44    3.99 
  -9   2  13    4.81    3.82 
  -2   9  13    5.14    3.32 
  -9   2  14   30.01    9.44 
  -9  -2  14   18.55    8.79 
   2   9  14   21.51    5.29 
  -9  -2  14   16.15    5.00 
  -9   2  14   17.56    5.24 
  -2   9  14   17.67    4.84 
  -2   9  15   61.79    7.57 
  -9  -2  15   65.20    8.69 
   2   9  15   60.94    7.68 
  -9   2  15   60.11    8.53 
   2   9  16  187.44   12.52 
  -9  -2  16  197.41   14.13 
  -9   2  16  221.84   15.19 
  -2   9  16  185.65   12.34 
   2   9  17   99.55    9.27 
  -9  -2  17   88.38    9.54 
  -9   2  17  114.33   11.08 
  -2   9  17   80.81    8.17 
  -2   9  18   79.45    8.09 
  -9  -2  18   83.95    9.02 
  -9   2  18   87.81    9.58 
   2   9  18   83.02    8.40 
  -9   2  19   -4.11    4.85 
  -9  -2  19    4.94    3.84 
   2  -9  20    0.23    2.13 
  -2   9  20   -0.58    2.69 
  -9  -2  20    6.06    3.67 
  -9   2  20   -1.80    3.80 
   2  -9  21   11.61    2.81 
  -9  -2  21   20.17    4.26 
  -2   9  21   19.80    3.97 
  -9   2  21   20.99    4.99 
  -9  -2  22   -1.70    2.36 
  -9   2  22    7.67    3.28 
  -9   2  23   -1.11    2.18 
   9  -3   0  136.12   10.23 
   3  -9   0  123.41   10.74 
  -3  -9   0  121.32   10.38 
   9  -3  -1  118.15    9.74 
   3  -9  -1  107.73   10.32 
   9  -3   1  118.26    9.23 
   3  -9   1  116.28   10.91 
  -3  -9  -1   99.09    9.46 
   3  -9  -2   58.84    8.18 
   9  -3   2   51.98    6.02 
   3  -9   2   58.99    8.26 
  -3  -9  -2   56.22    7.26 
   9  -3  -2   53.86    6.76 
   3  -9  -3    2.05    4.13 
   3  -9   3    3.15    3.37 
  -3  -9  -3    2.21    3.00 
   3  -9  -4   79.46    9.20 
  -3  -9  -4   84.02    8.95 
   3  -9   4   82.45    9.49 
  -3  -9  -5   50.90    7.26 
   3  -9   5   62.36    8.40 
   3  -9  -5   60.39    8.50 
  -3  -9  -6   24.51    5.24 
   3  -9  -6   22.61    6.11 
  -3  -9  -7   25.28    5.16 
  -9   3   7   15.01    4.81 
   3  -9  -7   25.81    6.36 
   3  -9  -8   49.58    8.22 
  -9   3   8   54.06    8.49 
   3  -9  -9  113.99   12.24 
  -9   3   9  100.88   12.20 
   9  -3   9  102.08    8.30 
  -9   3  10   10.76    4.73 
   3  -9 -10   21.66    6.55 
  -3  -9  10   15.14    5.56 
   9  -3  10   15.28    3.67 
  -3  -9  11   45.27    8.93 
  -9   3  11   39.92    8.83 
   3  -9 -11   30.00    7.74 
   9  -3  11   31.20    5.15 
   3  -9 -12   84.02   11.59 
  -3  -9  12   68.21   11.03 
  -9  -3  12   69.86   13.27 
  -9   3  12   70.50   11.61 
   3   9  12   60.29    6.88 
   9  -3  12   66.35    7.17 
  -9  -3  12   66.04    8.01 
  -3   9  12   58.79    6.87 
  -9   3  12   67.11    8.34 
  -9  -3  13   66.15   12.29 
  -9   3  13   83.08   13.15 
   3  -9 -13   66.92   10.76 
  -9   3  13   78.80    8.94 
   3   9  13   75.56    8.14 
  -9  -3  13   67.38    8.12 
  -3   9  13   62.99    7.27 
   9  -3  13   70.63    7.46 
  -9  -3  14    3.47    5.01 
  -9   3  14    4.24    5.20 
   9  -3  14   -1.66    2.73 
   3   9  14   12.57    4.73 
  -9  -3  14    3.37    3.51 
  -9   3  14    0.16    4.08 
  -3   9  14    3.67    3.28 
   9  -3  15   23.16    4.71 
  -9  -3  15   28.81    5.97 
  -9   3  15   26.27    6.57 
   3   9  15   31.45    6.13 
  -3   9  15   24.92    5.51 
  -3   9  16   54.16    7.46 
  -9  -3  16   53.06    7.81 
  -9   3  16   52.01    8.11 
   3   9  16   48.08    7.13 
  -9  -3  17   74.88    8.50 
  -9   3  17   84.96    9.96 
   3   9  17   81.62    8.66 
  -3   9  17   65.13    7.47 
  -3   9  18    2.86    3.57 
  -9  -3  18    1.68    3.93 
  -9   3  18   -2.91    5.01 
   3  -9  19    7.40    3.58 
  -3   9  19   -3.64    3.39 
  -9  -3  19   -0.70    3.01 
  -9   3  19   -0.56    3.90 
   3  -9  20   38.87    4.92 
  -3   9  20   40.20    5.54 
  -9  -3  20   38.78    5.59 
  -9   3  20   45.54    6.56 
   3  -9  21   32.48    4.35 
  -9  -3  21   38.72    4.82 
  -9   3  21   50.86    6.47 
  -3   9  21   39.19    4.99 
  -3   9  22   18.51    3.17 
  -9   3  22   25.69    4.38 
  -9   3  23    0.48    1.87 
   4  -9   0   51.15    7.61 
   9  -4   0   56.28    7.32 
   4  -9  -1    4.21    4.68 
   4  -9   1    1.99    3.92 
   9  -4  -1    6.18    3.85 
   9  -4   1    9.54    4.25 
   4  -9  -2   28.22    6.30 
   4  -9   2   48.93    7.85 
   9  -4  -2   32.24    6.09 
   9  -4   2   34.44    5.38 
   9  -4  -3  414.77   18.92 
   4  -9  -3  382.38   19.43 
   9  -4   3  379.91   16.17 
   4  -9   3  393.10   19.69 
  -4  -9  -3  392.06   18.49 
   9  -4  -4  174.63   12.68 
   4  -9  -4  181.30   13.76 
   4  -9   4  175.78   13.66 
  -4  -9  -4  173.63   12.31 
   4  -9  -5  242.92   16.13 
  -4  -9  -5  237.23   14.38 
   4  -9   5  250.87   16.46 
   4  -9  -6   77.19    9.39 
  -4  -9  -6   81.64    8.46 
  -9   4   6   82.14    9.01 
  -9   4   7   26.72    5.73 
   4  -9  -7   12.74    5.36 
   9  -4   8   28.31    4.59 
  -9   4   8   37.97    7.12 
   4  -9  -8   38.01    7.97 
   9   4   9    1.05    1.91 
  -9   4   9   -1.05    4.38 
   4  -9  -9    8.00    4.99 
   9  -4   9    0.38    2.23 
  -4  -9  10   -6.81    4.14 
  -9   4  10   -2.57    4.12 
   4  -9 -10    2.84    4.60 
   9  -4  10   -2.09    2.88 
  -4  -9  11   26.88    7.46 
  -9   4  11   36.40    7.99 
   4  -9 -11   21.13    7.06 
   9  -4  11   27.57    5.06 
  -9   4  11   27.23    5.89 
  -9  -4  11   23.32    5.06 
  -9   4  12  195.13   18.29 
   4  -9 -12  184.40   17.12 
  -9  -4  12  209.82   21.00 
  -4  -9  12  197.53   18.87 
  -4   9  12  178.96   11.64 
  -9   4  12  219.27   14.09 
  -9  -4  12  195.88   12.86 
   9  -4  12  205.63   12.39 
   4   9  12  190.76   11.80 
   4  -9 -13  167.80   16.86 
  -9   4  13  155.83   16.91 
  -9  -4  13  184.87   20.14 
  -4  -9  13  147.22   16.50 
   4   9  13  166.15   11.41 
  -9   4  13  174.98   13.00 
  -4   9  13  166.06   11.46 
   9  -4  13  171.20   11.50 
  -9  -4  13  174.28   12.57 
  -9  -4  14   79.08   13.96 
   9  -4 -14   57.97   11.27 
   4  -9 -14   54.18   10.46 
  -9  -4  14   62.49    8.12 
   9  -4  14   60.52    7.28 
   4   9  14   74.75    8.35 
  -9   4  14   79.87    9.27 
  -4   9  14   58.43    7.20 
   9  -4  15   -2.63    3.51 
  -9  -4  15    3.36    3.37 
  -4   9  15   -1.30    3.33 
  -9   4  15    0.18    3.97 
   9  -4  16    3.97    2.95 
  -9   4  16    9.41    5.61 
  -4   9  16   10.93    4.46 
  -9  -4  16    8.84    4.32 
  -4   9  17    9.38    4.44 
  -9  -4  17   10.02    3.74 
  -9   4  17    5.37    4.00 
   4  -9  18    3.16    3.28 
  -9  -4  18   -0.54    2.98 
  -4   9  18   -9.26    4.10 
  -9   4  18   -3.03    4.69 
   4  -9  19   34.54    5.09 
  -4   9  19   29.99    5.06 
  -9  -4  19   29.35    5.33 
  -9   4  19   36.30    6.74 
  -9   4  20   90.74    8.60 
  -4   9  20   79.30    7.33 
   4  -9  20   84.66    6.80 
  -9  -4  20   72.80    6.59 
  -4   9  21   79.40    6.51 
   4  -9  21   63.97    5.25 
  -4   9  22   26.14    3.48 
  -9   4  22   23.26    3.89 
   5  -9   0   12.43    4.74 
   9  -5   0   19.51    5.48 
   5  -9  -1    5.43    3.91 
   5  -9   1   10.59    5.03 
   9  -5  -1    9.70    4.88 
   9  -5   1    7.99    3.89 
   5  -9  -2  119.60   11.42 
   9  -5   2  118.31   10.21 
   5  -9   2  126.19   11.79 
   9  -5  -2  123.21   10.82 
   9  -5  -3  448.07   20.46 
   5  -9  -3  474.24   21.90 
   9  -5   3  473.81   19.44 
   5  -9   3  493.50   22.45 
   9  -5  -4  694.42   25.64 
   5  -9  -4  662.01   26.22 
   5  -9   4  676.58   26.70 
   9  -5  -5  263.72   16.43 
   5  -9  -5  266.79   17.01 
   5  -9   5  278.28   17.58 
   9  -5  -6  170.21   13.47 
   5  -9  -6  175.99   14.22 
   5  -9   6  182.60   14.62 
   9  -5   7   13.94    3.35 
   9  -5  -7   10.65    4.42 
   5  -9  -7   19.36    6.44 
   9   5   8    2.20    1.85 
   9  -5   8    5.93    2.85 
   9  -5  -8    3.71    3.69 
   5  -9  -8    9.98    5.51 
   9   5   9    2.11    2.63 
   9  -5   9    2.52    3.00 
   9  -5  -9   -4.30    4.13 
   5  -9  -9    3.77    4.06 
   9   5  10   26.26    4.53 
   9  -5 -10   15.90    5.65 
   5  -9 -10   36.67    8.09 
   9  -5  10   33.41    5.71 
   9  -5 -11    3.95    4.91 
   5  -9 -11   23.30    7.55 
  -5  -9  11   17.22    6.92 
   9  -5  11   21.90    4.59 
  -9   5  11   13.95    4.46 
  -9  -5  11   11.17    3.36 
   9  -5 -12  278.84   21.96 
   9  -5  12  250.39   13.75 
  -9   5  12  270.85   15.50 
  -5   9  12  218.96   12.93 
  -9  -5  12  242.73   13.87 
   5  -9 -12  245.43   19.85 
  -5  -9  12  247.70   21.45 
   9  -5 -13  296.42   23.58 
   5  -9 -13  251.06   20.49 
  -9  -5  13  264.33   24.63 
  -5  -9  13  222.87   21.03 
  -9  -5  13  274.19   15.12 
  -5   9  13  277.71   14.67 
  -9   5  13  321.65   17.33 
   9  -5  13  284.16   15.06 
  -9  -5  14  134.77   10.89 
   9  -5  14  130.47   10.43 
  -5   9  14  129.91   10.38 
  -9   5  14  139.15   11.65 
   9  -5  15   18.03    4.52 
  -9  -5  15   17.22    4.61 
  -9   5  15   20.40    5.60 
  -5   9  15   18.19    4.87 
   9  -5  16   -4.57    3.51 
  -5   9  16   -0.33    2.92 
  -9  -5  16   -3.54    3.50 
  -9   5  16    1.02    4.19 
   9  -5  17   -2.13    3.02 
   5  -9  17    1.84    3.12 
  -9   5  17   -2.23    4.84 
  -5   9  17    3.14    3.66 
  -9  -5  17   -0.56    3.71 
   5  -9  18    9.12    3.87 
  -5   9  18    7.03    3.99 
  -9  -5  18   -0.34    2.65 
  -9   5  18    2.77    3.77 
   5  -9  19   72.84    6.87 
  -5   9  19   60.91    6.77 
  -9   5  19   73.46    8.41 
  -9   5  20  123.32    9.64 
  -5   9  20  104.61    7.94 
   5  -9  20  102.83    7.30 
  -5   9  21  103.69    7.14 
  -9   5  21  126.29    8.66 
  -9   5  22   36.54    4.41 
   6  -9   0    2.43    4.03 
   9  -6   0    4.25    3.97 
   6  -9  -1    8.74    4.65 
   6  -9   1    6.00    3.72 
   9  -6  -1    2.72    4.41 
   9  -6   1   10.49    4.50 
   9  -6  -2  192.78   14.01 
   6  -9  -2  198.14   15.14 
   9  -6   2  197.33   13.74 
   6  -9   2  190.20   14.64 
   9  -6  -3  406.94   20.17 
   6  -9  -3  396.78   20.87 
   9  -6   3  383.21   18.58 
   6  -9   3  400.89   21.00 
   6  -9  -4  669.36   26.96 
   6  -9   4  643.37   26.94 
   9  -6  -4  671.15   25.98 
   6  -9  -5  387.66   20.98 
   6  -9   5  399.95   21.65 
   9  -6  -5  392.26   20.38 
   9  -6  -6   95.96   10.43 
   6  -9  -6  104.90   11.56 
   6  -9   6   84.92   10.36 
   9  -6   6   92.34    8.01 
   9   6   6   88.88    7.48 
   6   9   7   29.97    4.61 
   9   6   7   34.31    5.15 
   9  -6   7   38.36    5.49 
   9  -6  -7   32.00    6.79 
   6  -9  -7   35.19    7.64 
   9   6   8   -0.53    2.31 
   6   9   8    0.66    2.25 
   9  -6   8   -2.34    2.63 
   9  -6  -8   -3.19    4.76 
   6  -9  -8    4.63    5.13 
   9   6   9    9.21    2.75 
   6   9   9    9.71    2.94 
   9  -6  -9   12.30    5.51 
   6  -9  -9   11.60    6.12 
   9  -6   9   10.79    3.56 
   9   6  10    5.03    2.63 
   9  -6 -10   -0.70    4.73 
   6  -9 -10   18.24    6.88 
   9  -6  10   12.03    4.06 
  -9   6  10    2.60    2.91 
   9  -6 -11  154.99   15.67 
   6  -9 -11  157.91   15.91 
  -9   6  11  167.14   12.15 
   9  -6  11  158.10   11.49 
   9  -6 -12   58.83   10.57 
   6  -9 -12   64.20   11.27 
  -6  -9  12   59.12   11.05 
   9  -6  12   62.99    7.54 
  -9   6  12   64.91    8.00 
  -6   9  12   43.20    6.26 
   9  -6 -13  315.35   24.24 
   6  -9 -13  285.47   22.18 
  -9  -6  13  300.58   26.37 
  -6  -9  13  246.83   22.38 
   9  -6  13  356.75   16.74 
  -9   6  13  355.92   18.13 
  -6   9  13  302.35   15.82 
  -6   9  14  122.99   10.37 
   9  -6  14  135.64   10.64 
  -9   6  14  127.83   11.66 
   6  -9  15   59.32    7.50 
   9  -6  15   51.38    6.93 
  -6   9  15   49.58    6.81 
  -9   6  15   41.86    7.08 
   9  -6  16    2.88    2.96 
   6  -9  16    8.34    4.26 
  -6   9  16    4.20    3.60 
  -9   6  16   -2.45    4.68 
   9  -6  17   -0.45    2.48 
   6  -9  17    2.74    3.08 
  -9   6  17   -2.97    4.25 
  -6   9  17    5.73    4.96 
   9  -6  18    7.71    2.77 
   6  -9  18   10.56    3.54 
  -6   9  18   17.38    4.40 
  -9   6  18    9.55    4.45 
  -9   6  19   60.42    7.35 
   6  -9  19   51.05    5.63 
  -6   9  19   45.37    5.87 
   6  -9  20  120.64    7.61 
  -6   9  20  121.85    8.33 
  -9   6  20  145.80    9.80 
  -6   9  21   78.83    6.01 
  -9   6  21   95.47    7.31 
  -9   6  22   39.04    4.29 
   9  -7   0   66.35    9.13 
   7  -9   0   79.82   10.05 
   7  -9  -1    6.29    4.48 
   9  -7   1    4.95    4.44 
   7  -9   1    7.97    3.81 
   9  -7  -1   12.62    5.24 
   9  -7   2   57.61    8.10 
   7  -9   2   59.13    8.78 
   9  -7  -2   71.36    9.24 
   7  -9  -2   76.76   10.07 
   9  -7  -3  275.05   17.67 
   7  -9  -3  283.49   18.41 
   9  -7   3  277.90   17.20 
   7  -9   3  265.17   17.73 
   9  -7  -4  416.63   21.52 
   7  -9  -4  421.60   22.24 
   7  -9   4  428.48   22.43 
   9  -7   4  375.07   15.58 
   7   9   4  371.60   14.76 
   9   7   4  391.08   15.56 
   9  -7  -5  306.23   18.85 
   7  -9  -5  332.89   19.76 
   7  -9   5  328.24   20.10 
   9  -7   5  327.09   14.93 
   7  -9   5  321.45   14.40 
   7   9   5  316.91   13.85 
   9   7   5  329.42   14.58 
   9  -7  -6   79.25    9.94 
   7  -9  -6   90.19   11.29 
   7  -9   6   86.62   10.76 
   7  -9   6   89.78    8.14 
   9  -7   6   77.29    7.73 
   7   9   6   78.50    7.39 
   9   7   6   81.59    7.44 
   9   7   7    0.45    2.07 
   7   9   7    0.94    2.21 
   9  -7   7   -1.22    2.33 
   7  -9   7    7.21    3.42 
   9  -7  -7    6.35    4.72 
   7  -9  -7    6.84    5.46 
   9   7   8    2.36    2.22 
   7   9   8    1.58    2.05 
   9  -7  -8   -2.26    4.26 
   7  -9  -8    6.33    5.07 
   9  -7   8    0.28    2.58 
   7  -9   8    4.46    2.87 
   7   9   9    0.92    2.12 
   9   7   9    2.49    2.32 
   9  -7  -9    3.45    3.90 
   7  -9  -9    8.91    5.66 
   9  -7   9    4.25    3.11 
  -9   7   9   -1.66    2.93 
   9   7  10   22.26    4.65 
   9  -7 -10   20.51    6.15 
   7  -9 -10   23.92    7.16 
   9  -7  10   27.40    5.46 
   7  -9  10   32.83    5.65 
  -9   7  10   26.93    5.48 
   9  -7 -11   95.26   12.97 
   9  -7  11  103.70    9.44 
   7  -9  11  114.76   10.05 
  -7   9  11   85.20    8.21 
  -9   7  11   99.89    9.53 
   7  -9 -11   94.62   13.06 
   9  -7 -12  144.62   16.13 
   7  -9 -12  150.04   16.21 
  -7  -9  12  142.35   17.35 
  -7   9  12  149.80   10.97 
   9  -7  12  177.16   12.48 
  -9   7  12  162.61   12.38 
   7  -9  12  187.24   12.39 
   9  -7  13   31.05    5.82 
   7  -9  13   39.95    6.64 
  -9   7  13   30.03    5.99 
  -7   9  13   22.81    4.43 
   7  -9  14  187.88   12.66 
  -9   7  14  179.58   13.22 
  -7   9  14  166.63   11.90 
   9  -7  14  193.78   12.61 
   7  -9  15   45.02    6.55 
   9  -7  15   30.90    5.81 
  -7   9  15   38.71    6.37 
  -9   7  15   34.61    6.67 
   9  -7  16    4.00    3.00 
   7  -9  16    3.69    3.19 
  -7   9  16    5.82    3.66 
  -9   7  16   -5.47    4.98 
   9  -7  17    6.21    3.26 
   7  -9  17   11.36    3.74 
  -7   9  17    7.98    3.75 
  -9   7  17    1.39    3.54 
   9  -7  18   -0.44    2.44 
   7  -9  18    8.88    3.19 
  -9   7  18    5.06    3.54 
   7  -9  19   30.43    4.54 
   9  -7  19   24.24    3.98 
  -9   7  19   23.78    4.91 
  -7   9  19   15.17    3.37 
   7  -9  20   81.68    6.13 
  -7   9  20   90.64    6.98 
  -9   7  20   99.47    7.95 
  -9   7  21   60.48    5.48 
  -7   9  21   48.11    4.51 
   9  -8   0   58.98    9.10 
   8  -9   0   62.77    9.47 
   8   9   0   46.47    5.50 
   9   8   0   44.12    5.48 
   9   8   1    2.69    2.27 
   9   8  -1    2.62    2.26 
   8   9   1    4.98    2.68 
   8   9  -1    2.56    2.44 
   8  -9  -1   -0.49    4.50 
   9  -8   1    4.47    3.99 
   8  -9   1    0.37    4.14 
   9  -8  -1   -3.40    3.83 
   8   9   2    6.17    2.16 
   9   8   2    3.99    2.31 
   8   9  -2    6.59    2.95 
   9   8  -2    1.19    2.51 
   8  -9  -2   12.54    5.48 
   9  -8   2   -1.28    4.43 
   8  -9   2    0.62    3.83 
   9  -8  -2    3.76    4.17 
   9  -8   2    3.73    2.10 
   9  -8  -3  124.30   12.76 
   8  -9  -3  130.30   13.11 
   9  -8   3  125.24   12.30 
   8  -9   3  129.11   12.94 
   9  -8   3  129.01    9.40 
   8  -9   3  117.61    8.82 
   8   9   3  121.32    8.80 
   9   8  -3  107.05    8.41 
   9   8   3  123.76    9.25 
   8   9  -3  120.67    8.95 
   9  -8  -4  192.65   15.40 
   8  -9  -4  174.93   15.05 
   9  -8   4  165.30   14.15 
   8  -9   4  191.65   15.62 
   8  -9   4  176.37   10.94 
   9  -8   4  178.46   11.33 
   8   9  -4  162.32   10.58 
   9   8  -4  155.62   10.44 
   8   9   4  169.42   10.57 
   9   8   4  163.37   10.21 
   9  -8  -5  158.67   14.38 
   8  -9  -5  152.96   14.07 
   8  -9   5  151.65   14.08 
   8  -9   5  160.42   10.74 
   9  -8   5  160.85   10.88 
   8   9  -5  141.73    9.87 
   9   8  -5  129.71    9.53 
   8   9   5  152.38   10.50 
   9   8   5  157.56   10.28 
   8   9  -6    4.02    2.14 
   8   9   6    8.68    3.17 
   9   8   6    3.51    2.83 
   9  -8   6    6.05    2.86 
   8  -9   6    7.49    3.07 
   9  -8  -6    7.84    5.21 
   8  -9  -6    9.02    5.18 
   9   8   7    7.69    3.40 
   8   9   7    4.74    2.77 
   9  -8  -7    8.93    5.13 
   8  -9  -7    7.10    5.24 
   9  -8   7    3.39    3.17 
   8  -9   7    1.91    3.14 
   9   8   8    2.12    2.71 
   8   9   8    2.07    2.30 
   9  -8  -8    6.11    5.09 
   8  -9  -8    4.48    4.58 
   9  -8   8    2.63    3.38 
   8  -9   8    7.22    4.05 
  -9   8   8   -5.38    3.57 
   9   8   9   10.29    3.64 
   8   9   9    8.13    3.47 
   9  -8  -9    7.91    5.43 
   8  -9  -9   17.69    6.93 
   8  -9   9   11.19    4.08 
   9  -8   9   11.84    4.24 
  -9   8   9    7.49    3.22 
   9   8  10   11.73    3.72 
   8   9  10   28.26    5.18 
   9  -8 -10   24.48    7.31 
   8  -9 -10   18.93    7.28 
   9  -8  10   28.52    5.64 
   8  -9  10   28.98    5.95 
  -9   8  10   16.45    4.68 
   9  -8 -11   32.52    8.93 
   8  -9 -11   35.79    8.37 
   8  -9  11   39.05    6.38 
   9  -8  11   40.65    6.52 
  -8   9  11   33.92    5.70 
  -9   8  11   31.66    5.53 
   9  -8  12  111.85    9.92 
  -8   9  12   95.57    9.22 
   8  -9  12  125.78   10.50 
  -9   8  12  104.75    9.87 
   9  -8  13   31.11    5.72 
   8  -9  13   31.76    6.04 
  -9   8  13   35.46    6.38 
  -8   9  13   22.19    4.57 
   9  -8  14   20.78    5.01 
   8  -9  14   20.01    5.33 
  -8   9  14   11.71    4.07 
   9  -8  15    3.81    3.63 
   8  -9  15    7.09    3.37 
  -8   9  15   -1.67    3.63 
  -9   8  15    4.10    3.57 
   9  -8  16   13.00    4.09 
   8  -9  16   13.36    4.38 
  -8   9  16   16.35    4.62 
  -9   8  16   14.21    4.65 
   9  -8  17   16.14    3.89 
   8  -9  17   15.01    3.98 
  -9   8  17    9.91    4.13 
  -8   9  17   12.13    4.07 
   9  -8  18   -3.77    3.13 
   8  -9  18   -1.93    2.62 
  -8   9  18    3.50    3.20 
  -9   8  18    4.54    3.43 
   8  -9  19   10.86    2.83 
   9  -8  19   14.64    3.16 
  -8   9  19   10.77    3.15 
   8  -9  20   17.10    2.94 
  -9   8  20   10.33    3.06 
  -8   9  20   17.03    3.23 
   9   9   0   37.12    5.24 
   9  -9   0   25.07    7.02 
   9  -9   0   29.33    4.74 
   9  -9  -1  133.50   13.77 
   9  -9   1  119.12   13.02 
   9  -9   1   90.53    7.87 
   9   9  -1  107.31    9.07 
   9   9   1  125.21    9.17 
   9   9   2    2.90    2.31 
   9   9  -2    2.75    3.27 
   9  -9   2   -3.58    2.81 
   9  -9  -2   -3.32    5.50 
   9  -9   2   -0.88    3.64 
   9   9   3    6.37    3.05 
   9   9  -3    8.34    3.16 
   9  -9   3   18.60    5.97 
   9  -9  -3    9.19    5.30 
   9  -9   3    6.70    3.06 
   9  -9   4   69.79    9.60 
   9  -9  -4   71.22   10.27 
   9  -9   4   79.18    7.94 
   9   9  -4   77.65    7.77 
   9   9   4   77.67    7.42 
   9   9  -5   -1.11    2.09 
   9   9   5    3.81    2.83 
   9  -9   5   -1.24    2.58 
   9  -9  -5    0.18    4.44 
   9   9   6    9.67    3.62 
   9   9  -6    5.57    2.65 
   9  -9   6   10.99    4.20 
   9  -9  -6    9.91    4.70 
   9   9   7    2.46    2.76 
   9  -9  -7    0.79    4.30 
   9  -9   7    3.53    3.12 
   9  -9  -8   52.53    9.70 
   9  -9   8   55.85    7.24 
   9   9   8   64.24    7.33 
   9   9   9   10.74    3.85 
   9  -9  -9   12.83    5.79 
   9  -9   9   14.86    4.71 
   9   9  10   11.66    3.74 
   9  -9 -10   15.47    6.45 
   9  -9  10    9.04    4.16 
  -9   9  10    8.96    3.73 
   9  -9  11   25.12    5.68 
  -9   9  11   19.43    4.47 
   9  -9  12    4.71    3.74 
  -9   9  12   10.89    4.25 
  -9   9  13   60.08    7.65 
   9  -9  13   77.96    8.55 
   9  -9  14    7.29    3.92 
  -9   9  14    3.59    3.18 
   9  -9  15   29.50    5.47 
  -9   9  15   28.92    5.54 
   9  -9  16   29.49    5.09 
  -9   9  16   25.54    5.15 
   9  -9  17   40.92    5.68 
  -9   9  17   46.02    6.27 
   9  -9  18   10.28    2.96 
  -9   9  18   12.91    3.73 
   9  -9  19    0.68    1.97 
  -9   9  19   -1.00    2.48 
   0 -10   0  836.94   27.66 
   0 -10  -1  627.75   23.72 
   0 -10   1  655.70   24.94 
   0 -10  -2  364.57   18.47 
   0 -10   2  348.20   18.65 
   0 -10  -3  188.61   13.42 
   0 -10   3  183.88   13.74 
   0 -10  -4    9.75    4.32 
   0 -10  -5   58.15    8.21 
   0 -10  -6  112.18   11.36 
   0 -10  -7  378.06   20.13 
   0 -10  -8  303.56   18.69 
   0 -10  -9  398.55   21.78 
  10   0   9  292.66   14.01 
   0 -10 -10   84.43   10.64 
  10   0  10   71.20    7.21 
 -10   0  11   32.88    9.00 
 -10   0  12    6.71    6.66 
 -10   0  12    6.31    3.29 
 -10   0  13   39.78   10.49 
 -10   0  13   24.97    5.71 
 -10   0  14   60.19    8.62 
 -10   0  15  186.08   14.09 
   0  10  15  169.61   11.64 
   0  10  16  314.33   15.42 
 -10   0  16  367.68   19.14 
   0  10  17  284.56   14.30 
 -10   0  17  334.02   17.85 
   0  10  18  155.76   10.42 
 -10   0  18  168.99   12.74 
   0  10  19   58.05    6.38 
 -10   0  19   50.48    6.98 
 -10   0  20    1.91    3.17 
   0 -10  21    3.93    2.37 
 -10   0  21    0.23    3.06 
 -10   0  22   12.49    3.26 
  10  -1   0  741.29   22.92 
   1 -10   0  683.94   25.17 
  -1 -10   0  658.43   24.85 
   1 -10  -1  447.84   20.51 
   1 -10   1  452.74   20.77 
  -1 -10  -1  438.67   20.07 
  -1 -10   1  445.35   20.58 
   1 -10  -2  331.14   17.89 
  -1 -10  -2  339.29   17.70 
   1 -10   2  345.40   18.75 
  -1 -10   2  305.32   17.50 
   1 -10  -3   60.21    8.30 
  -1 -10  -3   51.65    7.66 
   1 -10   3   59.72    8.25 
   1 -10  -4    6.91    3.46 
  -1 -10  -4    7.81    3.95 
   1 -10   4    4.14    3.84 
   1 -10  -5   13.45    5.04 
  -1 -10  -5   23.87    6.07 
   1 -10  -6   97.82   10.46 
  -1 -10  -6   90.38    9.99 
  -1 -10  -7  161.29   13.06 
   1 -10  -7  154.50   13.42 
   1 -10  -8  390.13   21.70 
  -1 -10  -8  379.79   20.65 
   1 -10  -9  188.54   15.49 
  -1 -10  -9  182.80   14.41 
  10  -1   9  170.70   10.81 
  10   1   9  154.79    9.85 
   1 -10 -10  106.89   12.22 
 -10   1  10  118.30   14.50 
  10  -1  10   95.22    8.25 
  10   1  10   93.66    7.90 
   1 -10 -11    9.24    4.74 
 -10   1  11    1.83    4.87 
 -10  -1  11    1.00    6.34 
  10  -1  11    3.11    2.50 
 -10  -1  12   15.35    7.50 
 -10   1  12    3.73    5.03 
  10  -1  12    5.22    3.29 
 -10   1  12    8.78    4.28 
 -10  -1  12    1.83    3.32 
 -10  -1  13    0.02    5.24 
 -10   1  13   -1.67    6.17 
 -10   1  13   -0.75    4.11 
 -10  -1  13    1.08    3.60 
 -10   1  14   45.67    7.63 
 -10  -1  14   51.59    7.83 
   1  10  14   49.14    6.54 
   1  10  15  106.51    9.30 
 -10  -1  15  111.37   11.19 
 -10   1  15  121.62   11.75 
  -1  10  15  111.52    9.53 
   1  10  16  252.03   13.78 
  -1  10  16  237.59   13.73 
 -10  -1  16  280.65   16.63 
 -10   1  16  299.08   17.38 
   1  10  17  216.26   12.45 
  -1  10  17  223.02   12.88 
 -10   1  17  272.36   16.32 
 -10  -1  17  274.68   15.99 
  -1  10  18  128.14    9.51 
   1  10  18  130.20    9.51 
 -10  -1  18  143.04   11.52 
 -10   1  18  138.59   11.49 
  -1  10  19   29.97    4.89 
 -10  -1  19   27.19    5.44 
 -10   1  19   30.12    5.54 
  -1  10  20    5.40    2.74 
 -10  -1  20    5.13    3.52 
 -10   1  20   -3.31    3.77 
   1 -10  21   -0.28    1.62 
 -10   1  21    5.67    3.29 
 -10  -1  21    4.05    2.91 
 -10  -1  22    3.93    2.13 
 -10   1  22    9.66    3.18 
   2 -10   0  287.61   16.97 
  -2 -10   0  287.65   16.57 
  10  -2   0  329.41   15.87 
  10  -2   1  305.92   14.44 
   2 -10  -1  272.34   16.54 
   2 -10   1  282.10   16.83 
  -2 -10  -1  297.45   16.98 
  -2 -10   1  300.61   17.23 
  10  -2  -1  287.32   15.42 
   2 -10  -2   14.31    5.34 
   2 -10   2   26.57    6.40 
  -2 -10  -2   12.85    4.88 
   2 -10  -3    5.65    5.03 
  -2 -10  -3    9.70    4.74 
   2 -10   3    7.15    4.79 
   2 -10  -4   15.95    5.59 
  -2 -10  -4   12.81    4.71 
   2 -10   4   11.37    4.28 
   2 -10  -5   16.88    5.90 
  -2 -10  -5   18.01    5.48 
   2 -10  -6    6.06    4.60 
  -2 -10  -6    3.52    3.72 
   2 -10  -7   71.92   10.17 
  -2 -10  -7   74.09    9.00 
   2 -10  -8   85.68   10.63 
  -2 -10  -8   78.73    9.73 
  10  -2   8   85.93    7.68 
  10   2   8   72.59    6.75 
   2 -10  -9  162.43   14.66 
 -10   2   9  173.98   16.76 
  10  -2   9  141.62    9.93 
  10   2   9  139.12    9.60 
  10   2  10   14.10    3.55 
 -10   2  10   21.85    7.43 
   2 -10 -10   25.06    7.16 
  10  -2  10   15.90    3.93 
   2 -10 -11    8.52    5.48 
 -10   2  11    3.57    5.13 
  10  -2  11   -2.94    2.55 
   2 -10 -12   23.58    7.43 
 -10   2  12   24.41    7.91 
 -10  -2  12   23.72    8.64 
  10  -2  12   31.19    5.47 
 -10   2  12   31.04    6.57 
 -10  -2  12   22.71    5.46 
 -10  -2  13    5.47    6.12 
 -10   2  13    9.04    6.48 
  10  -2  13   23.41    5.53 
 -10  -2  13    5.59    3.65 
 -10   2  13    9.79    4.80 
  10  -2  14    2.02    2.79 
   2  10  14    4.36    3.62 
 -10   2  14    3.68    4.32 
 -10  -2  14   -2.62    4.20 
 -10  -2  15   81.86    9.38 
 -10   2  15   93.87   10.32 
  -2  10  15   68.88    7.59 
   2  10  15   85.15    8.43 
  -2  10  16   70.96    7.50 
 -10  -2  16   93.13    9.89 
 -10   2  16   90.37   10.66 
   2  10  16   74.07    7.80 
  -2  10  17  135.14   10.31 
 -10   2  17  153.86   12.69 
 -10  -2  17  149.28   11.95 
   2  10  17  126.95    9.87 
  -2  10  18   41.89    6.12 
 -10  -2  18   35.16    6.02 
 -10   2  18   41.92    7.44 
  -2  10  19    4.20    2.97 
 -10   2  19    5.02    4.02 
 -10  -2  19    1.27    3.04 
   2 -10  20   13.37    3.33 
 -10  -2  20    4.87    2.89 
 -10   2  20    8.77    3.82 
  -2  10  20   12.57    3.13 
   2 -10  21    5.49    2.23 
 -10  -2  21   11.08    3.27 
 -10   2  21   11.67    4.04 
 -10   2  22    9.43    3.09 
  10  -3   0  137.26   10.74 
   3 -10   0  123.86   11.50 
   3 -10  -1   35.91    6.72 
   3 -10   1   38.00    7.41 
  -3 -10  -1   31.66    6.24 
  10  -3  -1   34.44    6.01 
  10  -3   1   38.26    5.66 
   3 -10  -2    0.54    3.75 
   3 -10   2    8.04    4.28 
  -3 -10  -2    4.94    3.38 
  10  -3  -2    3.64    3.74 
  10  -3  -3  189.47   13.47 
   3 -10  -3  165.83   13.68 
   3 -10   3  162.54   13.71 
  -3 -10  -3  159.51   12.70 
   3 -10  -4  105.02   11.14 
  -3 -10  -4   99.89   10.07 
   3 -10   4  107.06   11.13 
   3 -10  -5  154.63   13.49 
  -3 -10  -5  140.62   11.98 
   3 -10   5  138.83   13.00 
   3 -10  -6   49.17    8.48 
  -3 -10  -6   40.00    6.85 
  10   3   7   -0.76    1.84 
  10  -3   7   -2.52    2.91 
  -3 -10  -7   -3.99    3.57 
   3 -10  -7    4.96    4.48 
  10   3   8   31.33    4.81 
  10  -3   8   39.94    5.42 
 -10   3   8   34.34    7.67 
   3 -10  -8   34.91    7.63 
  10   3   9    3.94    2.27 
  10  -3   9    0.94    2.23 
 -10   3   9    7.89    4.85 
   3 -10  -9    3.02    4.45 
  10   3  10    4.11    2.46 
 -10   3  10    6.84    5.18 
   3 -10 -10    8.74    5.42 
  10  -3  10    2.16    2.56 
 -10   3  11   20.89    7.04 
   3 -10 -11   25.55    7.55 
  10  -3  11   19.63    4.16 
 -10   3  12  133.10   15.89 
   3 -10 -12  120.57   14.70 
 -10  -3  12  132.28   17.82 
  10  -3  12  130.01   10.11 
 -10  -3  12  121.47   10.77 
 -10   3  12  121.57   10.88 
 -10   3  13  103.19   15.22 
 -10  -3  13  112.36   16.30 
   3 -10 -13   80.15   12.19 
  10  -3  13  113.35    9.71 
 -10   3  13  106.87   10.83 
 -10  -3  13   99.49    9.73 
  10  -3  14   27.69    5.46 
   3  10  14   30.76    5.92 
 -10  -3  14   20.94    5.07 
 -10   3  14   22.93    5.58 
  10  -3  15    0.63    3.01 
 -10  -3  15   -2.27    3.52 
  -3  10  15    1.92    3.26 
 -10   3  15    1.39    5.33 
 -10  -3  16   32.68    6.42 
 -10   3  16   42.75    7.84 
  -3  10  16   24.94    4.60 
  -3  10  17    1.79    3.24 
 -10  -3  17    7.17    4.09 
 -10   3  17   11.22    5.02 
 -10  -3  18   10.48    4.19 
 -10   3  18   10.82    4.41 
  -3  10  18   10.40    3.60 
  -3  10  19    6.38    3.02 
 -10  -3  19    3.10    3.16 
 -10   3  19   13.10    4.75 
   3 -10  20   33.30    4.64 
  -3  10  20   32.66    4.47 
 -10  -3  20   32.84    4.96 
 -10   3  20   38.31    6.12 
   3 -10  21   32.28    3.82 
 -10  -3  21   39.28    4.37 
  -3  10  21   34.77    4.02 
 -10   3  22   22.48    3.70 
   4 -10   0   12.33    4.70 
  10  -4   0   15.42    4.92 
   4 -10  -1    1.98    4.19 
   4 -10   1   -0.25    4.57 
  10  -4  -1   -2.18    3.13 
  10  -4   1    2.86    3.05 
   4 -10  -2  104.27   10.99 
   4 -10   2  108.00   11.24 
  10  -4  -2   96.26   10.09 
   4 -10  -3  277.81   17.58 
   4 -10   3  274.18   17.69 
  -4 -10  -3  258.55   16.28 
  10  -4  -3  293.97   17.26 
   4 -10  -4  517.99   24.05 
   4 -10   4  512.90   24.41 
  -4 -10  -4  501.90   22.22 
  10  -4  -4  547.92   23.56 
   4 -10  -5  252.26   17.37 
  -4 -10  -5  257.25   15.96 
   4 -10   5  264.49   18.01 
  10  -4  -5  274.54   17.10 
  10  -4  -6  191.92   14.76 
   4 -10  -6  200.48   15.77 
  10  -4   6  177.36   10.93 
  10   4   6  190.85   10.95 
   4  10   7   10.27    2.94 
  10   4   7   11.04    3.20 
  10  -4   7   11.72    3.52 
   4 -10  -7   18.28    6.05 
   4  10   8    1.12    1.90 
  10   4   8    0.32    2.08 
  10  -4   8    5.93    2.96 
   4 -10  -8    3.63    4.28 
  10   4   9   -5.14    2.81 
  10  -4   9   -3.51    2.91 
   4 -10  -9   -1.96    4.13 
  10   4  10   22.09    4.46 
  -4 -10  10   12.82    5.54 
   4 -10 -10   24.35    7.21 
  10  -4  10   22.02    4.58 
   4 -10 -11   59.18   10.19 
  10  -4  11   71.51    7.61 
 -10   4  11   58.70    7.78 
  10  -4 -12  183.58   18.61 
 -10  -4  12  198.36   13.34 
  10  -4  12  207.62   12.81 
 -10   4  12  229.53   14.74 
   4 -10 -12  192.41   17.71 
 -10  -4  12  208.01   21.53 
  10  -4 -13  267.32   23.05 
   4 -10 -13  226.24   19.80 
 -10  -4  13  259.51   24.78 
  10  -4  13  277.32   14.97 
 -10  -4  13  270.11   15.52 
 -10   4  13  298.33   17.33 
  10  -4  14   88.69    8.84 
 -10  -4  14   93.58    9.43 
 -10   4  14  103.10   10.54 
  -4  10  14   87.14    8.32 
  10  -4  15   23.20    4.84 
 -10  -4  15   25.96    5.70 
 -10   4  15   26.54    6.25 
  -4  10  15   22.75    5.14 
  10  -4  16    3.49    2.60 
 -10  -4  16    0.22    3.32 
 -10   4  16    5.49    5.32 
  -4  10  16    5.32    3.61 
  -4  10  17   -3.41    4.03 
 -10  -4  17   -2.34    3.09 
 -10   4  17   -7.14    5.01 
   4 -10  18   11.61    3.76 
 -10   4  18    1.76    3.99 
  -4  10  18    6.04    3.18 
 -10  -4  18    4.87    3.23 
   4 -10  19   42.62    5.56 
  -4  10  19   42.96    5.34 
 -10  -4  19   38.68    5.26 
 -10   4  19   37.42    6.20 
  -4  10  20   71.62    6.16 
   4 -10  20   80.24    6.52 
 -10  -4  20   68.37    5.86 
   4 -10  21   69.99    5.16 
 -10   4  21  104.76    7.81 
 -10   4  22   25.63    3.47 
   5 -10   0    3.91    3.81 
  10  -5   0    8.03    4.62 
   5 -10  -1    2.04    4.72 
   5 -10   1   10.08    5.16 
  10  -5  -1    8.44    4.08 
  10  -5   1    8.92    3.89 
  10  -5  -2  149.62   12.66 
  10  -5   2  147.06   11.78 
   5 -10  -2  142.93   13.15 
   5 -10   2  153.39   13.70 
   5 -10  -3  317.03   19.18 
   5 -10   3  321.28   19.46 
  10  -5  -3  337.59   18.78 
   5 -10  -4  600.11   26.33 
   5 -10   4  657.57   28.22 
  10  -5  -4  635.75   26.15 
  10  -5  -5  485.80   23.59 
   5 -10  -5  477.62   24.10 
   5 -10   5  491.94   24.73 
  10  -5   5  490.83   17.86 
   5  10   5  444.39   16.47 
  10   5   5  463.62   17.17 
  10  -5  -6  151.31   13.57 
   5 -10  -6  174.82   15.09 
  10  -5   6  179.72   11.07 
   5  10   6  141.49    9.83 
  10   5   6  154.23   10.14 
  10  -5  -7   59.12    9.17 
   5 -10  -7   61.12    9.94 
  10  -5   7   61.35    6.95 
   5  10   7   56.47    6.50 
  10   5   7   62.26    6.62 
   5  10   8   -0.04    1.95 
  10   5   8    4.95    2.48 
  10  -5   8    5.80    3.49 
  10  -5  -8    1.26    4.10 
   5 -10  -8    4.16    4.22 
  10   5   9    6.48    2.89 
   5  10   9   11.48    3.53 
  10  -5  -9   12.50    5.16 
   5 -10  -9    9.93    5.79 
  10  -5   9    6.20    3.24 
  10  -5 -10   52.00    9.35 
   5 -10 -10   47.46    9.31 
  10  -5  10   56.22    6.88 
  10   5  10   58.97    6.90 
  10  -5 -11  187.79   17.91 
   5 -10 -11  157.85   16.03 
  -5 -10  11  135.74   16.08 
  10  -5  11  189.54   12.30 
 -10   5  11  183.78   13.15 
 -10  -5  11  162.72   11.53 
  10  -5 -12  135.21   15.87 
   5 -10 -12  115.54   14.15 
 -10  -5  12  133.17   10.48 
  10  -5  12  143.28   11.16 
 -10   5  12  144.03   11.87 
  10  -5  13  348.36   16.61 
 -10  -5  13  331.63   16.56 
 -10   5  13  377.53   19.03 
 -10  -5  14  168.01   11.91 
  -5  10  14  167.25   11.33 
 -10   5  14  179.74   13.67 
  10  -5  14  176.24   11.91 
  10  -5  15   35.70    5.71 
 -10  -5  15   35.01    5.83 
 -10   5  15   44.87    7.75 
  -5  10  15   33.81    5.53 
   5 -10  16   34.79    6.01 
  10  -5  16   17.74    4.52 
  -5  10  16   24.80    5.02 
 -10  -5  16    9.54    3.09 
 -10   5  16   21.46    5.74 
   5 -10  17    5.41    3.73 
  10  -5  17   -1.53    2.33 
  -5  10  17   -7.08    3.76 
 -10  -5  17    1.07    2.98 
 -10   5  17   -2.14    4.74 
   5 -10  18   22.62    4.72 
 -10  -5  18   21.91    4.08 
 -10   5  18   17.90    5.10 
  -5  10  18   14.24    3.69 
   5 -10  19   50.04    5.75 
  -5  10  19   40.86    5.17 
 -10   5  19   55.29    7.13 
  -5  10  20  106.00    7.06 
   5 -10  20  126.99    7.88 
   5 -10  21   61.47    4.66 
 -10   5  21  100.66    7.33 
   6 -10   0    3.35    4.07 
  10  -6   0   10.39    5.13 
  10  -6   1   52.60    8.28 
   6 -10  -1   42.23    8.00 
   6 -10   1   34.03    6.95 
  10  -6  -1   42.56    7.59 
   6 -10  -2   55.01    8.88 
   6 -10   2   57.45    9.13 
  10  -6   2   64.76    8.63 
  10  -6  -2   48.59    8.12 
   6  10   2   48.66    5.73 
  10   6   2   52.30    5.91 
  10  -6  -3  339.30   19.73 
   6 -10  -3  352.69   20.63 
   6 -10   3  351.17   20.71 
  10  -6   3  325.06   14.86 
   6  10   3  317.29   13.98 
  10   6   3  327.72   14.23 
  10  -6  -4  384.76   20.92 
   6 -10  -4  416.32   22.60 
   6 -10   4  404.77   22.67 
  10  -6   4  370.62   15.95 
   6  10   4  353.44   14.78 
  10   6   4  383.09   15.62 
  10  -6  -5  403.32   21.73 
   6 -10  -5  429.45   23.11 
   6 -10   5  388.79   22.56 
  10  -6   5  441.76   17.47 
   6  10  -5  375.00   15.95 
   6  10   5  404.72   16.00 
  10   6   5  426.41   16.64 
  10  -6  -6  135.54   13.21 
   6 -10  -6  142.68   13.91 
   6 -10   6  119.48   13.00 
  10  -6   6  140.77   10.25 
  10   6   6  150.54   10.39 
   6  10   6  133.72    9.92 
   6  10  -6  121.12    9.34 
   6  10   7   18.41    4.11 
  10   6   7   14.55    3.69 
  10  -6   7   16.37    4.28 
  10  -6  -7   13.70    4.92 
   6 -10  -7   11.73    5.29 
   6  10   8   -2.57    2.62 
  10   6   8    2.89    2.71 
  10  -6   8    0.07    2.61 
  10  -6  -8   -2.38    3.67 
   6 -10  -8   -3.20    5.24 
   6  10   9    6.87    3.03 
  10   6   9    7.77    3.03 
  10  -6  -9    7.19    4.89 
   6 -10  -9    4.58    5.34 
  10  -6   9    9.23    3.48 
  10   6  10   38.96    5.97 
  10  -6 -10   39.52    8.54 
   6 -10 -10   58.58   10.34 
  10  -6  10   44.15    6.28 
 -10   6  10   43.31    6.74 
  10  -6 -11  148.13   16.03 
 -10   6  11  142.80   11.61 
 -10  -6  11  117.59    9.62 
  10  -6  11  149.78   11.21 
   6 -10 -11  129.84   14.75 
  -6 -10  11  112.17   15.13 
  10  -6 -12  214.85   19.85 
   6 -10 -12  198.21   18.66 
 -10   6  12  244.24   15.35 
  10  -6  12  252.36   14.29 
  10  -6  13   72.53    8.26 
 -10   6  13   80.93    9.55 
  10  -6  14  191.49   12.69 
   6 -10  14  232.01   14.03 
 -10   6  14  209.25   14.59 
  -6  10  15   58.18    6.96 
  10  -6  15   58.05    7.18 
   6 -10  15   71.69    8.22 
 -10   6  15   65.09    8.59 
  10  -6  16    1.02    2.67 
   6 -10  16    0.44    3.04 
  -6  10  16    3.44    2.99 
   6 -10  17    6.15    3.58 
  10  -6  17    6.58    3.18 
  -6  10  17    9.84    3.71 
 -10   6  17    1.92    3.84 
   6 -10  18   -0.51    2.62 
  10  -6  18    6.19    2.86 
  -6  10  18   -3.92    3.08 
 -10   6  18   -0.49    3.72 
   6 -10  19   57.88    5.91 
 -10   6  19   65.90    7.37 
  -6  10  19   43.10    5.14 
   6 -10  20   87.41    6.33 
 -10   6  20  104.04    7.86 
 -10   6  21   91.91    6.55 
   7  10   0    7.40    2.91 
  10   7   0    2.14    2.07 
  10  -7   0    5.53    4.92 
   7 -10   0    3.47    4.15 
   7  10  -1   15.44    3.51 
   7  10   1   13.98    3.66 
  10   7   1   13.75    3.61 
  10   7  -1   17.35    3.93 
  10  -7   1   16.84    5.40 
   7 -10  -1   16.69    6.05 
   7 -10   1    9.04    4.30 
  10  -7  -1   16.09    5.69 
  10  -7   1   13.68    4.05 
   7 -10  -2   51.32    8.82 
  10  -7   2   42.70    7.28 
   7 -10   2   52.51    8.91 
  10  -7  -2   53.78    9.06 
  10  -7   2   46.85    6.06 
   7  10  -2   51.48    6.02 
   7  10   2   49.54    5.99 
  10   7  -2   51.35    6.25 
  10   7   2   49.27    6.12 
  10  -7  -3  112.99   12.22 
   7 -10  -3  106.49   12.15 
   7 -10   3  109.59   12.30 
   7 -10   3  105.68    8.26 
  10  -7   3  105.30    8.85 
   7  10  -3  100.37    8.78 
   7  10   3  104.45    8.47 
  10   7  -3  102.13    8.37 
  10   7   3  105.19    8.72 
  10  -7  -4  208.92   16.23 
   7 -10  -4  222.96   17.29 
   7 -10   4  218.34   17.40 
   7 -10   4  217.38   11.93 
  10  -7   4  213.81   12.58 
   7  10  -4  205.41   12.26 
   7  10   4  223.99   11.94 
  10   7  -4  211.39   12.03 
  10   7   4  241.53   12.66 
  10  -7  -5  171.78   14.92 
   7 -10  -5  151.61   14.63 
   7 -10   5  170.60   15.45 
  10  -7   5  192.60   12.03 
   7 -10   5  184.43   11.57 
   7  10   5  176.30   10.88 
  10   7  -5  148.19   10.06 
  10   7   5  193.50   11.54 
   7  10  -5  162.14   10.99 
   7  10  -6   27.22    4.77 
   7  10   6   29.14    5.45 
  10   7   6   27.05    5.07 
  10  -7   6   22.09    5.04 
   7 -10   6   30.21    5.33 
   7 -10   6   20.21    4.10 
  10  -7  -6   31.84    7.40 
   7 -10  -6   26.39    7.48 
  10   7   7    4.29    3.32 
   7  10   7   -0.35    2.32 
  10  -7   7   -2.90    3.41 
   7 -10   7    0.54    2.50 
  10  -7  -7    1.22    4.62 
   7 -10  -7    0.32    4.27 
  10   7   8    1.48    3.00 
   7  10   8   -2.53    3.01 
  10  -7  -8    3.30    4.77 
   7 -10  -8   -3.11    4.29 
  10  -7   8    1.03    2.88 
   7 -10   8    5.08    3.24 
   7  10   9    2.11    2.83 
  10   7   9   -0.11    2.77 
  10  -7  -9   -2.36    3.71 
   7 -10  -9    0.48    4.39 
  10  -7   9    1.81    3.15 
   7 -10   9    0.16    2.88 
 -10   7   9   -2.09    3.79 
   7  10  10    9.16    3.47 
  10   7  10   22.73    4.70 
  10  -7 -10   10.69    4.74 
   7 -10 -10    9.23    6.41 
  10  -7  10   19.03    5.11 
   7 -10  10   26.81    5.63 
 -10   7  10   22.18    5.52 
  10  -7 -11   62.80   10.83 
   7 -10 -11   57.00   10.30 
 -10   7  11   80.83    8.95 
  10  -7  11   83.71    8.87 
   7 -10  11   85.38    8.80 
  10   7  11   75.67    8.02 
  10  -7  12  148.02   11.24 
   7 -10  12  163.98   11.97 
 -10   7  12  136.06   11.76 
  10  -7  13   64.02    7.77 
   7 -10  13   71.07    8.53 
 -10   7  13   61.77    8.17 
  10  -7  14   41.40    6.43 
   7 -10  14   42.64    6.77 
 -10   7  14   39.20    7.13 
  -7  10  14   33.32    5.56 
  10  -7  15    3.40    3.26 
   7 -10  15   15.37    4.90 
  -7  10  15    4.07    3.39 
 -10   7  15   13.06    5.02 
  10  -7  16   -0.16    2.66 
   7 -10  16    0.48    3.38 
  -7  10  16    5.60    3.63 
 -10   7  16   -5.09    4.26 
   7 -10  17    6.72    3.07 
  10  -7  17    8.45    3.33 
  -7  10  17   12.17    3.76 
 -10   7  17    5.19    3.41 
   7 -10  18    3.15    2.63 
  10  -7  18    4.62    2.61 
 -10   7  18    4.67    3.44 
   7 -10  19   17.72    3.57 
  10  -7  19   10.61    2.61 
  -7  10  19    7.25    2.72 
 -10   7  19   22.34    4.58 
   7 -10  20   24.47    3.33 
 -10   7  20   41.61    5.03 
  10  -8   0   85.83   11.23 
   8 -10   0  100.08   12.06 
  10  -8   0   73.75    7.49 
   8  10   0   90.67    8.22 
  10   8   0   95.54    8.27 
  10   8   1   23.49    4.25 
   8  10  -1   25.28    4.67 
  10   8  -1   27.71    5.21 
   8  10   1   20.64    4.36 
   8 -10   1   21.96    4.18 
  10  -8  -1   23.17    4.39 
  10  -8   1   30.22    5.28 
  10  -8  -1   24.11    6.99 
   8 -10  -1   26.25    7.17 
  10  -8   1   24.71    6.50 
   8 -10   1   16.63    5.46 
  10   8  -2    1.96    2.96 
   8  10   2    1.35    2.17 
  10   8   2   -2.52    2.91 
   8  10  -2    6.09    3.04 
  10  -8   2    1.63    2.37 
   8 -10   2   -2.34    2.19 
   8 -10  -2    8.10    5.21 
  10  -8   2   -0.28    3.70 
   8 -10   2    6.42    5.19 
  10  -8  -2    6.33    5.02 
  10   8  -3   13.08    3.70 
  10   8   3    7.77    3.16 
   8  10   3   12.72    3.72 
   8  10  -3   13.95    3.79 
   8 -10  -3    2.36    3.81 
   8 -10   3    7.05    4.98 
  10  -8  -3    7.85    4.61 
  10  -8   3   10.61    3.21 
   8 -10   3   11.40    3.49 
  10  -8  -4   79.14   11.13 
   8 -10   4   88.22   11.66 
   8 -10  -4   67.19   10.46 
   8 -10   4   83.31    7.85 
  10  -8   4   87.54    8.53 
   8  10  -4   77.45    7.59 
  10   8  -4   83.20    7.90 
  10   8   4   89.13    8.08 
   8  10   4   77.73    8.05 
   8  10   5    8.88    3.36 
  10   8   5    5.35    2.74 
   8  10  -5    4.13    2.73 
  10   8  -5   10.45    3.43 
  10  -8   5   13.82    4.25 
   8 -10   5   11.02    3.92 
   8 -10   5    8.10    4.55 
  10  -8  -5   19.17    6.28 
   8 -10  -5   17.85    6.36 
   8  10  -6    7.30    3.29 
  10   8   6    9.22    3.56 
   8  10   6    6.64    2.97 
  10  -8   6    9.65    3.82 
   8 -10   6    6.52    3.86 
  10  -8  -6   10.58    5.67 
   8 -10  -6    7.13    5.16 
   8  10   7   -0.26    3.14 
  10   8   7    2.54    3.01 
  10  -8  -7    7.19    5.48 
   8 -10  -7    0.71    5.08 
  10  -8   7   -2.33    3.12 
   8 -10   7    3.11    3.28 
   8  10   8   36.57    5.75 
  10   8   8   43.83    6.18 
  10  -8  -8   31.52    8.23 
   8 -10  -8   35.95    8.41 
  10  -8   8   40.13    6.28 
   8 -10   8   40.73    6.17 
 -10   8   8   30.67    5.50 
  10   8   9   18.71    4.66 
   8  10   9   24.27    5.03 
  10  -8  -9   28.07    7.96 
   8 -10  -9   18.56    7.42 
  10  -8   9   21.23    4.86 
   8 -10   9   17.15    4.41 
 -10   8   9   19.03    4.54 
  10   8  10    9.44    3.90 
   8  10  10    2.38    2.55 
  10  -8 -10    7.03    5.32 
   8 -10 -10   -1.45    4.42 
  10  -8  10   -0.82    3.91 
   8 -10  10    5.45    3.97 
 -10   8  10   -3.30    3.24 
  10   8  11   22.20    4.81 
  10  -8  11   24.30    5.51 
   8 -10  11   31.16    6.06 
 -10   8  11   20.50    5.07 
  10  -8  12   18.72    4.46 
   8 -10  12   21.43    5.34 
 -10   8  12   14.35    4.53 
   8 -10  13  103.08    9.87 
  10  -8  13   82.22    8.57 
 -10   8  13   82.18    9.19 
  10  -8  14   -0.89    3.45 
   8 -10  14    1.34    3.81 
  -8  10  14   -1.82    2.86 
 -10   8  14    6.72    3.96 
  10  -8  15   24.77    5.13 
   8 -10  15   25.09    5.17 
  -8  10  15   16.94    4.16 
 -10   8  15   26.84    5.68 
  10  -8  16   30.94    5.03 
   8 -10  16   25.44    4.98 
  -8  10  16   24.18    4.80 
 -10   8  16   15.56    4.80 
   8 -10  17   22.11    4.39 
  10  -8  17   34.06    5.24 
  -8  10  17   27.05    4.65 
 -10   8  17   30.27    5.51 
   8 -10  18    1.78    2.21 
  10  -8  18    4.89    2.69 
  -8  10  18    2.99    2.52 
 -10   8  18    7.61    3.61 
   8 -10  19   -4.60    2.60 
  10  -8  19    3.04    2.00 
   8 -10  20   10.16    2.17 
 -10   8  20    3.42    1.91 
  10  -9   0  205.12   17.48 
   9 -10   0  205.07   17.52 
  10  -9   0  171.44   11.27 
   9 -10   0  154.88   10.26 
   9  10   0  202.80   12.00 
  10   9   0  217.88   12.57 
   9 -10  -1   76.62   11.44 
   9 -10   1   77.44   11.16 
  10  -9  -1   83.45   11.54 
  10  -9   1   80.97   11.27 
  10  -9  -1   69.59    7.44 
   9 -10   1   70.35    7.18 
  10  -9   1   83.64    8.22 
   9  10   1   85.40    7.87 
  10   9  -1   83.12    8.31 
  10   9   1   78.73    7.77 
   9  10  -1   81.32    8.12 
  10  -9  -2   65.21   10.35 
   9 -10  -2   61.49   10.17 
   9 -10   2   67.90   10.83 
  10  -9   2   70.22   10.79 
  10  -9   2   62.27    7.20 
   9 -10   2   58.15    6.58 
   9  10  -2   72.29    7.75 
   9  10   2   59.91    7.25 
  10   9  -2   68.88    7.79 
  10   9   2   60.91    7.31 
  10   9   3    0.45    2.30 
   9  10   3    3.84    2.90 
  10   9  -3    3.68    2.68 
   9  10  -3    2.01    2.68 
  10  -9   3   -4.50    3.36 
   9 -10   3   -1.31    3.21 
   9 -10  -3    1.92    4.22 
   9 -10   3    7.41    5.49 
  10  -9  -3    6.48    5.24 
  10   9  -4    2.30    3.31 
  10   9   4    0.72    2.39 
   9  10   4    2.12    2.42 
   9  10  -4   -2.51    3.09 
  10  -9   4   -3.80    3.20 
   9 -10   4    5.83    2.75 
   9 -10   4   -3.77    3.40 
  10  -9  -4   -0.84    4.50 
   9 -10  -4   -0.99    4.18 
  10   9  -5   27.17    5.41 
  10   9   5   25.79    5.11 
   9  10   5   21.93    4.87 
   9  10  -5   21.22    4.62 
  10  -9   5   28.37    5.60 
   9 -10   5   25.76    5.14 
  10  -9  -5   16.23    6.06 
   9 -10  -5   22.57    7.16 
   9  10  -6    2.50    2.68 
   9  10   6    3.50    3.11 
  10   9  -6   -0.60    2.63 
  10   9   6    0.96    2.82 
  10  -9  -6   -5.49    4.62 
   9 -10  -6    0.67    4.20 
   9 -10   6    3.22    3.38 
  10  -9   6   -0.84    2.83 
  10  -9  -7   52.53    9.83 
   9 -10  -7   43.12    8.87 
  10  -9   7   72.01    8.31 
   9 -10   7   72.31    8.06 
   9  10   7   63.02    7.45 
  10   9   7   69.89    7.81 
  10  -9  -8   92.92   12.59 
   9 -10  -8   81.72   12.21 
  10  -9   8  110.73    9.94 
   9 -10   8  121.68   10.50 
   9  10   8  119.72    9.98 
  10   9   8  114.77    9.96 
  10  -9  -9   61.13   10.98 
   9 -10  -9   66.59   10.95 
  10  -9   9   89.51    9.28 
   9 -10   9   92.91    9.38 
   9  10   9   85.77    8.69 
  10   9   9   89.32    9.01 
   9  10  10   17.46    4.58 
  10   9  10   22.16    5.29 
  10  -9  10   26.07    5.68 
   9 -10  10   13.45    4.86 
 -10   9  10   20.67    4.60 
   9  10  11    7.37    3.34 
  10   9  11   10.51    3.85 
   9 -10  11   10.61    5.02 
  10  -9  11    5.36    3.78 
 -10   9  11    7.66    3.81 
   9 -10  12   28.55    5.97 
  10  -9  12   23.28    5.46 
 -10   9  12   21.19    5.01 
  10  -9  13   -0.45    3.51 
   9 -10  13    1.90    3.48 
 -10   9  13    4.28    3.45 
  10  -9  14    5.30    3.36 
   9 -10  14    4.05    3.81 
  -9  10  14    6.31    3.42 
 -10   9  14   10.55    4.07 
   9 -10  15   88.33    8.54 
  -9  10  15   69.64    7.42 
  10  -9  15   79.11    7.94 
 -10   9  15   62.93    7.46 
  -9  10  16   71.28    6.99 
  10  -9  16   87.31    8.09 
   9 -10  16   95.47    8.43 
 -10   9  16   76.35    7.77 
 -10   9  17   55.53    6.37 
  10  -9  17   64.03    6.53 
   9 -10  17   62.12    6.48 
  -9  10  17   45.43    5.45 
   9 -10  18   24.59    3.99 
  10  -9  18   27.10    4.12 
 -10   9  18   19.36    3.86 
  10  -9  19    6.17    2.17 
   9 -10  19    7.28    2.23 
 -10   9  19   -0.08    2.16 
  10 -10   0  154.53   15.80 
  10 -10   0  140.48   10.29 
  10  10   0  167.98   11.40 
  10 -10  -1  214.03   18.40 
  10 -10   1  207.97   17.98 
  10 -10   1  176.21   11.84 
  10  10  -1  223.21   13.34 
  10  10   1  229.33   13.19 
  10 -10  -2   56.96   10.15 
  10 -10   2   58.44   10.17 
  10 -10   2   53.58    6.71 
  10  10  -2   62.26    7.27 
  10  10   2   60.55    7.52 
  10  10   3   15.61    4.38 
  10  10  -3   19.30    4.92 
  10 -10  -3   10.73    6.36 
  10 -10   3   10.12    3.60 
  10 -10  -4   57.59   10.38 
  10 -10   4   53.05    6.94 
  10  10  -4   64.08    7.87 
  10  10   4   58.75    7.47 
  10  10  -5   -3.01    3.08 
  10  10   5    5.54    3.70 
  10 -10   5    2.96    2.93 
  10 -10  -5   -0.94    5.24 
  10  10   6    7.72    3.53 
  10  10  -6   11.64    4.25 
  10 -10  -6   14.03    6.42 
  10 -10   6    5.76    3.65 
  10 -10  -7   79.38   12.03 
  10 -10   7   91.55    9.49 
  10  10   7   96.13    9.57 
  10 -10   8  167.67   12.39 
  10  10   8  166.74   11.96 
  10 -10   9  160.36   12.26 
  10  10   9  158.62   11.79 
  10 -10  10   63.16    8.12 
  10  10  10   72.38    8.04 
  10  10  11    0.22    2.76 
  10 -10  11    2.84    3.31 
  10 -10  12   -0.23    3.63 
  10 -10  13    7.66    3.64 
  10 -10  14   12.79    3.96 
 -10  10  14   10.70    3.55 
  10 -10  15   65.68    7.15 
 -10  10  15   48.15    5.86 
 -10  10  16   81.85    7.04 
  10 -10  16  107.04    8.53 
  10 -10  17   89.81    7.43 
  10 -10  18   45.04    4.93 
   0 -11   0  359.94   19.70 
   0 -11  -1  467.91   22.26 
   0 -11   1  475.45   22.84 
   0 -11  -2  113.52   11.37 
   0 -11   2  116.48   11.49 
   0 -11  -3   10.22    4.96 
   0 -11   3    8.12    3.99 
   0 -11  -4   19.00    6.07 
   0 -11  -5    9.97    5.02 
   0 -11  -6   79.74   10.05 
  11   0   6   83.53    7.94 
   0 -11  -7   70.19    9.80 
  11   0   7   82.17    7.98 
   0  11   7   69.44    6.89 
   0 -11  -8  195.16   15.92 
  11   0   8  183.62   11.83 
   0 -11  -9  102.38   12.10 
  11   0   9   98.91    8.83 
   0 -11 -10   63.38    9.95 
  11   0  10   59.78    6.92 
  11   0  10   60.94    6.39 
 -11   0  11    0.20    5.27 
  11   0  11    8.37    3.01 
 -11   0  12   -3.77    4.39 
 -11   0  12   -4.58    5.06 
 -11   0  13   -5.37    5.09 
 -11   0  14    2.42    4.45 
 -11   0  15  107.80   11.08 
 -11   0  16  187.24   13.80 
 -11   0  17  239.83   14.98 
 -11   0  18   94.04    9.49 
 -11   0  19   15.97    4.54 
 -11   0  20   -0.71    3.03 
   0 -11  21    3.94    1.94 
 -11   0  21    4.13    2.48 
   1 -11   0  520.95   23.64 
  -1 -11   0  513.83   23.51 
  11  -1  -1  267.28   15.65 
   1 -11  -1  249.44   16.58 
   1 -11   1  247.48   16.70 
  -1 -11  -1  258.37   16.75 
  -1 -11   1  254.24   16.77 
   1 -11  -2   78.79    9.81 
  -1 -11  -2   76.15    9.50 
   1 -11   2   71.69    9.44 
  -1 -11   2   59.07    8.14 
   1 -11  -3   13.05    5.47 
  -1 -11  -3   11.35    4.76 
   1 -11   3    7.99    4.11 
   1 -11  -4   -1.68    4.29 
  -1 -11  -4    0.37    3.81 
   1 -11  -5   -3.83    4.18 
  -1 -11  -5    4.68    4.31 
   1 -11  -6   16.50    5.50 
  -1 -11  -6   22.45    6.52 
  11  -1   6   18.21    4.09 
   1 -11  -7  116.66   12.49 
  -1 -11  -7  134.05   12.82 
  11  -1   7  121.20    9.52 
  11   1   7  104.78    8.91 
   1  11   7   94.94    7.93 
   1 -11  -8   76.35   10.28 
  -1 -11  -8   87.26   10.69 
  11   1   8   80.51    8.00 
  11  -1   8   88.45    8.37 
  11   1   8   81.01    7.32 
   1 -11  -9  129.50   14.19 
  11   1   9  117.68    9.53 
  11  -1   9  129.29   10.02 
  11   1   9  123.89    9.21 
  11   1  10   30.39    4.83 
  11  -1  10   27.32    4.95 
   1 -11 -10   27.09    7.83 
 -11   1  10   26.18    8.52 
  11  -1  11    0.50    2.15 
  11   1  11    2.17    2.42 
 -11   1  11    3.19    5.01 
 -11  -1  11    1.90    5.59 
  11  -1  11    4.23    2.70 
 -11  -1  12    5.53    5.84 
 -11   1  12   10.57    6.33 
  11  -1  12    2.97    2.67 
 -11   1  12   -0.62    4.40 
 -11  -1  12    1.41    3.62 
 -11   1  13    4.13    3.89 
 -11  -1  13    1.69    3.89 
 -11   1  14    5.45    4.95 
 -11  -1  14    1.70    4.03 
 -11  -1  15   57.64    8.28 
 -11   1  15   50.56    8.40 
 -11  -1  16  181.69   13.41 
 -11   1  16  165.22   13.39 
 -11  -1  17  164.80   12.40 
 -11   1  17  160.46   12.39 
 -11   1  18   90.42    9.23 
 -11  -1  18   81.89    8.56 
 -11  -1  19    6.37    3.54 
 -11   1  19    3.89    3.52 
   1 -11  20    1.57    2.19 
 -11  -1  20   -0.40    2.74 
 -11   1  20   -0.58    2.96 
   1 -11  21    2.70    1.67 
  -1 -11  21    3.63    1.90 
 -11   1  21    0.65    2.24 
 -11  -1  21    1.81    2.48 
 -11   1  22    3.44    1.93 
  11  -2   0  297.77   15.85 
   2 -11   0  287.57   17.86 
  -2 -11   0  277.20   17.51 
  11  -2  -1  134.15   11.39 
   2 -11  -1  118.56   11.97 
   2 -11   1  116.35   11.86 
  -2 -11  -1  121.84   11.95 
   2 -11  -2   29.08    6.27 
   2 -11   2   24.24    6.29 
  -2 -11  -2   17.22    5.19 
  11  -2  -2   16.39    4.29 
   2 -11  -3   24.92    6.29 
  -2 -11  -3   20.33    5.72 
   2 -11   3   14.43    4.93 
   2 -11  -4   52.58    8.29 
  -2 -11  -4   50.02    7.91 
   2 -11   4   46.11    7.83 
  11   2   5   13.84    3.29 
  11  -2   5   22.02    4.61 
   2 -11  -5   13.38    5.17 
  -2 -11  -5   19.63    6.07 
  11   2   6   -1.32    2.43 
   2  11   6    0.70    2.14 
  11  -2   6    2.64    2.71 
   2 -11  -6    5.34    4.93 
  -2 -11  -6   -3.67    4.00 
   2  11   7   13.31    3.84 
  11   2   7   13.11    3.47 
   2 -11  -7   17.81    5.70 
  -2 -11  -7   11.74    4.52 
  11   2   7   10.47    3.24 
  11  -2   7   16.50    4.20 
   2 -11  -8   91.65   11.70 
  11  -2   8   79.49    7.81 
  11   2   8   77.00    7.52 
   2  11   8   63.48    6.71 
  11   2   9   20.54    4.31 
  11  -2   9   20.58    4.93 
   2 -11  -9   24.46    7.05 
 -11   2   9   24.55    7.25 
  11   2  10   19.52    4.26 
  11  -2  10   16.24    4.02 
   2 -11 -10   18.63    6.22 
 -11   2  10   11.44    5.59 
  11   2  11    4.44    2.46 
   2 -11 -11    1.21    4.44 
 -11   2  11    8.40    5.59 
  11  -2  11    6.47    3.46 
 -11   2  12   22.73    7.08 
 -11  -2  12   41.95   11.26 
  11  -2  12   28.49    5.84 
 -11   2  12   26.12    5.92 
 -11  -2  12   29.42    5.85 
  11  -2  13   65.70    7.65 
 -11   2  13   49.09    8.04 
 -11  -2  13   52.21    7.63 
  11  -2  14    0.12    2.56 
 -11   2  14    1.09    4.54 
 -11  -2  14    2.11    3.65 
 -11  -2  15    7.12    4.20 
 -11   2  15    7.13    5.07 
 -11  -2  16   71.40    8.72 
 -11   2  16   73.44    9.19 
 -11   2  17   80.05    9.57 
 -11  -2  17   71.92    8.23 
 -11   2  18   37.87    6.94 
 -11  -2  18   27.04    5.33 
 -11  -2  19   -5.17    3.56 
 -11   2  19    0.90    3.70 
   2 -11  20    9.98    3.02 
 -11  -2  20    6.15    2.85 
 -11   2  20    7.13    3.51 
   2 -11  21   13.74    2.59 
 -11  -2  21   12.77    2.90 
 -11   2  21   16.84    3.78 
 -11   2  22   -0.05    1.86 
  11  -3   0   67.51    8.18 
   3 -11   0   67.16    9.68 
   3 -11  -1   54.40    8.94 
   3 -11   1   43.85    8.02 
  -3 -11  -1   39.78    7.37 
  11  -3  -1   41.87    6.92 
   3 -11  -2    9.31    4.73 
   3 -11   2    4.44    4.72 
  -3 -11  -2    1.97    4.20 
  11  -3  -2    9.26    4.10 
   3 -11  -3  102.65   11.41 
   3 -11   3  107.18   11.85 
  -3 -11  -3  104.82   10.94 
  11  -3  -3  105.51   10.95 
  11  -3  -4  199.86   15.31 
   3 -11  -4  210.13   16.14 
  -3 -11  -4  195.92   15.19 
   3 -11   4  201.98   16.05 
  11  -3   4  214.28   12.30 
  11   3   4  183.80   10.77 
   3  11   4  197.04   11.47 
   3 -11  -5  140.40   13.71 
  -3 -11  -5  140.63   12.74 
  11  -3   5  144.41   10.35 
  11   3   5  139.25    9.53 
   3  11   5  146.98   10.00 
   3  11  -6   36.71    5.15 
  11   3   6   33.70    5.08 
   3  11   6   35.00    5.25 
  11  -3   6   40.31    5.98 
   3 -11  -6   29.67    6.98 
  -3 -11  -6   30.55    5.68 
  11   3   7   -0.88    2.10 
   3  11   7   -0.32    2.39 
  11  -3   7   -0.82    2.50 
   3 -11  -7   -5.09    5.18 
 -11   3   7    3.52    4.12 
  11   3   8    5.93    3.10 
   3  11   8    5.46    2.81 
  11  -3   8    8.08    3.51 
   3 -11  -8   11.61    6.06 
 -11   3   8    4.56    4.60 
  11   3   9    7.24    3.29 
  11  -3   9   15.40    4.29 
   3 -11  -9   12.48    6.26 
 -11   3   9   17.66    6.35 
  11   3  10    1.27    2.37 
  11  -3  10    7.30    3.77 
   3 -11 -10   11.37    5.47 
  11   3  11   21.30    4.45 
   3 -11 -11   20.43    7.13 
  11  -3  11   22.52    5.18 
   3 -11 -12   76.54   11.86 
 -11  -3  12   69.20   12.87 
  11  -3  12   89.81    9.13 
 -11  -3  12   97.28    9.90 
 -11   3  12   99.23   10.50 
 -11   3  13  118.37   11.38 
 -11  -3  13  109.02   10.31 
  11  -3  13  117.40    9.87 
  11  -3  14   61.69    7.38 
 -11   3  14   68.79    9.25 
 -11  -3  14   54.96    7.61 
  11  -3  15    5.43    3.23 
 -11  -3  15   -2.79    4.03 
 -11   3  15    1.58    4.46 
 -11  -3  16    3.39    3.80 
 -11   3  16    0.06    4.46 
 -11  -3  17   11.80    4.23 
 -11   3  17   25.48    6.60 
 -11  -3  18   -2.86    3.11 
 -11   3  18   -0.37    3.81 
   3 -11  19   13.14    3.61 
 -11  -3  19    6.15    3.02 
 -11   3  19    3.29    3.38 
   3 -11  20   36.18    4.45 
 -11  -3  20   27.85    4.11 
   3 -11  21   26.22    3.28 
 -11   3  21   32.87    4.55 
   4 -11   0    5.10    5.09 
  11  -4   0    8.48    3.99 
   4 -11  -1   -4.76    5.65 
   4 -11   1    6.10    4.56 
  11  -4  -1    1.02    3.59 
   4 -11  -2   51.46    8.23 
   4 -11   2   52.24    8.80 
  11  -4  -2   52.26    7.96 
  11  -4   2   54.36    6.47 
   4  11   2   50.37    6.11 
  11   4   2   53.22    5.98 
  11  -4  -3  206.43   15.40 
   4 -11  -3  206.57   16.11 
   4 -11   3  212.56   16.59 
  11  -4   3  213.46   12.38 
   4  11   3  207.43   11.64 
  11   4   3  201.62   11.39 
  11  -4  -4  345.98   20.30 
   4 -11  -4  370.02   21.84 
   4 -11   4  363.16   21.77 
  -4 -11  -4  344.70   19.78 
  11  -4   4  371.47   16.25 
   4  11   4  360.45   15.50 
  11   4   4  371.00   15.49 
   4  11  -4  332.71   15.16 
  11  -4  -5  304.21   19.43 
   4 -11  -5  338.48   20.75 
  -4 -11  -5  278.10   17.82 
   4 -11   5  288.83   19.92 
  11  -4   5  326.51   15.40 
   4  11   5  299.03   14.40 
  11   4   5  313.65   14.49 
   4  11  -5  276.30   13.88 
  11  -4  -6   85.81   10.59 
   4 -11  -6   84.26   11.31 
  11  -4   6  100.33    8.70 
   4  11   6   82.10    7.69 
  11   4   6   83.57    7.81 
   4  11  -6   71.78    7.12 
   4  11   7   13.02    3.68 
   4  11  -7   12.64    3.59 
  11   4   7   16.34    4.18 
  11  -4   7   14.58    3.88 
   4 -11  -7   16.53    6.23 
  11  -4  -7    5.67    3.93 
   4  11   8    0.52    2.47 
  11   4   8    1.56    2.72 
  11  -4   8   -2.70    2.99 
   4 -11  -8    1.85    4.75 
  11  -4  -8    3.03    3.77 
  11   4   9    5.40    3.43 
   4  11   9    1.68    2.46 
  11  -4   9   -6.04    3.51 
   4 -11  -9    1.45    5.08 
  11  -4  -9   -8.32    5.47 
  11   4  10   19.56    4.52 
   4 -11 -10   17.31    6.77 
  11  -4 -10   16.53    6.26 
  11  -4  10   14.55    4.28 
  11  -4 -11   98.96   14.03 
   4 -11 -11   80.69   12.03 
  11  -4  11   97.77    9.47 
  11   4  11   97.63    8.69 
 -11   4  11  104.26   10.31 
  11  -4 -12  104.97   14.36 
   4 -11 -12   78.79   11.85 
 -11  -4  12  117.12   16.78 
  11  -4  12  137.40   11.20 
 -11   4  12  128.31   11.57 
 -11  -4  12  113.26   10.34 
 -11  -4  13  161.31   12.29 
  11  -4  13  193.08   12.59 
 -11   4  13  189.93   14.05 
  11  -4  14  111.88    9.75 
 -11   4  14  119.42   11.53 
 -11  -4  14   95.62    9.73 
  11  -4  15   30.52    5.45 
 -11  -4  15   22.86    5.55 
 -11   4  15   25.89    6.88 
  11  -4  16    1.52    2.33 
 -11  -4  16    3.56    3.75 
 -11   4  16    5.74    4.32 
 -11  -4  17   -3.80    3.39 
 -11   4  17   -4.75    4.50 
   4 -11  18    1.23    2.71 
 -11  -4  18   -0.97    2.78 
 -11   4  18   -0.95    3.99 
   4 -11  19   41.14    5.16 
 -11  -4  19   26.38    4.23 
 -11   4  19   30.28    5.48 
   4 -11  20   68.01    5.88 
 -11   4  20   60.54    6.40 
 -11   4  21   48.52    5.12 
   5  11   0    4.13    2.45 
  11   5   0    3.29    1.99 
  11  -5   0    1.04    2.31 
   5 -11   0    4.15    4.94 
  11  -5   0    6.11    3.71 
   5  11   1   16.20    3.70 
  11   5  -1   17.21    3.63 
  11   5   1   21.41    4.41 
   5  11  -1   18.10    3.99 
   5 -11  -1   17.21    5.60 
   5 -11   1   20.02    6.48 
  11  -5  -1   28.01    7.29 
  11  -5  -1   13.78    3.86 
  11  -5   1   14.28    3.85 
   5  11  -2   40.29    5.54 
   5 -11  -2   38.62    7.71 
   5 -11   2   48.13    8.30 
  11  -5  -2   49.92    8.04 
  11  -5  -2   43.36    5.97 
  11  -5   2   40.92    5.91 
   5  11   2   46.98    5.92 
  11   5  -2   45.23    5.85 
  11   5   2   46.78    5.94 
  11  -5  -3  222.53   16.43 
   5 -11  -3  218.10   17.01 
   5 -11   3  231.05   17.52 
  11  -5   3  229.80   13.12 
   5  11  -3  218.15   12.76 
   5  11   3  242.19   12.70 
  11   5  -3  216.14   12.32 
  11   5   3  239.89   12.85 
  11  -5  -4  331.58   20.07 
   5 -11  -4  345.62   21.29 
   5 -11   4  319.92   20.97 
  11  -5   4  349.18   16.08 
   5  11   4  332.09   15.13 
  11   5  -4  315.15   14.88 
  11   5   4  360.63   15.54 
   5  11  -4  324.33   15.40 
  11  -5  -5  307.76   19.68 
   5 -11  -5  327.56   21.00 
   5 -11   5  294.35   20.55 
  11  -5   5  313.05   15.51 
   5  11   5  326.59   14.92 
   5  11  -5  303.11   14.86 
  11   5   5  345.88   15.41 
  11  -5  -6  102.28   11.61 
   5 -11  -6  101.26   12.14 
  11  -5   6  103.45    9.14 
   5  11   6  106.74    8.93 
  11   5   6  108.43    8.98 
   5  11  -6   93.39    8.39 
   5  11   7    3.48    2.65 
  11   5   7    5.71    2.76 
  11  -5   7    3.62    2.61 
   5 -11  -7    4.39    4.29 
  11  -5  -7   -3.14    5.41 
  11   5   8   -0.49    2.44 
   5  11   8    0.06    2.26 
  11  -5   8   -5.76    3.78 
   5 -11  -8   -0.81    4.61 
  11  -5  -8   -5.51    6.09 
   5  11   9    4.55    2.72 
  11   5   9    4.22    2.99 
  11  -5   9   -3.04    3.15 
  11  -5  -9    0.12    4.89 
   5 -11  -9   -1.59    4.16 
  11   5  10   15.08    3.93 
  11  -5 -10   11.56    5.58 
   5 -11 -10    7.47    4.67 
  11  -5  10    5.07    2.98 
  11  -5 -11  153.48   17.04 
   5 -11 -11  123.31   14.63 
  11  -5  11  158.38   11.64 
  11   5  11  164.85   11.33 
 -11   5  11  152.97   12.63 
 -11  -5  11  145.70   11.22 
 -11   5  12  182.13   13.61 
  11  -5  12  177.02   12.42 
 -11  -5  12  149.14   11.36 
  11  -5  13  112.08   10.03 
 -11   5  13  111.00   11.01 
 -11  -5  13  104.40    9.61 
 -11  -5  14   92.90    8.96 
  11  -5  14  108.06    9.84 
 -11   5  14  103.98   10.60 
  11  -5  15   55.26    6.99 
 -11  -5  15   47.31    6.45 
 -11   5  15   53.96    8.30 
   5 -11  16    4.95    4.19 
  11  -5  16   -0.23    2.38 
 -11   5  16   -1.09    4.11 
 -11  -5  16   -2.86    2.94 
   5 -11  17   -0.20    2.81 
  11  -5  17   -0.08    2.35 
 -11  -5  17   -2.84    2.90 
 -11   5  17   -0.28    4.29 
   5 -11  18    5.54    3.38 
 -11   5  18    6.52    3.51 
   5 -11  19   26.53    4.27 
 -11   5  19   27.88    5.09 
 -11   5  20   72.13    6.68 
   5 -11  20   65.94    5.53 
 -11   5  21   75.15    5.83 
   6  11   0   -0.66    2.77 
  11   6   0    3.21    2.70 
  11  -6   0    2.70    2.72 
   6 -11   0   -4.36    5.97 
  11  -6   0    4.41    4.40 
  11   6  -1    4.10    2.78 
   6  11   1    2.15    2.11 
   6  11  -1   -0.93    2.66 
  11   6   1    2.30    2.49 
   6 -11  -1   -0.43    4.66 
   6 -11   1   12.18    6.13 
  11  -6  -1    2.97    4.73 
  11  -6  -1    0.13    2.18 
  11  -6   1    1.80    2.70 
   6  11  -2   44.86    5.96 
   6 -11  -2   45.61    8.41 
   6 -11   2   43.11    7.98 
  11  -6  -2   44.35    8.25 
  11  -6  -2   33.02    5.58 
  11  -6   2   51.33    6.78 
   6  11   2   46.82    5.84 
  11   6  -2   48.34    6.20 
  11   6   2   44.10    6.07 
  11  -6  -3   87.35   10.98 
   6 -11  -3   85.81   11.18 
   6 -11   3   81.91   10.97 
  11  -6  -3   82.58    8.31 
   6 -11   3   82.14    7.24 
  11  -6   3   98.47    8.99 
   6  11  -3   96.13    8.63 
   6  11   3   94.00    8.18 
  11   6  -3   91.91    8.56 
  11   6   3  100.10    8.57 
  11  -6  -4  222.94   17.13 
   6 -11  -4  221.19   17.63 
   6 -11   4  214.37   17.75 
  11  -6   4  246.63   13.74 
   6 -11   4  205.97   11.69 
   6  11  -4  231.21   13.08 
   6  11   4  226.37   12.95 
  11   6  -4  229.75   13.09 
  11   6   4  246.40   13.22 
  11  -6  -5  145.27   14.00 
   6 -11  -5  162.85   15.50 
   6 -11   5  146.04   14.76 
  11  -6   5  159.57   11.41 
   6  11   5  158.25   10.92 
  11   6  -5  148.61   10.63 
  11   6   5  171.09   11.24 
   6  11  -5  155.58   11.08 
   6  11   6   40.43    5.90 
   6  11  -6   29.42    5.14 
   6 -11  -6   31.87    8.01 
  11  -6  -6   41.55    8.76 
  11  -6   6   36.13    5.66 
  11   6   6   44.85    6.45 
  11   6   7    0.17    2.65 
   6  11   7   -2.40    2.43 
  11  -6   7   -1.69    3.22 
   6 -11  -7    7.11    5.74 
  11  -6  -7   -3.43    5.22 
  11   6   8    2.15    2.71 
   6  11   8    3.12    2.48 
  11  -6   8   -2.05    3.29 
  11  -6  -8   -3.14    4.09 
   6 -11  -8    1.07    4.34 
   6  11   9   12.15    4.10 
  11   6   9    9.90    3.55 
  11  -6  -9   15.14    6.50 
   6 -11  -9    7.84    5.78 
  11  -6   9    7.85    3.61 
  11   6  10   26.57    5.23 
   6  11  10   29.81    5.36 
  11  -6 -10   19.57    7.18 
   6 -11 -10   35.55    8.90 
  11  -6  10   27.86    5.43 
 -11   6  10   16.82    4.89 
  11  -6  11   59.29    7.34 
  11   6  11   65.22    7.51 
 -11   6  11   61.79    8.13 
 -11  -6  11   40.65    6.04 
  11  -6  12  154.17   11.96 
 -11  -6  12  123.73   10.01 
 -11   6  12  159.24   12.70 
 -11  -6  13   54.56    6.70 
  11  -6  13   83.97    8.60 
   6 -11  13   93.08    9.27 
 -11   6  13   69.38    8.64 
  11  -6  14   47.98    6.91 
   6 -11  14   74.07    8.34 
 -11   6  14   63.64    8.39 
   6 -11  15    6.45    4.00 
  11  -6  15    8.82    3.93 
 -11   6  15    4.57    4.06 
   6 -11  16    6.19    3.74 
  11  -6  16    1.41    3.26 
 -11   6  16   -3.92    4.28 
   6 -11  17    5.90    3.24 
  11  -6  17    9.71    3.21 
 -11   6  17    4.21    3.67 
   6 -11  18    4.01    2.50 
  11  -6  18    3.90    2.15 
 -11   6  18    9.73    4.37 
   6 -11  19   18.94    3.69 
 -11   6  19   12.21    3.72 
   6 -11  20   28.98    3.62 
 -11   6  20   34.79    4.60 
  11   7   0   45.89    6.01 
  11  -7   0   51.43    9.02 
   7 -11   0   43.83    8.39 
  11  -7   0   45.35    6.43 
   7  11   0   50.79    6.32 
   7  11   1    6.83    3.16 
   7  11  -1    1.05    2.34 
  11   7   1    3.83    2.67 
  11   7  -1    2.02    2.55 
  11  -7  -1    2.70    2.35 
  11  -7   1    2.13    2.80 
   7 -11  -1   -0.57    4.26 
   7 -11   1    3.69    4.62 
  11  -7  -1    8.87    5.72 
   7  11   2   -2.07    2.35 
  11   7  -2   -2.75    2.73 
   7  11  -2   -0.22    2.40 
  11   7   2   -1.65    3.00 
  11  -7  -2   -0.10    2.71 
   7 -11   2    0.06    2.04 
  11  -7   2   -0.32    2.71 
   7 -11  -2    0.16    4.28 
   7 -11   2   -8.71    5.65 
  11  -7  -2    4.95    4.32 
  11   7   3   29.92    5.42 
   7  11   3   38.19    5.45 
   7  11  -3   31.57    5.41 
  11   7  -3   34.32    5.66 
   7 -11  -3   27.62    6.79 
   7 -11   3   29.51    7.01 
  11  -7  -3   32.15    7.59 
  11  -7  -3   22.40    4.68 
   7 -11   3   26.92    4.53 
  11  -7   3   38.12    6.05 
   7 -11  -4   62.91   10.39 
   7 -11   4   61.56   10.43 
  11  -7  -4   63.84    9.94 
  11  -7   4   84.57    8.63 
   7 -11   4   70.82    7.29 
   7  11  -4   66.02    7.72 
   7  11   4   57.09    6.95 
  11   7  -4   63.26    7.17 
  11   7   4   67.09    7.30 
   7  11   5   24.09    4.97 
  11   7   5   28.43    5.21 
  11   7  -5   28.59    5.15 
   7  11  -5   32.84    5.64 
  11  -7   5   30.49    5.59 
   7 -11   5   32.27    5.41 
   7 -11  -5   29.92    7.93 
   7 -11   5   23.61    6.77 
  11  -7  -5   31.62    7.44 
   7  11  -6    0.02    2.81 
  11   7   6   -2.81    3.44 
   7  11   6    0.18    2.47 
  11  -7   6   -2.73    3.62 
   7 -11   6    1.55    3.09 
   7 -11  -6    3.83    4.95 
  11  -7  -6    0.46    3.96 
  11   7   7   -1.07    2.61 
   7  11   7   -0.39    2.72 
  11  -7  -7   -2.94    3.73 
   7 -11  -7    2.89    5.11 
  11  -7   7   -1.48    3.29 
   7 -11   7    0.02    2.70 
   7  11   8   50.19    6.68 
  11  -7  -8   47.51    9.49 
   7 -11  -8   44.03    9.22 
  11  -7   8   55.43    7.25 
   7 -11   8   66.83    7.72 
  11   7   8   59.38    7.28 
  11   7   9   20.88    5.09 
   7  11   9   16.21    4.24 
  11  -7  -9   12.47    5.53 
   7 -11  -9   15.53    6.18 
  11  -7   9   17.73    4.59 
   7 -11   9   18.80    4.79 
 -11   7   9    9.19    3.64 
  11   7  10    7.21    3.51 
   7  11  10    2.05    2.86 
  11  -7 -10    6.90    4.99 
   7 -11 -10    0.62    4.38 
  11  -7  10   -2.74    4.02 
   7 -11  10    5.20    3.84 
 -11   7  10   -2.09    3.83 
  11   7  11   47.99    6.55 
  11  -7  11   37.54    6.44 
   7 -11  11   35.13    6.35 
 -11   7  11   39.29    6.72 
  11  -7  12   32.47    6.07 
   7 -11  12   39.30    6.84 
 -11   7  12   35.55    6.79 
 -11   7  13   98.46   10.20 
  11  -7  13  104.25    9.50 
   7 -11  13  124.06   10.50 
  11  -7  14   -0.31    2.83 
   7 -11  14    3.65    4.07 
 -11   7  14   -1.08    3.47 
   7 -11  15   14.90    4.63 
  11  -7  15    9.40    3.78 
 -11   7  15    5.86    4.09 
   7 -11  16   37.44    5.82 
  11  -7  16   20.23    4.56 
 -11   7  16   26.66    5.57 
   7 -11  17    4.73    3.07 
  11  -7  17    6.69    3.08 
 -11   7  17    0.18    3.02 
   7 -11  18    7.30    2.76 
  11  -7  18   11.13    3.10 
 -11   7  18    6.38    3.46 
   7 -11  19    0.25    2.02 
 -11   7  19    4.88    2.69 
   7 -11  20   10.78    2.95 
 -11   7  20    9.83    2.82 
  11  -8   0   55.69    9.27 
   8 -11   0   60.04   10.07 
  11  -8   0   67.67    7.72 
   8  11   0   64.67    7.56 
  11   8   0   72.96    7.68 
  11  -8  -1  105.48   13.12 
  11  -8   1   88.37   11.29 
   8 -11  -1   91.82   12.56 
   8 -11   1  113.81   13.37 
  11  -8   1   92.87    8.97 
   8 -11   1   63.39    6.64 
  11  -8  -1   84.24    8.54 
   8  11  -1   97.13    8.70 
   8  11   1  102.37    9.32 
  11   8  -1   97.64    8.93 
  11   8   1   96.24    8.59 
  11   8  -2   25.71    4.91 
   8  11   2   21.72    4.63 
  11   8   2   13.27    3.79 
   8  11  -2   13.39    3.74 
   8 -11   2   15.34    3.65 
  11  -8  -2   18.43    4.36 
  11  -8   2   19.19    4.83 
   8 -11  -2    9.80    5.85 
   8 -11   2   24.38    7.00 
  11  -8  -2   18.67    6.60 
   8  11   3    7.41    3.28 
  11   8  -3    4.01    2.69 
   8  11  -3   -4.24    3.30 
  11   8   3    1.96    2.67 
   8 -11   3   -3.15    3.21 
  11  -8   3    4.78    3.24 
   8 -11  -3   -4.05    4.37 
   8 -11   3   -5.52    5.00 
  11  -8  -3    4.68    4.78 
  11   8  -4    0.73    2.68 
   8  11  -4    0.81    2.57 
  11   8   4    0.21    2.66 
   8  11   4    1.47    2.86 
  11  -8   4    2.64    2.96 
   8 -11   4    1.87    2.90 
   8 -11  -4   -4.07    4.84 
   8 -11   4    3.16    4.48 
  11  -8  -4    4.79    5.04 
  11   8   5    8.73    3.46 
  11   8  -5   13.78    4.63 
   8  11  -5   13.41    4.23 
   8  11   5    9.38    3.77 
  11  -8   5   10.81    3.85 
   8 -11   5   10.69    3.84 
   8 -11  -5   12.33    6.27 
   8 -11   5    6.17    3.97 
  11  -8  -5   12.72    6.09 
   8  11   6    2.27    2.84 
   8  11  -6    7.06    3.37 
  11   8   6   -0.18    2.94 
  11   8  -6    7.78    3.28 
   8 -11  -6    4.60    5.25 
  11  -8  -6    5.55    5.15 
  11  -8   6    5.94    3.41 
   8 -11   6    8.68    4.00 
   8  11   7   53.27    6.82 
  11  -8  -7   60.86   10.34 
   8 -11  -7   52.07    9.39 
  11  -8   7   61.17    7.77 
   8 -11   7   56.94    7.35 
  11   8   7   58.34    7.19 
  11  -8  -8   81.85   11.96 
   8 -11  -8   92.70   12.95 
  11  -8   8   97.59    9.73 
   8 -11   8  102.31    9.61 
   8  11   8   86.65    9.06 
 -11   8   8   76.17    8.59 
  11   8   8   89.48    8.89 
  11  -8  -9   61.12   10.93 
   8 -11  -9   49.80    9.85 
  11  -8   9   77.06    8.51 
   8 -11   9   81.91    8.79 
 -11   8   9   64.08    8.02 
   8  11   9   72.00    8.22 
  11   8   9   70.28    8.09 
   8  11  10   15.64    4.23 
  11   8  10   24.28    5.41 
  11  -8  10   11.14    4.18 
   8 -11  10   21.31    5.32 
 -11   8  10   14.89    4.68 
  11   8  11    1.02    2.82 
  11  -8  11   -4.58    4.29 
   8 -11  11    3.95    4.26 
 -11   8  11    3.01    3.44 
  11  -8  12   39.21    6.25 
   8 -11  12   45.50    6.99 
 -11   8  12   31.39    6.16 
  11  -8  13    5.73    3.91 
   8 -11  13    6.59    3.95 
 -11   8  13    5.63    3.74 
  11  -8  14    5.00    3.37 
   8 -11  14   -4.41    3.53 
 -11   8  14    2.27    3.27 
  11  -8  15   62.79    7.34 
   8 -11  15   79.53    8.15 
 -11   8  15   53.44    7.17 
   8 -11  16   58.09    6.86 
  11  -8  16   55.12    6.66 
 -11   8  16   42.02    6.07 
  11  -8  17   51.09    6.03 
   8 -11  17   57.15    6.29 
 -11   8  17   39.99    5.80 
   8 -11  18   15.56    3.53 
  11  -8  18    8.47    2.62 
 -11   8  18    7.43    3.12 
   8 -11  19    4.22    2.17 
 -11   8  19   10.47    2.87 
  11  -9   0  193.65   17.48 
   9 -11   0  179.68   17.08 
  11  -9   0  196.45   12.64 
   9  11   0  210.66   13.22 
  11   9   0  228.46   13.59 
  11  -9  -1   99.33   12.72 
   9 -11  -1   98.08   12.90 
   9 -11   1  103.78   13.32 
  11  -9  -1  108.77    9.51 
  11  -9   1  113.56    9.87 
   9 -11   1   97.16    8.47 
   9  11  -1  127.87   10.16 
   9  11   1  129.12   10.28 
  11   9  -1  127.48   10.25 
  11   9   1  124.86   10.14 
  11  -9  -2   51.89    9.32 
   9 -11  -2   58.82   10.45 
   9 -11   2   65.45   10.84 
  11  -9   2   56.08    7.27 
   9 -11   2   52.47    6.59 
  11  -9  -2   49.41    6.71 
   9  11  -2   63.20    7.38 
   9  11   2   71.70    7.73 
  11   9  -2   64.28    7.52 
  11   9   2   60.75    7.41 
  11   9  -3   12.92    4.48 
  11   9   3    8.60    3.30 
   9  11  -3   12.05    4.16 
   9  11   3   15.90    4.27 
   9 -11  -3   10.77    6.01 
   9 -11   3    7.13    4.35 
  11  -9  -3   13.71    6.18 
   9 -11   3    9.98    3.47 
  11  -9   3   13.85    4.34 
  11   9  -4   47.05    6.93 
   9  11  -4   44.50    6.79 
  11   9   4   41.24    6.58 
   9 -11  -4   33.90    8.71 
  11  -9  -4   42.30    8.87 
   9 -11   4   48.83    6.70 
  11  -9   4   39.83    6.37 
   9  11   4   49.14    7.15 
   9  11  -5    6.13    3.31 
   9  11   5    8.21    3.72 
  11   9   5    6.68    3.22 
  11   9  -5    9.15    3.95 
  11  -9   5   -0.01    3.88 
   9 -11   5    5.84    3.24 
   9 -11  -5    9.37    5.28 
  11  -9  -5   -0.94    4.72 
  11   9   6    9.41    3.79 
  11   9  -6    5.19    3.19 
   9  11  -6    5.17    3.63 
   9  11   6    6.80    4.02 
   9 -11  -6    5.40    4.63 
  11  -9  -6   10.31    6.10 
  11  -9   6    4.91    3.83 
   9 -11   6   10.13    3.87 
  11  -9  -7   73.02   11.34 
   9 -11  -7   59.96   10.45 
  11  -9   7   78.39    8.92 
   9 -11   7   81.42    8.70 
   9  11   7   81.91    8.71 
  11   9   7   81.04    8.62 
  11  -9   8  138.41   11.65 
   9 -11   8  147.56   11.79 
   9  11   8  153.55   11.68 
  11   9   8  155.21   11.55 
 -11   9   9  116.49   10.04 
  11  -9   9  156.76   12.05 
   9 -11   9  159.46   12.07 
   9  11   9  150.16   11.81 
  11   9   9  157.64   11.72 
  11  -9  10   52.71    7.26 
   9 -11  10   47.12    6.88 
   9  11  10   63.07    7.69 
  11   9  10   60.54    7.46 
 -11   9  10   39.57    6.15 
  11   9  11    4.25    3.04 
   9  11  11    6.46    3.25 
  11  -9  11   -2.09    4.40 
   9 -11  11   -6.55    4.76 
 -11   9  11    0.67    2.80 
  11  -9  12   -0.73    3.82 
   9 -11  12    0.14    3.58 
 -11   9  12   -4.33    3.63 
  11  -9  13   -5.42    4.16 
   9 -11  13    4.98    4.03 
 -11   9  13   -1.00    3.27 
  11  -9  14    4.40    3.16 
   9 -11  14    8.51    3.93 
 -11   9  14    6.74    3.45 
  11  -9  15   59.16    6.94 
   9 -11  15   55.52    6.74 
 -11   9  15   44.61    6.31 
  11  -9  16  103.13    8.33 
   9 -11  16  101.64    8.35 
 -11   9  16   88.26    7.79 
 -11   9  17   61.69    6.11 
  11  -9  17   73.18    6.73 
   9 -11  17   70.26    6.61 
  11  -9  18   35.10    4.42 
 -11   9  18   26.73    3.78 
   9 -11  19    4.91    1.88 
  11 -10   0  148.87   16.21 
  10 -11   0  165.70   16.77 
  11 -10   0  165.51   11.69 
  10  11   0  205.71   13.39 
  11  10   0  202.61   13.21 
  11 -10  -1  107.72   13.81 
  10 -11  -1   95.53   13.67 
  10 -11   1  114.14   14.06 
  10 -11   1  108.48    9.20 
  11 -10   1  128.12   10.84 
  11 -10  -1  101.90    9.11 
  10  11  -1  138.25   10.93 
  10  11   1  137.84   11.29 
  11  10  -1  144.80   11.47 
  11  10   1  138.33   11.34 
  11  10   2   39.44    6.15 
  11  10  -2   41.95    6.76 
  10  11   2   41.96    6.24 
  10  11  -2   49.93    7.22 
  11 -10  -2   25.88    7.29 
  10 -11  -2   29.00    7.73 
  10 -11   2   28.02    7.26 
  11 -10   2   43.23    6.60 
  10 -11   2   35.41    5.59 
  11 -10  -3   91.63   12.91 
  10 -11  -3  106.45   13.87 
  11 -10   3  115.37   10.20 
  10 -11   3  110.24    9.70 
  10  11  -3  126.90   10.61 
  11  10  -3  129.23   10.55 
  10  11   3  124.14   10.00 
  11  10   3  123.84   10.11 
  10  11  -4    2.93    3.02 
  11  10  -4    6.26    3.61 
  11  10   4   -0.52    2.83 
  10  11   4    5.41    3.46 
  10 -11   4   -1.19    3.09 
  11 -10   4   -0.15    3.30 
  11 -10  -4    1.05    4.81 
  10 -11  -4    0.53    4.50 
  11  10  -5   13.22    4.32 
  11  10   5    8.31    4.10 
  10  11  -5    4.78    3.73 
  10  11   5    8.54    3.77 
  11 -10   5    2.19    3.43 
  10 -11   5    8.21    3.78 
  11 -10  -5    2.73    4.62 
  10 -11  -5    8.12    5.58 
  11  10  -6   11.51    4.10 
  10  11   6   14.79    5.21 
  11  10   6   19.50    5.09 
  10  11  -6   10.99    3.70 
  10 -11  -6   10.94    5.47 
  11 -10  -6   19.01    7.03 
  11 -10   6   13.04    4.17 
  10 -11   6   15.88    4.65 
  10  11   7   49.82    7.09 
  11 -10   7   59.94    7.90 
  10 -11   7   63.30    7.90 
  11  10   7   53.32    7.22 
  10 -11   8  190.92   13.00 
  11 -10   8  183.52   13.13 
  10  11   8  182.85   13.03 
  11  10   8  189.19   13.04 
  11 -10   9  129.95   11.26 
  10 -11   9  114.70   10.63 
  10  11   9  124.68   10.77 
  11  10   9  122.24   10.41 
  11 -10  10   66.11    8.01 
  10 -11  10   64.18    7.98 
  10  11  10   57.29    7.56 
  11  10  10   68.46    8.12 
  10  11  11    7.55    3.66 
  11  10  11    3.09    2.78 
  11 -10  11   -2.86    4.22 
  10 -11  11   -1.62    3.53 
  11 -10  12   -5.14    4.22 
  10 -11  12   -4.51    4.11 
  11 -10  13   -4.35    3.98 
  10 -11  13    3.80    3.99 
  11 -10  14    2.71    3.14 
  10 -11  14    2.44    2.97 
  10 -11  15   32.82    5.39 
  11 -10  15   39.37    5.91 
  11 -10  16   81.84    7.38 
  10 -11  16   82.20    7.49 
  10 -11  17   67.40    6.28 
  11 -10  17   63.55    6.01 
  10 -11  18   48.70    4.81 
  11 -10  18   42.36    4.40 
  11 -11   0   89.48   13.18 
  11 -11   0   93.34    9.03 
  11  11   0  108.44   10.05 
  11 -11   1   64.69    7.50 
  11  11  -1   82.62    9.22 
  11  11   1   79.40    8.62 
  11 -11  -2   62.91   11.14 
  11 -11   2   77.59    8.39 
  11  11  -2   91.49    9.46 
  11  11   2   86.99    9.49 
  11  11   3    7.99    4.62 
  11  11  -3    5.33    3.73 
  11 -11   3    2.46    3.46 
  11 -11  -3    3.19    4.28 
  11  11   4   16.99    4.96 
  11  11  -4   18.23    4.99 
  11 -11   4   17.34    4.66 
  11  11   5    5.83    3.59 
  11  11  -5    2.12    3.21 
  11 -11   5    5.76    3.75 
  11  11  -6    3.56    3.90 
  11  11   6    2.49    3.35 
  11 -11   6   -6.33    4.79 
  11 -11   7   59.87    8.28 
  11  11   7   64.10    8.15 
  11  11   8   54.45    7.28 
  11 -11   8   50.50    7.46 
  11 -11   9  104.73    9.99 
  11  11   9   88.44    9.20 
  11  11  10   22.19    4.96 
  11 -11  10   19.55    5.22 
  11  11  11    6.02    3.79 
  11 -11  11   -3.31    4.31 
  11 -11  12    1.52    3.56 
  11 -11  13   -7.07    3.91 
  11 -11  14    3.91    3.29 
  11 -11  15   12.73    3.60 
  11 -11  16   40.16    5.10 
  11 -11  17   50.73    5.10 
   0 -12   0  396.25   22.13 
   0  12   0  411.72   17.00 
   0 -12  -1   85.94   10.50 
   0 -12   1   84.16   10.45 
   0  12  -1   98.80    8.55 
   0  12   1  104.37    8.73 
   0 -12  -2   23.52    6.23 
   0 -12   2   26.76    5.88 
  12   0   2   22.10    4.77 
   0  12   2   27.38    4.86 
   0  12  -2   27.89    4.56 
   0 -12  -3   20.10    6.39 
  12   0   3    5.91    3.05 
   0  12   3   10.81    3.49 
   0  12  -3   12.00    3.82 
   0 -12  -4   14.88    5.70 
  12   0   4   16.65    4.18 
   0  12  -4   15.12    3.94 
   0  12   4   17.04    3.96 
   0 -12  -5    2.97    4.72 
  12   0   5    4.65    2.68 
   0  12  -5    1.20    2.36 
   0  12   5    4.11    2.32 
   0 -12  -6   19.87    6.51 
  12   0   6    8.04    3.31 
   0  12   6   11.09    3.60 
   0 -12  -7   20.89    6.24 
  12   0   7   21.22    4.51 
   0  12   7   23.26    4.42 
   0 -12  -8   42.80    8.57 
  12   0   8   53.33    7.15 
   0  12   8   44.03    5.63 
  12   0   9   36.91    5.44 
  12   0   9   33.90    5.79 
   0 -12  -9   45.23    8.86 
  12   0  10   22.48    4.39 
  12   0  10   20.52    4.70 
 -12   0  10   24.33    8.27 
  12   0  11    0.56    2.28 
 -12   0  11   -2.46    4.79 
  12   0  11   -0.40    2.68 
 -12   0  12   15.57    4.98 
 -12   0  13   27.40    6.48 
 -12   0  14    3.15    4.12 
 -12   0  15   12.53    4.46 
 -12   0  16   90.76    9.70 
 -12   0  17   88.25    9.38 
 -12   0  18   31.15    5.56 
 -12   0  19   -0.05    3.21 
 -12   0  20    4.12    2.79 
 -12   0  21    6.12    2.42 
   1 -12   0  159.57   14.29 
  -1 -12   0  152.75   13.88 
  -1  12   0  179.26   11.23 
   1  12   0  179.94   11.46 
   1 -12  -1  158.15   14.12 
   1 -12   1  158.69   14.35 
  -1 -12  -1  154.78   13.96 
  -1 -12   1  152.08   14.06 
  12  -1   1  182.66   12.35 
  -1  12  -1  175.96   11.14 
  -1  12   1  167.77   10.99 
   1  12  -1  164.83   10.93 
   1  12   1  179.55   11.42 
   1  12   2    6.96    2.91 
   1 -12  -2    2.27    3.53 
  -1 -12  -2    2.69    3.73 
   1 -12   2    4.08    3.90 
  12  -1  -2    6.12    3.94 
  12  -1   2    1.67    2.62 
  -1  12  -2    4.48    2.76 
   1  12  -2    4.72    3.09 
  -1  12   2    2.92    2.62 
   1  12   3   16.53    4.00 
   1 -12  -3   14.63    5.68 
  -1 -12  -3   18.72    6.43 
   1 -12   3   22.05    6.38 
  12  -1   3   19.51    4.47 
  -1  12   3   15.89    4.06 
   1  12  -3   17.33    4.40 
  -1  12  -3   14.29    3.93 
  12   1  -4   18.18    3.45 
   1  12   4   29.27    5.12 
   1 -12  -4   37.67    8.10 
  -1 -12  -4   25.90    6.78 
  12   1   4   29.88    5.79 
  12  -1   4   30.82    5.45 
   1  12  -4   23.88    4.56 
  -1  12   4   29.45    5.30 
   1  12   5    5.38    2.91 
   1 -12  -5   13.87    5.71 
  -1 -12  -5   10.20    4.88 
  12   1   5    6.08    3.26 
  12  -1   5   15.16    4.48 
  -1  12   5    7.69    3.05 
   1  12  -5    6.44    2.92 
   1 -12  -6   -1.75    3.87 
  -1 -12  -6   -0.44    4.03 
  12   1   6    1.81    2.45 
  12  -1   6    5.03    2.99 
   1  12  -6   -2.43    2.44 
  -1  12   6    0.69    2.45 
   1  12   6   -1.88    2.45 
  12   1   7   16.89    4.09 
   1 -12  -7   18.49    5.64 
  -1 -12  -7   20.95    6.62 
  12   1   7   22.29    4.82 
  12  -1   7   26.40    4.78 
   1  12   7   25.15    4.79 
  -1  12   7   20.73    4.42 
  12   1   8   40.47    5.66 
   1 -12  -8   30.82    7.16 
  -1 -12  -8   32.54    7.37 
  12   1   8   36.57    5.90 
  12  -1   8   40.83    6.57 
   1  12   8   35.61    5.36 
   1 -12  -9   33.56    7.92 
  12   1   9   35.70    5.70 
  12  -1   9   41.08    6.26 
  12   1   9   46.08    6.20 
  12   1  10   12.16    3.74 
  12   1  10   17.48    4.28 
  12  -1  10   10.60    3.52 
   1 -12 -10    8.65    5.20 
 -12   1  10    6.23    4.69 
  12   1  11    0.80    2.19 
  12  -1  11   -3.24    2.39 
 -12   1  11    1.89    4.14 
 -12  -1  11   -2.34    6.04 
  12  -1  11    1.16    2.53 
  12  -1  12   24.94    5.15 
 -12   1  12   16.92    5.01 
 -12  -1  12   14.63    5.29 
  12  -1  13   26.34    5.12 
 -12   1  13   23.62    6.22 
 -12  -1  13   32.00    6.23 
 -12   1  14    6.35    4.86 
 -12  -1  14    5.91    4.55 
 -12  -1  15    9.30    4.29 
 -12   1  15   11.53    4.91 
 -12  -1  16   53.51    7.76 
 -12   1  16   55.70    8.36 
 -12  -1  17   87.42    9.03 
 -12   1  17   78.54    9.14 
 -12  -1  18   23.79    4.87 
 -12   1  18   21.97    5.20 
 -12  -1  19   -3.98    3.52 
 -12   1  19   -4.74    3.43 
   1 -12  20    9.86    2.61 
 -12  -1  20    6.20    2.78 
 -12   1  20    5.42    2.69 
 -12  -1  21    7.33    2.19 
 -12   1  21    9.78    2.82 
   2 -12   0  133.15   13.08 
  -2 -12   0  127.06   12.92 
  12  -2   0  138.29   10.91 
  12   2   0  128.56    9.27 
  -2  12   0  137.68    9.99 
   2  12   0  140.46   10.25 
  12   2   1   62.76    6.63 
   2 -12  -1   70.22    9.98 
   2 -12   1   76.09   10.68 
  -2 -12  -1   54.86    8.80 
  12  -2   1   60.53    7.27 
  12   2  -1   66.48    6.79 
  -2  12   1   67.55    7.38 
   2  12  -1   71.22    7.33 
   2  12   1   71.02    7.48 
  12   2  -2    1.30    2.61 
   2  12  -2   -2.69    2.86 
   2  12   2    2.70    3.08 
   2 -12  -2    0.86    4.21 
   2 -12   2    0.09    4.36 
  -2 -12  -2   -2.20    3.32 
  12  -2  -2   -1.86    3.89 
  12  -2   2   -2.45    2.52 
  -2  12   2   -1.50    2.64 
  12   2  -3   21.68    4.29 
   2  12  -3   28.02    5.05 
  12   2   3   28.49    4.63 
   2  12   3   32.98    5.29 
   2 -12  -3   34.87    8.52 
  -2 -12  -3   23.36    5.74 
   2 -12   3   29.69    6.87 
  12  -2  -3   30.42    6.41 
  12  -2   3   24.44    4.74 
  -2  12   3   30.53    5.23 
   2 -12  -4   76.01   10.65 
  -2 -12  -4   77.40   10.51 
   2 -12   4   72.47   10.29 
  12  -2   4   85.83    8.48 
  12   2   4   83.86    7.69 
  12   2  -4   73.31    7.16 
  -2  12   4   81.66    8.04 
   2  12  -4   81.59    7.99 
   2  12   4   83.73    8.08 
  12   2   5   38.81    5.36 
   2  12   5   33.51    5.42 
   2 -12  -5   36.76    7.56 
  -2 -12  -5   37.05    7.62 
  12  -2   5   41.81    6.15 
   2  12  -5   43.62    5.88 
  12   2   6   -0.76    2.65 
   2  12   6    6.68    3.30 
   2 -12  -6    0.75    3.92 
  -2 -12  -6    3.58    3.81 
  12  -2   6    3.02    2.87 
   2  12  -6    1.43    2.44 
  12   2   7   14.24    3.80 
   2  12   7   12.71    3.92 
   2 -12  -7   18.25    5.35 
  -2 -12  -7   13.49    4.32 
  12  -2   7   17.18    4.49 
   2  12  -7   12.29    3.36 
   2  12   8   21.21    4.37 
  12   2   8   22.80    4.37 
  12  -2   8   24.72    5.04 
   2 -12  -8   31.02    7.64 
 -12   2   8    7.58    5.82 
  12   2   9   19.01    4.46 
  12  -2   9   20.02    4.85 
   2 -12  -9   17.65    6.10 
 -12   2   9   13.21    5.44 
  12   2  10    3.48    2.97 
  12  -2  10    5.34    3.25 
   2 -12 -10    0.94    4.10 
 -12   2  10   -1.71    3.93 
  12   2  11    4.42    2.87 
   2 -12 -11    6.04    4.76 
  12  -2  11    8.71    3.82 
  12  -2  12   29.09    5.59 
 -12   2  12   22.43    5.77 
 -12  -2  12   23.41    5.70 
  12  -2  13   50.62    6.89 
 -12   2  13   60.14    8.52 
 -12  -2  13   53.72    7.82 
  12  -2  14   14.95    4.12 
 -12   2  14   12.73    5.26 
 -12  -2  14   13.30    4.94 
 -12  -2  15   -1.43    4.21 
 -12   2  15   -0.28    4.68 
 -12  -2  16   27.28    6.09 
 -12   2  16   31.91    6.74 
 -12  -2  17   31.76    5.88 
 -12   2  17   39.61    6.95 
 -12  -2  18   12.81    4.02 
 -12   2  18   11.20    3.43 
   2 -12  19    4.82    2.67 
 -12  -2  19   -1.35    2.45 
 -12   2  19   -3.51    3.53 
   2 -12  20    9.50    2.61 
 -12  -2  20   12.58    3.13 
 -12   2  20   17.67    3.82 
 -12   2  21   12.52    2.99 
   3 -12   0   58.95    9.30 
  12  -3   0   61.15    7.47 
  12   3   0   68.93    7.11 
   3  12   0   75.77    7.82 
   3  12  -1    9.98    3.39 
  12   3   1   13.81    3.77 
   3  12   1    8.40    3.22 
  12   3  -1    9.16    3.03 
  12  -3  -1   10.30    3.83 
  12  -3   1   14.33    4.12 
   3 -12  -1   17.75    6.47 
   3 -12   1   18.67    5.87 
   3  12   2    2.85    2.82 
  12   3   2    1.58    2.18 
  12   3  -2   -2.71    3.04 
   3  12  -2    1.62    2.62 
   3 -12  -2    4.26    4.98 
   3 -12   2   -5.26    5.23 
  -3 -12  -2   -2.33    4.07 
  12  -3  -2    3.68    3.62 
  12  -3   2    1.21    3.27 
  12  -3  -3   89.82   10.93 
   3 -12  -3   69.29    9.98 
   3 -12   3   84.33   11.28 
  -3 -12  -3   79.04   10.02 
  12  -3   3   83.55    8.55 
  12   3  -3   84.65    7.94 
  12   3   3   87.49    7.92 
   3  12  -3   97.11    8.77 
   3  12   3   95.52    8.61 
  12  -3  -4  151.19   14.20 
   3 -12  -4  148.74   14.28 
  -3 -12  -4  144.00   13.71 
   3 -12   4  146.36   14.54 
  12  -3   4  170.49   11.75 
  12   3  -4  139.13   10.08 
  12   3   4  154.85   10.50 
   3  12  -4  161.61   11.10 
   3  12   4  168.77   11.21 
  12  -3  -5   88.04   11.11 
   3 -12  -5   94.87   12.01 
  -3 -12  -5   84.61   10.71 
  12  -3   5  100.35    9.26 
  12   3  -5   88.61    8.14 
  12   3   5   93.13    8.29 
   3  12  -5   89.80    8.36 
   3  12   5   97.66    8.57 
  12   3   6   15.85    4.12 
   3  12   6   17.30    4.37 
   3 -12  -6   19.05    6.62 
  -3 -12  -6    8.17    4.80 
  12  -3  -6   10.69    5.22 
  12  -3   6   12.36    3.73 
   3  12  -6   16.26    4.10 
  12   3   7    1.56    2.58 
   3  12   7    4.23    3.20 
   3 -12  -7    2.55    4.05 
  12  -3  -7   -3.95    6.03 
  12  -3   7    1.98    3.13 
   3  12  -7    2.93    2.69 
   3  12   8   18.48    4.69 
  12   3   8   22.90    4.70 
  12  -3   8   20.99    4.96 
   3 -12  -8   24.92    7.03 
  12   3   9    9.88    3.32 
   3  12   9   10.77    3.70 
  12  -3   9    8.77    4.11 
   3 -12  -9    5.78    4.31 
  12   3  10   -2.44    2.97 
  12  -3  10    1.76    3.29 
   3 -12 -10   -0.65    4.60 
  12   3  11   25.60    4.97 
  12  -3  11   28.59    5.67 
  12  -3  12   58.14    7.42 
 -12   3  12   66.41    8.98 
 -12  -3  12   47.80    7.15 
 -12   3  13   81.38    9.92 
  12  -3  13   68.40    7.98 
 -12  -3  13   74.02    8.65 
  12  -3  14   31.16    5.65 
 -12  -3  14   31.41    6.24 
 -12   3  14   39.92    7.58 
  12  -3  15    6.75    3.35 
 -12  -3  15    1.43    3.24 
 -12   3  15    5.80    4.62 
 -12  -3  16    3.27    3.98 
 -12   3  16    6.47    4.57 
 -12  -3  17   10.18    3.66 
 -12   3  17   19.01    5.38 
   3 -12  18   -0.15    2.83 
 -12  -3  18    0.66    2.60 
 -12   3  18    0.32    4.19 
   3 -12  19    9.54    3.20 
 -12  -3  19    2.13    2.08 
 -12   3  19    1.42    2.94 
   3 -12  20   27.38    3.76 
 -12   3  20   23.72    3.95 
 -12   3  21   25.81    3.51 
   4  12   0    7.16    3.32 
  12   4   0   11.05    3.62 
  12  -4   0    9.20    3.37 
   4 -12   0   14.93    5.99 
  12   4   1    6.90    3.16 
   4  12  -1   -1.30    2.65 
   4  12   1    1.78    2.73 
  12   4  -1    3.67    2.54 
  12  -4  -1   -1.67    2.94 
  12  -4   1    1.60    2.53 
   4 -12  -1    6.68    4.31 
   4 -12   1   -0.14    4.20 
  12   4   2   12.46    3.48 
   4  12   2   14.75    3.84 
   4  12  -2   17.37    4.29 
  12   4  -2   16.59    4.16 
   4 -12  -2    7.74    5.09 
   4 -12   2   13.91    5.59 
  12  -4  -2   22.21    6.04 
  12  -4   2   12.05    3.89 
  12  -4  -3   91.19   11.06 
   4 -12  -3   92.85   11.80 
   4 -12   3   93.75   12.16 
  12  -4   3  110.13    9.62 
  12   4  -3  102.36    8.97 
  12   4   3  109.00    8.99 
   4  12  -3  104.98    9.28 
   4  12   3  100.01    8.73 
  12  -4  -4  170.54   15.25 
   4 -12  -4  141.40   14.27 
   4 -12   4  154.80   15.03 
  12  -4   4  178.48   12.04 
  12   4  -4  175.25   11.57 
  12   4   4  169.70   11.21 
   4  12  -4  174.41   11.61 
   4  12   4  163.86   11.27 
  12  -4  -5  140.27   14.50 
   4 -12  -5  143.45   14.61 
  12  -4   5  152.79   11.30 
  12   4  -5  138.63   10.20 
  12   4   5  149.06   10.62 
   4  12  -5  142.14   10.52 
   4  12   5  157.86   11.13 
   4  12   6   14.82    4.07 
   4  12  -6   11.32    3.41 
  12   4   6   12.25    3.89 
   4 -12  -6   13.44    6.00 
  12  -4  -6    6.36    4.43 
  12  -4   6   12.21    4.05 
  12   4   7   -0.10    2.39 
   4  12   7    0.20    2.45 
   4 -12  -7   -1.35    4.36 
  12  -4  -7    0.83    4.25 
  12  -4   7    2.50    3.19 
   4  12  -7   -0.18    2.63 
  12   4   8   18.05    4.40 
   4  12   8   16.95    4.46 
  12  -4   8   20.04    4.86 
   4 -12  -8   17.75    6.67 
  12  -4  -8   29.23    7.86 
   4  12   9    6.16    3.14 
  12   4   9    7.26    3.47 
  12  -4   9    9.87    4.20 
   4 -12  -9    0.76    4.79 
  12  -4  -9   -5.25    5.30 
  12   4  10    6.26    3.60 
   4 -12 -10   -3.28    5.00 
  12  -4 -10   -5.12    6.02 
  12  -4  10    5.24    3.33 
  12  -4  11   65.78    7.99 
  12   4  11   70.47    7.73 
 -12   4  12   82.46    9.74 
  12  -4  12   90.50    9.01 
 -12  -4  12   71.67    8.29 
  12  -4  13   53.25    7.40 
 -12   4  13   68.83    9.01 
 -12  -4  13   51.81    7.34 
  12  -4  14   55.92    7.41 
 -12  -4  14   51.20    7.07 
 -12   4  14   56.22    8.16 
  12  -4  15    4.95    2.77 
 -12  -4  15    1.71    3.01 
 -12   4  15    5.36    4.73 
  12  -4  16    2.63    2.69 
 -12  -4  16    2.05    3.23 
 -12   4  16    1.41    4.64 
   4 -12  17    3.89    3.28 
 -12  -4  17    0.83    2.66 
 -12   4  17   -4.31    4.69 
   4 -12  18   -3.94    3.00 
 -12  -4  18   -1.72    2.52 
 -12   4  18   -3.17    4.18 
   4 -12  19    9.57    2.95 
 -12  -4  19    3.49    1.93 
 -12   4  19    5.45    3.25 
   4 -12  20   27.86    3.71 
 -12   4  20   29.24    4.31 
  12   5   0    2.45    2.55 
   5  12   0    3.70    2.65 
  12  -5   0    2.20    2.87 
   5 -12   0    2.44    4.28 
   5  12   1   -1.58    2.55 
   5  12  -1    4.25    3.08 
  12   5   1   -0.18    2.30 
  12   5  -1    1.73    2.22 
  12  -5  -1    2.44    2.87 
  12  -5   1    1.77    2.94 
   5 -12  -1    6.87    5.69 
   5 -12   1   -0.68    4.03 
  12  -5  -1    3.45    3.65 
  12   5   2   12.84    3.43 
   5  12   2   10.15    3.54 
   5  12  -2    9.69    3.55 
  12   5  -2   14.81    3.99 
   5 -12  -2    9.98    4.52 
   5 -12   2   16.16    6.28 
  12  -5  -2    9.49    5.06 
  12  -5   2    8.55    4.27 
  12  -5  -2    7.37    3.13 
   5 -12  -3   51.60    8.92 
   5 -12   3   53.77    9.35 
  12  -5  -3   62.75    9.81 
  12  -5   3   59.00    7.41 
   5 -12   3   55.74    6.12 
   5  12   3   60.37    6.74 
  12   5  -3   65.65    7.50 
  12   5   3   60.91    6.93 
   5  12  -3   70.27    7.61 
  12  -5  -4  144.38   14.34 
   5 -12  -4  106.95   12.89 
   5 -12   4  115.71   13.47 
  12  -5   4  149.40   11.36 
   5  12   4  140.85   10.70 
  12   5  -4  142.78   10.66 
  12   5   4  145.89   10.59 
   5  12  -4  152.63   11.15 
   5 -12  -5   61.78   10.53 
   5 -12   5   56.93    9.50 
  12  -5  -5   68.59   10.50 
  12  -5   5   77.70    8.44 
   5  12   5   78.33    8.04 
  12   5  -5   69.98    7.58 
  12   5   5   89.04    8.50 
   5  12  -5   81.08    8.50 
   5  12   6   14.94    4.38 
   5  12  -6   17.96    4.69 
  12   5   6   15.21    4.25 
   5 -12  -6   15.89    6.70 
  12  -5  -6   14.15    5.56 
  12  -5   6   21.63    5.31 
   5  12   7    7.17    3.58 
  12   5   7    9.61    3.56 
   5 -12  -7   12.36    6.27 
  12  -5  -7   12.24    5.93 
  12  -5   7    8.56    3.68 
   5  12  -7    8.01    3.36 
   5  12   8    8.24    3.31 
  12   5   8    2.51    2.76 
  12  -5   8   10.77    4.02 
   5 -12  -8    1.43    5.30 
  12  -5  -8   -0.41    4.52 
   5  12   9   21.03    4.77 
  12   5   9   29.00    5.38 
  12  -5   9   22.43    5.42 
   5 -12  -9   19.41    7.24 
  12  -5  -9   16.54    6.17 
  12   5  10   -0.32    3.48 
   5 -12 -10    5.29    4.28 
  12  -5 -10    1.84    4.77 
  12  -5  10    7.36    3.94 
  12   5  11   34.98    5.55 
  12  -5  11   42.00    6.65 
 -12   5  11   35.43    6.94 
 -12  -5  11   26.31    5.05 
  12  -5  12  120.61   10.56 
 -12   5  12  139.68   12.44 
  12  -5  13   50.90    7.26 
 -12   5  13   47.66    7.84 
 -12  -5  13   37.86    6.03 
  12  -5  14   31.42    5.94 
 -12  -5  14   24.30    5.01 
 -12   5  14   33.82    6.96 
  12  -5  15    1.69    2.50 
 -12  -5  15    2.26    2.53 
 -12   5  15    5.26    4.55 
   5 -12  16    4.19    3.76 
  12  -5  16    5.09    3.07 
 -12  -5  16   -0.18    2.53 
 -12   5  16    6.53    4.09 
   5 -12  17    3.62    3.09 
  12  -5  17   -1.80    2.67 
 -12  -5  17    0.34    2.65 
 -12   5  17    0.39    3.98 
   5 -12  18   -0.36    2.59 
 -12   5  18   -2.32    3.62 
   5 -12  19    9.07    2.86 
 -12   5  19    7.57    2.97 
   5 -12  20   15.71    2.83 
 -12   5  20   18.95    3.54 
  12   6   0   25.49    5.22 
   6  12   0   24.24    4.70 
  12  -6   0   25.95    5.50 
   6 -12   0   24.03    7.01 
  12   6   1    5.48    2.90 
   6  12  -1    0.78    2.74 
   6  12   1    6.75    3.25 
  12   6  -1    8.04    3.49 
  12  -6  -1    5.24    3.55 
  12  -6   1    3.18    3.08 
   6 -12  -1   10.08    5.85 
   6 -12   1    5.39    6.03 
  12  -6  -1   11.20    5.88 
   6  12   2    1.65    2.88 
  12   6  -2    2.47    2.38 
   6  12  -2   -0.53    2.74 
  12   6   2    0.37    2.75 
  12  -6  -2   -6.42    4.34 
  12  -6   2   -2.01    2.99 
   6 -12  -2   -7.87    5.99 
   6 -12   2   -1.52    4.31 
  12  -6  -2    0.77    4.08 
  12   6  -3   15.78    4.13 
   6  12  -3   22.67    5.16 
  12   6   3   29.41    5.35 
   6  12   3   23.65    5.10 
   6 -12  -3   25.83    7.25 
   6 -12   3   11.71    4.98 
  12  -6  -3   20.41    6.24 
   6 -12   3   19.22    3.91 
  12  -6   3   23.46    5.12 
   6  12  -4   39.71    6.42 
   6  12   4   48.26    6.50 
  12   6  -4   47.92    6.54 
   6 -12  -4   39.90    8.75 
   6 -12   4   32.51    7.72 
  12  -6  -4   45.17    9.08 
   6 -12   4   43.31    5.91 
  12  -6   4   48.49    6.93 
  12   6   4   45.59    6.33 
  12   6   5   34.43    5.68 
   6  12   5   30.98    5.49 
   6  12  -5   33.66    5.77 
  12   6  -5   34.50    5.65 
   6 -12   5   29.70    5.17 
  12  -6   5   36.13    6.46 
   6 -12  -5   32.08    8.30 
   6 -12   5   28.06    7.18 
  12  -6  -5   40.04    8.37 
   6  12   6   -0.14    2.79 
  12   6   6    3.26    3.10 
   6  12  -6    3.33    3.06 
   6 -12   6    1.01    3.05 
  12  -6   6    2.22    3.29 
   6 -12  -6    6.77    5.61 
   6  12   7   -0.79    2.78 
   6  12  -7   -0.37    2.58 
  12   6   7   -0.94    3.07 
   6 -12  -7   -2.70    4.40 
  12  -6  -7    5.69    5.54 
  12  -6   7    0.19    3.17 
   6 -12  -8   55.90   10.83 
  12  -6  -8   56.28   10.24 
  12  -6   8   67.64    8.05 
  12   6   8   66.46    7.74 
   6  12   8   77.45    8.31 
   6  12   9   10.92    3.66 
  12   6   9    7.20    3.54 
   6 -12  -9    9.01    6.06 
  12  -6  -9    8.63    4.58 
  12  -6   9   14.15    4.58 
  12   6  10    6.10    3.39 
   6  12  10    8.77    3.84 
  12  -6  10    6.73    3.70 
 -12   6  10    1.27    4.05 
  12   6  11   53.92    6.96 
 -12   6  11   41.67    6.99 
 -12  -6  11   35.07    5.52 
   6 -12  12   48.13    7.29 
  12  -6  12   37.20    6.42 
 -12   6  12   29.17    6.25 
 -12  -6  12   25.55    4.78 
  12  -6  13   93.96    9.73 
   6 -12  13  115.66   10.39 
 -12   6  13   98.19   10.09 
   6 -12  14    7.01    4.22 
  12  -6  14   -1.59    3.15 
 -12   6  14   -3.13    3.57 
   6 -12  15    2.12    3.79 
  12  -6  15    4.57    3.16 
 -12   6  15    3.62    3.54 
   6 -12  16   20.84    5.00 
  12  -6  16   17.47    4.23 
 -12   6  16   18.88    4.87 
   6 -12  17    7.64    3.41 
  12  -6  17   10.72    3.24 
   6 -12  18   -1.29    2.36 
 -12   6  18   -2.21    3.14 
   6 -12  19    3.21    1.97 
 -12   6  19    0.54    2.35 
 -12   6  20    8.44    2.38 
   7  12   0   42.60    6.31 
  12   7   0   43.33    6.19 
   7 -12   0   40.15    8.36 
  12  -7   0   38.04    6.39 
   7  12   1   45.83    6.39 
  12   7  -1   46.73    6.59 
   7 -12  -1   47.46    9.54 
   7 -12   1   45.07    9.45 
  12  -7  -1   48.37    9.22 
  12  -7   1   50.21    7.20 
  12  -7  -1   47.65    6.71 
   7  12  -1   51.13    7.17 
  12   7   1   51.67    6.97 
  12   7   2    5.25    2.80 
  12   7  -2   10.96    3.82 
   7  12   2   14.21    4.49 
   7  12  -2   13.69    5.07 
   7 -12   2    4.45    2.57 
  12  -7  -2   -1.60    3.31 
  12  -7   2   14.14    4.31 
   7 -12  -2    9.88    4.81 
   7 -12   2    8.43    5.12 
  12  -7  -2    4.65    5.17 
  12   7  -3   -2.46    3.17 
  12   7   3   -2.84    3.50 
   7  12   3    0.25    3.36 
   7  12  -3    3.39    3.44 
   7 -12   3    3.03    2.32 
  12  -7   3    2.93    3.41 
   7 -12  -3    0.06    4.59 
   7 -12   3   -4.15    4.99 
  12  -7  -3   -9.29    6.34 
   7  12  -4    6.97    3.94 
   7  12   4    5.65    3.22 
  12   7   4    6.39    3.36 
  12   7  -4    5.73    3.25 
   7 -12   4    8.16    3.14 
  12  -7   4   18.20    4.99 
   7 -12  -4    5.95    4.37 
   7 -12   4   -3.16    5.15 
  12  -7  -4    8.28    5.67 
  12   7   5    3.02    2.73 
   7  12  -5    4.14    3.01 
   7  12   5    0.08    3.13 
  12   7  -5    0.46    2.58 
   7 -12   5    3.07    3.05 
  12  -7   5    8.27    3.98 
   7 -12  -5    3.28    4.45 
   7 -12   5   -4.35    6.47 
  12  -7  -5    2.06    4.42 
   7  12  -6   10.97    4.17 
  12   7   6    5.55    3.10 
   7  12   6   10.83    3.79 
   7 -12  -6    6.80    5.70 
  12  -7  -6   21.85    7.35 
   7 -12   6   15.64    4.27 
  12  -7   6   19.05    5.22 
   7  12   7   52.00    6.97 
  12   7   7   51.68    7.06 
   7 -12  -7   46.87    9.65 
  12  -7  -7   50.54    9.42 
  12  -7   7   59.38    7.77 
   7 -12   7   54.31    7.45 
   7  12  -7   49.37    7.00 
   7 -12  -8   57.43   10.49 
  12  -7  -8   49.99    9.59 
  12  -7   8   86.17    9.27 
   7 -12   8   81.44    8.63 
   7  12   8   60.49    7.67 
  12   7   8   59.25    7.40 
  12  -7   9   98.37    9.77 
   7 -12   9   97.95    9.41 
  12   7   9  103.01    9.62 
 -12   7   9   80.89    9.21 
   7  12   9  105.27    9.80 
   7  12  10    4.13    2.97 
  12   7  10   12.27    4.16 
   7 -12  10    3.01    3.33 
  12  -7  10    3.99    3.69 
 -12   7  10   -0.44    3.65 
  12   7  11    0.97    2.72 
   7 -12  11    4.39    4.14 
  12  -7  11   -1.70    4.06 
 -12   7  11   -2.79    3.83 
   7 -12  12   70.01    8.14 
  12  -7  12   52.45    7.38 
 -12   7  12   52.06    7.73 
   7 -12  13   10.87    4.53 
  12  -7  13    9.59    4.22 
 -12   7  13    6.17    3.79 
   7 -12  14    2.74    3.56 
  12  -7  14   -0.39    3.01 
 -12   7  14    0.78    3.40 
  12  -7  15   50.09    6.39 
   7 -12  15   53.57    6.88 
 -12   7  15   47.82    7.26 
   7 -12  16   24.07    4.76 
  12  -7  16   27.68    4.76 
 -12   7  16   16.32    4.36 
   7 -12  17   40.93    5.49 
  12  -7  17   37.88    5.10 
 -12   7  17   25.05    5.01 
   7 -12  18    3.58    2.48 
  12  -7  18    2.33    1.73 
 -12   7  18    5.17    2.91 
   7 -12  19   -0.27    1.70 
 -12   7  19    0.26    1.93 
   8 -12   0  120.49   14.62 
  12  -8   0  123.58   10.62 
   8  12   0  137.47   10.71 
  12   8   0  151.70   11.34 
  12  -8  -1   58.29   10.17 
   8 -12  -1   49.21    9.68 
   8 -12   1   69.81   11.18 
  12  -8  -1   55.78    7.49 
  12  -8   1   70.84    8.36 
   8  12  -1   63.31    7.62 
   8  12   1   59.06    7.25 
  12   8  -1   63.29    7.85 
  12   8   1   62.75    7.71 
   8  12   2   42.61    6.56 
  12   8   2   48.38    6.65 
   8  12  -2   48.65    6.80 
  12   8  -2   52.35    7.02 
   8 -12   2   39.41    5.54 
  12  -8  -2   33.22    5.79 
  12  -8   2   47.57    6.81 
  12  -8  -2   45.32    9.52 
   8 -12  -2   49.40    9.42 
   8 -12   2   33.37    8.31 
  12   8  -3    0.66    2.67 
   8  12   3   -0.21    3.03 
   8  12  -3    3.93    3.77 
  12   8   3    1.20    3.10 
   8 -12   3    2.66    2.88 
  12  -8   3    7.81    5.84 
   8 -12  -3    0.55    4.15 
   8 -12   3   -1.92    5.29 
  12  -8  -3    4.05    5.48 
  12   8  -4   18.20    4.74 
   8  12  -4   26.68    5.86 
  12   8   4   19.86    4.98 
   8  12   4   22.16    5.16 
   8 -12   4   20.16    4.85 
  12  -8   4   20.73    5.34 
   8 -12  -4   13.24    6.23 
   8 -12   4    9.94    5.63 
  12  -8  -4   11.01    5.21 
   8  12   5   18.70    4.84 
  12   8   5   12.46    4.45 
   8  12  -5   17.44    4.69 
  12   8  -5   22.99    5.11 
   8 -12   5   23.46    4.97 
  12  -8   5   28.22    6.10 
   8 -12  -5    9.24    5.18 
   8 -12   5   13.26    5.11 
  12  -8  -5   14.00    5.49 
   8  12  -6    2.62    2.87 
  12   8   6    4.71    3.88 
  12   8  -6    5.19    3.03 
   8  12   6    4.30    3.39 
   8 -12   6    2.78    3.29 
  12  -8   6    8.72    4.21 
   8 -12  -6   -0.47    4.31 
  12  -8  -6    7.62    5.79 
  12   8   7   47.19    6.76 
   8  12   7   42.76    6.80 
   8  12  -7   32.23    5.70 
   8 -12  -7   25.23    7.68 
  12  -8  -7   44.83   10.12 
   8 -12   7   53.51    7.17 
  12  -8   7   50.03    7.52 
  12  -8   8  163.08   12.41 
   8 -12   8  152.76   11.71 
   8  12   8  141.97   11.15 
 -12   8   8  119.52   10.64 
  12   8   8  152.10   11.66 
 -12   8   9   77.67    8.76 
  12  -8   9  108.05   10.68 
   8 -12   9  115.26   10.27 
   8  12   9   93.09    9.23 
  12   8   9  101.64    9.48 
   8  12  10   46.85    7.00 
  12   8  10   40.29    6.23 
  12  -8  10   48.34    7.46 
   8 -12  10   49.72    7.26 
 -12   8  10   31.82    6.02 
  12   8  11    1.33    2.51 
   8 -12  11   -1.58    3.60 
  12  -8  11   -4.17    3.63 
 -12   8  11    3.26    3.35 
   8 -12  12    7.76    4.16 
  12  -8  12   -0.12    3.47 
 -12   8  12    6.47    4.01 
   8 -12  13    9.15    3.99 
  12  -8  13    1.41    3.52 
 -12   8  13   -1.37    3.05 
   8 -12  14   11.86    4.04 
  12  -8  14    8.49    3.46 
 -12   8  14    8.56    3.95 
   8 -12  15   30.04    5.45 
  12  -8  15   24.97    4.98 
 -12   8  15   25.88    5.14 
  12  -8  16   81.66    7.49 
   8 -12  16   88.32    7.77 
 -12   8  16   69.51    7.25 
   8 -12  17   33.99    4.79 
  12  -8  17   26.59    4.28 
 -12   8  17   32.11    4.91 
   8 -12  18   35.28    4.45 
  12  -8  18   23.44    3.47 
 -12   8  18   30.21    4.15 
   8 -12  19    1.12    1.58 
   9 -12   0   83.84   12.24 
  12  -9   0   85.79    8.96 
   9  12   0   89.18    8.95 
  12   9   0  101.59    9.64 
   9 -12  -1  112.59   14.24 
   9 -12   1   97.30   13.51 
  12  -9   1  129.27   11.06 
  12  -9  -1  107.11    9.93 
   9  12  -1  129.85   11.00 
   9  12   1  131.78   10.52 
  12   9  -1  132.25   10.82 
  12   9   1  141.87   11.13 
  12   9   2   23.69    5.07 
   9  12  -2   18.04    5.03 
   9  12   2   14.30    4.38 
  12   9  -2   16.93    4.87 
  12  -9  -2   16.48    6.64 
   9 -12  -2   11.22    5.80 
   9 -12   2   14.31    6.47 
   9 -12   2   11.81    3.91 
  12  -9  -2    6.99    3.03 
  12  -9   2   16.12    4.59 
  12  -9  -3   67.47   11.56 
   9 -12  -3   62.71   10.68 
   9 -12   3   54.14   10.18 
  12  -9   3   82.76    9.34 
   9 -12   3   75.46    7.84 
   9  12  -3   82.23    9.12 
   9  12   3   78.24    8.92 
  12   9  -3   89.28    9.56 
  12   9   3   86.70    9.19 
  12   9   4    5.44    3.63 
   9  12   4    5.17    3.37 
   9  12  -4    8.42    4.27 
  12   9  -4    7.75    4.16 
   9 -12   4    4.79    3.25 
  12  -9   4    5.08    3.74 
   9 -12  -4   10.65    6.39 
  12  -9  -4    7.62    5.94 
  12   9   5    7.49    4.10 
   9  12   5   11.60    4.25 
   9  12  -5    9.24    3.99 
  12   9  -5   13.95    4.60 
   9 -12   5    8.60    3.80 
  12  -9   5   10.22    4.55 
   9 -12  -5   10.47    5.75 
  12  -9  -5    9.74    4.71 
   9  12   6    0.55    3.22 
  12   9   6   11.20    4.48 
   9  12  -6    5.57    3.91 
  12   9  -6    0.97    2.74 
   9 -12   6    4.38    3.75 
  12  -9   6    2.01    3.50 
   9  12   7   42.67    6.65 
  12  -9   7   57.11    8.04 
   9 -12   7   45.49    6.99 
  12   9   7   58.36    7.56 
  12  -9   8  163.57   12.40 
   9 -12   8  141.07   11.54 
   9  12   8  138.63   11.19 
  12   9   8  135.09   10.86 
 -12   9   9   85.08    8.83 
  12  -9   9  103.52   10.33 
   9 -12   9  117.05   10.46 
   9  12   9  131.25   10.88 
  12   9   9  110.44   10.08 
  12  -9  10   47.59    7.61 
   9 -12  10   51.96    7.45 
  12   9  10   53.65    7.14 
 -12   9  10   37.81    6.34 
   9  12  10   57.21    7.47 
   9  12  11    6.11    3.38 
  12   9  11    3.94    2.85 
   9 -12  11    3.57    3.40 
  12  -9  11   -1.11    3.85 
 -12   9  11   -0.51    2.81 
   9 -12  12    2.72    3.57 
  12  -9  12    0.38    3.15 
 -12   9  12    1.15    3.24 
   9 -12  13    2.12    3.39 
  12  -9  13   -0.10    3.33 
 -12   9  13   -2.12    2.57 
   9 -12  14   -3.18    3.61 
  12  -9  14    4.93    3.22 
 -12   9  14   -1.28    3.35 
   9 -12  15   22.70    4.71 
  12  -9  15   32.09    5.27 
 -12   9  15   18.27    4.04 
  12  -9  16   54.45    5.98 
   9 -12  16   47.70    5.84 
 -12   9  16   48.76    5.52 
 -12   9  17   38.12    4.44 
  12  -9  17   53.08    5.41 
   9 -12  17   57.48    5.71 
   9 -12  18   31.12    3.96 
  12  -9  18   17.56    2.89 
  10 -12   0   88.44   12.90 
  12 -10   0  111.76   10.13 
  10  12   0  123.27   10.59 
  12  10   0  123.72   11.07 
  12  10   1   39.61    7.31 
  10  12  -1   51.89    7.52 
  10  12   1   42.64    6.54 
  12  10  -1   44.54    7.00 
  10 -12  -1   33.36    8.51 
  10 -12   1   37.77    8.90 
  12 -10  -1   30.32    5.54 
  12 -10   1   36.80    6.37 
  10 -12   1   33.01    5.45 
  12 -10  -2   50.76    9.96 
  10 -12  -2   56.00   10.29 
  12 -10   2   78.22    8.87 
  10 -12   2   67.81    7.58 
  10  12  -2   85.61    9.18 
  10  12   2   77.08    9.07 
  12  10  -2   84.07    9.41 
  12  10   2   89.57    9.20 
  12  10   3   -0.74    3.40 
  10  12   3    2.31    3.38 
  10  12  -3    2.87    3.92 
  12  10  -3    8.17    3.92 
  12 -10   3   -0.74    3.41 
  10 -12   3    1.41    2.67 
  12 -10  -3    6.12    4.99 
  12  10   4   12.84    4.86 
  10  12  -4   19.69    5.40 
  12  10  -4   15.07    4.86 
  10  12   4   21.89    5.15 
  10 -12   4   10.04    4.06 
  12 -10   4   13.27    4.50 
  10  12   5    3.29    3.18 
  10  12  -5    1.70    2.93 
  12  10  -5    4.85    3.04 
  12  10   5    6.76    3.98 
  10 -12   5    4.20    3.32 
  12 -10   5    6.62    3.79 
  10  12   6    0.81    3.13 
  10  12  -6    1.49    3.19 
  12  10   6   -2.89    3.17 
  12  10  -6    5.66    3.36 
  12 -10   6    0.40    3.32 
  10  12   7   47.30    7.17 
  12  10   7   50.20    7.08 
  10 -12   7   49.45    7.10 
  12 -10   7   53.06    7.96 
  10  12   8   53.90    7.14 
  10 -12   8   52.98    7.27 
  12 -10   8   54.73    8.23 
  12  10   8   63.94    7.99 
  12 -10   9  107.69   10.39 
  10  12   9   87.90    8.77 
  12  10   9   99.44    9.48 
  12  10  10   17.86    4.67 
  10  12  10   25.46    5.66 
  10 -12  10   22.28    5.21 
  12 -10  10   20.39    5.11 
  12  10  11   -3.15    3.16 
  10  12  11   -1.88    2.45 
  10 -12  11    3.92    3.85 
  12 -10  11    0.62    3.24 
  10 -12  12    0.71    3.13 
  12 -10  12    3.93    3.35 
  10 -12  13    0.67    3.06 
  12 -10  13   -0.05    2.90 
  10 -12  14   -3.47    3.21 
  12 -10  14    1.46    2.72 
  10 -12  15   -0.32    2.63 
  12 -10  15   10.11    3.44 
  10 -12  16   41.08    5.15 
  12 -10  16   33.55    4.75 
  10 -12  17   40.07    4.61 
  12 -10  17   31.55    4.09 
  11  12   0   34.14    6.66 
  12  11   0   36.61    6.61 
  12 -11   0   27.89    5.46 
  11  12   1   49.15    7.55 
  11  12  -1   35.93    6.86 
  12  11  -1   56.11    7.76 
  12  11   1   46.99    7.24 
  12 -11   1   42.09    6.47 
  11 -12   1   40.70    6.54 
  11  12   2   15.17    4.86 
  11  12  -2   18.59    5.55 
  12  11  -2   20.48    5.48 
  12  11   2   21.26    5.62 
  12 -11   2   13.17    3.92 
  11 -12   2   22.92    4.93 
  11  12   3   33.27    6.21 
  12  11  -3   40.35    7.13 
  11  12  -3   32.72    6.50 
  12  11   3   29.35    6.48 
  12 -11   3   28.28    5.71 
  11 -12   3   35.25    6.22 
  12  11  -4   15.88    4.90 
  11  12   4    8.22    3.85 
  11  12  -4   12.83    4.70 
  12  11   4   14.27    4.77 
  12 -11   4   20.92    5.31 
  11 -12   4   17.13    4.70 
  11  12  -5   13.60    4.19 
  12  11  -5   12.28    4.42 
  11  12   5    1.39    3.22 
  12  11   5    9.69    4.35 
  12 -11   5    8.23    4.03 
  11 -12   5    6.74    3.69 
  12  11  -6    7.36    3.58 
  12  11   6   -1.95    3.34 
  11  12  -6    4.94    3.70 
  11  12   6   -2.20    3.36 
  12 -11   6   -3.66    3.43 
  11 -12   6    1.89    3.09 
  11  12   7    6.38    3.81 
  12  11   7    5.25    3.90 
  11 -12   7    3.68    3.51 
  12 -11   7   10.04    4.42 
  11  12   8   20.25    5.59 
  12  11   8   25.77    5.24 
  11 -12   8   17.88    4.65 
  12 -11   8   34.37    6.49 
  12  11   9   24.43    5.05 
  11  12   9   22.69    5.20 
  11 -12   9   16.67    4.76 
  12 -11   9   30.09    6.14 
  12  11  10    1.57    4.10 
  11  12  10    6.26    3.10 
  11 -12  10    5.52    3.69 
  12 -11  10    4.90    3.62 
  11  12  11   -1.05    2.98 
  12  11  11    2.26    2.70 
  11 -12  11    0.77    3.54 
  12 -11  11    2.34    3.46 
  11 -12  12    8.29    4.20 
  12 -11  12   11.67    3.86 
  12 -11  13   15.77    4.45 
  11 -12  13   15.56    4.13 
  12 -11  14    5.70    3.32 
  11 -12  14    2.18    3.05 
  12 -11  15    5.17    2.88 
  11 -12  15    2.70    2.61 
  12 -11  16    9.04    2.71 
  11 -12  16   11.83    2.87 
  12 -11  17   15.65    2.89 
  11 -12  17   19.24    3.10 
  12  12   0    8.50    4.54 
  12  12  -1    9.67    4.54 
  12  12   1   13.28    4.92 
  12 -12   1   14.29    4.43 
  12  12   2   14.05    4.70 
  12  12  -2   18.39    5.45 
  12 -12   2   14.19    4.05 
  12  12  -3   19.30    5.03 
  12  12   3   20.61    5.55 
  12 -12   3   21.57    5.07 
  12 -12   4   66.24    7.99 
  12  12  -4   61.10    8.06 
  12  12   4   64.77    8.15 
  12  12   5    4.67    3.47 
  12  12  -5   20.33    5.08 
  12 -12   5   12.63    4.61 
  12  12  -6    6.88    3.95 
  12  12   6   -4.57    3.66 
  12 -12   6    1.75    3.05 
  12  12   7    4.17    3.57 
  12 -12   7    0.26    3.78 
  12  12   8    8.85    3.92 
  12 -12   8   14.33    4.56 
  12  12   9   -1.70    2.89 
  12 -12   9    2.21    3.20 
  12  12  10   -1.16    2.75 
  12 -12  10    1.28    3.73 
  12  12  11   17.98    4.11 
  12 -12  11   18.90    4.76 
  12 -12  12   43.15    6.04 
  12 -12  13   25.56    4.82 
  12 -12  14   10.49    3.53 
  12 -12  15    0.48    2.08 
  12 -12  16    3.37    2.08 
   0 -13   0   69.66   10.29 
   0  13   0   77.35    7.95 
   0 -13  -1   60.52   10.01 
   0 -13   1   49.65    8.76 
   0  13  -1   67.54    7.58 
   0  13   1   75.45    8.07 
   0 -13  -2   -1.04    5.11 
   0  13   2   10.69    4.04 
   0  13  -2    2.53    2.68 
   0 -13  -3   27.26    7.22 
   0  13  -3   35.58    5.92 
   0  13   3   24.53    4.91 
   0 -13  -4  101.38   12.46 
  13   0   4  117.78   10.50 
   0  13  -4  117.24    9.73 
   0  13   4  123.79    9.97 
  13   0  -5    3.61    2.26 
   0 -13  -5    2.62    4.73 
  13   0   5    5.94    3.52 
   0  13   5    8.79    3.52 
   0 -13  -6   12.67    5.48 
  13   0   6   14.52    4.73 
   0  13   6   11.71    3.91 
   0 -13  -7   16.04    5.72 
  13   0   7   18.81    5.04 
   0  13   7   16.31    4.07 
  13   0   8    1.94    2.39 
   0 -13  -8    0.17    4.35 
  13   0   8    1.38    3.01 
   0  13   8    1.62    2.63 
  13   0   9   22.91    4.76 
  13   0   9   29.78    5.59 
  13   0  10   -2.30    2.60 
  13   0  10   -5.28    4.10 
 -13   0  10   -5.63    5.59 
  13   0  11    6.57    3.14 
  13   0  11    0.10    2.87 
  13   0  12   26.76    4.63 
 -13   0  12   20.56    5.82 
 -13   0  13   67.41    8.87 
 -13   0  14   11.82    4.84 
 -13   0  15   -3.33    4.55 
 -13   0  16   13.90    4.90 
 -13   0  17   33.86    5.90 
 -13   0  18    8.22    3.63 
 -13   0  19   -4.14    2.88 
   0 -13  20   19.01    2.96 
 -13   0  20   11.65    2.82 
   1 -13   0  113.62   12.89 
  -1 -13   0  111.88   12.71 
  -1  13   0  120.46    9.84 
   1  13   0  129.87   10.31 
   1 -13  -1   20.57    6.51 
   1 -13   1   11.57    4.98 
  -1 -13  -1   15.64    4.53 
  -1  13   1   23.62    4.99 
   1  13  -1   22.79    4.90 
   1  13   1   30.83    5.65 
  -1  13  -1   23.06    4.77 
   1 -13  -2    1.87    3.77 
  -1 -13  -2   -3.75    4.03 
   1 -13   2   -5.44    5.94 
  13  -1   2   -4.24    3.58 
  -1  13   2   -1.26    2.60 
   1  13   2   -4.46    3.44 
   1  13  -2    2.87    3.00 
  -1  13  -2    0.93    3.05 
   1 -13  -3   54.15    9.02 
  -1 -13  -3   52.72    9.12 
  13  -1   3   66.51    8.02 
  13   1  -3   56.94    6.74 
  -1  13   3   54.96    7.02 
   1  13  -3   70.31    7.70 
   1  13   3   63.55    7.54 
   1 -13  -4   53.28    9.48 
  -1 -13  -4   53.21    8.99 
  13  -1   4   55.89    7.54 
  13   1  -4   45.65    6.00 
  -1  13   4   60.45    7.40 
   1  13  -4   63.39    7.37 
   1  13   4   54.82    6.93 
  13   1  -5   43.07    5.83 
   1 -13  -5   42.43    9.08 
  -1 -13  -5   46.94    8.50 
  13  -1   5   51.62    7.23 
   1  13   5   46.14    6.50 
  -1  13   5   50.03    6.80 
   1  13  -5   49.69    6.75 
  13   1   6    0.23    2.52 
   1 -13  -6    3.81    4.07 
  -1 -13  -6   -6.80    4.67 
  13  -1   6   -4.14    4.05 
   1  13   6    1.42    2.97 
   1  13  -6    2.43    2.72 
  -1  13   6   -2.10    2.86 
  13   1   7   -0.23    2.73 
   1 -13  -7   -1.45    3.95 
  -1 -13  -7    2.23    3.70 
  13   1   7   -2.11    2.78 
  13  -1   7   -2.32    3.17 
   1  13   7    1.72    2.44 
  13   1   8   27.48    5.00 
   1 -13  -8   28.20    7.48 
  13   1   8   29.73    5.74 
  13  -1   8   30.28    5.64 
   1  13   8   27.96    5.02 
  13   1   9   -0.07    2.79 
  13   1   9    2.07    2.82 
  13  -1   9    0.68    3.53 
   1 -13  -9    6.37    5.01 
 -13   1   9    2.11    5.47 
  13  -1  10    7.11    3.20 
  13   1  10    5.98    3.31 
  13  -1  10    1.59    2.98 
  13   1  11    6.69    3.26 
  13  -1  11    9.97    3.25 
  13  -1  11    2.23    2.97 
  13   1  12   24.14    4.50 
  13  -1  12   24.75    4.54 
  13  -1  12   27.93    5.60 
 -13   1  12   26.42    6.23 
 -13  -1  12   32.01    6.44 
  13  -1  13   48.20    6.66 
 -13   1  13   54.05    8.34 
 -13  -1  13   50.70    7.71 
 -13   1  14   20.60    5.70 
 -13  -1  14   17.51    5.33 
 -13  -1  15   -8.05    4.64 
 -13   1  15   -8.20    4.89 
 -13  -1  16   14.73    5.13 
 -13   1  16   17.08    4.84 
 -13  -1  17   22.69    4.89 
 -13   1  17   20.07    4.84 
 -13  -1  18    7.21    2.89 
 -13   1  18    4.09    3.24 
   1 -13  19    2.32    2.44 
 -13  -1  19    4.28    2.37 
 -13   1  19    0.72    2.87 
   1 -13  20   13.80    2.77 
  -1 -13  20   17.62    2.96 
 -13  -1  20   10.62    2.58 
 -13   1  20   14.99    3.06 
   2 -13   0   44.74    8.44 
  13   2   0   52.83    6.49 
   2  13   0   59.49    7.26 
   2  13  -1   34.92    5.90 
   2  13   1   30.06    5.49 
  13   2  -1   33.55    5.43 
  13   2   1   30.52    5.14 
   2 -13  -1   30.18    7.57 
   2 -13   1   14.57    6.12 
  -2 -13  -1   22.70    6.59 
  13  -2   1   32.19    5.96 
  13   2  -2   -2.48    2.70 
  13   2   2   -0.59    2.43 
   2  13   2    2.72    2.77 
   2 -13  -2    2.22    4.70 
   2 -13   2   -7.02    5.08 
  -2 -13  -2   -3.02    4.17 
  13  -2   2   -5.39    3.92 
   2  13  -2    4.22    3.29 
   2 -13  -3   61.03   10.07 
  -2 -13  -3   46.31    8.68 
   2 -13   3   52.04    8.94 
  13  -2   3   64.28    7.98 
  13   2   3   60.05    7.01 
  13   2  -3   64.02    7.31 
   2  13  -3   68.75    7.78 
   2  13   3   64.53    7.50 
   2 -13  -4   60.34   10.05 
  -2 -13  -4   48.92    8.78 
  13  -2  -4   59.85    9.71 
  13  -2   4   60.68    7.71 
  13   2   4   57.09    6.70 
  13   2  -4   60.19    6.98 
   2  13  -4   61.84    7.52 
   2  13   4   66.28    7.63 
   2 -13  -5   48.93    9.38 
  -2 -13  -5   42.61    8.46 
  13  -2  -5   55.48    9.29 
  13  -2   5   64.58    7.86 
  13   2  -5   47.04    6.26 
   2  13  -5   56.05    7.11 
   2  13   5   67.15    7.67 
  13   2   5   55.42    6.89 
  13   2   6    1.95    2.79 
   2  13   6   -1.71    2.69 
   2 -13  -6    5.05    4.80 
  -2 -13  -6   -1.67    3.67 
  13  -2   6   -0.77    3.03 
   2  13  -6   -0.33    2.77 
  13   2   7   12.57    3.56 
   2 -13  -7   12.15    6.46 
  13  -2   7    8.20    3.97 
   2  13   7   13.74    4.14 
   2  13  -7    8.40    3.23 
  13   2   8   15.77    4.39 
   2 -13  -8    9.48    4.75 
  13  -2   8   18.58    4.92 
   2  13   8   20.14    4.50 
  13   2   9   17.38    4.69 
   2 -13  -9   12.59    5.88 
  13  -2   9   18.40    4.86 
   2  13   9   14.22    3.85 
  13   2  10   -2.30    2.89 
  13  -2  10    0.50    3.49 
  13   2  11    5.92    3.11 
  13  -2  11   -2.33    2.91 
  13  -2  11    7.13    3.67 
  13  -2  12   38.97    5.43 
  13  -2  12   48.36    6.99 
  13   2  12   52.28    6.43 
 -13   2  12   62.59    8.79 
 -13  -2  12   40.93    6.92 
  13  -2  13   22.33    4.69 
 -13   2  13   29.68    6.26 
 -13  -2  13   24.04    5.67 
  13  -2  14   32.20    5.57 
 -13   2  14   43.81    7.76 
 -13  -2  14   38.16    6.59 
 -13  -2  15    2.05    3.50 
 -13   2  15   -3.59    4.77 
 -13  -2  16    6.87    3.80 
 -13   2  16    8.84    4.27 
 -13  -2  17   17.70    4.43 
 -13   2  17   24.43    5.12 
 -13  -2  18   -1.03    2.72 
 -13   2  18   -3.03    3.69 
   2 -13  19    2.16    2.25 
 -13  -2  19    1.32    2.05 
 -13   2  19   -0.23    2.77 
   2 -13  20   19.14    3.03 
 -13   2  20   15.04    3.13 
   3  13   0   41.62    6.27 
  13   3   0   37.47    5.72 
  13  -3   0   33.13    6.16 
   3 -13   0   43.29    8.31 
   3  13   1   19.89    4.80 
   3  13  -1   23.21    5.07 
  13   3  -1   19.44    4.44 
  13   3   1   15.48    4.21 
  13  -3   1   17.03    4.74 
   3 -13  -1   17.60    6.67 
   3 -13   1   15.49    5.84 
   3  13   2    7.28    3.39 
  13   3   2    6.33    3.15 
  13   3  -2    9.60    3.54 
   3  13  -2    1.69    2.96 
  13  -3   2    2.70    2.97 
   3 -13  -2   10.44    6.42 
   3 -13   2   -0.58    4.92 
  13   3  -3   30.65    5.68 
   3  13   3   31.65    5.52 
   3  13  -3   34.11    5.93 
  13   3   3   26.09    5.13 
   3 -13  -3   40.04    9.14 
   3 -13   3   24.23    6.18 
  13  -3   3   35.83    6.18 
  13  -3  -4   98.39   12.55 
   3 -13  -4   94.82   12.37 
  -3 -13  -4   82.49   11.10 
  13  -3   4   84.38    9.05 
  13   3  -4   88.49    8.66 
  13   3   4   94.08    8.86 
   3  13  -4  100.13    9.41 
   3  13   4   91.17    8.94 
  13   3  -5   37.40    5.75 
   3  13   5   43.41    6.32 
  13   3   5   37.81    5.96 
   3 -13  -5   34.83    8.10 
  -3 -13  -5   19.06    5.82 
  13  -3  -5   34.29    8.02 
  13  -3   5   35.14    6.16 
   3  13  -5   44.25    6.30 
  13   3   6   -1.83    2.67 
   3  13   6    3.71    3.20 
   3 -13  -6   -6.06    5.67 
  13  -3  -6   -5.32    6.00 
  13  -3   6    1.19    3.00 
   3  13  -6    3.34    2.96 
   3  13   7   15.78    4.23 
  13   3   7   13.27    4.02 
   3 -13  -7    7.14    5.24 
  13  -3  -7   11.52    6.28 
  13  -3   7    8.87    3.82 
   3  13  -7    9.56    3.51 
   3  13   8   22.41    4.53 
  13   3   8   22.13    4.93 
   3 -13  -8   18.15    6.81 
  13  -3  -8   20.47    6.62 
  13  -3   8   23.84    5.48 
   3  13  -8   15.28    3.77 
  13   3   9   14.75    4.27 
   3 -13  -9   16.04    7.00 
  13  -3  -9   15.51    6.47 
  13  -3   9    9.95    4.19 
   3  13   9   11.25    3.51 
  13   3  10    6.69    5.02 
  13  -3  10   -2.66    3.24 
  13   3  11   23.65    4.88 
  13  -3  11   22.91    5.52 
  13   3  12   40.49    5.72 
  13  -3  12   29.71    4.81 
  13  -3  12   32.60    5.97 
 -13   3  12   46.64    7.86 
 -13  -3  12   31.87    6.33 
  13  -3  13   42.58    6.55 
 -13   3  13   61.62    8.90 
 -13  -3  13   48.69    7.30 
  13  -3  14   14.20    4.47 
 -13  -3  14    9.40    4.00 
 -13   3  14   16.23    5.23 
  13  -3  15   -4.84    3.01 
 -13  -3  15    0.30    3.04 
 -13   3  15    1.52    4.14 
 -13  -3  16   10.63    4.03 
 -13   3  16   14.34    5.03 
 -13  -3  17    3.26    2.60 
 -13   3  17    2.33    3.35 
   3 -13  18    5.90    3.23 
 -13  -3  18   -0.47    2.57 
 -13   3  18   -1.65    3.79 
   3 -13  19    1.77    1.87 
 -13  -3  19    1.19    1.72 
 -13   3  19   -0.68    2.52 
   3 -13  20    6.67    2.13 
 -13   3  20    8.89    2.69 
   4  13   0   31.03    5.58 
  13   4   0   30.60    5.24 
  13  -4   0   26.65    5.64 
   4 -13   0   38.38    8.92 
  13   4   1    7.02    3.25 
  13   4  -1    8.85    3.70 
   4  13   1    9.18    3.76 
   4  13  -1   10.71    3.87 
  13  -4   1    2.27    2.93 
   4 -13  -1    7.36    4.28 
   4 -13   1    8.88    5.19 
  13   4   2    9.37    3.48 
  13   4  -2    0.14    2.49 
   4  13  -2   -3.19    3.15 
   4  13   2   -2.30    3.42 
  13  -4   2    0.20    3.10 
   4 -13  -2    0.97    5.23 
   4 -13   2   -3.97    5.76 
  13   4  -3   28.22    5.25 
  13   4   3   30.67    5.31 
   4  13   3   34.36    5.76 
   4  13  -3   36.36    6.02 
   4 -13  -3   34.68    8.69 
   4 -13   3   20.95    6.01 
  13  -4  -3   30.19    7.05 
  13  -4   3   27.20    5.87 
   4 -13  -4   58.70   10.09 
   4 -13   4   68.17   10.48 
  13  -4  -4   67.85   10.08 
  13  -4   4   69.94    8.48 
  13   4  -4   64.18    7.40 
  13   4   4   70.90    7.78 
   4  13  -4   72.13    8.09 
   4  13   4   72.86    7.87 
  13   4   5   19.32    4.68 
  13   4  -5   14.53    3.77 
   4  13   5   24.04    5.15 
   4 -13  -5    6.87    5.36 
  13  -4  -5   10.90    5.03 
  13  -4   5   14.35    4.58 
   4  13  -5   13.98    4.40 
  13   4   6   -0.55    2.99 
   4  13   6    1.28    3.49 
   4 -13  -6   -4.15    4.97 
  13  -4  -6   -6.71    6.01 
  13  -4   6    4.42    3.10 
   4  13  -6    2.82    3.26 
   4  13   7   25.28    5.29 
  13   4   7   17.74    4.68 
   4 -13  -7   12.02    5.89 
  13  -4  -7   15.88    6.33 
  13  -4   7   12.52    4.43 
   4  13  -7   16.86    4.24 
  13   4   8   31.99    5.67 
   4  13   8   31.92    5.54 
  13  -4   8   23.58    5.38 
   4 -13  -8   25.89    7.34 
  13  -4  -8   31.96    8.36 
   4  13   9   18.21    4.57 
  13   4   9   27.44    5.21 
  13  -4   9   19.30    5.05 
   4 -13  -9   23.93    7.08 
  13  -4  -9   14.92    6.69 
  13   4  10   -0.65    2.66 
  13  -4  10   -1.89    3.17 
  13   4  11   19.89    4.54 
  13  -4  11   20.29    4.98 
 -13   4  11    9.66    4.58 
  13  -4  12   51.82    7.33 
  13   4  12   49.34    6.29 
 -13   4  12   50.60    8.02 
 -13  -4  12   37.08    6.22 
  13  -4  13   40.48    6.26 
 -13   4  13   45.73    7.69 
 -13  -4  13   30.77    5.88 
  13  -4  14    5.88    3.55 
 -13  -4  14    4.58    3.74 
 -13   4  14   10.27    4.83 
  13  -4  15   -1.76    2.96 
 -13  -4  15    1.67    2.70 
 -13   4  15    2.95    4.35 
  13  -4  16    4.62    2.39 
   4 -13  16    9.29    4.29 
 -13   4  16    2.89    3.37 
 -13  -4  16    5.95    2.83 
 -13  -4  17    1.52    2.55 
 -13   4  17    4.56    3.20 
   4 -13  18   -0.01    2.64 
 -13  -4  18   -2.16    2.19 
 -13   4  18   -1.54    3.11 
   4 -13  19    0.54    1.78 
 -13   4  19    0.19    2.37 
 -13   4  20    7.96    2.48 
   5  13   0   20.56    4.75 
  13   5   0   28.24    5.57 
  13  -5   0   23.86    5.41 
   5 -13   0   26.02    7.34 
  13   5   1   19.22    4.72 
  13   5  -1   21.01    4.89 
   5  13  -1   15.99    4.75 
   5  13   1   16.38    4.28 
  13  -5  -1   13.27    4.31 
  13  -5   1   16.86    4.60 
   5 -13  -1   26.43    7.76 
   5 -13   1   13.41    5.53 
  13   5   2    1.67    3.17 
   5  13   2    0.86    3.02 
  13   5  -2    3.49    2.77 
   5  13  -2    1.14    3.07 
  13  -5   2    2.29    3.40 
   5 -13  -2    8.05    5.31 
   5 -13   2   -1.43    5.06 
  13   5   3   11.31    4.07 
  13   5  -3   11.99    4.05 
   5  13   3   12.58    4.15 
   5  13  -3   12.67    4.09 
  13  -5   3   11.18    4.62 
   5 -13  -3   15.51    6.83 
   5 -13   3    7.04    5.32 
  13  -5  -3   16.34    6.89 
   5  13   4    8.48    3.85 
  13   5  -4   17.24    4.55 
   5  13  -4   11.95    3.97 
  13   5   4   16.57    4.43 
  13  -5   4   16.15    4.82 
   5 -13   4   12.74    3.48 
   5 -13  -4    9.01    4.67 
   5 -13   4    7.05    5.33 
  13  -5  -4   12.94    6.00 
   5  13  -5   15.34    4.44 
   5  13   5   18.99    4.52 
  13   5  -5   21.63    4.91 
  13   5   5   22.64    4.85 
   5 -13  -5   12.25    4.84 
  13  -5  -5   24.55    6.99 
  13  -5   5   16.30    4.67 
   5  13   6    0.89    3.09 
  13   5   6   -1.28    2.85 
   5 -13  -6    3.29    4.60 
  13  -5  -6    4.01    4.45 
  13  -5   6    3.27    3.37 
   5  13  -6    5.07    3.22 
  13   5   7    7.39    3.56 
   5  13   7    3.80    2.99 
   5 -13  -7    6.27    5.67 
  13  -5  -7    2.74    4.89 
  13  -5   7    4.97    3.64 
   5  13  -7    5.07    3.43 
   5 -13  -8   53.98   10.47 
  13  -5  -8   44.35    9.15 
  13  -5   8   74.07    8.58 
  13   5   8   75.61    8.27 
   5  13   8   81.16    8.42 
   5  13   9   34.43    5.76 
  13   5   9   33.56    6.21 
  13  -5   9   29.08    5.94 
  13   5  10    2.76    3.09 
   5  13  10    0.13    2.68 
  13  -5  10    2.59    3.53 
  13   5  11   18.85    4.35 
  13  -5  11   19.45    5.23 
 -13   5  11   14.59    5.04 
 -13  -5  11    9.59    3.69 
  13   5  12   21.70    4.43 
  13  -5  12   30.64    6.12 
 -13   5  12   24.90    5.96 
 -13  -5  12   17.95    4.52 
  13  -5  13   42.48    6.37 
 -13   5  13   31.32    6.54 
 -13  -5  13   32.59    5.71 
  13  -5  14   -2.70    2.95 
   5 -13  14    8.45    4.29 
 -13  -5  14    2.94    2.65 
 -13   5  14    1.69    4.03 
  13  -5  15    6.95    3.30 
   5 -13  15   16.33    4.70 
 -13  -5  15    9.40    3.29 
 -13   5  15   11.04    4.76 
  13  -5  16   13.16    3.62 
   5 -13  16   17.95    4.50 
 -13  -5  16   11.90    3.32 
 -13   5  16   12.06    4.43 
   5 -13  17   13.52    3.91 
 -13   5  17    9.15    3.52 
   5 -13  18    5.79    2.72 
 -13   5  18    1.19    2.80 
   5 -13  19   -2.74    1.91 
 -13   5  19   -3.67    2.55 
  13   6   0   42.60    6.58 
   6  13   0   31.98    5.78 
  13  -6   0   34.56    6.32 
   6 -13   0   35.18    8.37 
  13   6   1   35.09    6.26 
   6  13   1   27.74    5.40 
  13   6  -1   38.21    6.33 
   6  13  -1   35.80    6.24 
  13  -6  -1   33.75    5.94 
  13  -6   1   40.92    6.79 
   6 -13  -1   27.69    7.48 
   6 -13   1   31.58    8.24 
   6  13  -2    3.04    3.41 
   6  13   2    4.98    3.38 
  13   6   2    9.39    3.92 
  13   6  -2    4.20    2.97 
  13  -6   2    1.65    3.40 
   6 -13   2    3.99    4.87 
  13   6  -3    1.32    3.22 
   6  13  -3   -1.79    3.07 
   6  13   3   -2.82    3.14 
  13   6   3   -0.98    2.88 
   6 -13   3    0.23    2.25 
  13  -6   3    4.99    3.81 
   6 -13  -3   -5.33    5.96 
   6 -13   3  -11.35    6.91 
  13  -6  -3    8.93    5.76 
  13   6  -4    3.22    3.18 
   6  13  -4    7.29    4.10 
  13   6   4    9.37    4.30 
   6  13   4    9.91    4.12 
   6 -13   4   10.29    3.73 
  13  -6   4   10.34    4.45 
   6 -13  -4   -0.25    5.48 
   6 -13   4   -2.57    5.78 
  13  -6  -4   15.07    6.73 
   6  13  -5   -0.23    3.32 
  13   6  -5    2.69    2.54 
   6  13   5   -3.22    3.64 
  13   6   5    1.97    2.85 
   6 -13   5    3.32    2.89 
  13  -6   5    3.95    4.27 
   6 -13  -5   -0.75    4.70 
  13  -6  -5    5.47    5.11 
   6  13   6    8.66    4.00 
  13   6   6    9.90    3.84 
   6  13  -6    6.15    3.27 
   6 -13  -6    0.22    4.64 
  13  -6  -6    4.28    4.62 
   6 -13   6    5.53    3.66 
  13  -6   6    4.52    4.07 
   6  13   7   44.54    6.75 
   6 -13  -7   39.81    8.80 
  13  -6  -7   29.80    8.09 
   6 -13   7   48.50    6.82 
  13  -6   7   50.68    7.69 
  13   6   7   60.42    7.64 
   6  13  -7   44.13    6.50 
  13  -6   8   73.78    8.72 
   6 -13   8   71.84    8.17 
  13   6   8   62.70    7.65 
   6  13   8   60.32    7.82 
  13  -6   9   88.66    9.52 
   6 -13   9   90.77    9.05 
  13   6   9   84.76    8.58 
   6  13   9   90.78    9.13 
  13   6  10    4.20    3.20 
   6  13  10    6.80    3.38 
   6 -13  10    0.43    3.33 
  13  -6  10    6.44    3.89 
 -13   6  10   -5.93    5.05 
  13   6  11   -2.60    2.85 
   6 -13  11    8.06    4.20 
  13  -6  11    0.19    3.31 
 -13   6  11   -0.65    4.21 
 -13  -6  11    0.63    2.60 
  13   6  12   40.94    5.77 
   6 -13  12   49.88    7.34 
  13  -6  12   50.98    7.49 
 -13   6  12   39.94    7.05 
 -13  -6  12   30.74    5.29 
  13  -6  13    3.06    3.17 
 -13  -6  13    3.92    2.64 
 -13   6  13   -0.36    3.55 
   6 -13  14    6.02    4.06 
  13  -6  14    1.15    2.74 
 -13   6  14   -1.29    3.47 
   6 -13  15   30.75    5.88 
  13  -6  15   25.37    4.72 
 -13   6  15   20.14    5.34 
   6 -13  16   31.47    5.15 
  13  -6  16   22.53    4.34 
 -13   6  16   24.25    4.94 
  13  -6  17   15.69    3.66 
 -13   6  17   11.88    3.69 
   6 -13  18   17.09    3.47 
 -13   6  18    6.25    2.67 
   6 -13  19    0.58    1.55 
 -13   6  19   -0.72    1.90 
   7 -13   0   72.49   11.66 
  13  -7   0   66.39    8.37 
   7  13   0   70.00    8.10 
  13   7   0   73.92    8.33 
  13   7  -1   45.98    6.84 
   7  13   1   42.73    6.50 
   7  13  -1   33.07    6.24 
  13   7   1   43.69    6.63 
  13  -7  -1   38.42    6.52 
  13  -7   1   39.94    6.52 
   7 -13  -1   45.62    9.77 
   7 -13   1   34.45    8.68 
   7  13   2   26.90    5.34 
  13   7  -2   24.54    5.46 
  13   7   2   17.79    4.71 
   7  13  -2   28.05    5.63 
  13  -7   2   30.99    6.27 
   7 -13  -2   27.10    7.95 
   7 -13   2   13.47    6.13 
  13   7   3   -0.80    3.09 
  13   7  -3    1.57    2.83 
   7  13   3    2.26    3.16 
   7  13  -3    2.05    3.00 
   7 -13   3    1.84    2.14 
  13  -7   3   -1.05    3.18 
   7 -13  -3   -7.12    6.24 
   7 -13   3   -5.04    6.49 
  13  -7  -3   -0.68    4.30 
   7  13   4    4.06    3.73 
   7  13  -4    6.23    4.02 
  13   7   4    0.11    3.05 
  13   7  -4    5.85    3.60 
   7 -13   4    4.94    3.16 
  13  -7   4    0.31    3.62 
   7 -13  -4    6.01    4.68 
   7 -13   4   -6.02    5.82 
  13  -7  -4   -6.93    5.01 
  13   7  -5   24.79    5.30 
   7  13   5   28.91    5.75 
   7  13  -5   21.10    5.08 
  13   7   5   26.62    5.93 
   7 -13   5   25.48    5.33 
  13  -7   5   23.13    5.89 
   7 -13  -5   20.85    6.90 
  13  -7  -5   24.15    7.73 
  13   7   6    1.64    2.92 
   7  13   6   -0.68    3.43 
   7  13  -6    6.01    3.60 
   7 -13   6    0.15    2.96 
  13  -7   6    0.60    3.80 
   7 -13  -6   -6.35    6.06 
  13  -7  -6    4.39    4.33 
   7  13   7   38.37    6.65 
   7  13  -7   27.04    5.70 
  13   7   7   33.40    5.75 
   7 -13   7   43.14    6.73 
  13  -7   7   33.48    6.59 
  13  -7   8  133.83   11.55 
   7 -13   8  139.49   11.02 
  13   7   8  151.50   11.64 
   7  13   8  129.65   10.91 
   7 -13   9   71.73    8.34 
  13  -7   9   76.30    9.05 
  13   7   9   75.09    8.20 
 -13   7   9   55.74    8.02 
   7  13   9   72.94    8.32 
  13   7  10   47.49    6.52 
   7  13  10   48.11    7.01 
   7 -13  10   42.97    6.83 
  13  -7  10   40.97    7.00 
 -13   7  10   46.03    7.16 
  13   7  11    3.58    3.02 
   7 -13  11    5.03    3.91 
  13  -7  11   -3.40    4.11 
 -13   7  11   -2.86    3.52 
  13   7  12    7.27    3.40 
   7 -13  12    8.91    4.36 
  13  -7  12    3.75    3.41 
 -13   7  12    2.82    3.57 
   7 -13  13   10.77    4.44 
  13  -7  13    6.48    3.56 
 -13   7  13    2.24    3.40 
   7 -13  14    3.62    3.37 
  13  -7  14   14.56    4.18 
 -13   7  14    6.18    3.88 
   7 -13  15   20.36    4.53 
  13  -7  15   17.37    3.89 
 -13   7  15    9.21    4.01 
  13  -7  16   45.69    5.69 
   7 -13  16   47.72    5.82 
 -13   7  16   44.95    6.05 
   7 -13  17   32.56    4.63 
  13  -7  17   22.74    3.71 
 -13   7  17   20.46    4.16 
   7 -13  18   18.42    3.34 
 -13   7  18   12.01    2.94 
   8 -13   0   50.77   10.01 
  13  -8   0   55.04    7.73 
   8  13   0   76.25    8.63 
  13   8   0   71.00    8.61 
   8 -13  -1   59.21   10.57 
   8 -13   1   39.59    8.79 
  13  -8  -1   64.10    7.94 
  13  -8   1   59.70    8.05 
   8  13  -1   74.35    8.75 
   8  13   1   78.18    8.63 
  13   8  -1   74.72    8.70 
  13   8   1   65.49    8.28 
   8  13   2   13.99    4.86 
  13   8  -2   17.64    4.82 
  13   8   2   10.17    4.37 
   8  13  -2    9.51    4.52 
   8 -13  -2   20.11    7.35 
   8 -13   2    8.69    4.12 
  13  -8   2    6.04    3.78 
   8  13  -3   50.50    7.54 
  13   8   3   45.76    6.86 
   8  13   3   46.95    6.94 
   8 -13  -3   21.23    7.20 
   8 -13   3   23.02    7.56 
   8 -13   3   35.87    5.55 
  13  -8   3   49.02    7.49 
  13   8  -3   58.31    8.05 
  13   8   4   13.10    4.70 
   8  13  -4   14.65    4.93 
  13   8  -4   10.81    4.64 
   8  13   4   10.94    4.29 
   8 -13   4    8.75    3.51 
  13  -8   4   14.32    5.05 
   8 -13  -4    4.93    4.42 
   8 -13   4    2.69    5.23 
  13  -8  -4    9.76    5.94 
   8  13   5   11.06    4.30 
   8  13  -5   19.30    5.09 
  13   8   5    9.56    4.25 
  13   8  -5   14.97    4.58 
   8 -13   5   13.66    4.17 
  13  -8   5   18.48    5.36 
   8  13  -6    0.44    3.20 
   8  13   6    4.98    4.05 
  13   8   6   -4.95    4.00 
  13   8  -6    5.11    3.08 
   8 -13   6   -1.06    2.84 
  13  -8   6    0.20    3.49 
  13   8   7   40.75    6.46 
   8  13   7   43.93    6.90 
   8  13  -7   35.64    6.23 
   8 -13   7   48.88    6.81 
  13  -8   7   55.26    7.95 
  13  -8   8  105.04   10.47 
   8 -13   8  108.44    9.77 
 -13   8   8   86.70    9.27 
  13   8   8  106.44    9.70 
   8  13   8   94.81    9.67 
  13  -8   9  125.83   10.96 
   8 -13   9  121.23   10.45 
 -13   8   9   91.07    9.43 
  13   8   9  122.13   10.28 
   8  13   9  127.24   10.91 
   8  13  10   24.32    5.23 
  13   8  10   25.37    5.22 
   8 -13  10   26.96    5.78 
  13  -8  10   21.53    5.32 
 -13   8  10   23.46    5.44 
  13   8  11    5.61    3.34 
   8 -13  11   -2.25    3.55 
  13  -8  11   -2.72    4.21 
 -13   8  11   -0.88    3.49 
  13   8  12    7.53    3.27 
   8 -13  12    7.39    3.72 
  13  -8  12   -2.15    3.79 
 -13   8  12    2.83    4.62 
   8 -13  13   -3.75    3.66 
  13  -8  13   -0.09    2.85 
 -13   8  13    0.59    3.12 
   8 -13  14    0.90    3.16 
  13  -8  14    3.35    3.03 
 -13   8  14    1.04    3.01 
   8 -13  15   23.79    4.66 
  13  -8  15   27.37    4.77 
 -13   8  15   29.33    5.12 
   8 -13  16   35.98    4.92 
  13  -8  16   31.31    4.55 
  13  -8  17   30.90    4.00 
 -13   8  17   30.37    4.22 
   8 -13  18   20.11    3.34 
   9 -13   0   61.74   11.11 
  13  -9   0   69.37    8.76 
   9  13   0   91.63    9.87 
  13   9   0   90.90    9.76 
  13   9  -1   29.23    6.08 
  13   9   1   26.87    5.88 
   9  13  -1   17.58    4.73 
   9  13   1   26.14    5.84 
   9 -13   1   20.32    6.98 
  13  -9  -1   25.23    5.32 
  13  -9   1   25.97    5.66 
   9  13   2   52.78    7.48 
  13  -9   2   52.50    7.76 
   9  13  -2   57.27    8.24 
  13   9  -2   67.05    8.39 
  13   9   2   68.20    8.19 
  13   9   3   -3.56    3.77 
   9  13   3   -5.40    4.01 
   9  13  -3    0.01    3.31 
  13   9  -3    1.79    3.06 
   9 -13   3   -6.81    3.46 
  13  -9   3    0.87    3.46 
   9  13  -4   19.06    5.38 
  13   9   4   13.23    4.50 
   9  13   4   12.23    4.50 
  13   9  -4   13.31    4.64 
   9 -13   4    7.32    3.35 
  13  -9   4   10.42    4.36 
  13   9   5   13.01    4.90 
  13   9  -5   13.68    4.52 
   9  13  -5   18.81    4.95 
   9  13   5    4.06    3.27 
   9 -13   5    6.39    3.47 
  13  -9   5    6.30    3.47 
   9  13  -6   -1.36    3.21 
  13   9  -6   -0.43    2.77 
   9  13   6    0.53    3.64 
  13   9   6    1.27    3.80 
   9 -13   6   -1.19    3.46 
  13  -9   6    2.81    3.83 
   9  13  -7   28.04    5.42 
  13   9   7   27.59    5.63 
   9  13   7   27.69    5.75 
   9 -13   7   31.80    5.90 
  13  -9   7   32.74    6.46 
  13  -9   8   65.94    8.76 
   9 -13   8   57.25    7.54 
 -13   9   8   48.99    6.81 
  13   9   8   59.01    7.65 
   9  13   8   62.39    8.16 
  13  -9   9   76.50    8.97 
   9 -13   9   77.83    8.62 
  13   9   9   62.53    7.65 
   9  13   9   77.86    8.96 
   9  13  10   21.26    4.96 
  13   9  10   12.84    3.82 
   9 -13  10   19.73    5.01 
  13  -9  10   20.25    5.08 
 -13   9  10   14.77    4.34 
   9  13  11    5.64    3.12 
  13   9  11    2.01    2.47 
   9 -13  11    2.56    3.53 
  13  -9  11    0.97    3.62 
 -13   9  11    0.85    3.02 
  13   9  12    3.31    2.55 
   9 -13  12    1.69    3.23 
  13  -9  12    4.89    3.87 
 -13   9  12    3.13    2.67 
   9 -13  13    8.71    3.57 
  13  -9  13    0.71    2.73 
 -13   9  13    3.56    2.76 
   9 -13  14   -3.81    3.37 
  13  -9  14   -1.95    2.74 
 -13   9  14   -7.42    3.50 
   9 -13  15    1.49    2.53 
  13  -9  15    5.21    2.85 
 -13   9  15   -0.40    2.61 
   9 -13  16   32.54    4.58 
  13  -9  16   33.87    4.47 
 -13   9  16   19.10    3.34 
  13  -9  17   13.18    2.76 
   9 -13  17   21.37    3.46 
  10  13   0   24.44    5.59 
  13  10   0   19.41    5.47 
  13 -10   0   11.33    4.05 
  10  13   1   49.16    7.64 
  10  13  -1   28.16    6.26 
  13  10  -1   48.80    7.63 
  13  10   1   47.50    7.29 
  13 -10  -1   37.77    6.39 
  13 -10   1   34.47    6.26 
  10  13  -2   16.34    5.23 
  13  10   2    8.15    4.47 
  10  13   2    8.47    4.39 
  13  10  -2   15.34    5.08 
  13 -10   2    5.16    3.49 
  10 -13   2    8.44    3.24 
  13  10   3   18.30    5.19 
  10  13   3   30.67    5.81 
  13  10  -3   36.21    6.79 
  10  13  -3   27.68    6.01 
  13 -10   3   38.26    6.96 
  10 -13   3   24.05    5.03 
  10  13  -4   17.88    5.58 
  10  13   4   15.16    4.92 
  13  10  -4   21.74    5.47 
  13  10   4   15.57    5.19 
  13 -10   4   25.60    5.74 
  10 -13   4   13.28    4.09 
  10  13  -5    7.05    3.89 
  13  10   5   12.77    4.43 
  10  13   5    8.59    4.20 
  13  10  -5    5.24    3.50 
  10 -13   5    4.23    2.86 
  13 -10   5    8.00    4.32 
  10  13   6    1.39    3.35 
  13  10  -6    6.09    4.03 
  10  13  -6    0.10    3.32 
  13  10   6   -3.50    3.35 
  10 -13   6   -9.01    4.35 
  13 -10   6   -0.75    3.42 
  10  13   7    1.68    3.48 
  13  10   7    9.80    3.94 
  10 -13   7   -2.34    4.04 
  13 -10   7    7.64    4.21 
  10  13   8   29.33    5.83 
  13  10   8   20.81    4.92 
  10 -13   8   19.70    4.94 
  13 -10   8   28.86    6.17 
  13  10   9   18.03    4.77 
  10  13   9   20.03    5.21 
  10 -13   9   22.81    5.28 
  13 -10   9   23.05    5.53 
  10  13  10    1.43    2.79 
  13  10  10    3.54    3.00 
  10 -13  10    1.49    3.17 
  13 -10  10    7.77    4.13 
  10  13  11    8.98    3.44 
  13  10  11    0.50    2.43 
  10 -13  11    5.20    3.46 
  13 -10  11    3.73    3.61 
  10 -13  12    7.71    3.88 
  13 -10  12    6.58    4.12 
  10 -13  13   16.45    4.19 
  13 -10  13    5.09    3.25 
  10 -13  14   -4.21    3.36 
  13 -10  14    4.24    2.64 
  13 -10  15    2.38    2.36 
  10 -13  15    2.15    2.31 
  13 -10  16    0.95    1.90 
  10 -13  16    8.39    2.65 
  10 -13  17   17.25    3.06 
  11  13   0    9.48    4.18 
  13  11   0   12.68    4.98 
  13 -11   0    5.94    3.54 
  11  13  -1   11.28    4.70 
  13  11   1   14.35    5.11 
  11  13   1    7.33    4.18 
  13  11  -1   18.17    5.36 
  13 -11   1   17.89    4.95 
  11  13  -2   17.60    5.25 
  11  13   2   13.04    5.03 
  13  11  -2   15.93    5.06 
  13  11   2   16.99    5.45 
  13 -11   2   12.46    4.38 
  11 -13   2   13.06    3.79 
  11  13   3   18.06    5.15 
  13  11  -3   26.56    5.87 
  11  13  -3   25.33    6.06 
  13  11   3   21.49    6.04 
  13 -11   3   21.74    5.06 
  11 -13   3   24.39    4.99 
  13 -11   4   60.50    8.20 
  11 -13   4   49.36    6.78 
  11  13   4   59.69    7.99 
  13  11  -4   65.08    8.33 
  13  11   4   78.00    8.96 
  11  13  -4   67.63    8.63 
  13  11   5   14.71    4.72 
  11  13  -5   10.35    4.21 
  13  11  -5   17.69    4.84 
  11  13   5    7.08    4.08 
  13 -11   5    8.27    4.05 
  11 -13   5   19.65    4.78 
  11  13  -6   15.52    4.46 
  13  11  -6   -3.11    2.91 
  11  13   6    0.80    3.07 
  13  11   6    3.15    3.32 
  13 -11   6    1.13    3.96 
  11 -13   6   12.43    4.25 
  13  11   7   -4.39    3.50 
  11  13   7   -0.12    3.47 
  13 -11   7   -0.11    3.59 
  11 -13   7    2.31    2.97 
  11  13   8    9.45    4.07 
  13  11   8    6.02    3.87 
  13 -11   8   10.77    4.43 
  11 -13   8    7.60    3.82 
  11  13   9   -0.80    2.79 
  13  11   9   -0.66    2.94 
  11 -13   9    3.38    3.23 
  13 -11   9    2.27    3.47 
  11  13  10    2.98    2.91 
  13  11  10   -0.13    2.61 
  11 -13  10    1.38    3.03 
  13 -11  10   -0.10    3.08 
  13  11  11   14.01    3.80 
  11  13  11   16.71    4.06 
  13 -11  11   16.53    4.66 
  11 -13  11   25.14    5.01 
  11 -13  12   46.53    6.17 
  13 -11  12   35.18    5.91 
  13 -11  13   21.77    4.65 
  11 -13  13   22.48    4.30 
  13 -11  14    9.65    3.24 
  11 -13  14   10.35    3.15 
  13 -11  15   -2.80    2.35 
  11 -13  15   -0.67    2.17 
  13 -11  16    4.56    2.09 
  11 -13  16   -0.18    1.81 
  12  13   0    4.39    4.13 
  13  12   0    1.75    3.34 
  12  13   1   -3.44    4.44 
  12  13  -1    0.50    3.46 
  13  12  -1   -3.10    4.29 
  13  12   1   -4.51    4.35 
  13 -12   1   -1.77    3.30 
  12  13   2   16.74    5.08 
  12  13  -2   28.02    6.33 
  13  12   2   14.50    5.20 
  13  12  -2   13.15    4.75 
  13 -12   2   15.76    4.38 
  12 -13   2    7.68    3.58 
  12  13  -3   45.97    7.82 
  12 -13   3   50.95    6.77 
  13 -12   3   47.58    6.95 
  13  12  -3   66.70    8.61 
  12  13   3   61.53    8.21 
  13  12   3   68.53    8.37 
  13  12  -4   51.90    7.51 
  12  13   4   46.48    7.19 
  13  12   4   39.26    6.90 
  13 -12   4   52.93    7.63 
  12 -13   4   45.29    6.59 
  12  13  -4   60.16    8.11 
  13  12   5   23.26    5.38 
  12  13  -5   37.73    6.34 
  13  12  -5   41.85    6.50 
  12  13   5   33.40    6.52 
  13 -12   5   34.73    6.24 
  12 -13   5   40.88    6.68 
  12  13  -6    5.44    3.59 
  12  13   6   12.28    4.64 
  13  12  -6   12.29    4.05 
  13  12   6    6.19    3.87 
  13 -12   6    9.65    4.28 
  12 -13   6   11.15    4.20 
  12  13   7    1.65    3.02 
  13  12   7   -4.03    3.68 
  13 -12   7    0.80    3.39 
  12 -13   7    6.81    3.59 
  12  13   8    2.08    3.17 
  13  12   8   -0.01    2.87 
  13 -12   8    3.80    3.12 
  12 -13   8   -5.02    3.24 
  12  13   9   -0.83    2.68 
  13  12   9   -1.64    2.77 
  13 -12   9    3.63    3.54 
  12 -13   9    3.05    2.94 
  12  13  10    9.02    3.51 
  13  12  10   13.17    3.85 
  13 -12  10   11.83    3.95 
  12 -13  10   13.69    4.17 
  12  13  11   14.18    3.68 
  13  12  11   19.35    4.18 
  13 -12  11   21.08    4.63 
  12 -13  11   26.10    5.20 
  13 -12  12   56.83    6.39 
  12 -13  12   59.59    6.60 
  13 -12  13   41.14    5.44 
  12 -13  13   33.02    4.81 
  13 -12  14    5.77    2.44 
  12 -13  14    5.04    2.54 
  13 -12  15   11.70    2.75 
  12 -13  15    6.37    2.40 
  13  13   0    1.15    3.45 
  13  13  -1    1.92    3.62 
  13  13   1    7.72    4.36 
  13  13  -2    8.19    4.19 
  13  13   2   10.55    4.39 
  13 -13   2    8.56    3.65 
  13  13  -3   52.32    7.73 
  13 -13   3   44.99    6.45 
  13  13   3   66.25    8.13 
  13  13  -4   48.90    7.34 
  13  13   4   50.95    7.12 
  13 -13   4   45.20    6.57 
  13  13   5   56.22    7.36 
  13  13  -5   48.58    6.91 
  13 -13   5   41.48    6.29 
  13  13  -6    6.07    3.38 
  13  13   6    8.54    3.85 
  13 -13   6    7.14    3.23 
  13  13   7    1.71    3.14 
  13 -13   7    3.47    3.09 
  13  13   8   -0.69    2.66 
  13 -13   8    1.10    2.72 
  13  13   9    0.47    2.54 
  13 -13   9    4.67    3.00 
  13  13  10    3.86    2.79 
  13 -13  10    7.64    3.43 
  13  13  11   23.18    3.85 
  13 -13  11   34.10    5.32 
  13 -13  12   36.80    4.98 
  13 -13  13   31.59    4.46 
  13 -13  14   20.65    3.37 
   0 -14   0   43.76    8.99 
   0  14   0   50.31    7.09 
   0 -14  -1    1.63    4.06 
   0  14  -1    6.32    3.64 
   0  14   1    4.44    4.07 
   0 -14  -2    2.59    3.94 
   0  14   2    9.70    3.94 
   0  14  -2   10.53    4.10 
   0 -14  -3   85.16   12.06 
   0  14  -3   99.47    9.28 
   0  14   3   93.51    9.43 
   0 -14  -4   47.59    9.49 
  14   0  -4   52.87    6.55 
   0  14   4   56.39    7.46 
   0 -14  -5   93.30   12.51 
  14   0  -5   88.77    8.34 
   0  14   5  107.90    9.66 
   0 -14  -6   -5.28    5.46 
   0  14   6   -1.88    3.31 
  14   0   7    1.75    2.69 
   0 -14  -7   -2.54    4.27 
  14   0   7   -1.47    3.43 
   0  14   7    0.39    2.63 
  14   0   8    3.12    3.34 
  14   0   8    6.62    4.04 
  14   0   9   -0.05    3.36 
  14   0   9   -1.36    3.25 
  14   0  10   -1.52    2.91 
  14   0  11   47.19    6.34 
  14   0  12   29.69    4.84 
 -14   0  12   29.04    5.76 
 -14   0  13   61.47    8.18 
 -14   0  14   40.75    6.84 
 -14   0  15    0.25    3.41 
 -14   0  16    1.31    3.14 
 -14   0  17    6.37    3.16 
 -14   0  18   -3.56    3.03 
   0 -14  19   11.06    2.64 
 -14   0  19    4.48    2.32 
   1 -14   0   16.91    6.41 
  14   1   0   20.63    4.65 
   1  14   0   16.97    4.91 
  -1  14   0   22.73    5.30 
   1 -14  -1   14.91    5.94 
  -1 -14  -1    6.20    4.10 
  14   1  -1   17.16    4.70 
  14   1   1   14.69    4.08 
   1  14   1   13.96    4.53 
  -1  14   1   13.65    4.10 
   1  14  -1   15.71    4.73 
   1 -14  -2    6.00    3.84 
  -1 -14  -2   -1.99    5.73 
  14   1  -2    8.08    3.36 
  14   1   2   12.40    3.79 
   1  14   2   19.85    5.14 
   1  14  -2   12.72    4.91 
  -1  14   2   18.40    5.11 
   1 -14  -3   38.78    8.52 
  -1 -14  -3   46.04    9.12 
  14   1   3   50.08    6.49 
   1  14   3   46.87    7.05 
   1  14  -3   55.34    7.30 
  14   1  -3   53.58    6.95 
  -1  14   3   47.85    6.90 
   1 -14  -4   85.32   11.89 
  -1 -14  -4   98.47   12.75 
  14  -1   4  122.26   11.30 
  14   1   4  127.39   10.23 
  14   1  -4  113.37    9.53 
  -1  14   4  120.64   10.23 
   1  14  -4  123.40   10.37 
   1  14   4  129.55   10.64 
  14   1   5   29.83    5.55 
  14   1  -5   27.17    4.87 
  14  -1  -5   23.86    4.40 
   1 -14  -5   16.59    5.83 
  -1 -14  -5   20.49    6.57 
  14  -1   5   27.05    6.05 
   1  14  -5   29.76    5.70 
   1  14   5   29.90    5.56 
  14   1   6   18.03    4.75 
   1 -14  -6   10.81    5.11 
  -1 -14  -6    7.35    4.57 
  14  -1   6   13.98    4.89 
   1  14   6   13.09    4.45 
  14   1   7    3.11    2.91 
   1 -14  -7    2.49    4.09 
  14  -1   7    3.57    3.99 
   1  14   7    3.80    3.57 
  14   1   8   -1.14    3.19 
   1 -14  -8   -2.55    5.22 
  14  -1   8   -6.48    4.42 
   1  14   8    1.22    2.74 
  14  -1   9    0.87    2.91 
  14   1   9    5.20    3.58 
  14  -1   9    6.84    3.84 
   1  14   9    7.42    3.19 
  14   1  10    9.44    3.82 
  14  -1  10    7.15    3.05 
  14  -1  10    3.79    3.61 
  14   1  11   10.73    3.59 
  14  -1  11    7.75    3.42 
  14  -1  11    9.33    4.08 
  14  -1  12   41.82    6.27 
  14   1  12   53.93    6.29 
  14  -1  12   49.56    6.08 
 -14   1  12   62.86    8.55 
 -14  -1  12   54.64    7.88 
 -14   1  13   48.39    7.50 
 -14  -1  13   41.30    7.11 
 -14   1  14   35.68    6.89 
 -14  -1  14   28.80    6.00 
 -14  -1  15    2.33    3.49 
 -14   1  15   -1.65    3.65 
 -14  -1  16    4.92    3.55 
 -14   1  16    2.73    3.91 
 -14  -1  17    1.92    2.72 
 -14   1  17    7.68    3.38 
   1 -14  18    2.85    2.56 
 -14  -1  18   -3.18    2.67 
 -14   1  18   -2.76    3.06 
   1 -14  19    4.67    2.13 
 -14  -1  19    2.31    1.88 
 -14   1  19    5.50    2.61 
   2 -14   0   24.34    6.96 
  14   2   0   35.12    5.63 
   2  14   0   36.44    6.56 
   2 -14  -1   -4.34    5.73 
   2 -14   1   -4.94    5.51 
  14   2  -1    2.83    3.07 
  14   2   1    3.93    2.74 
   2  14  -1    5.62    3.35 
   2  14   1    5.50    3.61 
   2 -14  -2   -2.65    6.02 
   2 -14   2  -11.96    7.22 
  14   2   2    0.71    2.75 
  14   2  -2    2.89    2.59 
   2  14   2   -2.28    3.33 
   2  14  -2    3.06    3.84 
  14   2   3   46.88    6.48 
  14   2  -3   52.35    6.88 
   2 -14  -3   42.37    8.73 
  -2 -14  -3   25.35    7.11 
  14  -2   3   63.72    8.36 
   2  14   3   50.63    7.15 
   2  14  -3   49.64    7.27 
  14   2  -4   58.34    7.18 
   2 -14  -4   76.63   11.56 
  -2 -14  -4   60.51    9.94 
  14  -2   4   76.38    8.86 
  14   2   4   82.34    8.58 
   2  14  -4   69.40    8.06 
   2  14   4   72.06    8.25 
  14   2   5   36.37    6.06 
  14   2  -5   38.38    6.08 
   2 -14  -5   40.29    9.28 
  -2 -14  -5   24.06    6.90 
  14  -2   5   33.57    6.64 
   2  14  -5   40.12    6.49 
   2  14   5   36.15    6.14 
  14   2   6    3.10    3.39 
   2 -14  -6    0.82    4.38 
  14  -2  -6   -1.02    4.18 
  14  -2   6   -5.74    4.26 
   2  14   6    0.68    3.05 
   2  14  -6    2.32    3.51 
  14   2   7    0.73    3.47 
   2 -14  -7    3.58    5.05 
  14  -2  -7   -2.04    5.16 
  14  -2   7    1.04    3.56 
   2  14   7   -1.44    2.97 
  14   2   8    7.77    3.84 
   2 -14  -8    5.20    4.97 
  14  -2  -8   15.71    6.65 
  14  -2   8   11.52    4.55 
   2  14   8   11.90    3.71 
  14   2   9    2.17    2.83 
  14  -2   9   -1.19    3.54 
   2  14   9    2.44    2.59 
  14   2  10   -2.47    3.11 
  14  -2  10    0.05    2.53 
  14  -2  10   -3.91    4.06 
  14  -2  11   14.35    3.78 
  14   2  11    8.71    3.30 
  14  -2  11   15.00    4.40 
  14   2  12   33.39    5.26 
  14  -2  12   33.38    5.18 
  14  -2  12   34.06    5.95 
 -14   2  12   31.69    6.74 
 -14  -2  12   33.13    6.22 
  14  -2  13   51.43    7.10 
 -14   2  13   58.13    8.61 
 -14  -2  13   49.28    7.23 
  14  -2  14   12.51    3.82 
 -14  -2  14   15.01    4.86 
 -14   2  14   16.39    5.12 
 -14  -2  15    3.54    3.08 
 -14   2  15   10.16    4.46 
 -14  -2  16    5.19    3.13 
 -14   2  16    9.16    3.94 
 -14  -2  17    3.33    2.80 
 -14   2  17   -3.73    3.53 
   2 -14  18    6.56    2.89 
 -14  -2  18    0.02    2.22 
 -14   2  18    1.36    2.41 
   2 -14  19    4.53    1.88 
 -14  -2  19    0.90    1.55 
 -14   2  19    2.30    2.30 
   3 -14   0   10.53    5.20 
   3  14   0   25.19    5.08 
  14   3   0   18.84    4.69 
   3 -14  -1   26.77    7.76 
   3 -14   1   14.66    6.10 
   3  14  -1   21.17    5.12 
   3  14   1   24.33    5.30 
  14   3  -1   22.50    4.99 
  14   3   1   26.83    5.61 
  14   3  -2    0.89    3.02 
   3  14   2   -0.02    3.21 
  14   3   2   -0.46    2.75 
   3 -14  -2    6.18    4.42 
   3 -14   2   -8.69    6.24 
  14  -3   2   -7.14    4.56 
   3  14  -2   -3.00    3.84 
  14   3   3   34.50    6.05 
   3  14   3   30.89    6.24 
  14   3  -3   34.02    5.91 
   3 -14  -3   19.42    7.24 
   3 -14   3   16.03    5.88 
  14  -3   3   29.40    6.28 
   3  14  -3   33.00    6.05 
  14   3   4   43.76    6.47 
  14   3  -4   36.33    6.07 
   3  14   4   44.40    6.75 
   3 -14  -4   30.37    8.18 
  14  -3   4   35.90    6.39 
   3  14  -4   45.48    6.85 
  14   3   5   16.56    4.36 
  14   3  -5   17.19    4.52 
   3  14   5   16.06    4.59 
   3 -14  -5   18.31    7.25 
  14  -3   5   17.79    5.22 
   3  14  -5   20.91    4.86 
   3  14   6   -2.27    3.31 
  14   3   6    2.31    3.24 
   3 -14  -6    9.13    5.71 
  14  -3  -6   -3.36    4.09 
  14  -3   6   -5.41    3.97 
   3  14  -6   -1.02    2.93 
  14   3   7    7.30    4.15 
   3 -14  -7    9.60    5.80 
  14  -3  -7    0.04    4.79 
  14  -3   7    6.40    4.40 
   3  14  -7   11.33    4.51 
   3  14   7   13.09    4.42 
  14   3   8   21.65    4.66 
  14  -3   8   15.61    4.89 
   3  14   8   18.53    4.77 
  14   3   9   13.72    4.73 
  14  -3   9   14.02    4.89 
   3  14   9    8.98    3.79 
  14   3  10   -1.07    2.80 
  14  -3  10    5.28    3.91 
  14   3  11   18.48    4.39 
  14  -3  11   13.14    3.93 
  14  -3  11   12.66    4.45 
  14  -3  12   30.41    4.88 
  14   3  12   28.11    4.82 
  14  -3  12   26.14    5.42 
 -14   3  12   26.32    6.16 
 -14  -3  12   22.30    4.73 
  14  -3  13   33.03    5.80 
 -14   3  13   31.00    6.98 
 -14  -3  13   23.13    5.35 
  14  -3  14   15.08    4.01 
 -14  -3  14   11.42    4.66 
 -14   3  14   12.98    4.84 
  14  -3  15    3.61    2.64 
 -14  -3  15    3.25    3.13 
 -14   3  15    3.04    3.53 
   3 -14  16   14.33    4.51 
 -14  -3  16    9.70    3.51 
 -14   3  16    9.66    6.04 
 -14  -3  17   11.76    3.07 
 -14   3  17   11.63    3.46 
   3 -14  18    0.39    2.16 
 -14  -3  18   -1.27    1.95 
 -14   3  18   -3.34    3.17 
   3 -14  19   -1.13    1.69 
 -14   3  19    0.22    1.85 
   4  14   0   39.55    6.35 
  14   4   0   43.43    6.87 
   4 -14   0   44.48    9.40 
  14   4  -1   13.48    4.19 
  14   4   1   15.03    4.46 
   4  14   1   14.65    4.75 
   4  14  -1    9.05    3.66 
  14  -4   1   18.68    5.24 
   4 -14  -1   15.26    6.17 
   4 -14   1   14.80    6.47 
  14   4  -2   -3.21    3.24 
   4  14   2    3.10    3.37 
   4  14  -2   -2.67    3.33 
  14   4   2    1.68    3.31 
  14  -4   2    1.34    3.67 
   4 -14  -2    8.95    5.47 
   4 -14   2   -2.60    5.11 
   4  14  -3    4.93    4.01 
   4  14   3    6.15    4.09 
  14   4   3    9.73    4.23 
  14   4  -3   10.27    4.01 
   4 -14  -3   12.34    5.94 
   4 -14   3    3.64    4.34 
  14  -4   3   10.51    4.92 
  14   4   4   14.39    4.31 
   4  14   4   14.42    4.74 
  14   4  -4    5.87    2.94 
   4 -14  -4   15.23    6.95 
  14  -4   4    8.93    4.42 
   4  14  -4   15.62    4.75 
  14   4   5   11.91    4.56 
  14   4  -5    7.86    3.39 
   4  14   5   11.53    4.40 
   4 -14  -5    6.41    6.22 
  14  -4   5    5.09    3.76 
   4  14  -5    7.74    3.99 
  14   4   6    4.19    3.49 
   4  14   6    0.21    3.06 
   4 -14  -6   -3.34    5.07 
  14  -4  -6  -10.98    6.84 
  14  -4   6    0.48    3.89 
   4  14  -6    0.68    3.40 
   4  14   7   17.55    4.84 
  14   4   7   29.71    5.97 
  14  -4  -7   12.32    5.80 
  14  -4   7   17.48    5.24 
   4  14  -7   23.89    5.18 
  14   4   8   40.67    6.25 
  14  -4   8   37.19    7.04 
   4  14   8   36.50    5.96 
   4  14  -8   30.30    5.22 
  14   4   9   47.07    6.80 
  14  -4   9   45.19    7.30 
   4  14   9   40.27    6.11 
  14   4  10    0.84    2.88 
  14  -4  10    5.97    4.06 
  14   4  11    1.19    2.72 
 -14   4  11   -0.76    4.37 
  14   4  12   16.90    4.01 
  14  -4  12   22.04    4.23 
  14  -4  12   24.65    5.46 
 -14   4  12   21.39    5.97 
 -14  -4  12   22.82    4.99 
  14  -4  13   11.96    4.09 
 -14   4  13   12.98    5.42 
 -14  -4  13    8.22    3.09 
  14  -4  14   -3.91    3.40 
 -14  -4  14    0.77    2.76 
 -14   4  14   -1.64    3.72 
  14  -4  15    5.84    2.74 
   4 -14  15    7.71    3.99 
 -14  -4  15    3.45    3.02 
 -14   4  15    6.66    3.78 
   4 -14  16   23.34    4.90 
 -14   4  16   24.68    5.08 
 -14  -4  16   12.74    3.13 
 -14  -4  17    1.94    1.73 
 -14   4  17    8.46    3.37 
   4 -14  18    7.56    2.64 
 -14   4  18    6.91    2.86 
   4 -14  19   -1.37    1.50 
 -14   4  19   -2.95    2.19 
   5  14   0   35.80    6.29 
  14   5   0   50.05    7.15 
   5 -14   0   26.42    7.64 
   5  14  -1   29.56    5.76 
   5  14   1   26.46    5.48 
  14   5  -1   36.95    6.41 
  14   5   1   39.90    6.70 
  14  -5   1   29.34    6.22 
   5 -14  -1   34.19    8.98 
   5 -14   1   37.92    8.30 
   5  14  -2    4.16    3.81 
   5  14   2    5.74    3.79 
  14   5  -2    8.86    4.18 
  14   5   2    6.00    3.85 
  14  -5   2    7.38    4.06 
   5 -14  -2    9.01    5.39 
   5 -14   2    2.27    4.47 
   5  14   3   -0.04    3.32 
  14   5  -3    0.03    3.01 
   5  14  -3    1.85    3.59 
  14   5   3   -6.16    3.45 
  14  -5   3   -4.46    3.70 
   5 -14  -3    7.62    6.36 
   5 -14   3   -9.30    6.90 
   5  14  -4    3.23    3.77 
  14   5  -4   10.41    4.03 
   5  14   4    9.82    4.15 
  14   5   4    1.15    3.14 
   5 -14  -4    8.70    5.52 
  14  -5   4    5.64    3.98 
   5 -14   4    4.55    2.80 
   5  14   5   -0.20    3.12 
  14   5  -5   -0.03    3.23 
  14   5   5   -2.02    3.65 
   5 -14  -5    1.82    3.94 
  14  -5   5   11.43    5.21 
   5 -14   5    2.23    2.92 
   5  14  -5    2.41    3.25 
   5  14   6   -0.54    3.35 
  14   5   6    0.41    3.16 
  14  -5   6   -4.29    4.59 
   5 -14   6    2.14    2.89 
   5  14  -6   -0.72    3.22 
  14   5   7   37.57    6.57 
   5  14   7   34.93    6.18 
  14  -5   7   27.99    6.03 
   5  14  -7   39.47    6.68 
  14  -5   8   91.67   10.30 
  14   5   8   99.80    9.37 
   5  14   8   91.58    9.09 
  14  -5   9   69.75    8.43 
  14   5   9   67.26    7.91 
   5  14   9   69.48    8.20 
  14   5  10   11.12    3.91 
  14  -5  10   13.63    5.41 
   5  14  10   15.35    4.25 
  14   5  11    0.72    2.49 
  14  -5  11   -3.62    3.73 
   5 -14  11    8.53    4.40 
 -14   5  11   -4.96    4.84 
 -14  -5  11   -1.30    2.96 
  14   5  12   11.02    3.37 
  14  -5  12   13.59    4.19 
   5 -14  12   22.23    5.52 
 -14   5  12    8.81    4.50 
 -14  -5  12    8.93    3.54 
  14  -5  13    0.83    2.99 
   5 -14  13   18.31    5.19 
 -14  -5  13    4.64    2.81 
 -14   5  13   11.64    4.83 
  14  -5  14    9.72    3.88 
   5 -14  14    4.93    3.79 
 -14  -5  14    1.24    2.43 
 -14   5  14   -0.86    3.53 
  14  -5  15   10.39    3.20 
   5 -14  15   19.40    4.88 
 -14  -5  15    9.70    3.06 
 -14   5  15   15.04    4.63 
  14  -5  16   22.19    4.02 
   5 -14  16   33.91    5.23 
 -14  -5  16   17.16    3.23 
 -14   5  16   32.14    5.53 
   5 -14  17   27.82    4.41 
 -14   5  17   23.28    4.33 
   5 -14  18   10.12    2.63 
 -14   5  18    9.56    2.71 
   6 -14   0   43.33    9.35 
  14  -6   0   54.71    8.02 
  14   6   0   63.11    7.88 
   6  14   0   60.13    8.01 
  14   6  -1   25.83    5.74 
   6  14   1   40.81    6.42 
  14   6   1   50.54    7.39 
   6  14  -1   40.99    6.80 
  14  -6   1   36.77    6.71 
   6 -14  -1   31.41    8.87 
   6 -14   1   22.08    7.11 
   6  14  -2   21.78    5.71 
   6  14   2   20.28    5.25 
  14   6  -2   22.07    5.28 
  14   6   2   19.17    5.03 
  14  -6   2   19.26    5.82 
   6 -14  -2   25.00    7.61 
   6 -14   2    3.33    4.34 
  14   6  -3    0.81    3.28 
  14   6   3   -0.90    3.25 
   6  14  -3   -2.04    3.71 
   6  14   3    7.17    4.30 
  14  -6   3   -2.58    3.76 
   6 -14  -3    1.56    4.74 
   6 -14   3   -3.59    4.71 
   6  14   4   -0.22    3.28 
  14   6  -4    7.21    3.83 
  14   6   4    2.52    3.50 
   6  14  -4    2.37    3.86 
   6 -14   4   -1.11    2.34 
  14  -6   4    0.45    3.99 
   6 -14  -4    3.70    5.83 
   6  14  -5   11.21    4.50 
  14   6  -5   13.65    4.41 
   6  14   5    7.33    4.15 
  14   6   5   11.54    4.39 
   6 -14   5   13.04    3.83 
  14  -6   5   11.27    4.66 
  14   6   6   -1.13    3.50 
   6  14   6   -0.14    3.24 
   6 -14   6    4.05    3.23 
  14  -6   6   -0.37    3.66 
   6  14  -6    0.84    3.20 
  14   6   7   42.35    6.78 
   6  14   7   31.96    6.05 
   6 -14   7   39.46    6.28 
  14  -6   7   39.31    7.16 
   6  14  -7   35.21    6.17 
  14  -6   8  139.01   11.86 
   6 -14   8  127.05   10.18 
  14   6   8  120.05   10.20 
   6  14   8  119.65   10.51 
  14  -6   9   96.83   10.10 
   6 -14   9  108.49    9.67 
  14   6   9   93.14    8.95 
   6  14   9   89.33    9.04 
  14   6  10   33.54    5.76 
   6 -14  10   45.54    6.73 
  14  -6  10   23.40    5.61 
   6  14  10   28.37    5.69 
 -14   6  10   37.93    7.54 
  14   6  11    1.22    2.52 
   6 -14  11    0.35    3.29 
  14  -6  11   -4.45    4.24 
 -14   6  11   -5.81    4.50 
 -14  -6  11    1.19    2.50 
  14   6  12   -1.12    2.56 
   6 -14  12    5.98    3.52 
  14  -6  12    1.03    3.28 
 -14   6  12   -4.87    3.90 
 -14  -6  12   -1.29    2.21 
   6 -14  13    9.35    4.29 
  14  -6  13   -3.79    3.56 
 -14  -6  13    2.25    2.35 
 -14   6  13    7.94    3.82 
   6 -14  14    5.91    3.98 
  14  -6  14    5.77    3.14 
 -14   6  14    6.39    3.69 
   6 -14  15   23.49    4.32 
  14  -6  15   16.11    4.19 
 -14   6  15   25.68    5.27 
   6 -14  16   32.86    4.81 
  14  -6  16   28.14    4.26 
 -14   6  16   20.04    4.35 
   6 -14  17   33.95    4.36 
 -14   6  17   24.91    4.18 
   6 -14  18   13.01    2.78 
 -14   6  18   10.65    2.60 
   7  14   0   49.03    7.65 
   7 -14   0   36.12    8.94 
  14  -7   0   42.57    7.33 
  14   7   0   59.32    8.24 
   7  14  -1   43.84    7.07 
   7  14   1   36.15    6.65 
  14   7   1   48.44    7.38 
  14   7  -1   45.19    7.17 
  14  -7   1   56.22    8.10 
   7 -14  -1   37.47    9.04 
   7 -14   1   25.03    7.28 
   7  14   2   18.35    5.28 
  14   7  -2   20.26    5.43 
   7  14  -2   23.64    5.73 
  14   7   2   20.45    5.17 
  14  -7   2   20.02    5.80 
   7 -14  -2   21.07    7.37 
   7 -14   2    3.39    4.68 
  14   7  -3   23.52    5.72 
  14   7   3   19.04    5.26 
   7  14  -3   26.18    6.06 
   7  14   3   22.74    5.37 
  14  -7   3   22.66    6.10 
  14   7  -4    4.16    3.50 
   7  14   4    6.69    3.99 
   7  14  -4    9.59    4.95 
  14   7   4    4.04    3.50 
   7 -14   4    6.63    3.18 
  14  -7   4    3.92    4.55 
  14   7  -5    1.12    2.83 
   7  14   5    3.48    3.86 
   7  14  -5    7.07    3.89 
  14   7   5    4.96    3.49 
   7 -14   5    5.43    3.48 
  14  -7   5    8.59    3.82 
   7  14   6    1.54    3.76 
  14   7   6    6.35    3.70 
   7 -14   6   -0.73    2.65 
  14  -7   6   -1.10    4.18 
   7  14  -6   -0.42    3.92 
  14   7   7   50.71    7.25 
   7 -14   7   48.07    6.71 
  14  -7   7   60.68    8.63 
   7  14  -7   48.61    7.26 
   7  14   7   57.37    7.96 
  14  -7   8  109.79   10.64 
   7 -14   8  104.17    9.36 
  14   7   8  103.76    9.76 
   7  14   8   91.84    9.23 
  14  -7   9  121.46   11.06 
   7 -14   9  109.95    9.71 
 -14   7   9   91.87    9.72 
  14   7   9  110.72    9.84 
   7  14   9  108.42    9.75 
  14   7  10   22.04    4.79 
   7  14  10   26.83    5.35 
   7 -14  10   29.21    5.50 
  14  -7  10   28.96    5.77 
 -14   7  10   17.85    5.05 
  14   7  11    5.03    2.82 
   7 -14  11    7.23    4.00 
  14  -7  11    1.33    3.40 
  14   7  12    0.50    2.08 
   7 -14  12    4.04    3.94 
  14  -7  12    5.85    3.39 
 -14   7  12   -0.83    3.41 
   7 -14  13    1.74    3.25 
  14  -7  13   -2.51    2.95 
 -14   7  13    2.60    3.63 
   7 -14  14   -4.04    3.48 
  14  -7  14   -2.63    3.49 
 -14   7  14    3.67    3.23 
   7 -14  15   19.19    4.22 
  14  -7  15   16.17    4.12 
 -14   7  15   10.01    3.32 
   7 -14  16   34.01    4.71 
  14  -7  16   24.21    3.95 
 -14   7  16   21.66    4.20 
   7 -14  17   24.12    3.71 
 -14   7  17   18.33    3.25 
   7 -14  18   14.85    2.68 
  14  -8   0   46.63    7.45 
  14   8   0   68.89    8.74 
   8  14   0   61.79    8.40 
  14   8  -1   27.86    6.22 
   8  14   1   26.78    5.93 
   8  14  -1   27.13    6.27 
  14   8   1   31.73    6.59 
  14  -8   1   26.93    6.20 
  14   8  -2   33.05    6.63 
   8  14   2   28.24    5.85 
   8  14  -2   34.90    6.70 
  14   8   2   33.58    6.39 
  14  -8   2   44.62    7.70 
   8  14  -3    3.23    4.11 
  14   8  -3    6.14    3.87 
   8  14   3   -1.76    3.20 
  14   8   3   -0.87    3.56 
  14  -8   3    1.98    3.68 
  14   8  -4    7.27    3.70 
   8  14   4   10.33    4.28 
  14   8   4   13.65    4.94 
   8  14  -4   12.62    4.81 
   8 -14   4    3.97    2.57 
  14  -8   4    7.93    4.52 
   8  14  -5   14.87    4.96 
  14   8   5    6.72    4.37 
   8  14   5   10.32    4.69 
  14   8  -5    4.18    3.51 
   8 -14   5    7.83    3.49 
  14  -8   5   13.42    5.00 
   8  14  -6    1.60    3.10 
   8  14   6    4.96    4.10 
  14   8   6    1.77    3.83 
   8 -14   6    0.09    2.92 
  14  -8   6    6.49    4.74 
  14   8   7   27.40    5.70 
   8  14   7   24.55    6.00 
   8 -14   7   18.50    4.46 
  14  -8   7   28.33    6.48 
   8  14  -7   28.30    5.81 
  14  -8   8   68.47    9.11 
   8 -14   8   57.04    7.23 
 -14   8   8   58.03    7.84 
  14   8   8   59.77    7.46 
   8  14   8   70.39    8.22 
   8 -14   9   49.39    6.73 
  14  -8   9   64.25    8.39 
  14   8   9   62.31    7.29 
 -14   8   9   41.99    6.73 
   8  14   9   59.29    7.56 
   8  14  10   26.59    5.47 
  14   8  10   20.05    4.62 
   8 -14  10   19.44    4.83 
  14  -8  10   19.54    5.39 
 -14   8  10   18.21    4.67 
  14   8  11   -0.60    2.24 
   8 -14  11   -1.85    3.13 
  14  -8  11   -4.55    3.94 
 -14   8  11    2.54    2.84 
  14   8  12    4.22    2.71 
   8 -14  12    6.88    3.39 
  14  -8  12    5.68    3.44 
 -14   8  12    1.05    2.75 
   8 -14  13    5.74    3.14 
  14  -8  13    4.21    3.00 
 -14   8  13    3.39    3.16 
   8 -14  14    3.86    3.07 
  14  -8  14    2.10    2.66 
   8 -14  15    1.20    2.42 
  14  -8  15    3.30    2.24 
 -14   8  15   -3.81    2.88 
   8 -14  16   19.63    3.62 
  14  -8  16   24.92    3.89 
 -14   8  16   15.62    3.05 
   8 -14  17   18.50    3.20 
  14   9   0   19.13    5.45 
   9  14   0   14.87    5.33 
  14  -9   0   12.99    4.14 
   9  14  -1   33.18    6.45 
  14   9  -1   28.56    6.22 
  14   9   1   32.67    6.45 
   9  14   1   24.99    5.91 
  14  -9   1   24.03    5.75 
  14   9  -2    9.53    4.20 
  14   9   2    7.83    4.09 
   9  14  -2    0.35    3.57 
   9  14   2    2.10    3.53 
  14  -9   2    5.38    4.30 
  14   9   3   19.70    5.73 
   9  14  -3   18.22    5.39 
   9  14   3   25.44    5.81 
  14   9  -3   14.90    5.01 
   9 -14   3   17.10    4.26 
  14   9   4   22.82    5.63 
   9  14  -4   12.74    4.90 
   9  14   4   14.25    5.06 
  14   9  -4   28.46    6.04 
   9 -14   4    6.57    2.64 
  14  -9   4   27.68    6.43 
  14   9   5   12.13    4.75 
   9  14  -5   12.21    4.50 
   9  14   5    8.68    4.55 
  14   9  -5   14.99    4.47 
   9 -14   5    7.24    3.20 
  14  -9   5   15.66    5.32 
  14   9   6    3.29    3.65 
   9  14  -6   -0.73    3.07 
   9  14   6    5.44    3.94 
   9 -14   6    0.18    3.24 
  14  -9   6    4.80    4.01 
  14   9   7    7.87    3.95 
   9  14   7    7.43    3.97 
   9 -14   7    1.80    3.34 
  14  -9   7   14.09    5.02 
   9  14  -7    6.12    3.61 
   9  14   8   28.34    6.17 
  14   9   8   25.21    5.43 
   9 -14   8   13.47    4.15 
  14  -9   8   26.48    5.90 
 -14   9   8   18.56    4.62 
   9  14   9   33.08    6.22 
  14   9   9   18.34    4.78 
   9 -14   9   23.40    5.09 
  14  -9   9   25.41    5.73 
 -14   9   9   20.43    4.92 
   9  14  10    0.39    2.80 
  14   9  10   -0.53    2.42 
   9 -14  10    1.49    2.92 
  14  -9  10    0.35    3.40 
 -14   9  10    4.57    3.11 
   9  14  11    4.72    2.67 
  14   9  11    2.61    2.63 
   9 -14  11   -2.88    3.67 
 -14   9  11    3.18    2.60 
  14   9  12    8.23    2.83 
   9 -14  12    5.02    3.10 
  14  -9  12   16.47    4.33 
 -14   9  12    7.72    3.36 
   9 -14  13   10.63    3.69 
  14  -9  13   11.92    3.85 
 -14   9  13    3.61    2.25 
   9 -14  14   -4.84    3.16 
  14  -9  14    1.47    2.60 
 -14   9  14   -1.20    1.95 
   9 -14  15   -3.26    2.63 
 -14   9  15   -0.03    1.00 
  14  -9  16    3.37    1.99 
   9 -14  16    6.49    2.47 
  14  10   0    9.45    4.42 
  10  14   0   12.41    4.87 
  10  14  -1    9.30    4.39 
  10  14   1    4.82    3.98 
  14  10  -1    4.26    4.17 
  14  10   1    7.91    4.33 
  14 -10   1    5.65    3.60 
  10  14  -2    8.71    4.34 
  10  14   2   16.00    5.19 
  14  10  -2   11.70    4.95 
  14  10   2   20.42    5.54 
  14 -10   2    6.20    3.74 
  10  14  -3   25.10    5.69 
  10  14   3   24.72    5.60 
  14  10  -3   26.83    6.12 
  14  10   3   30.37    6.46 
  14 -10   3   20.04    5.36 
  10 -14   3   28.04    5.01 
  10  14   4   45.15    7.06 
  10 -14   4   52.43    6.79 
  14 -10   4   53.35    8.12 
  14  10  -4   56.95    7.76 
  14  10   4   68.38    8.48 
  10  14  -4   57.12    8.11 
  10  14  -5   16.47    4.85 
  10  14   5   17.75    5.28 
  14  10  -5   12.72    3.97 
  14  10   5   16.72    4.97 
  14 -10   5   15.77    5.21 
  10 -14   5   11.87    3.80 
  10  14   6    3.63    3.69 
  10  14  -6    2.01    3.18 
  14  10   6   -5.39    3.72 
  10 -14   6    2.86    3.01 
  14 -10   6   -3.39    4.15 
  10  14   7    4.83    3.64 
  14  10   7    1.25    3.16 
  10 -14   7   -7.38    4.55 
  14 -10   7   -2.00    3.62 
  10  14   8    4.61    3.52 
  14  10   8    8.24    3.53 
  10 -14   8    4.97    2.94 
  14 -10   8    8.87    4.57 
  14  10   9   -0.77    2.64 
  10  14   9    2.87    3.16 
  10 -14   9   -5.27    3.75 
  14 -10   9    6.62    3.97 
  10  14  10    0.71    2.57 
  14  10  10   -2.28    3.00 
  10 -14  10   -0.40    3.22 
  14 -10  10    4.05    3.36 
  14  10  11   12.34    3.48 
  10  14  11   12.05    3.68 
  10 -14  11   11.07    3.89 
  14 -10  11    7.23    3.42 
  10 -14  12   31.05    5.03 
  14 -10  12   38.22    5.91 
  10 -14  13   19.16    3.79 
  14 -10  13   20.85    4.29 
  14 -10  14    8.55    2.93 
  10 -14  14    6.99    2.69 
  14 -10  15    2.67    2.24 
  10 -14  15   -0.53    1.92 
  10 -14  16    3.92    1.92 
  14  11   0    5.97    4.29 
  11  14   0    5.26    3.96 
  11  14  -1   -7.55    4.10 
  11  14   1    0.97    3.61 
  14  11  -1   -5.84    4.28 
  14  11   1   -1.56    3.65 
  14 -11   1   -4.52    4.08 
  11  14  -2   11.78    4.91 
  11  14   2   17.04    5.27 
  14  11  -2   16.05    5.25 
  14  11   2   25.66    5.81 
  14 -11   2   12.05    4.23 
  14  11  -3   56.85    7.70 
  11  14  -3   48.34    7.45 
  14 -11   3   48.83    7.40 
  11 -14   3   43.77    6.15 
  11  14   3   60.70    8.22 
  14  11   3   66.98    8.33 
  11  14  -4   40.14    6.73 
  11  14   4   54.71    7.64 
  14  11  -4   44.38    7.07 
  14 -11   4   45.27    7.09 
  11 -14   4   46.50    6.30 
  14  11   4   64.29    8.25 
  11  14  -5   41.08    6.74 
  14  11  -5   33.51    5.99 
  11  14   5   42.29    6.71 
  14  11   5   54.96    7.22 
  14 -11   5   39.08    6.83 
  11 -14   5   34.94    5.75 
  11  14  -6   12.64    4.35 
  11  14   6   12.23    4.60 
  14  11   6   15.17    4.39 
  14 -11   6    5.78    4.06 
  11 -14   6    4.45    3.17 
  11  14   7   -2.43    3.36 
  14  11   7   -3.77    3.88 
  14 -11   7    0.84    3.22 
  11 -14   7   -4.01    3.32 
  11  14   8    1.46    3.18 
  14  11   8    2.15    2.97 
  14 -11   8   -2.47    4.00 
  11 -14   8    4.72    3.26 
  11  14   9   -0.71    2.74 
  14  11   9    2.66    2.96 
  14 -11   9    0.24    2.99 
  11 -14   9    0.84    2.82 
  11  14  10   11.61    3.67 
  14  11  10    6.00    2.97 
  14 -11  10    9.58    3.89 
  11 -14  10   15.54    4.22 
  11  14  11   11.20    3.21 
  14  11  11   13.13    3.53 
  14 -11  11   24.60    4.86 
  11 -14  11   16.05    4.31 
  14 -11  12   52.90    6.26 
  11 -14  12   55.75    6.20 
  11 -14  13   42.13    5.24 
  14 -11  13   36.83    5.15 
  14 -11  14    8.17    2.73 
  11 -14  14    1.69    2.21 
  14 -11  15    4.68    2.15 
  11 -14  15    3.96    1.96 
  12  14   0    6.08    4.48 
  14  12   0    1.66    3.84 
  12  14  -1    6.93    4.43 
  12  14   1   -0.50    3.47 
  14  12  -1    0.03    3.78 
  14  12   1    8.99    4.61 
  12  14   2   14.15    4.70 
  12  14  -2   13.48    4.76 
  14  12  -2    8.04    4.31 
  14  12   2   12.29    4.68 
  14 -12   2    1.57    3.09 
  12  14   3   39.10    6.70 
  14  12  -3   44.52    7.03 
  14 -12   3   41.65    6.37 
  12 -14   3   33.84    5.34 
  14  12   3   58.92    7.87 
  12  14  -3   52.89    7.85 
  14  12  -4   50.64    7.16 
  14  12   4   51.14    7.17 
  12  14  -4   51.95    7.52 
  14 -12   4   50.78    7.07 
  12 -14   4   39.63    5.85 
  12  14   4   55.74    7.61 
  12  14  -5   42.83    6.58 
  14  12  -5   53.11    7.03 
  12  14   5   43.30    6.52 
  14  12   5   36.63    6.60 
  14 -12   5   41.82    6.54 
  12 -14   5   37.74    5.74 
  12  14  -6    9.42    3.44 
  12  14   6    6.99    3.85 
  14  12   6    4.58    3.52 
  14 -12   6    0.19    3.11 
  12 -14   6    5.71    3.40 
  12  14   7   -0.41    2.89 
  14  12   7   -1.09    3.23 
  14 -12   7    0.50    2.82 
  12 -14   7   -2.51    2.66 
  12  14   8    4.84    3.33 
  14  12   8    2.55    2.77 
  14 -12   8    1.56    2.91 
  12 -14   8   -5.28    2.91 
  14  12   9    5.29    3.06 
  12  14   9    3.10    2.78 
  14 -12   9    2.71    2.78 
  12 -14   9    4.07    3.00 
  12  14  10   -0.57    2.21 
  14  12  10    5.71    2.96 
  14 -12  10    7.28    3.28 
  12 -14  10    8.02    3.20 
  14 -12  11   31.55    4.91 
  12 -14  11   27.33    4.65 
  12 -14  12   38.00    5.05 
  14 -12  12   30.88    4.73 
  14 -12  13   31.27    4.38 
  12 -14  13   31.22    4.20 
  14 -12  14   22.09    3.50 
  12 -14  14   22.17    3.39 
  13  14   0    4.26    3.99 
  14  13   0   -2.65    3.42 
  13  14   1   -2.85    3.98 
  14  13  -1   -0.70    3.51 
  14  13   1    3.25    3.65 
  13  14  -1    1.29    3.52 
  13  14   2   13.07    4.99 
  14  13  -2   11.60    4.38 
  14  13   2   18.96    5.22 
  13  14  -2   19.61    5.03 
  14  13  -3   21.85    5.05 
  13  14  -3   22.28    5.45 
  13  14   3   16.38    5.05 
  14  13   3   21.78    5.10 
  14 -13   3    5.04    3.10 
  13 -14   3   13.92    3.71 
  13  14  -4   43.58    6.61 
  14  13  -4   48.88    6.55 
  14  13   4   41.37    6.73 
  14 -13   4   41.68    6.03 
  13 -14   4   38.88    5.80 
  13  14   4   59.11    7.57 
  14  13  -5   18.38    4.39 
  13  14   5   23.96    5.19 
  14  13   5   22.92    5.01 
  13  14  -5   22.11    4.92 
  14 -13   5   20.90    4.65 
  13 -14   5   20.32    4.56 
  13  14   6    7.76    3.78 
  14  13   6    8.26    3.65 
  14 -13   6    7.08    3.73 
  13 -14   6    5.18    3.10 
  14  13   7    0.18    2.67 
  13  14   7    2.59    3.05 
  14 -13   7   -1.07    2.70 
  13 -14   7   -0.32    2.38 
  13  14   8   -0.61    2.52 
  14  13   8    1.21    2.48 
  14 -13   8    0.19    2.53 
  13 -14   8    1.18    2.30 
  14  13   9    0.41    2.12 
  13  14   9    5.65    2.73 
  14 -13   9   -1.81    2.67 
  13 -14   9    1.75    2.72 
  13  14  10    6.41    2.49 
  14  13  10    0.76    1.81 
  14 -13  10    0.49    2.67 
  13 -14  10    4.49    2.58 
  14 -13  11    9.94    3.08 
  13 -14  11    7.77    2.66 
  14 -13  12   14.68    3.24 
  13 -14  12   10.87    2.80 
  14 -13  13   25.61    3.57 
  13 -14  13   17.16    2.98 
  14  14   0    3.84    3.45 
  14  14  -1   19.85    5.13 
  14  14   1   -0.20    2.97 
  14  14  -2    4.38    3.70 
  14  14   2    0.57    3.12 
  14  14   3   15.44    4.38 
  14  14  -3   15.91    4.24 
  14  14   4    9.75    3.91 
  14  14  -4    7.82    3.34 
  14 -14   4    3.37    2.32 
  14  14  -5   14.96    3.75 
  14  14   5    9.63    3.67 
  14 -14   5    7.28    3.01 
  14  14   6   -2.28    2.56 
  14 -14   6    1.44    2.22 
  14  14   7   -0.93    2.32 
  14 -14   7   -1.44    2.18 
  14  14   8    4.25    2.67 
  14 -14   8    0.44    2.08 
  14  14   9    1.39    2.19 
  14 -14   9    2.66    2.18 
  14 -14  10   -2.11    2.19 
  14 -14  11   -4.44    2.07 
   0  15   0    6.00    4.04 
   0 -15  -1   -8.48    7.00 
  15   0  -1    4.65    3.48 
   0  15  -1   -0.23    3.62 
   0  15   1    2.66    3.75 
   0 -15  -2    2.86    4.49 
  15   0  -2   10.81    3.86 
   0  15   2   16.10    4.92 
   0 -15  -3   71.37   11.50 
   0  15   3   77.81    8.80 
  15   0  -3   72.08    7.91 
  15   0   4  137.88   10.82 
  15   0  -4  107.94    9.47 
   0  15   4  106.37   10.04 
   0 -15  -5   39.81    9.17 
  15   0   5   68.43    8.10 
  15   0  -5   55.01    6.90 
   0  15   5   56.11    7.65 
  15   0   6   29.73    5.73 
  15   0   7   -0.64    3.12 
  15   0   8    0.03    3.28 
  15   0   9    3.17    3.14 
  15   0  10   19.24    4.35 
  15   0  11    8.54    3.33 
 -15   0  12   96.05    9.85 
  15   0  12   86.69    7.79 
 -15   0  13   24.51    5.58 
 -15   0  14   57.00    7.54 
 -15   0  15   18.28    4.64 
 -15   0  16    4.27    3.14 
 -15   0  17    1.94    2.38 
   0 -15  18    2.88    2.05 
 -15   0  18   -2.17    2.26 
   1 -15   0   12.39    5.79 
  15   1   0    7.99    3.47 
   1  15   0   12.06    4.32 
   1 -15  -1   -5.38    6.13 
  15   1   1   -4.45    3.73 
  15   1  -1   -2.57    3.43 
   1  15  -1    0.76    3.79 
   1  15   1   -3.21    3.79 
   1 -15  -2    9.39    3.95 
  15   1  -2   14.67    4.17 
  15   1   2   11.68    4.21 
   1  15  -2   11.20    4.82 
   1  15   2   15.44    5.00 
   1 -15  -3   40.00    8.88 
  -1 -15  -3   39.51    9.00 
  15   1  -3   65.74    7.94 
   1  15  -3   75.21    9.02 
   1  15   3   67.80    8.36 
  15   1   3   66.71    7.81 
   1 -15  -4   65.88   10.90 
  -1 -15  -4   49.08    9.64 
  15  -1  -4   66.02    7.45 
  15   1  -4   77.96    8.38 
  15   1   4   84.81    8.94 
   1  15   4   79.41    8.94 
   1 -15  -5   51.07   10.37 
  -1 -15  -5   52.01   10.03 
  15   1  -5   72.86    7.88 
  15   1   5   71.33    8.42 
  15  -1  -5   65.86    7.34 
   1  15   5   79.44    8.89 
  15   1   6    6.08    3.97 
   1  15   6   11.26    4.05 
  15  -1   7    3.03    3.05 
  15   1   7    2.43    3.40 
   1  15   7    0.78    2.99 
  15  -1   8   -0.35    3.58 
  15   1   8   -1.85    3.66 
  15  -1   9    4.84    3.62 
  15   1   9   -1.44    3.16 
  15   1  10   -1.38    3.47 
  15  -1  10    6.33    3.53 
  15  -1  11   29.93    5.17 
  15   1  11   31.22    5.25 
  15  -1  12   21.86    4.17 
  15   1  12   20.95    4.21 
 -15   1  12   29.29    6.42 
 -15  -1  12   29.51    6.08 
 -15  -1  13   63.65    7.85 
 -15   1  13   55.65    7.74 
 -15  -1  14   19.78    5.19 
 -15   1  14   28.25    5.79 
 -15  -1  15    6.18    3.58 
 -15   1  15    7.22    3.82 
 -15  -1  16    0.53    2.65 
 -15   1  16    5.98    3.52 
 -15  -1  17   -3.16    2.50 
 -15   1  17   -2.26    2.70 
   1 -15  18    4.22    2.10 
 -15  -1  18   -3.16    2.19 
 -15   1  18   -1.00    2.27 
   2 -15   0    3.73    4.50 
  15   2   0    9.09    3.63 
   2  15   0   14.87    4.77 
   2 -15  -1    2.59    4.86 
   2 -15   1   -4.82    5.40 
  15   2  -1    8.88    4.19 
  15   2   1    7.17    3.21 
   2  15   1    5.03    3.89 
   2  15  -1   13.70    4.87 
   2 -15  -2   -1.47    5.95 
  15   2  -2    7.22    4.05 
  15   2   2    7.50    3.53 
   2  15   2   12.20    4.51 
   2  15  -2    7.86    3.92 
   2 -15  -3   22.92    6.73 
  15   2  -3   26.63    5.36 
  15   2   3   24.18    5.53 
   2  15   3   28.50    6.04 
   2  15  -3   30.41    5.97 
   2 -15  -4   56.49   10.71 
  15   2  -4   70.45    8.19 
  15   2   4   82.34    9.03 
   2  15  -4   81.30    9.33 
   2  15   4   76.47    8.92 
  15   2  -5   15.94    4.02 
  15   2   5   14.62    4.77 
   2 -15  -5   12.26    6.03 
  15  -2   5   23.34    6.21 
   2  15  -5   17.49    5.19 
   2  15   5   15.08    4.56 
  15   2   6    8.80    4.24 
  15  -2   6    6.28    4.22 
   2  15   6    5.80    3.67 
  15   2   7    3.22    3.77 
  15  -2   7    1.94    3.50 
   2  15   7    3.00    3.60 
  15   2   8    5.29    3.52 
  15  -2   8    1.00    3.51 
   2  15   8    8.82    3.95 
  15   2   9    6.58    3.65 
  15  -2   9    3.02    3.19 
  15  -2   9    6.93    4.08 
   2  15   9    6.74    3.64 
  15  -2  10   -4.49    3.25 
  15   2  10   -0.97    2.86 
  15  -2  10   -1.02    3.18 
  15   2  11   12.79    3.83 
  15  -2  11   10.54    3.44 
  15  -2  11   18.68    5.03 
  15  -2  12   16.20    3.56 
  15   2  12   21.22    4.34 
 -15   2  12   17.73    5.61 
 -15  -2  12   21.46    5.36 
 -15   2  13   50.30    7.62 
 -15  -2  13   47.91    6.98 
 -15  -2  14   12.91    4.11 
 -15   2  14   14.87    5.02 
 -15  -2  15    2.56    3.08 
 -15   2  15    2.52    3.54 
   2 -15  16    6.78    3.29 
 -15  -2  16    1.99    2.32 
 -15   2  16    7.17    3.77 
   2 -15  17    6.94    2.83 
 -15  -2  17    3.86    2.30 
 -15   2  17    7.46    2.78 
   2 -15  18    2.01    1.90 
 -15  -2  18   -1.79    1.59 
 -15   2  18   -1.77    2.44 
   3 -15   0   32.95    7.98 
  15   3   0   42.25    6.94 
   3  15   0   46.29    7.37 
   3 -15  -1    3.12    5.17 
   3 -15   1   -5.54    6.33 
  15   3  -1    5.88    4.19 
  15   3   1    0.58    3.27 
   3  15   1    4.48    3.70 
   3  15  -1    3.64    3.49 
   3 -15  -2   -2.24    4.41 
   3 -15   2   -2.46    5.25 
  15   3  -2   -0.85    3.40 
  15   3   2   -1.43    3.54 
   3  15  -2    5.14    4.70 
   3  15   2    2.39    3.77 
   3 -15  -3    7.08    4.92 
  15   3  -3   17.41    4.54 
  15   3   3   12.78    4.56 
   3  15   3   21.03    5.51 
   3  15  -3   14.00    5.26 
  15   3  -4   15.71    4.64 
  15   3   4   19.70    5.03 
   3 -15  -4    4.53    4.40 
  15  -3   4   12.13    5.21 
   3  15   4   17.49    5.07 
   3  15  -4   20.77    5.51 
  15   3   5    7.44    3.79 
  15   3  -5    6.94    3.25 
  15  -3   5   12.90    5.13 
   3  15  -5   19.54    5.30 
   3  15   5   14.32    4.64 
  15   3   6    2.52    3.67 
  15  -3   6   -0.22    3.84 
   3  15   6    6.93    4.15 
   3  15  -6    3.53    3.55 
  15   3   7    8.47    4.38 
  15  -3   7    7.01    4.27 
   3  15   7    9.21    3.88 
  15   3   8   26.40    5.94 
  15  -3   8   29.41    6.38 
   3  15   8   21.54    4.90 
  15   3   9   21.91    5.08 
  15  -3   9   22.82    5.90 
   3  15   9   28.15    5.34 
  15   3  10    3.41    3.19 
  15  -3  10   -0.32    2.87 
  15  -3  10   -0.06    3.26 
  15  -3  11   -2.23    2.85 
  15   3  11    0.34    2.24 
  15  -3  11    1.42    3.70 
 -15   3  11   -2.19    4.38 
  15   3  12   26.98    4.66 
  15  -3  12   17.44    3.69 
  15  -3  12   34.55    5.96 
 -15   3  12   27.23    6.44 
 -15  -3  12   26.45    5.22 
  15  -3  13   13.35    4.06 
 -15   3  13    9.52    4.63 
 -15  -3  13   11.10    4.34 
 -15  -3  14    3.92    3.19 
 -15   3  14    4.78    3.90 
   3 -15  15    5.71    3.60 
 -15  -3  15    4.48    3.05 
 -15   3  15    6.91    3.77 
   3 -15  16   20.14    3.93 
 -15   3  16   14.31    4.16 
 -15  -3  16   15.19    3.47 
   3 -15  17   12.04    3.03 
 -15  -3  17    5.22    2.25 
 -15   3  17    4.45    2.81 
   3 -15  18    3.25    1.86 
 -15   3  18    4.39    2.33 
   4 -15   0   18.80    6.72 
   4  15   0   21.26    5.53 
  15   4   0   25.48    5.72 
   4 -15  -1   25.56    8.05 
   4 -15   1   33.82    8.50 
  15   4   1   41.65    7.04 
   4  15   1   39.56    6.73 
  15   4  -1   47.70    7.25 
   4  15  -1   38.39    6.94 
   4 -15  -2   -0.92    4.30 
   4 -15   2   -4.05    6.04 
  15   4   2   -3.30    3.93 
   4  15   2    1.07    3.37 
  15   4  -2   -3.47    3.56 
   4  15  -2    8.00    4.26 
  15   4   3    2.26    3.44 
   4  15   3   -1.75    3.46 
  15   4  -3    2.96    3.68 
   4 -15  -3   -2.12    3.70 
  15  -4   3   -4.30    4.29 
   4  15  -3   -3.04    3.70 
  15   4   4    1.05    3.96 
   4  15   4    0.39    3.71 
  15   4  -4   -0.87    3.23 
  15  -4   4    0.55    3.94 
   4  15  -4   -0.01    3.69 
  15   4   5    6.76    3.79 
  15   4  -5    5.71    3.38 
   4  15   5    2.43    3.51 
  15  -4   5    9.43    4.64 
   4 -15   5    6.78    3.41 
   4  15  -5    6.14    4.42 
  15   4   6   -1.14    3.77 
  15  -4   6    0.81    3.89 
   4  15  -6   -0.45    3.07 
   4  15   6   -0.11    3.40 
  15   4   7   26.09    5.66 
  15  -4   7   18.00    5.98 
   4  15   7   20.49    5.57 
   4  15  -7   26.61    5.54 
  15  -4   8   74.48    9.08 
  15   4   8   80.83    8.82 
   4  15   8   70.93    8.11 
  15  -4   9   49.45    7.79 
  15   4   9   50.34    7.04 
   4  15   9   33.73    5.81 
  15   4  10   22.22    4.73 
  15  -4  10   25.48    5.70 
   4  15  10   18.83    4.17 
  15   4  11    6.08    3.18 
  15  -4  11   -0.25    2.52 
  15  -4  11   -1.97    3.42 
 -15   4  11    0.06    3.65 
 -15  -4  11   -1.03    2.79 
  15  -4  12    2.33    2.36 
  15   4  12    4.14    2.36 
  15  -4  12    6.40    3.98 
   4 -15  12   13.36    4.46 
 -15   4  12    2.80    3.77 
 -15  -4  12    2.57    2.83 
  15  -4  13   -2.03    3.26 
   4 -15  13   11.72    4.26 
 -15   4  13    7.87    3.68 
 -15  -4  13    2.92    2.98 
  15  -4  14    3.58    2.79 
   4 -15  14   14.15    4.14 
 -15  -4  14    3.08    2.75 
 -15   4  14    7.36    4.07 
   4 -15  15   19.54    4.30 
 -15  -4  15   14.30    3.44 
 -15   4  15   13.04    4.22 
   4 -15  16   20.45    3.92 
 -15  -4  16   10.02    2.56 
 -15   4  16   20.17    4.24 
   4 -15  17   23.88    3.65 
 -15   4  17   21.57    3.79 
   4 -15  18    6.80    2.12 
 -15   4  18    6.47    2.39 
  15   5   0   77.68    9.10 
   5  15   0   64.77    8.51 
   5  15  -1   39.01    6.74 
  15   5  -1   41.82    6.96 
  15   5   1   37.73    6.88 
   5  15   1   35.06    6.27 
   5  15   2   11.87    5.07 
   5  15  -2   20.69    5.69 
  15   5  -2   19.27    5.36 
  15   5   2   14.07    5.03 
  15  -5   2   12.47    5.35 
  15   5  -3   14.47    4.91 
  15   5   3   -0.04    3.66 
   5  15   3   13.92    5.14 
  15  -5   3    2.00    3.91 
   5  15  -3    4.33    3.84 
  15   5  -4   -1.89    3.49 
  15   5   4    0.27    3.91 
   5  15   4    8.05    4.23 
  15  -5   4   -2.06    4.32 
   5  15  -4    3.30    3.82 
   5  15   5   -2.23    3.57 
  15   5  -5   -3.76    3.74 
  15   5   5   -1.04    3.90 
  15  -5   5    0.84    3.92 
   5 -15   5    5.20    2.95 
   5  15  -5    1.12    3.78 
   5  15   6   -0.77    3.70 
  15   5   6    0.79    3.35 
  15  -5   6    3.00    4.06 
   5 -15   6    5.52    3.59 
   5  15  -6    3.25    3.59 
   5  15   7   49.41    7.19 
   5 -15   7   56.15    6.72 
  15  -5   7   60.29    8.69 
  15   5   7   61.62    8.19 
   5  15  -7   56.85    7.47 
  15  -5   8   90.01    9.85 
   5 -15   8   71.18    7.89 
  15   5   8   86.18    8.85 
   5  15   8   66.76    7.86 
  15  -5   9   88.62    9.76 
   5 -15   9   90.05    8.51 
  15   5   9   95.73    8.84 
   5  15   9   87.71    8.63 
  15   5  10   26.48    5.18 
  15  -5  10   29.76    6.11 
   5 -15  10   33.50    5.80 
   5  15  10   33.98    5.45 
 -15   5  10   31.89    6.68 
  15   5  11    0.48    2.28 
  15  -5  11    0.37    3.17 
   5 -15  11    6.54    3.71 
 -15   5  11    1.20    3.58 
 -15  -5  11    0.10    2.60 
  15   5  12    2.28    2.36 
  15  -5  12   -2.74    2.81 
  15  -5  12   -0.74    2.90 
 -15   5  12   -2.76    3.65 
 -15  -5  12   -0.72    2.97 
  15  -5  13    0.62    2.64 
 -15  -5  13   -0.43    2.12 
 -15   5  13    1.25    3.54 
  15  -5  14   -1.20    2.81 
   5 -15  14    6.52    3.13 
 -15  -5  14    3.81    2.26 
 -15   5  14    6.40    3.85 
   5 -15  15   15.45    3.90 
 -15   5  15   18.09    4.44 
 -15  -5  15   13.43    3.00 
   5 -15  16   30.43    4.37 
 -15   5  16   28.08    4.34 
   5 -15  17   21.92    3.47 
 -15   5  17   21.34    3.55 
   6  15   0   54.04    7.73 
  15   6   0   62.59    8.48 
   6  15   1   37.72    6.76 
   6  15  -1   44.91    7.24 
  15   6  -1   46.81    7.47 
  15   6   1   47.59    7.46 
   6  15   2   29.95    6.32 
  15   6  -2   24.52    5.31 
  15   6   2   24.60    5.58 
   6  15  -2   22.62    5.66 
  15  -6   2   28.70    6.31 
   6  15  -3    1.87    3.41 
   6  15   3   14.42    5.16 
  15   6  -3    7.48    3.81 
  15   6   3   10.12    4.49 
  15  -6   3    8.52    4.39 
  15   6  -4    3.31    3.38 
   6  15   4    1.70    3.22 
  15   6   4   -4.22    3.91 
  15  -6   4   -4.45    4.63 
   6  15  -4    2.32    3.53 
  15   6  -5    2.02    2.81 
  15   6   5   -1.63    3.63 
   6  15   5    4.17    3.78 
   6 -15   5   -2.63    3.02 
  15  -6   5   -4.86    4.85 
   6  15  -5   -1.60    3.43 
   6  15   6    6.12    4.21 
  15   6   6    5.10    4.00 
   6 -15   6    3.11    2.83 
  15  -6   6   -0.21    3.87 
   6  15  -6    1.88    3.59 
  15   6   7   42.31    6.68 
   6  15   7   39.72    6.71 
   6 -15   7   45.54    6.09 
  15  -6   7   46.71    7.68 
   6  15  -7   30.17    5.48 
  15  -6   8  103.29   10.97 
   6 -15   8  101.03    8.89 
  15   6   8  107.32    9.63 
   6  15   8   99.38    9.50 
  15  -6   9   89.39   10.10 
   6 -15   9   80.03    7.99 
  15   6   9   83.08    8.55 
   6  15   9   70.00    7.84 
  15   6  10   35.45    5.74 
   6 -15  10   42.88    6.25 
  15  -6  10   34.76    6.55 
   6  15  10   35.60    5.58 
 -15   6  10   27.15    5.99 
 -15  -6  10   23.58    4.70 
  15   6  11    0.52    2.29 
   6 -15  11    4.04    3.50 
  15  -6  11    1.51    3.31 
 -15   6  11   -0.32    3.59 
 -15  -6  11   -0.74    2.20 
  15  -6  12   -3.13    2.73 
  15   6  12   -4.70    2.88 
   6 -15  12    1.68    2.87 
  15  -6  12    4.03    3.49 
 -15  -6  12    3.92    2.31 
 -15   6  12   -2.54    3.48 
   6 -15  13    2.72    2.90 
  15  -6  13   -4.43    3.38 
 -15   6  13   -2.35    3.07 
   6 -15  14    5.15    3.17 
  15  -6  14   -3.56    2.87 
 -15   6  14    4.64    3.35 
   6 -15  15    9.60    3.22 
  15  -6  15    9.40    2.76 
 -15   6  15   14.12    3.70 
   6 -15  16   23.72    3.78 
 -15   6  16   19.47    3.62 
   6 -15  17   20.10    3.27 
 -15   6  17   22.94    3.41 
   7  15   0   44.99    7.29 
  15   7   0   43.25    7.20 
  15   7   1   46.66    7.43 
   7  15  -1   32.23    6.43 
  15   7  -1   34.21    6.30 
   7  15   1   41.49    7.08 
   7  15  -2   28.01    6.25 
  15   7   2   12.63    4.92 
   7  15   2   33.79    6.65 
  15   7  -2   31.32    6.22 
  15  -7   2   20.09    6.00 
  15   7  -3    0.50    3.10 
   7  15   3    9.47    4.63 
  15   7   3    4.31    3.92 
   7  15  -3    3.12    4.45 
  15  -7   3    4.96    4.49 
  15   7  -4   -0.60    2.93 
   7  15  -4    1.27    3.81 
   7  15   4    9.94    4.67 
  15   7   4   12.30    4.29 
  15  -7   4    2.27    3.93 
  15   7  -5    2.84    3.10 
   7  15   5   10.30    4.70 
  15   7   5   -1.15    3.63 
   7 -15   5    6.36    3.19 
  15  -7   5    2.77    4.26 
   7  15  -5    4.73    3.64 
   7  15   6    7.01    4.16 
  15   7   6    3.41    3.87 
   7 -15   6   -0.14    2.53 
  15  -7   6   12.06    4.79 
   7  15  -6    2.91    3.74 
  15   7   7   37.82    6.61 
   7  15   7   33.23    6.17 
   7 -15   7   22.66    4.73 
  15  -7   7   28.37    6.83 
   7  15  -7   30.49    5.61 
  15  -7   8   70.59    9.38 
   7 -15   8   59.05    6.89 
  15   7   8   72.83    8.19 
   7  15   8   56.37    7.65 
   7  15   9   50.56    7.09 
  15  -7   9   65.37    8.81 
   7 -15   9   57.99    6.92 
 -15   7   9   54.93    7.66 
  15   7   9   66.89    7.55 
  15   7  10   16.34    4.32 
   7 -15  10   13.65    4.12 
  15  -7  10   16.23    5.17 
 -15   7  10   17.92    4.80 
   7  15  10   11.04    3.91 
   7 -15  11   -1.08    2.92 
  15  -7  11    3.08    3.27 
  15  -7  12    0.01    1.74 
  15   7  12    1.22    2.11 
   7 -15  12    2.76    2.82 
  15  -7  12    1.58    2.87 
 -15   7  12    4.70    3.28 
   7 -15  13    6.06    3.09 
  15  -7  13    3.46    2.60 
 -15   7  13    6.86    3.11 
   7 -15  14    0.69    2.43 
  15  -7  14   -5.70    3.24 
 -15   7  14    2.72    2.56 
   7 -15  15    5.31    2.51 
  15  -7  15    7.49    2.56 
 -15   7  15    6.98    2.53 
   7 -15  16   16.87    3.24 
 -15   7  16   11.49    2.72 
   7 -15  17   11.16    2.36 
  15   8   0   23.94    6.02 
   8  15   0   14.52    5.57 
  15   8  -1   26.65    5.99 
   8  15  -1   26.48    6.09 
   8  15   1   22.56    5.63 
  15   8   1   21.88    5.61 
  15   8  -2    1.15    3.39 
   8  15  -2    4.87    3.93 
   8  15   2    5.58    4.42 
  15   8   2    3.78    4.10 
  15  -8   2    4.47    3.99 
  15   8  -3    7.52    4.14 
  15   8   3    6.65    4.28 
   8  15  -3    8.83    4.37 
   8  15   3    8.59    4.76 
  15  -8   3    9.55    4.94 
  15   8   4   19.56    5.15 
   8  15  -4   15.99    5.12 
   8  15   4   17.78    5.50 
  15   8  -4   15.79    4.74 
  15  -8   4   20.37    6.07 
  15   8   5    6.26    4.00 
   8  15   5    8.79    4.16 
  15   8  -5    1.65    2.98 
   8 -15   5    2.17    2.29 
  15  -8   5    8.15    4.44 
   8  15  -5    2.90    3.50 
  15   8   6    4.50    3.74 
   8  15   6    3.73    3.76 
   8 -15   6    0.83    2.53 
  15  -8   6   -1.62    4.13 
   8  15  -6   -0.95    2.98 
  15   8   7   17.92    4.87 
   8  15   7   12.18    4.44 
   8 -15   7    2.98    2.84 
  15  -8   7   14.36    5.51 
   8  15  -7    6.77    3.22 
  15   8   8   33.36    6.17 
   8  15   8   27.23    5.92 
   8 -15   8   19.25    4.47 
  15  -8   8   27.75    6.21 
 -15   8   8   22.47    4.82 
  15   8   9   26.83    5.15 
   8  15   9   17.89    4.44 
   8 -15   9   16.90    4.32 
  15  -8   9   24.96    5.47 
 -15   8   9   25.07    5.20 
  15   8  10    3.83    2.80 
   8 -15  10    0.48    2.83 
  15  -8  10    4.59    3.99 
 -15   8  10    2.10    2.68 
   8  15  10    4.74    3.02 
  15   8  11    1.54    2.54 
   8 -15  11    2.48    2.95 
  15  -8  11    5.38    3.30 
 -15   8  11    3.69    2.82 
  15   8  12    7.12    2.71 
   8 -15  12    2.91    3.14 
  15  -8  12   12.84    4.28 
 -15   8  12    8.47    3.74 
   8 -15  13    7.42    3.02 
  15  -8  13    1.41    2.72 
 -15   8  13    8.24    3.12 
   8 -15  14   -4.21    2.69 
  15  -8  14   -7.70    2.99 
 -15   8  14    0.52    2.06 
   8 -15  15    0.33    1.98 
  15  -8  15    3.41    2.07 
 -15   8  15   -1.97    1.94 
   8 -15  16   10.72    2.54 
  15   9   0   11.96    5.04 
   9  15   0    8.03    4.49 
  15   9  -1    6.55    4.23 
  15   9   1    5.61    3.76 
   9  15  -1    8.22    4.17 
   9  15   1   11.25    4.67 
  15   9   2    6.42    4.13 
   9  15   2    5.19    4.15 
   9  15  -2    6.15    4.09 
  15   9  -2    4.00    3.60 
  15  -9   2    1.78    3.42 
  15   9   3   20.20    5.37 
   9  15  -3   20.81    5.81 
   9  15   3   17.94    5.36 
  15   9  -3   26.72    5.93 
  15  -9   3   17.90    5.34 
  15   9   4   50.10    7.47 
   9  15   4   53.28    7.58 
   9  15  -4   41.22    7.06 
  15  -9   4   43.20    7.45 
   9 -15   4   36.90    5.49 
  15   9  -4   56.19    7.74 
  15   9   5   12.42    4.43 
   9  15  -5   18.48    5.13 
   9  15   5   22.98    5.48 
  15   9  -5   18.79    5.03 
   9 -15   5   18.35    4.01 
  15  -9   5   15.88    5.65 
  15   9   6    2.03    3.22 
   9  15   6    1.26    3.82 
   9 -15   6   -0.21    2.75 
  15  -9   6    5.06    4.36 
   9  15  -6    4.18    3.12 
   9  15   7    3.16    3.73 
  15   9   7   -2.60    3.17 
   9 -15   7   -7.15    4.02 
  15  -9   7    5.38    3.85 
   9  15  -7    6.03    3.20 
   9  15   8   12.97    4.39 
  15   9   8    2.09    2.76 
   9 -15   8    3.99    2.95 
  15  -9   8    1.92    3.68 
   9  15   9    1.98    3.45 
  15   9   9    7.68    3.36 
   9 -15   9    4.24    2.97 
  15  -9   9    5.40    3.37 
 -15   9   9    6.72    3.22 
  15   9  10    3.35    3.11 
   9 -15  10   -5.25    3.23 
  15  -9  10    0.78    3.31 
 -15   9  10    0.92    2.37 
   9  15  10    6.37    3.41 
  15   9  11    8.85    3.06 
   9 -15  11    6.02    2.85 
  15  -9  11    8.37    3.93 
 -15   9  11   10.00    2.96 
   9 -15  12   15.73    3.68 
 -15   9  12   16.63    3.37 
   9 -15  13   13.72    3.43 
  15  -9  13   13.21    3.75 
   9 -15  14    9.12    2.71 
  15  -9  14    3.14    2.34 
  15  -9  15   -0.85    1.91 
   9 -15  15   -0.39    1.71 
  10  15   0    0.31    3.66 
  15  10   0   -0.87    3.19 
  10  15   1   -5.68    3.97 
  15  10  -1    1.99    4.15 
  10  15  -1   -2.24    3.63 
  15  10   1    0.69    3.21 
  10  15   2    5.79    4.02 
  10  15  -2   22.15    5.73 
  15  10  -2   17.22    4.85 
  15  10   2   17.31    4.97 
  15 -10   2   -0.31    3.69 
  10  15   3   49.16    7.49 
  10  15  -3   45.83    7.20 
  15  10  -3   43.77    6.65 
  15  10   3   57.13    7.76 
  15 -10   3   35.38    6.51 
  10  15   4   57.03    7.65 
  15  10  -4   44.62    6.59 
  10  15  -4   42.31    6.86 
  15  10   4   41.60    7.05 
  15 -10   4   36.06    6.70 
  10 -15   4   35.33    5.21 
  10  15  -5   45.30    6.87 
  10  15   5   29.89    6.37 
  15  10  -5   29.29    5.54 
  15  10   5   41.85    6.77 
  15 -10   5   33.88    6.47 
  10 -15   5   30.17    5.03 
  10  15   6    5.60    3.65 
  15  10   6    8.81    4.10 
  15 -10   6   10.51    4.51 
  10 -15   6    4.01    3.25 
  10  15  -6    7.14    3.84 
  10  15   7    1.20    3.30 
  15  10   7    5.58    3.44 
  15 -10   7   -0.75    3.51 
  10 -15   7   -1.98    2.32 
  10  15   8   -1.80    2.94 
  15  10   8    0.46    2.73 
  15 -10   8   -2.13    3.73 
  10 -15   8   -4.52    2.94 
  10  15   9    1.20    2.80 
  15  10   9    1.11    2.86 
  15 -10   9    1.95    3.24 
  10 -15   9   -0.65    2.38 
  15  10  10    3.79    2.68 
  15 -10  10    4.14    3.35 
  10  15  10    1.27    2.36 
  15  10  11   14.94    3.52 
  15 -10  11   14.93    4.22 
  10 -15  11   23.85    4.44 
  10 -15  12   38.70    5.04 
  15 -10  12   37.52    5.28 
  15 -10  13   28.00    4.37 
  10 -15  13   26.07    4.06 
  15 -10  14    4.98    2.01 
  10 -15  14    4.42    2.24 
  10 -15  15    2.14    1.78 
  11  15   0    4.41    3.81 
  15  11   0    3.17    3.41 
  11  15  -1    5.52    4.07 
  11  15   1    4.02    4.18 
  15  11  -1    1.08    3.40 
  15  11   1    1.18    3.47 
  11  15  -2   14.49    5.01 
  11  15   2   15.99    5.31 
  15  11  -2    3.32    3.46 
  15  11   2   14.46    5.07 
  11  15  -3   43.44    6.95 
  11  15   3   29.26    6.20 
  15  11  -3   39.89    6.63 
  15  11   3   39.83    6.98 
  15 -11   3   32.56    5.88 
  11  15   4   45.33    6.88 
  15  11  -4   45.70    6.71 
  11  15  -4   42.53    6.62 
  15 -11   4   47.92    7.40 
  15  11   4   69.51    7.91 
  11  15  -5   40.49    6.20 
  11  15   5   36.63    6.20 
  15  11  -5   32.76    5.57 
  15  11   5   46.63    6.79 
  15 -11   5   30.96    6.12 
  11 -15   5   40.24    5.47 
  15  11   6    0.90    3.01 
  11  15   6    7.82    3.97 
  15 -11   6    8.46    4.06 
  11 -15   6    7.87    3.17 
  11  15  -6   11.73    3.91 
  11  15   7    3.20    3.06 
  15  11   7    0.92    2.94 
  15 -11   7   -5.49    3.69 
  11 -15   7   -1.08    2.74 
  11  15   8    5.20    3.31 
  15  11   8   -3.38    3.04 
  15 -11   8   -0.99    3.49 
  11 -15   8   -1.63    2.32 
  11  15   9    3.48    2.65 
  15  11   9    3.49    2.59 
  15 -11   9   -0.81    3.17 
  11 -15   9    0.98    2.27 
  15  11  10    4.05    2.55 
  15 -11  10   -3.12    3.15 
  11  15  10    1.47    2.22 
  15 -11  11   25.32    4.69 
  11 -15  11   25.19    4.22 
  15 -11  12   31.15    4.66 
  11 -15  12   29.82    4.16 
  15 -11  13   21.25    3.66 
  11 -15  13   27.82    3.76 
  15 -11  14   10.85    2.57 
  11 -15  14   10.71    2.44 
  15  12   0    1.83    3.15 
  12  15   0    3.10    3.69 
  12  15  -1    3.34    3.49 
  12  15   1    1.74    3.67 
  15  12  -1   -2.09    3.75 
  15  12   1   -1.47    3.29 
  12  15  -2    6.08    3.94 
  15  12  -2    5.18    3.58 
  15  12   2    4.34    3.97 
  12  15  -3   14.25    4.55 
  12  15   3   22.53    5.27 
  15  12  -3   24.95    5.26 
  15  12   3   21.47    5.10 
  12  15  -4   31.95    5.87 
  12  15   4   47.74    6.77 
  15  12  -4   39.90    6.04 
  15  12   4   30.53    5.93 
  15 -12   4   29.86    5.53 
  12  15   5   29.00    5.41 
  15  12  -5   24.89    4.81 
  15  12   5   14.07    4.56 
  15 -12   5   18.72    4.59 
  12 -15   5   14.26    3.63 
  12  15  -5   19.25    4.67 
  12  15   6    5.00    3.44 
  15  12   6    5.45    3.23 
  15 -12   6    2.08    2.81 
  12 -15   6    9.85    3.23 
  12  15  -6    7.15    3.14 
  15  12   7    0.39    2.56 
  12  15   7    5.46    3.13 
  15 -12   7   -0.87    2.88 
  12 -15   7   -0.90    2.53 
  12  15   8    1.49    2.50 
  15  12   8   -1.92    2.66 
  15 -12   8   -2.95    3.09 
  12 -15   8   -0.73    2.07 
  12  15   9    0.93    2.28 
  15  12   9    2.35    2.40 
  12 -15   9   -1.85    2.21 
  15  12  10    1.63    1.91 
  15 -12  10    1.42    2.34 
  12 -15  10    1.74    2.24 
  12  15  10    3.25    2.06 
  15 -12  11    9.51    2.99 
  12 -15  11   10.09    2.76 
  15 -12  12   12.66    2.98 
  12 -15  12    6.51    2.29 
  13  15   0    7.25    4.05 
  15  13   0    0.66    2.82 
  13  15  -1    8.26    3.89 
  13  15   1    9.49    4.10 
  15  13  -1    9.61    4.15 
  15  13   1    1.97    3.40 
  13  15  -2    2.60    3.10 
  13  15   2   -2.70    3.41 
  15  13  -2    5.35    3.11 
  15  13   2   -1.28    3.14 
  13  15  -3   13.81    4.38 
  13  15   3    8.54    3.97 
  15  13  -3    9.40    3.91 
  15  13   3   11.66    3.97 
  13  15  -4    5.40    3.13 
  15  13  -4    5.27    2.90 
  15  13   4    4.96    3.47 
  13  15   4   14.45    4.10 
  15  13  -5   12.97    3.52 
  13  15   5   14.48    4.13 
  15  13   5   13.11    3.93 
  15 -13   5   13.55    3.90 
  13 -15   5    6.69    2.73 
  13  15  -5    9.00    3.45 
  15  13   6    1.93    2.81 
  13  15   6    2.77    2.72 
  15 -13   6    0.39    2.22 
  13 -15   6    1.82    2.20 
  13  15   7    0.71    2.28 
  15  13   7    3.65    2.95 
  15 -13   7    0.93    2.43 
  13 -15   7   -0.21    1.71 
  15  13   8    0.74    2.36 
  13  15   8    3.68    2.57 
  15 -13   8   -0.57    2.26 
  13 -15   8    5.56    2.40 
  13  15   9   -0.28    1.79 
  15  13   9    3.78    2.34 
  15 -13   9   -1.30    2.20 
  13 -15   9    4.22    2.33 
  15 -13  10   -5.22    2.62 
  13 -15  10   -4.26    2.30 
  15 -13  11    1.35    1.75 
  13 -15  11    0.48    1.59 
  14  15   0   27.80    5.04 
  15  14   0   20.96    4.56 
  15  14   1    9.49    3.84 
  14  15  -1    5.33    3.43 
  14  15   1    9.77    3.59 
  15  14  -1    7.77    3.50 
  14  15  -2    4.05    3.14 
  15  14  -2    1.60    2.77 
  14  15   2    2.31    3.05 
  15  14   2    7.25    3.43 
  14  15  -3    0.51    2.60 
  14  15   3    3.61    3.01 
  15  14  -3   -1.04    2.48 
  15  14   3    7.39    3.35 
  15  14   4    4.83    3.06 
  14  15   4    9.79    3.44 
  15  14  -4    1.53    2.03 
  14  15  -4    9.06    2.98 
  14  15   5    1.72    2.70 
  15  14   5    2.75    2.48 
  14  15   6    0.69    2.34 
  15  14   6    0.43    2.16 
  15  14   7    3.34    2.48 
  14  15   7    2.42    2.44 
  14 -15   7    0.76    1.60 
  14  15   8    5.60    2.51 
  15  14   8   10.13    2.80 
  14 -15   8   10.51    2.58 
  15  15   0   21.29    4.20 
  15  15  -1    9.00    3.27 
  15  15   1   12.70    3.67 
  15  15   2   15.48    3.66 
  15  15  -2    8.17    3.03 
  15  15   3    1.58    2.28 
  15  15  -3    0.00    1.98 
  15  15   4    5.95    2.79 
  15  15   5    3.04    2.30 
  15  15   6    5.38    2.47 
  15  15   7    8.09    2.33 
  16   0   0    2.43    3.40 
  16   0  -1   -3.82    3.64 
  16   0   1   -4.17    4.05 
  16   0  -2   12.38    4.14 
  16   0   2    7.84    3.84 
  16   0   3   42.68    6.48 
  16   0  -3   41.01    6.11 
  16   0  -4   66.81    7.84 
  16   0   4   74.17    8.75 
  16   0   5   46.19    7.04 
  16   0  -5   47.20    6.60 
  16   0   6    5.20    3.61 
  16   0   7   -0.64    3.07 
  16   0   8   -0.13    3.36 
  16   0   9   -2.16    3.55 
  16   0  10    6.88    3.33 
  16   0  11   19.77    4.40 
  16   0  12   16.29    3.82 
 -16   0  12   12.72    4.59 
 -16   0  13   54.03    6.99 
 -16   0  14    8.24    3.81 
 -16   0  15    6.08    3.25 
 -16   0  16    1.53    2.37 
   0 -16  17    2.27    1.79 
 -16   0  17    2.36    1.95 
  16   1   0    4.97    3.93 
   1  16   0    8.92    4.59 
  16   1  -1   -3.69    3.74 
  16  -1  -1    0.88    2.98 
  16   1   1   -0.48    3.79 
   1  16  -1    0.17    4.00 
   1  16   1    1.30    3.90 
  16   1  -2    5.52    3.45 
  16  -1  -2    0.78    3.14 
  16   1   2    6.11    3.64 
   1  16   2    8.02    4.14 
  16  -1  -3   34.22    5.71 
  16   1  -3   34.66    6.02 
  16   1   3   38.42    7.01 
   1  16   3   35.35    6.52 
  16   1  -4   57.06    7.14 
  16   1   4   60.53    8.11 
  16  -1  -4   56.46    7.11 
   1  16   4   75.40    8.84 
  16   1  -5   29.07    5.28 
  16  -1  -5   20.16    4.49 
  16   1   5   31.82    6.53 
  16  -1   5   24.07    5.67 
   1  16   5   28.79    6.02 
  16  -1   6   16.83    4.65 
  16   1   6   12.44    4.78 
  16  -1   7    1.81    3.39 
  16   1   7    1.03    3.73 
  16  -1   8   -1.69    3.52 
  16   1   8   -4.84    3.58 
  16   1   9    0.93    2.88 
  16  -1   9   -0.22    2.88 
  16   1  10    2.37    2.87 
  16  -1  10    0.56    2.78 
  16  -1  11    6.45    3.17 
  16   1  11   17.51    4.25 
 -16   1  11   10.67    4.60 
  16   1  12   35.02    4.92 
  16  -1  12   32.16    4.87 
 -16   1  12   31.49    6.15 
 -16  -1  12   33.01    6.04 
 -16   1  13   26.46    5.58 
 -16  -1  13   20.63    5.26 
 -16  -1  14   15.54    4.40 
 -16   1  14   16.77    4.69 
 -16  -1  15    1.90    2.56 
 -16   1  15    1.94    3.21 
   1 -16  16    6.59    2.52 
 -16  -1  16    5.57    2.76 
 -16   1  16    2.63    2.48 
   1 -16  17    4.36    2.03 
 -16  -1  17    2.04    1.81 
 -16   1  17    0.86    1.91 
  16   2   0   13.55    4.61 
   2  16   0   16.40    5.05 
  16   2  -1    2.86    3.80 
  16   2   1    3.55    4.02 
   2  16  -1    1.66    3.51 
   2  16   1    1.90    3.80 
  16   2  -2    1.35    2.96 
  16   2   2    5.67    4.38 
   2  16   2    1.02    3.84 
   2  16  -2    3.02    3.98 
  16   2  -3   17.65    4.93 
  16   2   3   13.95    5.15 
   2  16   3   23.68    5.79 
   2  16  -3   28.61    6.27 
  16   2  -4   13.44    4.02 
  16   2   4   13.14    4.65 
  16  -2  -4    7.45    3.25 
  16   2   5   28.77    6.17 
  16   2  -5   25.48    4.83 
  16  -2  -5   16.75    4.35 
   2  16   5   26.69    5.59 
  16   2   6    5.44    4.30 
   2  16   6    0.04    3.16 
  16   2   7    0.10    3.50 
  16  -2   7    2.70    3.30 
   2  16   7    1.26    3.12 
  16   2   8    7.71    4.28 
  16  -2   8    6.67    3.85 
  16  -2   9   15.44    4.55 
  16   2   9    8.67    3.66 
  16   2  10    0.24    2.88 
  16  -2  10    3.81    3.19 
  16  -2  11    5.37    2.70 
  16   2  11    3.26    2.77 
 -16   2  11    1.72    3.77 
 -16  -2  11    5.01    3.75 
  16  -2  12   18.62    3.87 
  16   2  12   21.26    4.06 
 -16   2  12   20.44    5.37 
 -16  -2  12   18.89    4.50 
 -16   2  13   12.36    4.58 
 -16  -2  13   10.45    3.83 
 -16  -2  14    5.90    3.43 
 -16   2  14   10.62    4.07 
   2 -16  15    5.47    2.56 
 -16  -2  15    3.72    2.82 
 -16   2  15    1.82    3.04 
   2 -16  16    6.84    2.62 
 -16  -2  16    0.73    2.02 
   2 -16  17    4.12    1.91 
 -16  -2  17    1.88    1.36 
 -16   2  17   -0.54    1.91 
  16   3   0   26.72    5.99 
   3  16   0   21.32    5.67 
  16   3  -1   18.55    5.22 
  16   3   1   20.61    5.59 
   3  16  -1   23.76    6.07 
   3  16   1   22.40    5.73 
  16   3   2   -1.93    4.00 
  16   3  -2    8.07    4.23 
   3  16   2    2.48    4.02 
   3  16  -2    2.61    4.32 
  16   3   3   -0.67    4.01 
  16   3  -3   -0.38    3.06 
   3  16  -3    5.84    4.26 
   3  16   3    5.72    4.31 
  16   3   4    4.29    3.76 
  16   3  -4   24.71    5.74 
   3  16   4   15.98    5.15 
   3  16  -4   13.82    4.94 
  16   3   5    9.24    4.55 
  16   3  -5    8.80    3.66 
  16  -3  -5    8.41    3.25 
   3  16   5    6.06    3.75 
  16   3   6   -4.26    3.95 
   3  16   6    7.91    4.29 
  16   3   7   13.77    4.98 
   3  16   7    5.86    3.51 
  16   3   8   34.93    6.06 
   3  16   8   22.70    5.05 
  16  -3   9   21.06    5.14 
  16   3   9   27.32    5.48 
  16  -3  10    3.86    3.08 
  16   3  10   11.46    3.55 
  16   3  11    7.88    3.78 
  16  -3  11   -0.59    2.38 
 -16   3  11   -2.55    3.75 
 -16  -3  11    1.96    3.03 
  16   3  12    4.18    2.40 
  16  -3  12    2.41    2.36 
   3 -16  12   11.54    3.65 
 -16   3  12    3.74    3.65 
 -16  -3  12    2.79    2.98 
   3 -16  13   18.50    4.05 
 -16   3  13   11.50    4.19 
 -16  -3  13    8.52    3.53 
   3 -16  14    2.90    2.60 
 -16  -3  14    0.06    2.38 
 -16   3  14    1.22    2.69 
   3 -16  15    9.27    2.92 
 -16  -3  15    5.99    2.68 
 -16   3  15    7.47    3.21 
   3 -16  16   12.16    2.84 
 -16  -3  16    5.69    2.09 
 -16   3  16   12.08    3.24 
   3 -16  17   11.33    2.46 
 -16   3  17    8.38    2.50 
  16   4   0   65.46    8.43 
   4  16   0   55.18    8.15 
  16   4  -1   26.19    5.97 
  16   4   1   30.00    6.71 
   4  16  -1   21.22    5.90 
   4  16   1   27.46    6.34 
  16   4  -2    7.99    3.98 
  16   4   2   16.94    5.47 
   4  16   2   13.47    5.05 
   4  16  -2   16.79    5.50 
  16   4  -3    5.96    4.26 
  16   4   3    0.40    3.68 
   4  16  -3    5.84    4.40 
   4  16   3    4.45    3.87 
  16   4  -4    5.74    3.48 
  16   4   4    6.58    3.73 
   4  16  -4    3.32    4.09 
   4  16   4   10.33    4.75 
  16   4  -5    1.75    3.20 
  16   4   5   -2.05    3.49 
   4  16   5    0.37    3.19 
   4  16  -5   -0.66    3.25 
  16   4   6   -0.83    3.62 
  16  -4   6   -4.11    4.79 
   4 -16   6    2.05    2.81 
   4  16   6   -0.72    3.52 
  16   4   7   28.97    5.97 
  16  -4   7   24.96    5.98 
   4 -16   7   29.83    4.92 
   4  16   7   25.85    5.53 
   4 -16   8   47.61    5.96 
  16  -4   8   57.32    8.32 
   4  16   8   50.89    6.69 
  16   4   8   56.12    7.59 
  16  -4   9   60.60    8.38 
   4 -16   9   48.81    6.26 
  16   4   9   53.71    7.17 
   4  16   9   53.16    6.74 
  16   4  10   19.67    4.47 
  16  -4  10   11.43    3.67 
  16  -4  10   13.77    4.72 
   4 -16  10   19.20    4.36 
 -16   4  10   11.75    4.70 
  16  -4  11    0.71    2.57 
  16   4  11    1.33    2.34 
  16  -4  11    3.42    3.55 
   4 -16  11   -1.67    2.66 
 -16   4  11   -1.60    3.25 
 -16  -4  11    0.72    2.77 
  16   4  12    3.18    2.24 
  16  -4  12   -2.53    2.57 
 -16   4  12   -2.75    3.62 
 -16  -4  12   -2.78    2.77 
   4 -16  13    8.43    3.38 
 -16  -4  13    3.03    2.60 
 -16   4  13   -0.15    3.01 
   4 -16  14    5.66    2.85 
 -16  -4  14    1.33    2.16 
 -16   4  14   -0.70    2.69 
   4 -16  15    7.83    2.65 
 -16   4  15   14.40    3.89 
 -16  -4  15    7.77    2.63 
   4 -16  16   24.31    3.50 
 -16   4  16   12.53    3.08 
   4 -16  17   12.85    2.37 
 -16   4  17   14.17    2.66 
  16   5   0   53.04    7.97 
   5  16   0   48.55    7.20 
  16   5  -1   49.80    7.72 
  16   5   1   39.28    7.38 
   5  16  -1   42.54    7.31 
   5  16   1   38.23    6.69 
  16   5  -2   18.89    4.80 
  16   5   2   23.61    5.95 
   5  16   2   15.42    5.21 
   5  16  -2   13.67    4.57 
  16   5  -3   -0.97    3.96 
  16   5   3    5.26    3.97 
   5  16  -3    1.75    3.65 
   5  16   3    9.58    4.59 
  16   5  -4   -3.34    3.92 
  16   5   4    1.44    3.87 
   5  16   4    2.61    3.64 
   5  16  -4   -1.94    3.86 
  16   5  -5    6.22    3.02 
  16   5   5    1.11    3.36 
  16  -5   5   -6.32    5.08 
   5  16  -5    1.24    3.52 
   5  16   5    8.41    4.27 
  16   5   6    8.24    4.77 
  16  -5   6    1.26    4.37 
   5 -16   6    6.05    2.88 
   5  16  -6    5.66    3.68 
   5  16   6    9.22    3.77 
  16   5   7   33.94    6.03 
  16  -5   7   29.51    6.57 
   5 -16   7   27.12    4.83 
   5  16   7   26.29    5.60 
  16   5   8   60.44    7.34 
  16  -5   8   73.36    9.45 
   5 -16   8   57.24    6.51 
   5  16   8   69.81    7.77 
  16  -5   9   59.76    8.20 
   5 -16   9   43.92    5.71 
  16   5   9   57.53    7.95 
   5  16   9   52.39    6.97 
  16   5  10   20.89    4.53 
  16  -5  10   20.06    4.22 
  16  -5  10   26.94    5.85 
   5 -16  10   20.22    4.46 
 -16   5  10   22.07    5.45 
 -16  -5  10   15.58    4.38 
   5  16  10   27.82    4.85 
  16   5  11    2.17    2.48 
  16  -5  11    2.73    2.53 
  16  -5  11    3.68    3.16 
   5 -16  11    6.61    3.29 
 -16   5  11    1.20    3.41 
 -16  -5  11    1.09    2.42 
  16   5  12    0.94    1.82 
  16  -5  12    0.18    1.91 
  16  -5  12   -2.03    3.24 
   5 -16  12    0.68    2.42 
 -16   5  12   -3.09    3.50 
 -16  -5  12   -0.98    2.06 
   5 -16  13    6.47    2.92 
 -16  -5  13    2.25    2.05 
 -16   5  13    2.43    2.81 
   5 -16  14    0.64    2.15 
 -16  -5  14   -1.59    1.67 
 -16   5  14    5.25    2.99 
   5 -16  15   13.32    2.98 
 -16   5  15   14.05    3.38 
   5 -16  16    8.78    2.42 
 -16   5  16   13.57    3.01 
   6  16   0   37.95    6.82 
  16   6   0   46.30    7.57 
   6  16   1   20.95    5.74 
  16   6  -1   32.89    6.50 
  16   6   1   26.26    6.15 
   6  16  -1   18.66    5.47 
   6  16   2    7.12    4.10 
  16   6  -2    9.88    4.03 
  16   6   2   10.57    4.85 
   6  16  -2   11.15    4.67 
   6  16   3    2.09    3.79 
  16   6  -3   -3.60    3.48 
  16   6   3    1.38    3.72 
   6  16  -3    0.13    3.57 
  16   6  -4    7.33    3.73 
   6  16   4    3.42    3.47 
  16   6   4   -5.79    3.96 
  16  -6   4    3.00    4.07 
   6  16  -4    7.88    3.93 
  16   6  -5    0.84    3.03 
  16   6   5    3.27    3.52 
   6  16   5    2.11    3.21 
  16  -6   5    2.15    4.10 
   6  16  -5    1.65    3.36 
  16   6   6    1.60    3.27 
   6 -16   6   -4.15    2.67 
  16  -6   6   -6.02    5.08 
   6  16  -6   -3.42    3.50 
   6  16   6    0.31    3.23 
  16   6   7   22.06    5.54 
   6 -16   7   21.20    4.25 
  16  -6   7   16.03    5.45 
   6  16   7   22.30    5.35 
  16   6   8   45.94    6.69 
   6 -16   8   37.39    5.31 
  16  -6   8   53.74    8.03 
   6  16   8   38.56    6.34 
   6 -16   9   37.94    5.30 
  16  -6   9   54.49    7.67 
  16   6   9   54.19    6.99 
   6  16   9   34.92    5.62 
 -16   6   9   43.03    6.66 
  16   6  10   14.10    3.97 
   6 -16  10   13.93    3.95 
  16  -6  10   11.23    4.68 
   6  16  10    7.24    3.01 
 -16   6  10   17.43    4.89 
 -16  -6  10    6.89    2.99 
  16   6  11   -6.03    2.75 
  16  -6  11    1.60    2.03 
   6 -16  11    1.56    2.73 
  16  -6  11   -2.56    3.28 
 -16   6  11   -1.38    3.13 
 -16  -6  11    1.74    2.47 
  16  -6  12    5.05    2.28 
  16   6  12    2.82    2.17 
   6 -16  12    2.78    2.72 
  16  -6  12   -2.05    2.87 
 -16   6  12    0.08    2.70 
   6 -16  13   -4.02    2.90 
  16  -6  13   -1.38    2.52 
 -16   6  13    4.21    3.15 
   6 -16  14   -2.82    2.40 
 -16   6  14    4.03    2.69 
   6 -16  15    1.74    1.86 
 -16   6  15   -0.30    2.16 
   6 -16  16   17.46    2.78 
   7  16   0   22.01    5.77 
  16   7   0   23.63    6.07 
   7  16  -1   15.57    5.13 
  16   7  -1   20.51    5.62 
   7  16   1    7.77    4.20 
  16   7   1   18.31    5.42 
  16   7  -2    0.18    3.51 
   7  16   2    5.60    4.24 
  16   7   2    2.76    4.32 
   7  16  -2    0.60    3.93 
  16   7  -3    5.78    4.33 
   7  16   3   10.32    4.52 
  16   7   3    9.32    4.57 
   7  16  -3    7.53    4.41 
  16   7   4    7.72    4.38 
  16   7  -4   14.92    4.62 
   7  16   4    8.73    4.36 
  16  -7   4   11.91    5.20 
   7  16  -4   10.29    4.71 
   7  16   5    5.35    3.76 
  16   7  -5    5.15    3.62 
  16   7   5    5.75    3.88 
  16  -7   5    1.85    3.97 
   7  16  -5    6.88    3.92 
   7  16   6    0.63    3.41 
  16   7   6  -11.79    4.27 
   7 -16   6    0.39    2.18 
  16  -7   6   -1.31    3.88 
   7  16  -6   -2.09    3.20 
  16   7   7    2.69    3.65 
   7 -16   7    4.38    2.79 
  16  -7   7    9.54    5.21 
   7  16  -7    5.30    3.40 
   7  16   7    6.97    4.00 
  16   7   8   26.68    5.14 
   7 -16   8   22.54    4.34 
  16  -7   8   29.77    6.51 
   7  16   8   27.00    5.20 
 -16   7   8   21.87    5.16 
  16   7   9   16.60    4.28 
   7 -16   9    8.81    3.57 
  16  -7   9   19.63    5.40 
   7  16   9   20.88    4.91 
 -16   7   9   16.65    4.71 
  16   7  10    6.21    3.09 
   7 -16  10    0.54    2.34 
  16  -7  10    8.71    4.20 
   7  16  10    1.84    2.60 
 -16   7  10    5.71    3.11 
  16   7  11   -1.00    2.06 
   7 -16  11    0.76    2.32 
  16  -7  11   -0.20    2.91 
 -16   7  11    4.53    3.27 
  16  -7  12    1.23    1.87 
  16   7  12    7.92    2.57 
   7 -16  12    3.54    2.43 
  16  -7  12   -1.43    2.68 
 -16   7  12    9.16    3.41 
   7 -16  13    7.74    2.69 
  16  -7  13    4.91    2.71 
 -16   7  13    4.99    2.80 
   7 -16  14   -3.36    2.20 
 -16   7  14   -3.69    2.37 
   7 -16  15   -1.37    1.92 
 -16   7  15   -0.04    1.52 
  16   8   0    7.11    4.08 
   8  16   0   11.29    4.78 
  16   8  -1    6.34    3.86 
  16   8   1    4.57    4.01 
   8  16  -1    5.11    3.72 
   8  16   1    2.59    3.78 
  16   8  -2    7.17    4.18 
   8  16   2    4.01    3.72 
  16   8   2    7.32    4.39 
   8  16  -2    2.11    3.52 
  16   8   3   18.42    5.32 
   8  16   3    8.38    3.92 
  16   8  -3   15.80    4.45 
   8  16  -3   15.59    4.52 
  16   8   4   30.70    6.50 
   8  16   4   36.65    6.39 
  16   8  -4   38.28    6.19 
  16  -8   4   33.35    6.65 
   8  16  -4   30.63    5.98 
  16   8   5   12.58    4.76 
   8  16   5   12.54    4.49 
  16   8  -5   15.90    4.29 
  16  -8   5   11.17    5.07 
   8  16  -5    8.69    4.39 
  16   8   6    4.40    3.77 
   8  16   6   -0.03    3.11 
   8 -16   6   -2.73    2.68 
  16  -8   6    6.98    4.40 
   8  16  -6    0.85    2.81 
  16   8   7    0.55    2.87 
   8  16   7    4.40    3.51 
   8 -16   7    0.13    2.28 
  16  -8   7   11.26    4.70 
 -16   8   7   -0.12    2.46 
   8  16  -7    3.25    2.81 
  16   8   8    5.07    3.36 
   8 -16   8   -1.24    2.36 
  16  -8   8    5.39    4.09 
 -16   8   8   -2.64    2.68 
   8  16   8    7.63    3.47 
  16   8   9    2.59    2.84 
   8 -16   9    4.42    2.71 
  16  -8   9    3.27    3.47 
 -16   8   9    0.53    2.44 
   8  16   9    6.55    3.29 
  16   8  10    1.16    2.32 
   8 -16  10    1.82    2.51 
  16  -8  10   -1.59    3.15 
 -16   8  10    2.51    2.55 
   8  16  10   -2.58    2.48 
  16   8  11    5.62    2.50 
  16  -8  11    8.98    2.77 
   8 -16  11    2.14    2.28 
  16  -8  11    8.74    3.51 
 -16   8  11    5.28    2.99 
   8 -16  12    9.75    3.10 
  16  -8  12   15.80    3.95 
 -16   8  12   13.93    3.49 
   8 -16  13   10.45    2.70 
  16  -8  13    6.12    2.84 
 -16   8  13    4.29    2.00 
   8 -16  14    0.10    1.70 
   8 -16  15    1.52    1.41 
   9  16   0    4.91    3.82 
  16   9   0   12.45    4.62 
  16   9   1    3.02    3.79 
   9  16   1    1.43    3.78 
   9  16  -1    0.47    3.55 
  16   9  -1   -2.49    3.59 
  16   9   2    8.71    4.21 
   9  16  -2    5.65    4.04 
   9  16   2    2.50    3.67 
  16   9  -2    5.25    3.67 
  16   9   3   47.12    7.16 
   9  16  -3   37.78    6.38 
   9  16   3   47.58    7.03 
  16   9  -3   46.75    6.74 
  16   9   4   26.53    6.05 
   9  16   4   29.58    5.94 
  16   9  -4   43.48    6.25 
  16  -9   4   36.35    6.74 
   9  16  -4   38.12    6.38 
   9  16   5   31.95    6.00 
  16   9  -5   26.06    4.93 
  16   9   5   35.72    6.53 
  16  -9   5   25.14    6.30 
   9  16  -5   24.76    5.56 
   9  16   6    8.02    4.38 
  16   9   6    1.61    3.14 
  16  -9   6    3.42    3.46 
   9 -16   6    9.74    3.20 
   9  16  -6    3.43    2.95 
   9  16   7    2.32    2.97 
  16   9   7    2.35    3.08 
  16  -9   7   -2.51    3.76 
   9 -16   7   -0.01    2.45 
  16   9   8   -2.26    2.83 
   9 -16   8    1.53    2.11 
  16  -9   8   -1.30    3.54 
   9  16   8   -1.77    2.62 
  16   9   9    4.29    2.86 
   9 -16   9    4.09    2.47 
   9  16   9    1.99    2.58 
  16   9  10    1.75    2.31 
   9 -16  10    7.32    2.81 
  16  -9  10    1.62    2.83 
   9  16  10    3.92    2.91 
  16   9  11    8.44    2.65 
   9 -16  11   18.45    3.60 
  16  -9  11   19.34    4.36 
  16  -9  12   26.89    4.55 
   9 -16  12   30.59    4.27 
  16  -9  13   18.35    3.47 
   9 -16  13   19.87    3.38 
   9 -16  14    6.31    2.12 
  10  16   0    5.56    3.69 
  16  10   0    5.41    3.95 
  10  16   1    0.01    3.33 
  10  16  -1    6.59    4.19 
  16  10  -1   -0.74    2.89 
  16  10   1    3.30    3.52 
  10  16  -2   14.92    4.64 
  10  16   2    5.28    3.96 
  16  10  -2   10.54    4.04 
  16  10   2    8.07    4.33 
  10  16  -3   26.45    5.61 
  10  16   3   25.90    5.77 
  16  10  -3   29.21    5.36 
  16  10   3   34.74    6.44 
  10  16   4   46.50    6.80 
  16  10  -4   44.35    6.28 
  16  10   4   57.35    7.38 
  10  16  -4   47.11    6.86 
  10  16   5   33.02    5.83 
  16  10  -5   21.67    4.47 
  16  10   5   28.35    5.77 
  16 -10   5   37.93    6.56 
  10  16  -5   29.63    5.35 
  16  10   6   13.48    4.16 
  10  16   6    9.06    3.93 
  16 -10   6    8.35    4.07 
  10 -16   6    7.30    2.72 
  10  16  -6    9.06    3.63 
  10  16   7    1.91    2.98 
  16  10   7    2.97    2.94 
  16 -10   7   -1.73    3.50 
  10 -16   7   -1.80    2.24 
  16  10   8   -2.82    3.02 
  16 -10   8   -6.81    4.01 
  10 -16   8    1.13    2.11 
  10  16   8   -0.26    2.71 
  16  10   9    0.43    2.24 
  16 -10   9   -5.93    3.52 
  10 -16   9    2.64    2.19 
  10  16   9    1.06    2.50 
  16  10  10    4.95    2.62 
  16 -10  10   -0.59    2.88 
  10 -16  10    5.13    2.34 
  10  16  10    1.98    2.27 
  16  10  11    8.40    2.56 
  16 -10  11    9.13    2.39 
  16 -10  11   10.35    3.40 
  10 -16  11   18.52    3.53 
  16 -10  12   26.27    4.12 
  10 -16  12   25.89    3.77 
  10 -16  13   17.31    2.87 
  11  16   0   -2.12    3.33 
  16  11   0   -0.24    3.22 
  11  16   1   -4.14    3.57 
  11  16  -1    0.84    3.13 
  16  11  -1    2.68    3.05 
  16  11   1   -9.36    3.91 
  11  16  -2    0.16    3.36 
  11  16   2    5.18    3.64 
  16  11  -2    8.72    3.66 
  16  11   2    2.72    3.24 
  11  16  -3   14.58    4.31 
  11  16   3   17.90    4.82 
  16  11  -3   17.99    4.57 
  16  11   3   19.06    4.72 
  11  16   4   27.10    5.26 
  16  11  -4   23.17    4.67 
  16  11   4   31.94    5.68 
  11  16  -4   24.73    4.97 
  11  16   5   24.78    5.11 
  16  11  -5   15.59    3.82 
  16  11   5   19.35    4.39 
  11  16  -5   16.73    4.21 
  11  16   6    5.24    3.23 
  16  11   6   -0.21    2.63 
  16 -11   6    4.44    3.32 
  11 -16   6    2.94    1.89 
  11  16  -6    4.69    2.62 
  11  16   7   -1.04    2.70 
  16  11   7   -0.34    2.42 
  16 -11   7   -3.25    3.27 
  11 -16   7   -1.17    2.14 
  16  11   8   -0.49    2.39 
  16 -11   8   -3.46    3.27 
  11 -16   8   -0.82    1.79 
  11  16   8   -0.63    2.07 
  16  11   9   -0.03    2.14 
  16 -11   9   -6.41    3.51 
  11 -16   9   -1.71    1.94 
  11  16   9   -1.67    2.30 
  16  11  10    0.35    1.64 
  16 -11  10   -2.09    2.56 
  11  16  10    1.32    1.65 
  16 -11  11    4.23    2.30 
  11 -16  11    7.37    2.31 
  11 -16  12    7.40    2.06 
  16  12   0   10.97    4.01 
  12  16   0    6.12    3.67 
  12  16  -1    5.46    3.36 
  12  16   1    7.41    3.85 
  16  12  -1    4.42    3.25 
  16  12   1    5.05    3.39 
  12  16  -2   -1.44    3.00 
  12  16   2    6.54    3.61 
  16  12  -2    0.54    2.94 
  16  12   2   -3.27    3.17 
  12  16   3   13.54    4.14 
  16  12  -3    5.82    3.24 
  16  12   3    8.78    3.83 
  12  16  -3    3.82    3.00 
  12  16   4    7.84    3.54 
  16  12  -4    8.26    3.28 
  16  12   4    8.30    3.48 
  12  16  -4    8.53    3.34 
  12  16   5    3.55    2.99 
  16  12   5    8.16    3.39 
  12  16  -5    7.49    2.99 
  12  16   6    1.30    2.58 
  16  12   6    1.63    2.71 
  12  16   7    0.53    2.18 
  16  12   7    1.11    2.27 
  12 -16   7    1.04    1.76 
  16  12   8    1.60    2.20 
  12 -16   8    6.61    2.29 
  12  16   8    1.03    1.96 
  16  12   9    1.58    2.04 
  12 -16   9    1.55    1.65 
  12  16   9   -1.75    1.71 
  12 -16  10   -0.58    1.39 
  13  16   0   18.88    4.57 
  16  13   0   11.67    3.95 
  13  16  -1    4.99    3.23 
  13  16   1    7.81    3.63 
  16  13  -1   10.48    3.68 
  16  13   1   12.81    3.99 
  13  16  -2    7.41    3.39 
  13  16   2    8.95    3.58 
  16  13  -2    2.11    2.64 
  16  13   2    3.60    3.00 
  13  16   3    0.14    2.54 
  16  13  -3    3.33    2.42 
  16  13   3   -0.80    2.67 
  13  16  -3    2.75    2.76 
  13  16   4    4.17    2.86 
  16  13  -4    5.15    2.54 
  16  13   4    9.57    3.52 
  13  16  -4   -1.39    2.02 
  13  16   5    0.32    2.22 
  16  13   5    0.85    2.41 
  13  16   6    0.81    2.21 
  16  13   6    0.64    2.19 
  16  13   7    0.24    1.86 
  13  16   7    1.58    2.05 
  16  13   8   11.15    2.89 
  13  16   8   12.81    2.86 
  14  16   0   22.98    4.23 
  16  14   0   17.39    3.89 
  14  16   1   16.29    3.77 
  16  14  -1   11.85    3.41 
  16  14   1   18.32    3.90 
  14  16  -1   12.67    3.52 
  14  16   2    6.76    3.03 
  16  14  -2    6.22    2.98 
  16  14   2    9.95    3.25 
  14  16  -2    7.94    3.04 
  16  14  -3   -0.29    1.70 
  14  16   3   -0.08    2.11 
  16  14   3    4.95    2.69 
  14  16  -3    0.78    1.91 
  14  16   4    0.50    2.04 
  16  14   4    1.49    2.09 
  14  16   5   -1.69    2.01 
  16  14   5    1.70    2.10 
  16  14   6    0.57    1.72 
  14  16   6   -5.69    2.17 
  16  14   7   10.23    2.56 
  16  15   0    5.56    2.46 
  15  16   0    5.89    2.50 
  15  16   1   14.86    3.26 
  16  15  -1   12.36    2.94 
  16  15   1   18.69    3.48 
  15  16  -1   13.18    2.95 
  15  16   2    4.07    2.38 
  16  15   2    3.71    2.26 
  16  15   3    0.22    1.72 
  15  16   3    0.92    1.73 
  16  15   4    0.29    1.63 
  15  16   4   -0.80    1.63 
  17   0   0    5.99    3.36 
  17   0  -1    3.54    3.59 
  17   0   1    2.31    3.10 
  17   0   2    0.69    3.36 
  17   0  -2   -1.07    3.32 
  17   0  -3   16.61    4.57 
  17   0   3   11.76    4.74 
  17   0  -4   20.79    4.65 
  17   0   4   20.43    5.30 
  17   0  -5   10.60    3.50 
  17   0   5    6.85    4.19 
  17   0   6    3.31    3.38 
  17   0   7   -5.41    4.09 
  17   0   8    9.61    3.77 
  17   0   9    4.39    3.15 
  17   0  10   -2.65    2.73 
  17   0  11   12.09    3.78 
 -17   0  11    4.34    3.19 
  17   0  12    8.21    2.61 
 -17   0  12    4.84    3.11 
 -17   0  13   16.10    4.23 
 -17   0  14    2.91    2.75 
   0 -17  15    3.18    1.86 
 -17   0  15    1.14    1.89 
   0 -17  16    3.83    1.80 
 -17   0  16    2.80    1.87 
  17  -1   0    9.43    3.74 
  17   1   0   11.45    4.12 
  17  -1  -1    8.19    3.70 
  17  -1   1    0.37    3.64 
  17   1  -1   -0.34    3.39 
  17   1   1    5.10    3.65 
  17  -1  -2   -6.04    3.36 
  17   1  -2   -1.98    3.15 
  17  -1   2   -3.27    3.75 
  17   1   2   -1.83    3.74 
  17   1  -3    9.17    4.04 
  17  -1   3    8.86    4.52 
  17   1   3   17.98    5.23 
  17  -1  -3    2.72    2.78 
  17   1  -4   15.70    3.77 
  17  -1   4   16.99    4.62 
  17   1   4   24.91    5.85 
  17  -1  -4   19.75    4.39 
  17  -1   5   18.00    5.02 
  17  -1  -5   13.57    3.59 
  17   1   5   15.00    4.83 
  17   1  -5   15.99    3.89 
  17  -1   6    0.36    3.22 
  17   1   6    1.08    3.17 
  17   1   7    6.55    3.82 
  17  -1   7   11.57    4.66 
  17   1   8   -0.59    3.34 
  17  -1   8   -0.95    3.59 
  17  -1   9    9.95    3.70 
  17   1   9    6.08    3.35 
  17  -1  10   -1.93    2.84 
  17   1  10    5.54    3.27 
  17   1  11    0.99    2.21 
  17  -1  11    2.75    2.34 
 -17   1  11    3.63    3.28 
 -17  -1  11    1.08    3.02 
  17   1  12    6.24    2.67 
  17  -1  12   10.00    3.00 
 -17   1  12    8.76    3.39 
 -17  -1  12    3.73    2.94 
 -17  -1  13    7.70    3.13 
 -17   1  13    5.70    3.04 
   1 -17  14    5.04    2.46 
 -17  -1  14    1.93    2.44 
 -17   1  14   -1.99    2.34 
   1 -17  15    3.05    1.95 
 -17  -1  15    4.47    2.46 
 -17   1  15   -0.76    1.98 
   1 -17  16    2.30    1.36 
  -1 -17  16    2.95    1.52 
 -17  -1  16    2.29    1.57 
 -17   1  16    2.12    1.83 
  17   2   0   13.32    4.47 
  17  -2   0   13.60    4.18 
   2  17   0   12.71    5.12 
  17   2  -1   15.50    4.62 
  17   2   1    9.90    4.65 
  17  -2  -1    9.74    3.96 
   2  17  -1   11.27    5.06 
   2  17   1    6.34    4.45 
  17   2  -2    2.50    3.22 
  17   2   2   -1.55    4.04 
  17  -2  -2    0.39    2.61 
   2  17   2   -0.32    3.73 
  17  -2  -3    4.27    2.81 
  17   2  -3    5.08    3.50 
   2  17   3   11.71    5.00 
  17  -2  -4    9.24    3.41 
  17   2   4    2.04    3.34 
  17   2  -4    9.32    3.60 
  17  -2   4   10.13    4.42 
   2  17   4    9.79    4.28 
  17   2   5    5.17    3.90 
  17   2  -5   10.87    3.63 
  17  -2  -5    6.65    2.96 
  17  -2   5    4.05    3.39 
  17   2   6   -1.33    3.51 
  17  -2   6    3.76    3.89 
  17   2   7    7.30    3.96 
  17  -2   7    3.64    3.41 
  17  -2   8   18.98    4.70 
  17   2   8   14.92    4.55 
  17  -2   9   11.85    3.82 
  17   2   9    9.52    3.80 
  17  -2  10    4.65    2.85 
  17   2  10    1.28    2.66 
  17  -2  11    0.60    2.45 
  17   2  11   -2.17    2.57 
   2 -17  11    8.00    2.91 
 -17   2  11   -3.95    3.44 
 -17  -2  11    0.88    2.85 
  17   2  12    6.36    2.45 
  17  -2  12    9.36    2.96 
   2 -17  12   13.98    3.42 
 -17   2  12    6.00    3.25 
 -17  -2  12    6.63    3.16 
   2 -17  13    4.69    2.64 
 -17  -2  13    1.96    2.27 
 -17   2  13    4.22    2.92 
   2 -17  14   -0.90    1.88 
 -17  -2  14    0.84    2.16 
 -17   2  14    0.19    2.31 
   2 -17  15    4.15    2.04 
 -17  -2  15    2.81    2.00 
 -17   2  15    1.04    1.98 
   2 -17  16    7.26    1.94 
 -17   2  16    4.92    2.07 
  17   3   0   25.40    5.36 
   3  17   0   13.17    5.05 
  17   3  -1   17.19    5.09 
  17   3   1   16.81    5.08 
   3  17   1   10.66    4.57 
   3  17  -1   19.62    5.70 
  17   3   2    8.04    4.24 
  17   3  -2    7.85    4.56 
   3  17   2    0.32    3.91 
   3  17  -2    2.41    3.77 
  17   3   3    4.47    4.01 
  17   3  -3    1.60    2.96 
  17  -3  -3    1.91    2.69 
   3  17   3    3.16    3.47 
   3  17  -3   -2.34    3.88 
  17  -3  -4   10.12    3.29 
  17   3  -4   12.28    4.06 
  17   3   4   10.56    4.96 
   3  17   4   12.57    4.43 
  17  -3  -5    3.28    2.42 
  17   3  -5   -0.20    2.52 
  17   3   5    0.20    3.50 
   3  17   5   -0.44    3.20 
  17   3   6    0.65    3.59 
   3  17   6    0.38    2.92 
  17  -3   7    6.56    3.87 
  17   3   7   16.53    4.75 
   3 -17   7   10.90    3.26 
  17  -3   8   26.10    5.33 
  17   3   8   34.92    5.84 
   3 -17   8   27.71    4.30 
  17  -3   9   17.49    4.38 
  17   3   9   19.81    4.56 
   3 -17   9   16.99    3.83 
  17   3  10    3.54    3.00 
  17  -3  10   11.52    3.64 
   3 -17  10    8.06    2.95 
 -17   3  10    5.72    3.98 
  17   3  11    1.47    2.56 
  17  -3  11    0.10    2.21 
   3 -17  11   -1.05    2.20 
 -17   3  11   -6.23    3.59 
 -17  -3  11   -0.15    2.78 
  17  -3  12   -1.24    1.87 
  17   3  12    3.00    2.18 
   3 -17  12    5.17    2.41 
 -17   3  12   -2.20    2.95 
 -17  -3  12   -3.53    2.50 
   3 -17  13    6.64    2.49 
 -17  -3  13    1.94    2.25 
 -17   3  13    1.54    2.68 
   3 -17  14    1.75    1.98 
 -17  -3  14    0.91    2.06 
 -17   3  14    0.32    2.23 
   3 -17  15    0.73    1.70 
 -17  -3  15    1.33    1.43 
 -17   3  15    3.04    2.14 
   3 -17  16    9.93    2.06 
 -17   3  16    5.57    1.97 
  17   4   0   26.06    6.20 
   4  17   0   24.80    6.09 
  17   4  -1   22.67    5.46 
  17   4   1   22.63    6.06 
   4  17  -1   16.62    5.25 
   4  17   1   24.03    5.73 
  17   4  -2   11.14    4.24 
  17   4   2    8.26    4.61 
   4  17  -2    9.47    5.10 
   4  17   2    5.47    4.27 
  17   4  -3    0.96    3.42 
  17   4   3   -0.01    3.45 
   4  17   3    5.18    4.02 
   4  17  -3   -4.32    4.24 
  17   4  -4    4.06    3.01 
  17   4   4    0.94    3.40 
  17  -4  -4   -3.50    3.08 
   4  17   4    2.58    3.48 
   4  17  -4    7.87    4.07 
  17   4  -5    1.23    2.78 
  17  -4  -5    0.56    2.22 
  17   4   5    7.91    4.59 
   4  17   5    5.61    3.76 
  17   4   6    3.71    3.75 
   4  17   6    2.56    3.33 
  17   4   7   20.66    5.22 
   4 -17   7   13.27    3.36 
   4  17   7   11.62    4.10 
  17   4   8   27.07    5.42 
  17  -4   8   24.67    5.22 
   4 -17   8   17.42    3.62 
   4  17   8   23.82    4.83 
  17  -4   9   30.34    5.46 
  17   4   9   30.89    5.14 
   4 -17   9   28.67    4.43 
  17   4  10    4.53    2.90 
  17  -4  10    2.70    2.73 
   4 -17  10    8.31    2.83 
 -17   4  10    4.30    3.17 
 -17  -4  10    0.69    2.52 
  17   4  11    1.16    2.11 
  17  -4  11   -3.46    2.54 
   4 -17  11   -2.12    2.26 
 -17   4  11   -0.90    2.92 
 -17  -4  11   -1.06    2.36 
  17   4  12    1.28    1.79 
  17  -4  12    1.10    1.68 
   4 -17  12    5.41    2.46 
 -17   4  12    3.21    2.82 
 -17  -4  12    0.36    2.16 
   4 -17  13    1.48    1.96 
 -17  -4  13    3.46    2.12 
 -17   4  13    6.47    2.86 
   4 -17  14    1.01    1.85 
 -17  -4  14   -0.56    1.55 
 -17   4  14    1.90    2.37 
   4 -17  15    7.25    2.14 
 -17   4  15    1.22    1.85 
  17   5   0   29.10    5.52 
   5  17   0   23.32    5.93 
  17   5  -1   12.44    4.67 
  17   5   1   17.21    5.07 
   5  17   1   17.04    5.23 
   5  17  -1   14.82    5.11 
  17   5  -2    0.67    3.22 
  17   5   2    0.78    3.62 
   5  17   2    3.85    4.10 
   5  17  -2    5.32    3.97 
  17   5  -3    2.89    3.33 
  17   5   3   -4.10    4.27 
   5  17   3    7.04    4.17 
   5  17  -3   -0.28    3.54 
  17   5  -4    5.08    3.36 
  17   5   4    0.80    3.80 
   5  17   4    4.52    3.58 
   5  17  -4    2.65    3.30 
  17   5  -5   -1.10    2.56 
  17   5   5    2.00    3.89 
  17  -5  -5    3.70    2.51 
   5  17  -5   -2.50    3.66 
   5  17   5    5.04    3.70 
  17   5   6  -14.47    4.50 
   5  17   6    1.58    3.39 
  17   5   7    8.77    3.80 
   5 -17   7    9.98    3.05 
   5  17   7    1.71    3.12 
  17   5   8   28.14    5.30 
   5 -17   8   25.49    4.27 
   5  17   8   35.22    5.91 
  17   5   9   13.09    3.94 
  17  -5   9   17.07    4.14 
   5 -17   9   13.32    3.30 
 -17   5   9   16.73    4.69 
  17  -5  10    4.74    2.73 
  17   5  10    7.06    3.17 
   5 -17  10    6.21    2.65 
 -17   5  10    5.27    3.16 
 -17  -5  10    2.52    2.41 
  17   5  11    5.15    2.51 
  17  -5  11    3.09    2.29 
   5 -17  11   -1.31    2.07 
 -17   5  11    2.51    2.89 
 -17  -5  11    1.64    1.97 
  17  -5  12    0.23    1.50 
  17   5  12   -2.31    1.77 
   5 -17  12    0.81    2.08 
 -17  -5  12    2.52    2.01 
   5 -17  13    2.75    2.06 
 -17  -5  13    1.46    1.52 
 -17   5  13   -3.01    2.59 
   5 -17  14   -0.80    1.62 
 -17   5  14   -0.34    1.85 
   5 -17  15    0.49    1.34 
 -17   5  15    0.06    1.59 
  17   6   0    9.57    4.04 
   6  17   0    7.18    4.28 
  17   6  -1   16.22    4.76 
  17   6   1   14.58    4.64 
   6  17  -1    4.99    3.94 
   6  17   1    9.72    4.69 
  17   6  -2    0.76    3.20 
  17   6   2    0.01    3.46 
   6  17   2    4.53    4.24 
   6  17  -2   -4.38    3.82 
  17   6  -3   10.31    4.17 
  17   6   3    3.95    3.84 
   6  17  -3    6.42    3.90 
   6  17   3    6.03    3.98 
  17   6  -4   12.21    4.23 
  17   6   4    9.24    4.24 
   6  17  -4   13.05    4.81 
   6  17   4   10.97    4.41 
  17   6  -5    6.54    3.08 
  17   6   5   11.39    4.38 
   6  17   5    9.92    4.05 
   6  17  -5    5.57    3.92 
  17   6   6   -5.18    3.66 
   6  17   6   -1.84    3.16 
  17   6   7    3.48    3.22 
   6 -17   7    2.71    2.08 
   6  17   7    2.94    3.30 
  17   6   8   16.49    4.34 
   6 -17   8    6.07    2.68 
   6  17   8   14.77    4.43 
  17  -6   9    9.77    3.51 
  17   6   9    8.78    3.53 
   6 -17   9    6.17    2.48 
 -17   6   9   10.33    3.63 
 -17  -6   9    7.21    2.66 
   6  17   9   17.20    4.02 
  17   6  10    1.57    2.36 
  17  -6  10    2.10    2.17 
   6 -17  10    2.81    2.31 
 -17   6  10    2.61    2.72 
 -17  -6  10    1.63    1.75 
  17  -6  11   -0.69    2.02 
  17   6  11    1.22    1.91 
   6 -17  11    2.54    2.34 
 -17   6  11    1.94    2.50 
  17  -6  12    2.42    1.73 
  17   6  12    1.96    1.77 
   6 -17  12    0.72    1.92 
 -17   6  12    6.46    2.78 
   6 -17  13    0.89    1.75 
 -17   6  13    5.14    2.49 
   6 -17  14   -1.59    1.57 
 -17   6  14   -3.24    2.13 
  17   7   0    6.39    4.29 
   7  17   0    0.63    3.22 
  17   7  -1    1.06    3.22 
  17   7   1   -0.01    3.23 
   7  17   1   -3.36    3.75 
  17   7  -2    0.53    3.03 
  17   7   2   -0.06    3.52 
   7  17  -2    2.28    3.22 
   7  17   2   -0.90    3.62 
  17   7  -3   12.53    4.24 
  17   7   3   17.50    4.99 
   7  17   3    7.82    4.34 
   7  17  -3   13.86    4.63 
  17   7   4   26.08    6.02 
  17   7  -4   33.46    5.46 
   7  17   4   25.25    5.47 
   7  17  -4   23.41    5.30 
  17   7   5   14.22    4.89 
  17   7  -5   14.32    4.01 
   7  17  -5   13.17    4.16 
   7  17   5   15.83    4.67 
  17   7   6    4.18    3.55 
   7  17   6    1.92    3.02 
  17   7   7    1.70    3.07 
   7 -17   7   -1.45    2.06 
 -17   7   7   -0.40    2.41 
   7  17   7    4.68    3.44 
  17   7   8    2.98    2.58 
   7  17   8    4.04    2.77 
 -17   7   8    4.03    2.70 
  17   7   9   -0.10    2.38 
   7 -17   9    0.69    2.12 
   7  17   9    4.37    2.85 
 -17   7   9    2.43    2.44 
  17  -7  10    2.39    2.05 
  17   7  10    2.35    2.62 
   7 -17  10   -2.64    2.26 
 -17   7  10    2.02    2.40 
  17   7  11    6.01    2.59 
  17  -7  11    2.64    1.78 
   7 -17  11   -1.06    1.96 
 -17   7  11    6.33    2.82 
   7 -17  12    9.91    2.62 
 -17   7  12   10.59    2.90 
   7 -17  13    9.45    2.36 
 -17   7  13    6.18    2.14 
   7 -17  14   -0.77    1.39 
  17   8   0   -0.16    2.90 
   8  17   0    7.17    4.17 
  17   8  -1   -3.38    3.48 
  17   8   1    0.41    3.21 
   8  17  -1    2.94    3.57 
   8  17   1   -1.08    3.51 
  17   8   2   14.22    4.49 
  17   8  -2    9.53    4.00 
   8  17   2    6.40    4.05 
   8  17  -2    9.75    4.24 
  17   8   3   39.88    6.29 
  17   8  -3   31.43    5.44 
   8  17  -3   34.11    6.37 
   8  17   3   29.14    5.69 
  17   8   4   27.94    5.97 
  17   8  -4   28.78    5.00 
   8  17   4   29.43    5.77 
   8  17  -4   25.70    5.30 
  17   8   5   19.37    4.91 
  17   8  -5   18.35    3.93 
   8  17  -5   14.80    4.30 
   8  17   5   16.35    4.61 
  17   8   6    5.15    3.19 
   8  17  -6    4.10    3.14 
 -17   8   6    4.36    2.76 
   8  17   6    2.93    2.89 
  17   8   7    0.17    2.52 
   8 -17   7   -0.86    1.79 
   8  17   7    3.69    3.13 
 -17   8   7    0.86    2.10 
  17   8   8   -2.08    2.74 
   8 -17   8   -3.68    2.09 
 -17   8   8   -1.27    2.26 
   8  17   8    2.85    2.81 
  17   8   9    1.19    2.50 
   8 -17   9    0.62    1.78 
   8  17   9    0.78    2.19 
 -17   8   9   -1.63    2.27 
  17  -8  10    2.97    2.03 
  17   8  10   -0.21    1.90 
   8 -17  10    3.42    2.03 
 -17   8  10    1.32    1.82 
  17  -8  11    6.34    2.22 
  17   8  11    3.51    2.08 
   8 -17  11    8.37    2.41 
 -17   8  11    5.43    2.32 
   8 -17  12   18.08    2.96 
   8 -17  13    7.75    2.04 
  17   9   0   -0.20    3.11 
   9  17   0    0.13    3.26 
  17   9  -1   -5.70    3.61 
  17   9   1   -3.42    3.28 
   9  17  -1    0.19    3.06 
   9  17   1   -2.88    3.43 
   9  17   2   20.36    4.89 
  17   9  -2    7.17    3.83 
  17   9   2    9.43    4.00 
   9  17  -2   13.28    4.68 
   9  17   3   21.80    5.37 
  17   9  -3   24.16    4.77 
  17   9   3   27.80    5.44 
   9  17  -3   24.45    5.41 
  17   9  -4   30.07    4.97 
  17   9   4   35.69    6.15 
   9  17  -4   31.07    5.49 
   9  17   4   25.71    5.23 
  17   9   5   17.79    4.88 
   9  17  -5   15.97    4.41 
   9  17   5   16.42    4.51 
  17   9   6    7.75    3.73 
   9  17   6    2.29    2.76 
   9  17  -6    4.80    2.85 
  17   9   7    1.07    2.65 
   9  17   7    0.69    2.42 
  17   9   8    1.30    2.58 
   9 -17   8    2.23    1.95 
   9  17   8   -0.07    2.15 
  17   9   9   -2.88    2.31 
   9 -17   9    3.60    1.84 
   9  17   9   -3.80    2.22 
  17  -9  10    0.75    1.67 
  17   9  10   -0.24    1.93 
   9 -17  10    2.58    1.73 
  17   9  11    4.17    1.79 
  17  -9  11    5.67    1.99 
   9 -17  11    4.59    1.97 
   9 -17  12   12.37    2.36 
  17  10   0    8.99    3.76 
  10  17   0    2.68    3.26 
  10  17   1    1.89    2.98 
  17  10  -1   -2.51    3.50 
  17  10   1   -5.34    3.19 
  10  17  -1   -2.22    3.18 
  10  17   2    5.31    3.55 
  17  10  -2    3.83    3.12 
  17  10   2    3.22    3.17 
  10  17  -2    0.27    3.01 
  10  17   3   13.28    4.34 
  17  10  -3   13.60    3.85 
  17  10   3   15.25    4.71 
  10  17  -3   13.42    4.15 
  10  17   4   26.23    5.21 
  17  10  -4   24.40    4.44 
  17  10   4   29.10    5.19 
  10  17  -4   21.83    4.66 
  17  10   5   24.10    4.72 
  10  17  -5   15.63    3.90 
  10  17   5   11.40    3.83 
  17  10   6   -3.10    2.83 
  10  17   6    3.45    2.96 
  17  10   7    0.19    2.40 
  10  17   7    1.60    2.48 
  17  10   8   -0.91    2.43 
  10 -17   8    0.06    1.44 
  10  17   8    0.48    2.13 
  17  10   9   -4.50    2.28 
  10 -17   9    0.82    1.56 
  10  17   9   -0.22    1.66 
  17 -10  10    1.32    1.51 
  17  10  10    0.00    1.51 
  10 -17  10    0.38    1.35 
  17  11   0    0.92    2.78 
  11  17   0    7.68    3.55 
  11  17   1    4.89    3.28 
  17  11  -1    4.37    2.94 
  17  11   1    4.64    3.24 
  11  17  -1   -1.30    2.78 
  11  17   2    3.44    3.14 
  17  11  -2    0.19    2.53 
  17  11   2   -3.55    3.18 
  11  17  -2    0.30    2.74 
  11  17   3    2.87    2.91 
  17  11  -3    7.79    3.15 
  17  11   3    6.64    3.44 
  11  17  -3   -0.22    2.75 
  17  11  -4    9.66    3.03 
  17  11   4    5.44    3.15 
  11  17  -4    8.59    3.17 
  11  17   4    4.43    2.92 
  17  11   5    5.67    3.31 
  11  17   5    7.68    3.43 
  11  17  -5    7.71    2.84 
  17  11   6    2.18    2.33 
  11  17   6    3.35    2.66 
  17  11   7    2.46    2.47 
  11  17   7    1.63    2.25 
  17  11   8    0.07    1.99 
  11  17   8   37.44    4.18 
  17  11   9    0.00    1.55 
  17  12   0   16.93    3.97 
  12  17   0   19.45    4.40 
  17  12  -1    5.13    2.90 
  17  12   1    3.42    2.82 
  12  17  -1    4.13    2.83 
  12  17   1    0.69    2.69 
  17  12  -2    1.57    2.39 
  17  12   2    0.91    2.50 
  12  17   2    1.01    2.55 
  12  17  -2   -2.41    2.73 
  17  12  -3   -1.84    2.14 
  17  12   3   -7.44    3.25 
  12  17   3    0.03    2.41 
  12  17  -3    0.01    2.25 
  17  12  -4    0.44    1.65 
  17  12   4    2.86    2.77 
  12  17  -4    3.91    2.49 
  12  17   4    3.21    2.66 
  17  12   5   -0.24    2.20 
  12  17   5    0.68    2.08 
  17  12   6   -1.40    2.38 
  12  17   6    1.00    2.01 
  17  12   7    2.08    1.83 
  12  17   7    1.91    2.02 
  17  12   8    9.65    2.62 
  17  13   0   19.20    3.88 
  13  17   0   19.64    3.83 
  17  13  -1   13.04    3.40 
  17  13   1   13.34    3.30 
  13  17   1   17.47    3.70 
  13  17  -1    8.11    2.97 
  17  13  -2    6.03    2.54 
  17  13   2   11.77    3.22 
  13  17   2    8.29    2.98 
  13  17  -2    5.90    2.65 
  17  13  -3   -1.14    1.60 
  17  13   3    1.60    2.22 
  13  17  -3    0.40    1.78 
  13  17   3    1.15    1.97 
  17  13   4    0.44    2.01 
  13  17   4   -0.01    1.94 
  17  13   5   -0.54    1.90 
  13  17   5    2.19    2.15 
  17  13   6    0.53    1.72 
  13  17   6   -0.08    1.59 
  17  14   0   21.96    3.55 
  14  17   0    5.36    2.35 
  17  14   1   13.48    3.05 
  14  17   1   14.03    3.09 
  14  17  -1    6.54    2.48 
  17  14   2    8.56    2.66 
  14  17   2    1.92    2.07 
  17  14   3    0.65    1.70 
  14  17   3    1.37    1.78 
  17  14   4    0.27    1.54 
  18   0   0   16.58    4.89 
  18   0  -1    8.81    3.88 
  18   0   1    5.65    3.94 
  18   0  -2    2.89    3.15 
  18   0   2    7.36    4.19 
  18   0  -3    4.17    2.75 
  18   0   3    2.69    3.54 
  18   0  -4    0.76    2.47 
  18   0   4    2.38    3.64 
  18   0   5   -2.69    3.94 
  18   0   6    1.27    3.18 
  18   0   7   15.22    4.70 
  18   0   8    9.07    3.86 
  18   0   9   14.35    3.93 
  18   0  10   -2.64    2.76 
 -18   0  10   -5.71    4.01 
  18   0  11   -2.13    2.39 
 -18   0  11   -6.15    3.30 
   0 -18  12   12.31    2.56 
 -18   0  12    6.78    3.11 
   0 -18  13    3.19    1.75 
 -18   0  13   -4.61    2.42 
   0 -18  14    0.28    1.28 
 -18   0  14    1.41    1.81 
  18   1   0    5.99    3.44 
  18  -1   0   12.62    3.95 
  18   1  -1    5.98    3.61 
  18   1   1   11.70    4.56 
  18  -1  -1    5.99    3.54 
  18  -1   1   -0.68    3.50 
  18   1  -2    2.80    2.80 
  18   1   2   -2.63    3.41 
  18  -1  -2   -0.61    2.83 
  18  -1   2    0.36    3.14 
  18   1   3    0.08    3.48 
  18  -1  -3    1.60    2.38 
  18  -1   3    3.31    3.65 
  18   1  -3    5.80    3.21 
  18  -1  -4    5.53    2.83 
  18   1   4    7.96    4.49 
  18   1  -4    3.40    2.57 
  18  -1   4   -0.01    3.64 
  18   1   5    4.91    4.02 
  18  -1   5    4.53    3.89 
  18   1   6    0.65    3.39 
  18  -1   6   -2.37    3.47 
  18   1   7    1.05    3.25 
  18  -1   7   -1.86    3.52 
  18  -1   8    4.19    3.17 
  18   1   8   12.67    4.12 
  18  -1   9    3.32    2.87 
  18   1   9    2.55    2.76 
   1 -18   9    4.61    2.06 
  18   1  10    1.37    2.21 
  18  -1  10    2.10    2.40 
   1 -18  10    5.69    2.27 
 -18   1  10    7.65    3.64 
 -18  -1  10   -2.90    3.64 
  18   1  11   -0.48    2.17 
  18  -1  11    2.48    2.31 
   1 -18  11    2.14    1.80 
 -18   1  11   -2.12    2.90 
 -18  -1  11   -3.05    3.10 
  18   1  12   -0.26    1.62 
  18  -1  12    2.06    1.64 
   1 -18  12    3.74    2.04 
 -18   1  12   -2.82    2.69 
 -18  -1  12    0.00    2.22 
   1 -18  13    3.87    1.88 
 -18  -1  13    0.59    2.11 
 -18   1  13    2.05    2.03 
   1 -18  14   -0.58    1.18 
  -1 -18  14    3.97    1.64 
 -18  -1  14   -0.57    1.77 
 -18   1  14   -0.31    1.78 
  18  -2   0   10.17    3.85 
  18   2   0   10.52    4.27 
  18   2   1    9.72    4.02 
  18  -2  -1    9.74    3.82 
  18  -2   1   12.87    4.26 
  18   2  -1   18.69    4.86 
  18   2   2   -1.15    3.33 
  18  -2   2    3.37    3.60 
  18   2  -2   -1.53    2.99 
  18  -2  -2    1.36    2.72 
  18   2   3    2.44    3.48 
  18  -2   3    3.36    3.78 
  18  -2  -3   -1.68    2.50 
  18   2  -3    1.40    2.92 
  18   2   4   11.35    4.27 
  18  -2   4    7.58    4.13 
  18  -2  -4    2.30    2.43 
  18   2  -4    4.86    3.20 
  18  -2   5   -0.50    3.17 
  18   2   5   -2.59    3.76 
  18   2   6    1.89    3.54 
  18  -2   6   -8.30    3.86 
  18  -2   7   -1.32    3.04 
  18   2   7    1.77    2.99 
  18  -2   8    8.24    3.65 
  18   2   8   16.78    4.29 
  18  -2   9   13.67    3.97 
  18   2   9   15.49    4.09 
   2 -18   9    7.79    2.46 
  18  -2  10    5.00    2.80 
  18   2  10    0.60    2.48 
   2 -18  10    4.01    2.23 
 -18   2  10    2.88    2.73 
 -18  -2  10    2.69    2.47 
  18   2  11    1.89    1.83 
  18  -2  11    0.37    2.04 
   2 -18  11    1.37    1.81 
 -18   2  11   -1.63    2.87 
 -18  -2  11   -3.15    2.92 
  18   2  12    1.74    1.69 
  18  -2  12    0.43    1.42 
   2 -18  12    0.37    1.49 
 -18   2  12   -2.78    2.65 
 -18  -2  12   -1.79    2.06 
   2 -18  13   -1.21    1.47 
 -18  -2  13    1.30    1.83 
 -18   2  13    0.01    2.27 
   2 -18  14   -1.91    1.36 
  -2 -18  14    2.43    1.50 
 -18  -2  14    1.48    1.49 
 -18   2  14   -0.28    1.74 
  18  -3   0   10.19    3.70 
  18   3   0   18.07    5.16 
  18  -3  -1    9.33    3.51 
  18  -3   1    2.67    3.00 
  18   3  -1   12.06    4.04 
  18   3   1    4.64    3.36 
  18  -3  -2    3.41    2.99 
  18   3  -2    8.93    3.94 
  18  -3   2    6.54    3.88 
  18   3   2    4.48    3.77 
  18  -3  -3    3.26    2.73 
  18   3  -3   -0.71    2.82 
  18  -3   3    3.54    3.68 
  18   3   3    6.72    4.53 
  18   3  -4   -1.86    2.62 
  18  -3   4   -1.83    3.31 
  18  -3  -4    3.23    2.85 
  18   3   4    5.40    4.03 
  18  -3   5    2.43    3.47 
  18   3   5    6.25    4.07 
  18  -3   6    3.44    3.40 
  18   3   6    0.68    2.96 
  18  -3   7   13.82    4.10 
  18   3   7   12.87    4.18 
  18   3   8    2.83    2.85 
  18  -3   8   17.30    4.40 
  18   3   9   25.06    4.60 
  18  -3   9   18.64    4.14 
   3 -18   9   10.39    2.63 
  18  -3  10    0.07    2.23 
  18   3  10   -0.81    2.08 
   3 -18  10    2.13    1.76 
 -18   3  10   -2.61    3.23 
 -18  -3  10   -0.44    2.41 
  18   3  11   -0.86    1.78 
  18  -3  11    0.14    1.87 
   3 -18  11    4.17    2.06 
 -18   3  11   -3.02    2.99 
 -18  -3  11   -0.94    2.22 
  18   3  12    0.82    1.29 
  18  -3  12    0.67    1.27 
   3 -18  12    2.71    1.74 
 -18  -3  12    2.14    2.10 
 -18   3  12    3.70    2.36 
   3 -18  13    1.63    1.56 
 -18  -3  13    0.39    1.61 
 -18   3  13   -0.93    2.11 
   3 -18  14    1.03    1.21 
 -18   3  14    3.45    1.97 
  18   4   0    8.19    4.13 
   4  18   0    9.70    4.51 
  18   4  -1   10.80    4.20 
  18   4   1    8.38    4.11 
  18  -4  -1    4.46    3.13 
   4  18  -1    7.89    4.27 
   4  18   1   12.51    4.92 
  18   4  -2   -1.55    3.23 
  18   4   2   -0.12    3.06 
  18  -4  -2   -4.73    2.94 
   4  18   2    2.11    3.25 
  18  -4  -3   -0.52    2.40 
  18   4  -3   -2.56    3.28 
  18   4   3   -0.76    3.63 
   4  18   3    3.72    3.54 
  18  -4  -4    1.67    2.48 
  18   4  -4    4.15    2.60 
  18   4   4    0.31    3.88 
   4  18   4    3.74    3.29 
  18   4   5    4.20    3.40 
  18  -4   5   10.44    4.42 
   4  18   5    6.62    3.64 
  18   4   6   -0.50    3.36 
  18  -4   6    3.79    3.38 
  18  -4   7   -1.19    3.33 
  18   4   7    3.34    3.25 
  18  -4   8   16.29    4.05 
  18   4   8   13.65    4.09 
  18   4   9    3.00    2.92 
  18  -4   9    0.02    2.66 
   4 -18   9    2.18    1.71 
 -18   4   9    2.46    2.66 
  18   4  10    6.25    2.83 
  18  -4  10    2.32    2.19 
   4 -18  10    4.58    2.10 
 -18   4  10    1.03    2.58 
 -18  -4  10   -3.52    2.71 
  18   4  11    4.15    2.42 
  18  -4  11   -0.03    1.68 
   4 -18  11    0.43    1.47 
 -18   4  11    2.70    2.26 
 -18  -4  11   -1.86    2.09 
   4 -18  12    3.18    1.73 
 -18  -4  12   -0.77    1.49 
 -18   4  12    3.86    2.08 
   4 -18  13    0.42    1.35 
 -18  -4  13    4.02    1.70 
 -18   4  13    1.18    1.87 
 -18   4  14    1.90    1.84 
  18   5   0    9.56    4.10 
   5  18   0    4.58    3.47 
  18   5  -1    1.68    2.91 
  18   5   1    0.58    3.60 
   5  18   1    4.74    3.72 
   5  18  -1    9.07    4.28 
  18   5  -2    1.10    2.82 
  18   5   2   -4.80    4.19 
   5  18   2    1.91    3.50 
   5  18  -2    2.75    3.90 
  18   5  -3   -1.92    2.94 
  18   5   3    2.26    3.41 
  18  -5  -3    2.09    2.37 
   5  18   3   -2.88    3.66 
  18   5  -4   14.13    3.90 
  18  -5  -4   17.76    4.23 
  18   5   4   18.38    4.75 
   5  18   4   12.47    4.35 
  18   5   5    2.25    3.26 
   5  18   5    0.96    2.95 
  18  -5   6   -0.38    2.60 
  18   5   6   -4.22    3.24 
   5  18   6   -1.84    2.65 
  18   5   7   -3.24    2.99 
  18  -5   7   -2.01    3.01 
  18   5   8    8.18    3.35 
  18  -5   8    4.80    2.95 
  18   5   9    6.55    3.11 
  18  -5   9    3.68    2.74 
   5 -18   9    4.35    2.02 
 -18   5   9   -0.70    2.50 
 -18  -5   9    1.35    2.28 
  18   5  10   -2.56    2.42 
  18  -5  10    0.95    2.04 
   5 -18  10    0.25    1.61 
 -18   5  10    0.71    2.17 
 -18  -5  10   -2.50    1.99 
  18  -5  11   -2.54    1.76 
  18   5  11   -0.43    1.58 
   5 -18  11    0.55    1.54 
 -18  -5  11    2.65    1.85 
 -18   5  11    1.00    2.13 
   5 -18  12    1.81    1.58 
 -18   5  12    6.41    2.43 
   5 -18  13    1.48    1.32 
 -18   5  13    5.69    2.25 
  18   6   0    8.34    3.86 
   6  18   0    7.51    3.92 
  18   6  -1    0.07    3.17 
  18   6   1   -0.42    3.18 
   6  18  -1    3.83    3.53 
   6  18   1   -2.00    3.62 
  18   6  -2   -1.57    2.68 
  18   6   2    0.97    3.16 
   6  18  -2    3.49    3.55 
   6  18   2   -1.21    3.11 
  18   6  -3   18.61    4.21 
  18   6   3   11.50    4.15 
   6  18   3   15.78    4.19 
   6  18  -3   13.87    4.54 
  18   6  -4   18.82    4.12 
  18   6   4   14.73    4.65 
  18  -6  -4   16.35    3.63 
   6  18   4   18.07    4.76 
  18   6   5    9.65    4.31 
   6  18   5   10.00    3.95 
  18   6   6    5.18    3.44 
   6  18   6    5.23    3.14 
  18   6   7    4.08    3.24 
  18  -6   7   -2.43    2.93 
   6  18   7   -0.23    2.62 
  18   6   8    0.19    2.39 
  18  -6   8   -4.89    2.77 
 -18   6   8   -1.96    2.49 
 -18  -6   8   -0.79    2.06 
  18   6   9   -0.02    2.17 
  18  -6   9    0.55    2.09 
   6 -18   9   -2.88    1.97 
 -18   6   9   -2.08    2.25 
 -18  -6   9   -2.35    1.92 
  18  -6  10   -1.29    1.94 
  18   6  10    4.06    2.49 
   6 -18  10   -1.10    1.55 
  18  -6  11    1.29    1.52 
  18   6  11    2.63    1.68 
   6 -18  11    0.43    1.31 
 -18   6  11    0.32    1.97 
   6 -18  12    0.05    1.27 
 -18   6  12    4.95    2.08 
  18   7   0    0.87    2.78 
   7  18   0    0.54    3.14 
  18   7  -1    4.28    2.92 
  18   7   1   -0.27    2.97 
   7  18  -1    0.53    3.14 
   7  18   1    1.73    3.10 
  18   7  -2    5.12    3.12 
  18   7   2    8.38    3.90 
   7  18  -2    8.03    3.78 
   7  18   2    3.29    3.12 
  18   7   3   23.41    4.95 
  18   7  -3   21.93    4.55 
   7  18   3   15.44    4.31 
   7  18  -3   17.38    4.88 
  18   7   4   22.15    5.26 
  18   7  -4   25.80    4.44 
  18  -7  -4   25.01    4.05 
   7  18   4   23.85    4.89 
   7  18  -4   19.58    4.82 
  18   7   5   19.49    4.55 
   7  18   5   11.13    3.85 
  18   7   6    3.37    3.16 
   7  18   6    0.75    2.69 
  18   7   7    0.18    2.57 
 -18   7   7   -3.18    2.52 
   7  18   7   -3.39    2.62 
  18  -7   8   -1.19    2.30 
  18   7   8   -0.55    2.27 
 -18   7   8   -3.25    2.42 
   7  18   8   -0.41    2.18 
  18  -7   9   -0.41    2.01 
  18   7   9   -1.33    2.05 
   7 -18   9    1.72    1.44 
 -18   7   9   -1.44    1.98 
  18  -7  10    0.26    1.68 
  18   7  10    2.75    2.04 
   7 -18  10    2.46    1.64 
 -18   7  10    0.50    1.71 
  18  -7  11    4.73    1.79 
  18   7  11    1.53    1.48 
   7 -18  11    5.40    1.75 
 -18   7  11    5.08    2.05 
  18   8   0    8.17    3.63 
   8  18   0   -5.46    3.42 
  18   8  -1   -2.97    2.98 
  18   8   1   -0.25    2.79 
   8  18  -1   -1.41    3.08 
   8  18   1    3.54    3.47 
  18   8   2    7.43    3.64 
  18   8  -2    6.62    3.16 
   8  18  -2   10.80    4.13 
   8  18   2    7.92    3.79 
  18   8   3   16.74    4.36 
  18   8  -3   14.20    3.79 
   8  18   3   20.65    4.65 
  18   8   4   28.73    5.26 
  18   8  -4   25.66    4.32 
   8  18  -4   25.99    4.75 
   8  18   4   24.11    4.77 
  18   8   5   18.41    4.24 
   8  18   5   12.87    3.73 
 -18   8   5    7.92    2.62 
  18   8   6    2.66    2.95 
   8  18   6    4.42    2.76 
 -18   8   6   -3.19    2.19 
  18   8   7    1.65    2.37 
   8  18   7    0.03    2.30 
 -18   8   7   -0.93    1.73 
  18  -8   8   -6.00    2.44 
  18   8   8   -0.72    2.40 
 -18   8   8    0.79    1.56 
   8  18   8    1.16    1.98 
  18  -8   9   -3.09    1.96 
  18   8   9   -3.33    2.17 
  18   8  10   -4.20    1.93 
  18  -8  10   -1.09    1.50 
  18   9   0    4.95    3.19 
   9  18   0   -2.90    2.94 
  18   9  -1   -0.46    2.36 
  18   9   1    4.14    3.31 
   9  18   1   -0.07    2.69 
   9  18  -1   -1.22    2.81 
  18   9  -2   -6.04    2.91 
  18   9   2   -1.39    2.77 
   9  18   2    1.40    2.78 
   9  18  -2    0.43    2.59 
  18   9  -3    6.51    2.98 
  18   9   3   16.64    4.09 
   9  18  -3   15.85    4.27 
   9  18   3    9.44    3.44 
  18   9  -4   12.17    3.06 
  18   9   4   17.78    4.40 
   9  18  -4   14.05    3.89 
   9  18   4   20.19    4.39 
  18   9   5   17.79    4.06 
   9  18   5   11.86    3.81 
  18   9   6    2.60    2.62 
   9  18   6    0.88    2.20 
  18   9   7   -1.02    2.11 
   9  18   7    2.13    2.27 
  18   9   8   -1.33    2.21 
  18  -9   8   -0.44    1.93 
   9  18   8    1.86    1.99 
  18  -9   9    1.23    1.71 
  18   9   9   -3.12    1.97 
  18  10   0    2.78    2.74 
  10  18   0    4.95    3.17 
  18  10  -1   -2.13    2.79 
  18  10   1   -1.59    2.91 
  10  18   1    3.36    2.89 
  10  18  -1    3.18    3.10 
  18  10  -2   -2.08    2.42 
  18  10   2   -6.58    3.04 
  10  18   2    2.18    2.54 
  10  18  -2   -0.28    2.51 
  18  10  -3    4.44    2.52 
  18  10   3    1.90    2.59 
  10  18  -3    1.01    2.48 
  10  18   3    5.81    3.08 
  18  10   4    4.83    2.95 
  10  18  -4    6.43    2.94 
  10  18   4    3.56    2.94 
  18  10   5    7.02    3.09 
  10  18   5    6.14    3.00 
  18  10   6    1.65    2.27 
  10  18   6   -1.53    2.23 
  18  10   7    1.45    2.07 
  10  18   7    0.99    1.93 
  18  10   8   -0.82    1.87 
  18 -10   8   -0.80    1.62 
  10  18   8    2.25    1.70 
  18  11   0   14.15    3.53 
  11  18   0    9.71    3.14 
  18  11  -1    5.34    2.74 
  18  11   1    5.53    2.88 
  11  18  -1    4.52    2.90 
  11  18   1    6.50    2.81 
  18  11  -2   -1.27    2.05 
  18  11   2    1.11    2.38 
  11  18  -2    0.08    2.19 
  11  18   2    3.19    2.57 
  18  11  -3    0.94    1.77 
  18  11   3   -2.95    2.62 
  11  18  -3   -0.77    2.13 
  11  18   3   -0.48    2.16 
  18  11   4    1.20    2.29 
  11  18   4    3.57    2.55 
  18  11   5    2.33    2.26 
  11  18   5    1.64    2.10 
  18  11   6   -2.26    2.03 
  11  18   6   -0.29    1.77 
  18  11   7   -2.44    1.87 
  11  18   7    1.69    1.57 
  18  12   0   12.04    3.20 
  12  18   0   11.21    3.15 
  18  12  -1    5.59    2.50 
  18  12   1    9.92    2.96 
  12  18  -1   10.38    3.00 
  12  18   1    9.94    3.01 
  18  12  -2    2.31    1.95 
  18  12   2    3.99    2.41 
  12  18  -2    3.79    2.29 
  12  18   2    3.40    2.33 
  18  12   3    2.38    2.25 
  12  18  -3   -1.27    1.67 
  12  18   3   -0.69    1.75 
  18  12   4    0.95    1.86 
  12  18   4   -0.64    1.75 
  18  12   5    1.33    1.84 
  12  18   5   -0.37    1.56 
  13  18   1    6.60    2.38 
  13  18   2    9.06    2.40 
  19   0   0   11.78    3.94 
  19   0  -1   10.56    3.85 
  19   0   1    9.40    3.82 
  19   0   2    6.40    3.66 
  19   0  -2    1.88    2.80 
  19   0   3    7.63    4.02 
  19   0  -3    0.93    2.34 
  19   0   4   -1.80    3.12 
  19   0  -4    2.30    2.34 
  19   0   5    8.85    4.06 
  19   0   6    1.12    2.94 
  19   0   7    5.33    3.54 
  19   0   8   19.80    4.27 
  19   0   9    8.24    2.95 
  19   0  10    6.69    2.69 
 -19   0  10    1.57    2.16 
  19   0  11   -1.97    1.74 
 -19   0  11    0.67    2.01 
 -19   0  12   -0.09    1.88 
 -19   0  13    2.19    1.67 
  19  -1   0   12.90    3.87 
  19   1   0    7.14    3.43 
  19  -1  -1    6.58    3.31 
  19  -1   1    1.70    3.04 
  19   1  -1    6.05    3.16 
  19   1   1    3.57    3.45 
  19   1   2    1.64    3.06 
  19  -1  -2   -2.62    2.87 
  19  -1   2    2.47    3.20 
  19   1  -2   -1.94    2.79 
  19  -1  -3   -1.53    2.64 
  19  -1   3    5.82    3.64 
  19   1  -3    1.25    2.77 
  19   1   3    0.65    3.29 
  19  -1   4    4.82    3.50 
  19   1  -4    3.54    2.36 
  19  -1  -4    4.05    2.62 
  19   1   4    5.96    3.70 
  19  -1   5    1.36    3.03 
  19   1   5    1.73    3.30 
  19  -1   6   -3.39    3.07 
  19   1   6    3.21    3.25 
  19  -1   7    2.11    2.90 
  19   1   7    1.12    2.59 
  19   1   8   12.47    3.72 
  19  -1   8   12.31    3.74 
  19   1   9   10.26    3.28 
  19  -1   9   13.83    3.59 
 -19   1   9   11.01    3.64 
  19   1  10    0.40    1.88 
  19  -1  10    6.57    2.80 
 -19   1  10    2.19    2.21 
 -19  -1  10    3.39    2.44 
  19   1  11   -2.29    1.84 
  19  -1  11   -5.72    2.08 
 -19   1  11   -1.09    2.09 
 -19  -1  11    1.06    2.08 
 -19  -1  12    2.20    1.72 
 -19   1  12    2.53    1.97 
 -19  -1  13   -1.21    1.45 
 -19   1  13    0.06    1.51 
  19  -2   0    8.67    3.70 
  19   2   0   12.26    3.95 
  19  -2  -1    4.38    2.92 
  19   2  -1    6.27    3.54 
  19  -2   1    3.63    3.02 
  19   2   1    7.65    3.79 
  19  -2  -2    1.75    3.54 
  19   2  -2    4.07    4.13 
  19  -2   2    3.54    3.23 
  19   2   2   -0.18    3.11 
  19  -2  -3    1.84    2.22 
  19   2  -3    1.58    2.54 
  19  -2   3    1.04    3.19 
  19   2   3    5.14    3.77 
  19  -2  -4    2.85    2.40 
  19   2  -4    6.63    3.28 
  19  -2   4    3.75    3.60 
  19   2   4    4.51    3.45 
  19  -2   5    1.46    3.02 
  19   2   5    0.04    2.99 
  19  -2   6   -1.69    3.13 
  19   2   6    2.22    2.97 
  19  -2   7   -0.09    2.57 
  19   2   7    3.33    3.05 
  19  -2   8    5.10    3.07 
  19   2   8    9.82    3.43 
  19   2   9   11.17    3.34 
  19  -2   9    5.48    2.74 
 -19   2   9    3.48    2.61 
 -19  -2   9    7.54    2.96 
  19   2  10    2.26    2.21 
  19  -2  10    4.42    2.33 
 -19   2  10    1.01    2.15 
 -19  -2  10   -3.18    2.66 
  19   2  11   -2.32    1.69 
  19  -2  11   -4.97    1.96 
 -19   2  11   -1.15    1.98 
 -19  -2  11   -0.11    2.06 
 -19  -2  12    3.34    2.03 
 -19   2  12    4.24    2.21 
 -19   2  13    1.64    1.78 
  19   3   0    1.82    3.10 
  19  -3   0   -0.32    2.64 
  19  -3   1    6.45    3.37 
  19   3  -1   14.03    4.25 
  19   3   1   11.48    3.99 
  19  -3  -1    5.65    3.05 
  19  -3   2    0.87    2.96 
  19   3  -2   -2.35    2.91 
  19   3   2    1.35    2.91 
  19  -3  -2    0.75    2.49 
  19  -3   3   -0.36    3.11 
  19   3  -3    3.07    2.45 
  19  -3  -3   -0.24    2.44 
  19   3   3   -0.62    3.24 
  19  -3  -4    4.51    2.52 
  19   3  -4    7.01    3.07 
  19   3   4    4.66    3.52 
  19  -3   4   -2.20    3.29 
  19   3   5    2.39    3.17 
  19  -3   5    1.35    2.76 
  19   3   6   -1.26    2.92 
  19  -3   6    2.82    3.01 
  19   3   7   -6.06    3.50 
  19  -3   7    3.95    3.01 
  19  -3   8    8.54    3.27 
  19   3   8    7.67    3.05 
  19  -3   9    3.50    2.57 
  19   3   9    4.89    2.65 
 -19   3   9    4.70    2.62 
 -19  -3   9    3.66    2.39 
  19   3  10    3.06    2.15 
  19  -3  10    3.69    2.17 
 -19   3  10    2.55    2.41 
 -19  -3  10   -1.75    1.96 
  19   3  11    1.85    1.39 
  19  -3  11    1.77    1.64 
 -19  -3  11    1.76    1.82 
 -19   3  11    0.12    1.88 
 -19  -3  12    0.70    1.24 
 -19   3  12   -2.26    1.77 
  19  -4   0    5.12    3.21 
  19   4   0    7.67    3.66 
  19  -4  -1   -0.43    2.57 
  19  -4   1   -0.70    3.06 
  19   4  -1    0.77    2.64 
  19   4   1    3.20    3.04 
  19   4  -2   -3.18    2.65 
  19  -4   2   -0.58    2.81 
  19   4   2   -0.81    3.08 
  19  -4  -2   -4.06    2.66 
  19   4  -3    0.30    2.52 
  19  -4   3    0.49    3.04 
  19   4   3    2.30    3.14 
  19  -4  -3    0.55    2.37 
  19   4  -4   10.55    3.08 
  19  -4   4   12.93    4.34 
  19  -4  -4   12.52    3.28 
  19   4   4   12.46    4.31 
  19  -4   5    4.47    3.18 
  19   4   5    3.71    2.99 
  19   4   6   -0.21    2.79 
  19  -4   6    0.96    2.65 
  19   4   7    1.18    2.52 
  19  -4   7    1.68    2.47 
  19   4   8    2.51    2.63 
  19  -4   8    0.20    2.44 
 -19   4   8    1.72    2.39 
  19   4   9   -0.44    2.15 
  19  -4   9    3.90    2.24 
 -19   4   9    5.13    2.55 
 -19  -4   9    1.70    1.90 
  19  -4  10    1.36    1.85 
  19   4  10   -2.93    1.96 
 -19   4  10   -1.40    2.28 
 -19  -4  10    4.56    2.00 
 -19  -4  11    0.35    1.27 
 -19   4  11   -3.03    2.00 
 -19   4  12    3.15    1.87 
  19   5   0   -3.22    3.20 
  19  -5   0    1.70    2.78 
  19   5  -1   -0.26    2.39 
  19   5   1    0.56    2.77 
  19  -5  -1   -5.36    3.15 
  19  -5   1   -4.48    3.02 
  19  -5  -2    2.02    2.29 
  19   5  -2   -1.42    2.58 
  19   5   2    0.38    2.88 
  19  -5   2   -0.64    2.68 
  19   5  -3   15.21    3.77 
  19   5   3   11.81    4.23 
  19  -5   3   13.65    4.31 
  19  -5  -3    9.53    3.02 
  19   5  -4   11.58    3.21 
  19   5   4   14.89    4.21 
  19  -5   4    9.15    3.54 
  19  -5  -4    8.70    2.88 
  19   5   5    8.37    3.71 
  19  -5   5    5.23    3.23 
  19  -5   6   -1.70    2.50 
  19   5   6    2.47    2.70 
  19   5   7    0.75    2.39 
  19  -5   7    1.09    2.50 
  19   5   8    0.65    2.21 
  19  -5   8   -0.85    2.18 
 -19   5   8    1.87    2.23 
 -19  -5   8   -1.66    1.94 
  19   5   9    0.76    1.78 
  19  -5   9    1.10    1.82 
 -19   5   9    0.15    2.18 
 -19  -5   9    2.14    1.68 
  19  -5  10    0.33    1.69 
  19   5  10    0.86    1.67 
 -19   5  10   -2.67    2.13 
 -19   5  11    1.24    1.55 
  19   6   0    2.48    2.92 
  19  -6   0   -5.46    3.25 
  19   6  -1   -1.71    2.76 
  19   6   1    3.74    3.18 
  19  -6  -1    4.58    2.66 
  19  -6   1    1.17    2.41 
   6  19   1    3.79    3.19 
  19   6  -2    4.69    2.94 
  19   6   2    6.16    3.35 
  19  -6  -2    0.35    2.33 
  19  -6   2    1.43    2.67 
   6  19   2    3.23    3.17 
  19  -6  -3   10.52    3.02 
  19   6   3   20.18    4.50 
  19  -6   3    7.75    3.40 
  19   6  -3   14.84    3.54 
   6  19   3   17.07    4.28 
  19   6   4   18.38    4.36 
  19  -6   4   20.81    4.37 
  19  -6  -4   11.04    2.82 
  19   6  -4   15.03    3.36 
  19   6   5   11.05    3.95 
  19  -6   5    6.71    2.95 
  19   6   6   -1.37    3.01 
  19  -6   6    0.70    2.20 
  19  -6   7   -2.67    2.40 
 -19   6   7   -3.78    2.28 
 -19  -6   7    0.20    1.52 
  19  -6   8   -1.80    2.23 
  19   6   8    0.62    2.08 
 -19   6   8   -0.19    1.95 
  19  -6   9   -0.33    1.77 
  19   6   9    4.50    2.29 
 -19   6   9   -0.43    1.72 
  19  -6  10   -1.84    1.50 
  19   6  10   -1.59    1.40 
 -19   6  10   -0.14    1.42 
  19   7   0    2.23    2.46 
   7  19   0    1.27    2.88 
  19   7   1   -0.63    2.55 
  19  -7  -1    0.04    2.27 
  19   7  -1    1.16    2.42 
   7  19  -1    0.46    2.56 
   7  19   1    2.74    3.00 
  19   7   2    0.62    2.58 
  19  -7  -2    1.58    2.07 
  19   7  -2    4.26    2.65 
   7  19   2    6.42    3.24 
  19   7   3   12.01    4.00 
  19  -7  -3    5.34    2.42 
  19   7  -3   10.87    3.10 
   7  19   3   10.08    3.75 
  19   7  -4   13.73    3.03 
  19  -7   4   18.95    3.87 
   7  19   4   13.09    3.73 
  19   7   5   10.16    3.31 
  19  -7   5   11.02    3.24 
 -19   7   5    6.07    2.48 
  19  -7   6    0.75    2.21 
  19   7   6    3.24    2.64 
 -19   7   6   -1.54    1.85 
  19  -7   7   -1.43    2.34 
  19   7   7   -1.62    2.37 
 -19   7   7   -2.17    1.70 
  19  -7   8   -5.29    2.26 
  19   7   8   -0.64    1.95 
 -19   7   8   -2.39    1.66 
  19  -7   9    1.21    1.61 
  19   7   9   -1.15    1.67 
  19   8   0    6.55    2.95 
   8  19   0    3.45    2.88 
  19   8  -1   -3.31    2.51 
  19   8   1    0.68    2.51 
  19  -8  -1    0.82    2.09 
   8  19  -1    1.46    2.50 
   8  19   1    5.23    2.97 
  19  -8  -2   -1.08    2.04 
  19   8  -2    0.62    2.08 
  19   8   2    1.76    2.53 
   8  19   2    2.23    2.53 
  19  -8  -3    1.99    1.73 
  19   8  -3    6.44    2.43 
  19   8   3   13.19    3.68 
   8  19   3    8.42    3.27 
  19   8   4   16.69    3.79 
   8  19   4   11.20    3.42 
  19  -8   5    6.37    2.71 
  19   8   5    9.55    3.20 
   8  19   5    9.13    3.12 
  19  -8   6   -1.12    1.88 
  19   8   6    3.41    2.57 
  19  -8   7   -0.77    1.72 
  19   8   7   -0.19    1.95 
  19   8   8    0.61    1.91 
  19  -8   8   -0.79    1.69 
  19   9   0    1.12    2.20 
   9  19   0    6.02    2.90 
  19  -9  -1    1.72    1.89 
  19   9  -1    1.50    2.07 
  19   9   1   -0.26    2.16 
   9  19  -1    0.30    2.23 
   9  19   1    3.00    2.76 
  19  -9  -2   -3.21    2.01 
  19   9  -2   -4.37    2.33 
  19   9   2    1.75    2.28 
   9  19   2   -0.21    2.24 
  19  -9  -3   -2.36    1.85 
  19   9  -3    2.24    1.99 
  19   9   3    2.68    2.47 
   9  19   3    6.67    3.01 
  19   9   4    4.75    2.60 
   9  19   4    5.18    2.80 
  19   9   5    2.68    2.36 
  19  -9   5    5.12    2.34 
   9  19   5    4.19    2.27 
  19  -9   6   -0.88    1.80 
  19   9   6   -0.72    1.92 
  19  -9   7   -0.69    1.61 
  19   9   7    1.83    1.96 
  19  10   0    4.69    2.56 
  10  19   0    8.21    2.89 
  19  10  -1    2.06    2.08 
  19  10   1    4.37    2.55 
  19 -10  -1    1.98    1.73 
  10  19  -1    5.25    2.60 
  10  19   1    5.32    2.67 
  19 -10  -2    1.99    1.68 
  19  10  -2   -3.94    1.90 
  19  10   2   -4.58    2.44 
  10  19   2   -1.46    1.97 
  19  10   3   -2.30    2.13 
  10  19   3    2.33    2.28 
  19  10   4    0.30    2.01 
  10  19   4    1.75    2.18 
  19  10   5   -0.54    1.85 
  19 -10   5    1.88    1.82 
  19 -10   6    0.67    1.46 
  19  10   6    0.07    1.56 
  19  11   0    7.97    2.48 
  19 -11   0    8.48    2.15 
  11  19   0    2.75    2.20 
  19  11   1    5.21    2.31 
  11  19   1    6.09    2.46 
  19  11   2    1.72    1.96 
  11  19   2    3.34    2.30 
  19  11   3    1.09    1.77 
  11  19   3    1.56    1.75 
  19  11   4    0.83    1.58 
  19 -11   4   -2.19    1.56 
  11  19   4    0.76    1.64 
  20   0   0    5.73    3.12 
  20   0  -1    5.01    2.68 
  20   0   1    0.94    2.48 
  20   0  -2    5.90    2.95 
  20   0   2    6.42    3.42 
  20   0  -3   -4.26    2.51 
  20   0   3    0.95    2.93 
  20   0   4    5.33    3.07 
  20   0   5    2.59    3.09 
  20   0   6    0.52    2.39 
  20   0   7    2.30    2.43 
  20   0   8    7.81    2.89 
 -20   0   8    8.09    2.84 
  20   0   9    6.98    2.44 
 -20   0   9    7.69    2.77 
  20   0  10    1.62    1.66 
 -20   0  10    2.64    1.96 
 -20   0  11    1.51    1.46 
  20  -1   0    8.46    3.44 
  20   1   0    6.77    3.32 
  20  -1   1    6.76    3.21 
  20   1  -1    8.94    2.99 
  20   1   1    1.59    2.73 
  20  -1  -1    6.64    2.99 
  20  -1   2    2.23    2.92 
  20   1  -2    0.36    2.38 
  20   1   2    4.11    3.03 
  20  -1  -2    3.59    2.56 
  20  -1   3   -0.31    2.74 
  20   1  -3   -0.52    2.18 
  20  -1  -3    3.10    2.41 
  20   1   3   -0.58    2.82 
  20  -1   4    1.11    2.78 
  20   1   4    3.39    3.00 
  20   1   5   -1.72    2.71 
  20  -1   5    6.50    3.28 
  20   1   6    2.13    2.66 
  20  -1   6   -1.19    2.36 
  20   1   7    3.14    2.73 
  20  -1   7   -1.43    2.32 
  20   1   8    5.65    2.51 
  20  -1   8   11.13    3.20 
 -20   1   8    9.10    2.80 
 -20  -1   8    8.80    2.75 
  20   1   9    1.24    2.02 
  20  -1   9    2.89    2.07 
 -20   1   9    4.42    2.48 
 -20  -1   9    2.90    2.12 
  20   1  10    2.33    1.57 
  20  -1  10    2.97    1.68 
 -20   1  10    1.31    1.70 
 -20  -1  10   -0.04    1.74 
 -20   1  11   -1.56    1.47 
  20  -2   0    4.91    2.93 
  20   2   0    6.22    3.16 
  20  -2  -1    2.48    2.47 
  20   2  -1    2.72    2.48 
  20   2   1    8.54    3.45 
  20  -2  -2    0.03    2.26 
  20  -2   2    1.99    2.91 
  20   2  -2   -2.67    2.37 
  20   2   2    0.87    2.74 
  20  -2   3    1.45    2.85 
  20   2  -3    7.99    2.82 
  20  -2  -3    1.97    2.23 
  20  -2   4    2.19    2.72 
  20   2   4    4.51    2.70 
  20  -2   5    5.25    3.01 
  20   2   5    1.44    2.67 
  20  -2   6    1.47    2.53 
  20   2   6    0.79    2.47 
  20   2   7    1.92    2.44 
  20  -2   7    2.15    2.38 
  20   2   8    7.51    2.92 
  20  -2   8    7.82    2.94 
 -20   2   8    9.47    2.76 
 -20  -2   8    5.15    2.30 
  20   2   9    3.93    2.16 
  20  -2   9    5.54    2.43 
 -20   2   9    3.39    2.21 
 -20  -2   9    4.19    2.11 
 -20   2  10    0.62    1.64 
 -20  -2  10   -0.78    1.54 
 -20   2  11   -1.64    1.76 
  20  -3   0    0.64    2.24 
  20   3   0    3.89    2.71 
  20  -3  -1    2.24    2.48 
  20   3  -1   -0.05    2.51 
  20   3   1    0.87    2.50 
  20  -3   1    1.69    2.48 
  20  -3  -2    4.69    2.66 
  20   3  -2    6.19    2.69 
  20   3   2   -3.28    2.76 
  20  -3   2   -1.28    2.67 
  20   3  -3   -0.10    1.93 
  20   3   3    1.42    2.70 
  20  -3   3    3.16    2.94 
  20  -3  -3   -0.58    1.95 
  20  -3   4    6.75    2.96 
  20   3   4    4.39    3.02 
  20  -3   5    3.10    2.73 
  20   3   5    0.79    2.33 
  20  -3   6    0.80    2.29 
  20   3   6    0.73    2.55 
  20  -3   7    1.44    2.21 
  20   3   7    1.97    2.54 
  20   3   8    5.41    2.53 
  20  -3   8    9.48    2.88 
 -20   3   8    5.96    2.48 
 -20  -3   8    2.44    2.23 
  20   3   9    1.05    1.75 
  20  -3   9    3.93    2.13 
 -20   3   9    1.51    1.74 
 -20  -3   9    0.87    1.70 
 -20   3  10    0.02    1.69 
  20   4   0   -1.01    2.42 
  20  -4   0    2.13    2.45 
  20   4  -1   -1.34    2.23 
  20   4   1   -5.09    2.82 
  20  -4  -1    1.10    2.22 
  20  -4   1   -2.45    2.56 
  20   4  -2    2.24    2.38 
  20   4   2    5.48    3.02 
  20  -4  -2   -0.40    2.00 
  20  -4   2   -2.16    2.65 
  20   4  -3    7.37    2.56 
  20  -4  -3    4.33    2.35 
  20   4   3   11.98    3.56 
  20  -4   3    8.44    3.08 
  20   4   4    3.37    2.79 
  20  -4   4    1.76    2.40 
  20   4   5    5.02    2.92 
  20  -4   5    7.13    3.01 
  20   4   6   -1.74    2.56 
  20  -4   6    1.01    2.21 
  20   4   7    2.82    2.46 
  20  -4   7    0.71    1.88 
 -20   4   7    1.88    2.09 
  20  -4   8    2.15    2.02 
  20   4   8   -0.27    1.81 
 -20   4   8   -1.78    2.06 
 -20  -4   8    2.95    1.88 
  20  -4   9    2.01    1.89 
  20   4   9    0.89    1.72 
 -20   4   9    1.38    1.75 
  20   5   0    2.87    2.59 
  20  -5   0   -0.10    2.20 
  20   5  -1    0.26    1.96 
  20   5   1    2.30    2.45 
  20  -5  -1   -5.79    2.57 
  20  -5   1    2.89    2.59 
  20   5  -2   -1.40    2.05 
  20   5   2    1.76    2.45 
  20  -5  -2    1.24    1.87 
  20  -5   2   -0.68    2.25 
  20   5   3   10.79    3.36 
  20  -5  -3    4.71    2.21 
  20  -5   3    5.71    2.87 
  20   5  -3    4.70    2.09 
  20   5   4    8.52    3.29 
  20  -5   4    7.17    3.00 
  20   5   5    6.97    2.97 
  20  -5   5    2.49    2.38 
  20   5   6   -1.01    2.15 
  20  -5   6   -0.75    1.92 
 -20   5   6   -2.16    1.77 
  20   5   7    0.51    1.94 
  20  -5   7   -0.81    1.85 
 -20   5   7   -1.21    1.87 
 -20  -5   7   -4.13    1.88 
  20  -5   8    0.52    1.56 
  20   5   8    0.64    1.75 
 -20   5   8    3.99    1.80 
  20  -6   0    1.94    2.09 
  20   6   0    0.68    2.09 
  20   6   1   -0.10    2.17 
  20  -6  -1    0.03    1.83 
  20   6  -1    4.28    2.44 
  20  -6   1    1.51    2.13 
  20   6   2    1.52    2.31 
  20  -6  -2    0.73    1.83 
  20   6  -2    0.74    2.09 
  20  -6   2   -1.60    2.23 
  20   6   3    1.62    2.37 
  20  -6  -3    1.26    1.57 
  20   6  -3    1.99    1.76 
  20  -6   3    4.27    2.45 
  20   6   4    8.23    3.04 
  20  -6   4   11.43    3.21 
  20   6   5    2.41    2.36 
  20  -6   5    2.74    2.27 
 -20   6   5    3.00    1.83 
  20  -6   6    0.06    1.69 
  20   6   6    0.76    1.94 
 -20   6   6   -2.66    1.75 
  20  -6   7    0.25    1.62 
  20   6   7    2.74    1.87 
 -20   6   7    0.46    1.45 
  20  -6   8    0.33    1.40 
  20   6   8    1.76    1.83 
  20   7   0    3.15    2.33 
  20  -7   0    2.83    2.11 
  20  -7   1   -1.09    1.98 
  20  -7  -1    0.00    1.85 
  20   7  -1    0.05    1.81 
  20   7   1    1.29    2.05 
  20  -7   2   -2.17    1.99 
  20  -7  -2    3.57    1.99 
  20   7  -2    1.92    1.99 
  20   7   2   -0.87    2.06 
  20  -7   3    3.05    2.27 
  20   7   3    7.62    2.69 
  20   7   4    5.30    2.74 
  20  -7   4    3.11    2.10 
  20  -7   5    6.44    2.40 
  20   7   5    6.07    2.65 
  20  -7   6    0.09    1.67 
  20   7   6    1.14    1.79 
  20  -7   7   -0.89    1.63 
  20   7   7   -1.61    1.70 
  20   8   0   -1.18    1.94 
  20  -8   0    0.66    1.80 
  20  -8   1    2.77    2.02 
  20   8  -1   -1.17    1.76 
  20   8   1    2.53    2.03 
  20  -8  -1    1.07    1.65 
  20  -8   2   -0.83    1.81 
  20  -8  -2   -0.64    1.36 
  20   8  -2   -2.75    1.83 
  20   8   2   -1.23    2.06 
  20  -8   3   -1.89    1.87 
  20   8   3    3.34    2.27 
  20   8   4    2.83    2.06 
  20  -8   4    4.01    2.08 
  20   8   5   -0.58    1.77 
  20  -8   5    2.22    1.72 
  20  -8   6   -0.72    1.37 
  20   8   6   -2.73    1.77 
  20   9   0   -1.50    1.64 
  20  -9   0    3.75    1.77 
  20  -9   1    4.02    1.93 
  20   9   1    1.08    1.82 
  20  -9   2   -0.39    1.47 
  20   9   2   -0.81    1.70 
  20  -9   3    0.63    1.42 
  20   9   3   -0.09    1.64 
  20   9   4    1.85    1.82 
  20  -9   4    0.85    1.45 
  21   0   0    2.28    2.17 
  21   0  -1   -1.65    2.06 
  21   0   1    2.03    2.22 
  21   0  -2    2.15    1.97 
  21   0   2    2.08    2.26 
  21   0  -3    2.08    1.60 
  21   0   3    5.72    2.68 
  21   0   4    0.07    2.08 
  21   0   5    1.76    2.16 
  21   0   6   -0.81    1.89 
  21   0   7    0.39    1.75 
 -21   0   7   -0.18    1.79 
  21   0   8    1.81    1.63 
 -21   0   8    2.72    1.64 
  21   1   0    5.80    2.56 
  21  -1   0    6.44    2.70 
  21   1  -1    0.80    1.84 
  21   1   1    0.03    2.03 
  21  -1  -1    3.15    2.20 
  21  -1   1    7.50    2.80 
  21   1  -2    0.00    1.74 
  21   1   2   -3.02    2.40 
  21  -1  -2    3.58    2.08 
  21  -1   2    0.85    2.20 
  21   1   3    1.26    2.25 
  21  -1   3    0.87    2.20 
  21   1   4    1.11    2.17 
  21  -1   4    1.93    2.23 
  21   1   5    0.35    2.12 
  21  -1   5    2.25    2.03 
  21   1   6   -0.23    1.89 
  21  -1   6   -2.43    2.20 
  21   1   7    2.42    1.88 
  21  -1   7   -0.24    1.69 
 -21   1   7    3.11    1.91 
 -21  -1   7    1.98    1.67 
 -21   1   8    1.48    1.68 
 -21  -1   8    3.99    1.86 
  21   2   0    1.38    2.05 
  21  -2   0    5.21    2.49 
  21   2  -1    0.10    1.82 
  21   2   1   -2.73    2.33 
  21  -2  -1    0.17    1.82 
  21   2  -2    2.49    1.81 
  21  -2  -2    0.46    1.61 
  21  -2   2    2.04    2.36 
  21   2   3   -2.08    2.40 
  21  -2   3    3.11    2.51 
  21   2   4    5.64    2.65 
  21  -2   4    3.79    2.44 
  21   2   5    0.91    2.05 
  21  -2   5    4.20    2.25 
  21   2   6    1.73    2.11 
  21  -2   6   -3.84    2.09 
  21   2   7    5.20    2.25 
  21  -2   7    3.43    2.08 
 -21   2   7    1.76    1.86 
 -21  -2   7    1.02    1.51 
 -21   2   8    3.69    1.83 
  21   3   0    0.95    2.01 
  21  -3   0    6.16    2.55 
  21   3  -1    0.18    1.78 
  21   3   1    0.19    1.90 
  21  -3  -1   -1.54    1.96 
  21  -3   1    0.28    1.93 
  21  -3   2    1.08    2.14 
  21   3  -2   -0.21    1.51 
  21   3   2   -0.72    2.04 
  21  -3  -2    1.91    1.87 
  21   3   3    4.58    2.54 
  21  -3   3    1.87    2.14 
  21   3   4   -0.62    1.97 
  21  -3   4    2.75    2.21 
  21   3   5   -0.65    1.93 
  21  -3   5    2.75    2.06 
  21   3   6    1.09    1.75 
  21  -3   6   -0.51    1.72 
 -21   3   6    2.08    1.70 
  21   3   7   -0.24    1.62 
  21  -3   7    4.73    2.03 
 -21   3   7   -0.40    1.80 
  21  -4   0   -2.12    2.01 
  21   4   0   -1.84    2.00 
  21   4  -1   -1.91    1.76 
  21  -4   1   -0.31    1.87 
  21   4   1    1.38    2.07 
  21  -4  -1    0.85    1.74 
  21   4   2    2.69    2.17 
  21  -4   2   -0.28    1.79 
  21  -4  -2    0.15    1.42 
  21   4  -2   -0.08    1.32 
  21  -4   3    5.70    2.44 
  21   4   3    3.51    2.28 
  21  -4   4    4.85    2.47 
  21   4   4    0.69    1.88 
  21   4   5    1.85    1.96 
  21  -4   5    4.69    2.26 
 -21   4   5    4.65    2.07 
  21   4   6    1.14    1.70 
  21  -4   6    2.48    1.87 
 -21   4   6    0.61    1.45 
  21  -5   0    1.31    1.80 
  21   5   0    3.24    1.99 
  21  -5  -1    1.30    1.66 
  21  -5   1    0.10    1.71 
  21   5  -1    2.08    1.73 
  21   5   1    0.42    1.74 
  21   5   2    3.28    2.16 
  21  -5   2    0.44    1.76 
  21   5   3    1.13    1.89 
  21  -5   3    3.78    2.14 
  21  -5   4    7.21    2.46 
  21   5   4    3.70    2.19 
 -21   5   4    3.66    1.68 
  21  -5   5    2.57    1.85 
  21   5   5    0.90    1.60 
  21   5   6   -0.78    1.54 
  21  -5   6   -0.62    1.44 
  21  -6   0    2.87    1.79 
  21   6   0    1.49    1.58 
  21  -6   1    1.35    1.72 
  21   6   1    0.32    1.63 
  21  -6   2    0.49    1.69 
  21   6   2   -1.34    1.74 
  21  -6   3    0.27    1.53 
  21   6   3    4.04    2.14 
  21  -6   4    3.54    1.94 
  21   6   4    0.13    1.69 
  21  -6   5    4.00    1.77 
  21   6   5    3.32    1.75 
  22   0   1   -2.86    1.65 
  22   0   2   -5.05    1.93 
  22   0   3   -4.90    1.89 
  22   0   4   -2.56    1.62 
  22   1   1    0.15    1.44 
  22  -1   1    1.68    1.62 
  22   1   2   -1.47    1.53 
  22  -1   2   -3.19    1.72 
  22   1   3   -2.27    1.62 
  22  -1   3   -0.05    1.47 
  22   2   2    2.83    1.72 
  22  -2   2    0.54    1.36 
  22   2   3   -0.58    1.48 
   0   0   0    0.00    0.00 
;
_shelx_hkl_checksum              2099
_shelx_fab_file
; 
    0    0    2     87.21      0.00 
    0    0    3     77.62      0.00 
    0    0    4     57.23      0.00 
    0    0    5      4.85      0.00 
    0    0    6     12.18      0.00 
    0    0    7      4.40      0.00 
    0    0    8      7.54      0.00 
    0    0    9      1.69      0.00 
    0    0   10     11.38      0.00 
    0    0   11     14.46      0.00 
    0    0   12      3.96      0.00 
    0    0   13     -0.29      0.00 
    0    0   14     -0.61      0.00 
    0    0   15     -0.26      0.00 
    0    0   16      3.11      0.00 
    0    0   17      4.50      0.00 
    0    0   18      0.81      0.00 
    0    0   19     -0.91      0.00 
    0    0   20      4.05      0.00 
    0    0   21     -0.12      0.00 
    0    0   22      0.69      0.00 
    0    0   23      0.65      0.00 
    0    1    1   -162.92      0.00 
    0    1    2    -90.89      0.00 
    0    1    3    -13.65      0.00 
    0    1    4      4.11      0.00 
    0    1    5      1.16      0.00 
    0    1    6      7.03      0.00 
    0    1    7     -3.80      0.00 
    0    1    8     -7.62      0.00 
    0    1    9     -5.65      0.00 
    0    1   10     -1.46      0.00 
    0    1   11     -2.06      0.00 
    0    1   12     -1.44      0.00 
    0    1   13     -2.44      0.00 
    0    1   14     -0.52      0.00 
    0    1   15      1.94      0.00 
    0    1   16      0.01      0.00 
    0    1   17     -0.30      0.00 
    0    1   18      0.05      0.00 
    0    1   19     -0.38      0.00 
    0    1   20     -0.69      0.00 
    0    1   21      0.91      0.00 
    0    1   22      1.19      0.00 
    0    1   23     -0.29      0.00 
    0    1   24      1.18      0.00 
    1    1    0   -138.70      0.00 
    1    1    1    -18.85      0.00 
    1    1    2      0.22      0.00 
    1    1    3      9.36      0.00 
    1    1    4    -14.01      0.00 
    1    1    5      2.56      0.00 
    1    1    6      2.69      0.00 
    1    1    7     -2.73      0.00 
    1    1    8     -1.64      0.00 
    1    1    9     -0.49      0.00 
    1    1   10      1.94      0.00 
    1    1   11      5.63      0.00 
    1    1   12      1.57      0.00 
    1    1   13     -3.43      0.00 
    1    1   14     -1.13      0.00 
    1    1   15     -1.11      0.00 
    1    1   16      1.27      0.00 
    1    1   17      1.18      0.00 
    1    1   18      0.05      0.00 
    1    1   19     -1.48      0.00 
    1    1   20     -2.02      0.00 
    1    1   21     -2.33      0.00 
    1    1   22      0.66      0.00 
    1    1   23     -0.34      0.00 
    1    1   24     -0.55      0.00 
    0    2    0     75.61      0.00 
    0    2    1     85.09      0.00 
    0    2    2    -76.33      0.00 
    0    2    3     10.41      0.00 
    0    2    4    -13.67      0.00 
    0    2    5    -25.13      0.00 
    0    2    6    -11.16      0.00 
    0    2    7      0.42      0.00 
    0    2    8     -5.62      0.00 
    0    2    9      0.68      0.00 
    0    2   10      0.56      0.00 
    0    2   11      4.90      0.00 
    0    2   12      0.45      0.00 
    0    2   13     -2.40      0.00 
    0    2   14     -2.79      0.00 
    0    2   15     -0.34      0.00 
    0    2   16     -0.25      0.00 
    0    2   17      0.79      0.00 
    0    2   18      1.24      0.00 
    0    2   19      0.16      0.00 
    0    2   20     -0.92      0.00 
    0    2   21      0.73      0.00 
    0    2   22      2.28      0.00 
    0    2   23     -0.57      0.00 
    0    2   24      0.37      0.00 
    1    2    0     24.46      0.00 
    1    2    1     11.74      0.00 
    1    2    2     -4.49      0.00 
    1    2    3     36.57      0.00 
    1    2    4     34.05      0.00 
    1    2    5     -1.47      0.00 
    1    2    6     -4.41      0.00 
    1    2    7      4.88      0.00 
    1    2    8      1.63      0.00 
    1    2    9     -1.58      0.00 
    1    2   10     -3.30      0.00 
    1    2   11      4.43      0.00 
    1    2   12     -0.58      0.00 
    1    2   13     -0.88      0.00 
    1    2   14      0.57      0.00 
    1    2   15     -0.96      0.00 
    1    2   16      0.46      0.00 
    1    2   17     -0.42      0.00 
    1    2   18     -0.88      0.00 
    1    2   19     -1.14      0.00 
    1    2   20      0.00      0.00 
    1    2   21     -1.35      0.00 
    1    2   22      1.13      0.00 
    1    2   23      1.42      0.00 
    1    2   24     -0.87      0.00 
    2    2    0   -170.79      0.00 
    2    2    1    -22.73      0.00 
    2    2    2     36.67      0.00 
    2    2    3    -35.37      0.00 
    2    2    4      4.01      0.00 
    2    2    5    -24.00      0.00 
    2    2    6     -9.82      0.00 
    2    2    7      3.69      0.00 
    2    2    8      5.39      0.00 
    2    2    9     -5.33      0.00 
    2    2   10      3.05      0.00 
    2    2   11      0.96      0.00 
    2    2   12      2.56      0.00 
    2    2   13     -3.45      0.00 
    2    2   14     -3.86      0.00 
    2    2   15      1.50      0.00 
    2    2   16     -0.07      0.00 
    2    2   17      1.66      0.00 
    2    2   18      1.24      0.00 
    2    2   19      1.83      0.00 
    2    2   20     -2.87      0.00 
    2    2   21      0.44      0.00 
    2    2   22      2.17      0.00 
    2    2   23      1.77      0.00 
    2    2   24      0.99      0.00 
    0    3    0    -62.78      0.00 
    0    3    1     70.36      0.00 
    0    3    2    -24.56      0.00 
    0    3    3      7.03      0.00 
    0    3    4     15.97      0.00 
    0    3    6     13.98      0.00 
    0    3    7     -0.98      0.00 
    0    3    8     -1.76      0.00 
    0    3    9     -0.64      0.00 
    0    3   10      2.54      0.00 
    0    3   11      0.84      0.00 
    0    3   12      1.51      0.00 
    0    3   13     -1.48      0.00 
    0    3   14      1.36      0.00 
    0    3   15      3.25      0.00 
    0    3   16      0.18      0.00 
    0    3   17      1.28      0.00 
    0    3   18      0.29      0.00 
    0    3   19     -0.99      0.00 
    0    3   20     -0.66      0.00 
    0    3   21      0.69      0.00 
    0    3   22      0.09      0.00 
    0    3   23     -4.12      0.00 
    0    3   24     -1.09      0.00 
    1    3    0    105.89      0.00 
    1    3    1     10.71      0.00 
    1    3    2    -15.34      0.00 
    1    3    3    -25.65      0.00 
    1    3    4      9.02      0.00 
    1    3    5     -8.20      0.00 
    1    3    6      1.88      0.00 
    1    3    7      3.09      0.00 
    1    3    8     -3.43      0.00 
    1    3    9     -3.05      0.00 
    1    3   10      0.80      0.00 
    1    3   11      4.41      0.00 
    1    3   12     -0.70      0.00 
    1    3   13     -2.38      0.00 
    1    3   14     -2.43      0.00 
    1    3   15     -0.81      0.00 
    1    3   16      1.06      0.00 
    1    3   17      2.34      0.00 
    1    3   18      2.36      0.00 
    1    3   19     -1.90      0.00 
    1    3   20     -0.74      0.00 
    1    3   21      0.58      0.00 
    1    3   22      0.60      0.00 
    1    3   23      1.66      0.00 
    1    3   24      1.34      0.00 
    1    3   25     -0.98      0.00 
    2    3    0     -2.84      0.00 
    2    3    1     15.99      0.00 
    2    3    2     24.64      0.00 
    2    3    3     -5.06      0.00 
    2    3    4     -3.95      0.00 
    2    3    5     13.14      0.00 
    2    3    6     -8.30      0.00 
    2    3    7     -2.73      0.00 
    2    3    8      1.63      0.00 
    2    3    9     -4.79      0.00 
    2    3   10      1.50      0.00 
    2    3   11      3.16      0.00 
    2    3   12      0.17      0.00 
    2    3   13     -2.57      0.00 
    2    3   14      0.16      0.00 
    2    3   15      1.10      0.00 
    2    3   16     -0.70      0.00 
    2    3   17      1.55      0.00 
    2    3   18     -0.40      0.00 
    2    3   19     -1.51      0.00 
    2    3   20      0.05      0.00 
    2    3   21      0.07      0.00 
    2    3   22      0.12      0.00 
    2    3   23     -0.80      0.00 
    2    3   24     -3.67      0.00 
    2    3   25     -1.22      0.00 
    3    3    0     45.09      0.00 
    3    3    1     13.39      0.00 
    3    3    2    -35.20      0.00 
    3    3    3    -18.65      0.00 
    3    3    4     -7.85      0.00 
    3    3    5     17.46      0.00 
    3    3    6      5.38      0.00 
    3    3    7      6.80      0.00 
    3    3    8     -2.35      0.00 
    3    3    9     -1.01      0.00 
    3    3   10      1.25      0.00 
    3    3   11      2.41      0.00 
    3    3   12     -1.05      0.00 
    3    3   13     -1.29      0.00 
    3    3   14     -1.25      0.00 
    3    3   15      1.03      0.00 
    3    3   16     -0.47      0.00 
    3    3   17      3.27      0.00 
    3    3   18      0.54      0.00 
    3    3   19     -3.30      0.00 
    3    3   20     -2.59      0.00 
    3    3   21     -0.09      0.00 
    3    3   22     -0.04      0.00 
    3    3   23      4.92      0.00 
    3    3   24      1.29      0.00 
    0    4    0     20.25      0.00 
    0    4    1     -2.46      0.00 
    0    4    2    -60.95      0.00 
    0    4    3    -25.40      0.00 
    0    4    4    -11.32      0.00 
    0    4    5     12.39      0.00 
    0    4    6      1.07      0.00 
    0    4    7     -3.46      0.00 
    0    4    8      0.38      0.00 
    0    4    9     -1.10      0.00 
    0    4   10      1.40      0.00 
    0    4   11      3.07      0.00 
    0    4   12     -0.66      0.00 
    0    4   13     -2.18      0.00 
    0    4   14      0.78      0.00 
    0    4   15     -1.92      0.00 
    0    4   16     -0.25      0.00 
    0    4   17      1.62      0.00 
    0    4   18     -2.18      0.00 
    0    4   19     -2.09      0.00 
    0    4   20      1.21      0.00 
    0    4   21     -2.35      0.00 
    0    4   22      1.18      0.00 
    0    4   23     -0.87      0.00 
    0    4   24     -0.94      0.00 
    1    4    0      1.76      0.00 
    1    4    1    -35.00      0.00 
    1    4    2    -21.16      0.00 
    1    4    3     -5.02      0.00 
    1    4    4     26.30      0.00 
    1    4    5     -5.53      0.00 
    1    4    6     -1.78      0.00 
    1    4    7     -6.47      0.00 
    1    4    8     -6.59      0.00 
    1    4    9     -0.49      0.00 
    1    4   10      3.95      0.00 
    1    4   11      0.27      0.00 
    1    4   12     -0.67      0.00 
    1    4   13      1.27      0.00 
    1    4   14     -0.81      0.00 
    1    4   15     -0.54      0.00 
    1    4   16      0.23      0.00 
    1    4   17      0.86      0.00 
    1    4   18     -0.23      0.00 
    1    4   19     -0.01      0.00 
    1    4   20     -0.72      0.00 
    1    4   21      1.63      0.00 
    1    4   22     -0.07      0.00 
    1    4   23      0.05      0.00 
    1    4   24      3.32      0.00 
    2    4    0    -18.07      0.00 
    2    4    1      0.69      0.00 
    2    4    2      6.86      0.00 
    2    4    3      4.94      0.00 
    2    4    4     -6.98      0.00 
    2    4    5     21.68      0.00 
    2    4    6      0.69      0.00 
    2    4    7      6.44      0.00 
    2    4    8      0.47      0.00 
    2    4    9     -0.78      0.00 
    2    4   10      0.91      0.00 
    2    4   11      2.60      0.00 
    2    4   12      0.06      0.00 
    2    4   13     -1.43      0.00 
    2    4   14     -1.34      0.00 
    2    4   15      0.20      0.00 
    2    4   16      1.80      0.00 
    2    4   17      1.54      0.00 
    2    4   18      0.60      0.00 
    2    4   19     -0.72      0.00 
    2    4   20      0.38      0.00 
    2    4   21      0.70      0.00 
    2    4   22     -0.04      0.00 
    2    4   23      0.04      0.00 
    2    4   24      0.45      0.00 
    3    4    0     -7.13      0.00 
    3    4    1      6.02      0.00 
    3    4    2     -0.04      0.00 
    3    4    3     -5.52      0.00 
    3    4    4     -3.78      0.00 
    3    4    5     -1.37      0.00 
    3    4    6     -1.49      0.00 
    3    4    7     -8.77      0.00 
    3    4    8     -6.11      0.00 
    3    4    9      2.03      0.00 
    3    4   10      1.36      0.00 
    3    4   11      0.17      0.00 
    3    4   12      0.89      0.00 
    3    4   13      1.16      0.00 
    3    4   14     -0.93      0.00 
    3    4   15      0.39      0.00 
    3    4   16     -1.81      0.00 
    3    4   17      0.26      0.00 
    3    4   18     -0.97      0.00 
    3    4   19     -0.55      0.00 
    3    4   20      1.41      0.00 
    3    4   21      1.55      0.00 
    3    4   22     -2.66      0.00 
    3    4   23     -0.56      0.00 
    3    4   24     -0.34      0.00 
    4    4    0     30.09      0.00 
    4    4    1    -12.08      0.00 
    4    4    2      1.45      0.00 
    4    4    3     -7.39      0.00 
    4    4    4     -3.74      0.00 
    4    4    5     -0.16      0.00 
    4    4    6      9.18      0.00 
    4    4    7     -3.68      0.00 
    4    4    8     -3.03      0.00 
    4    4    9     -1.19      0.00 
    4    4   10     -3.43      0.00 
    4    4   11      1.30      0.00 
    4    4   12     -1.03      0.00 
    4    4   13     -0.78      0.00 
    4    4   14      0.36      0.00 
    4    4   15     -0.93      0.00 
    4    4   16     -0.17      0.00 
    4    4   17      0.96      0.00 
    4    4   18      0.87      0.00 
    4    4   19     -1.20      0.00 
    4    4   20      1.73      0.00 
    4    4   21      0.05      0.00 
    4    4   22     -0.71      0.00 
    4    4   23     -1.30      0.00 
    4    4   24     -0.28      0.00 
    0    5    0     29.20      0.00 
    0    5    1      5.21      0.00 
    0    5    2      3.26      0.00 
    0    5    3     -4.11      0.00 
    0    5    4     19.11      0.00 
    0    5    5      0.95      0.00 
    0    5    6     -6.07      0.00 
    0    5    7     -1.57      0.00 
    0    5    8     -3.82      0.00 
    0    5    9     -0.12      0.00 
    0    5   10     -0.82      0.00 
    0    5   11      1.14      0.00 
    0    5   12     -1.00      0.00 
    0    5   13      0.16      0.00 
    0    5   14     -0.41      0.00 
    0    5   15     -0.84      0.00 
    0    5   16     -0.36      0.00 
    0    5   17     -0.37      0.00 
    0    5   18     -0.02      0.00 
    0    5   19     -2.11      0.00 
    0    5   20      0.02      0.00 
    0    5   21      0.46      0.00 
    0    5   22     -0.27      0.00 
    0    5   23     -0.21      0.00 
    0    5   24     -1.46      0.00 
    1    5    0      4.69      0.00 
    1    5    1     12.56      0.00 
    1    5    2      0.00      0.00 
    1    5    3     -5.53      0.00 
    1    5    4      1.51      0.00 
    1    5    5      6.87      0.00 
    1    5    6      3.98      0.00 
    1    5    7     -1.23      0.00 
    1    5    8     -0.69      0.00 
    1    5    9     -1.09      0.00 
    1    5   10      2.72      0.00 
    1    5   11     -0.06      0.00 
    1    5   12      0.54      0.00 
    1    5   13     -0.53      0.00 
    1    5   14     -0.82      0.00 
    1    5   15     -0.74      0.00 
    1    5   16      1.20      0.00 
    1    5   17      1.12      0.00 
    1    5   18     -0.45      0.00 
    1    5   19     -1.02      0.00 
    1    5   20     -0.79      0.00 
    1    5   21      1.12      0.00 
    1    5   22      0.00      0.00 
    1    5   23      0.34      0.00 
    1    5   24     -0.35      0.00 
    2    5    0      3.20      0.00 
    2    5    1     -9.76      0.00 
    2    5    2     -6.59      0.00 
    2    5    3     -0.50      0.00 
    2    5    4     -2.42      0.00 
    2    5    5      4.09      0.00 
    2    5    6    -10.09      0.00 
    2    5    7      2.84      0.00 
    2    5    8     -4.33      0.00 
    2    5    9      0.22      0.00 
    2    5   10      0.15      0.00 
    2    5   11      3.32      0.00 
    2    5   12      0.32      0.00 
    2    5   13     -0.13      0.00 
    2    5   14     -0.73      0.00 
    2    5   15      0.46      0.00 
    2    5   16      1.48      0.00 
    2    5   17     -1.01      0.00 
    2    5   18      1.27      0.00 
    2    5   19     -2.41      0.00 
    2    5   20      0.24      0.00 
    2    5   21      0.12      0.00 
    2    5   22      1.96      0.00 
    2    5   23     -0.29      0.00 
    2    5   24     -2.50      0.00 
    3    5    0      5.87      0.00 
    3    5    1      5.79      0.00 
    3    5    2     -2.04      0.00 
    3    5    3     -2.14      0.00 
    3    5    4      1.31      0.00 
    3    5    5      7.07      0.00 
    3    5    6      5.88      0.00 
    3    5    7     -3.42      0.00 
    3    5    8      0.24      0.00 
    3    5    9     -1.73      0.00 
    3    5   10      1.34      0.00 
    3    5   11      0.47      0.00 
    3    5   12     -0.08      0.00 
    3    5   13     -1.22      0.00 
    3    5   14     -4.45      0.00 
    3    5   15      0.21      0.00 
    3    5   16      0.67      0.00 
    3    5   17      1.63      0.00 
    3    5   18     -0.03      0.00 
    3    5   19     -2.57      0.00 
    3    5   20     -1.13      0.00 
    3    5   21     -2.42      0.00 
    3    5   22      1.60      0.00 
    3    5   23      1.23      0.00 
    3    5   24      0.47      0.00 
    4    5    0      5.91      0.00 
    4    5    1      0.60      0.00 
    4    5    2     -5.98      0.00 
    4    5    3     -3.10      0.00 
    4    5    4      4.31      0.00 
    4    5    5      6.41      0.00 
    4    5    6      3.63      0.00 
    4    5    7     -0.30      0.00 
    4    5    8     -0.47      0.00 
    4    5    9      0.83      0.00 
    4    5   10      2.74      0.00 
    4    5   11      1.24      0.00 
    4    5   12      0.30      0.00 
    4    5   13     -0.51      0.00 
    4    5   14     -0.84      0.00 
    4    5   15      0.88      0.00 
    4    5   16      1.31      0.00 
    4    5   17      0.38      0.00 
    4    5   18      0.81      0.00 
    4    5   19     -0.17      0.00 
    4    5   20     -0.42      0.00 
    4    5   21      1.25      0.00 
    4    5   22      2.62      0.00 
    4    5   23     -0.82      0.00 
    4    5   24     -0.72      0.00 
    5    5    0     -5.72      0.00 
    5    5    1      6.07      0.00 
    5    5    2     -9.76      0.00 
    5    5    3     -7.09      0.00 
    5    5    4     12.10      0.00 
    5    5    5      9.22      0.00 
    5    5    6      2.74      0.00 
    5    5    7     -4.46      0.00 
    5    5    8     -8.25      0.00 
    5    5    9     -0.14      0.00 
    5    5   10      1.89      0.00 
    5    5   11     -1.24      0.00 
    5    5   12      1.86      0.00 
    5    5   13     -1.17      0.00 
    5    5   14      0.05      0.00 
    5    5   15     -0.69      0.00 
    5    5   16      0.23      0.00 
    5    5   17      1.02      0.00 
    5    5   18     -0.06      0.00 
    5    5   19     -0.03      0.00 
    5    5   20     -1.28      0.00 
    5    5   21      5.48      0.00 
    5    5   22      0.22      0.00 
    5    5   23     -0.79      0.00 
    5    5   24     -4.35      0.00 
    0    6    0     32.64      0.00 
    0    6    1      4.21      0.00 
    0    6    2    -14.12      0.00 
    0    6    3    -16.99      0.00 
    0    6    4     15.69      0.00 
    0    6    5     -9.41      0.00 
    0    6    6      3.69      0.00 
    0    6    7     -1.12      0.00 
    0    6    8      0.04      0.00 
    0    6    9      1.51      0.00 
    0    6   10     -1.92      0.00 
    0    6   11      2.49      0.00 
    0    6   12     -0.62      0.00 
    0    6   13      0.50      0.00 
    0    6   14     -2.70      0.00 
    0    6   15     -0.20      0.00 
    0    6   16     -0.43      0.00 
    0    6   17      2.89      0.00 
    0    6   18      1.79      0.00 
    0    6   19      0.58      0.00 
    0    6   20     -1.04      0.00 
    0    6   21     -1.21      0.00 
    0    6   22      0.92      0.00 
    0    6   23      0.09      0.00 
    0    6   24      1.08      0.00 
    1    6    0     14.07      0.00 
    1    6    1     12.88      0.00 
    1    6    2     -3.42      0.00 
    1    6    3      9.48      0.00 
    1    6    4     -5.93      0.00 
    1    6    5     13.93      0.00 
    1    6    6     -7.45      0.00 
    1    6    7     -6.38      0.00 
    1    6    8     -0.86      0.00 
    1    6    9     -1.05      0.00 
    1    6   10      1.11      0.00 
    1    6   11      0.85      0.00 
    1    6   12     -0.16      0.00 
    1    6   13     -1.47      0.00 
    1    6   14     -0.47      0.00 
    1    6   15      0.04      0.00 
    1    6   16      0.99      0.00 
    1    6   17      0.03      0.00 
    1    6   18     -0.23      0.00 
    1    6   19     -0.51      0.00 
    1    6   20      0.53      0.00 
    1    6   21      0.64      0.00 
    1    6   22      1.05      0.00 
    1    6   23      0.01      0.00 
    1    6   24     -1.57      0.00 
    2    6    0     -3.16      0.00 
    2    6    1     -4.87      0.00 
    2    6    2     -0.63      0.00 
    2    6    3    -13.88      0.00 
    2    6    4      6.41      0.00 
    2    6    5      3.49      0.00 
    2    6    6      6.10      0.00 
    2    6    7      1.43      0.00 
    2    6    8     -4.68      0.00 
    2    6    9      0.71      0.00 
    2    6   10      1.44      0.00 
    2    6   11      0.04      0.00 
    2    6   12     -0.08      0.00 
    2    6   13      0.21      0.00 
    2    6   14     -1.05      0.00 
    2    6   15     -0.75      0.00 
    2    6   16      0.29      0.00 
    2    6   17      1.51      0.00 
    2    6   18      1.91      0.00 
    2    6   19     -0.83      0.00 
    2    6   20     -0.97      0.00 
    2    6   21      1.48      0.00 
    2    6   22     -0.62      0.00 
    2    6   23      0.11      0.00 
    2    6   24      0.16      0.00 
    3    6    0     13.41      0.00 
    3    6    1      1.91      0.00 
    3    6    2      7.52      0.00 
    3    6    3      1.59      0.00 
    3    6    4     -5.24      0.00 
    3    6    5     -2.02      0.00 
    3    6    6      2.07      0.00 
    3    6    7     -4.51      0.00 
    3    6    8     -0.29      0.00 
    3    6    9      1.53      0.00 
    3    6   10      2.49      0.00 
    3    6   11      0.58      0.00 
    3    6   12     -0.03      0.00 
    3    6   13     -0.17      0.00 
    3    6   14     -0.44      0.00 
    3    6   15      0.39      0.00 
    3    6   16      0.24      0.00 
    3    6   17      0.39      0.00 
    3    6   18      0.26      0.00 
    3    6   19     -2.39      0.00 
    3    6   20      0.89      0.00 
    3    6   21      1.96      0.00 
    3    6   22     -0.77      0.00 
    3    6   23      0.07      0.00 
    3    6   24      1.11      0.00 
    4    6    0      2.23      0.00 
    4    6    1      1.62      0.00 
    4    6    2    -11.09      0.00 
    4    6    3     -5.56      0.00 
    4    6    4     -5.18      0.00 
    4    6    5      6.72      0.00 
    4    6    6      2.11      0.00 
    4    6    7     -1.77      0.00 
    4    6    8     -5.94      0.00 
    4    6    9      0.09      0.00 
    4    6   10     -0.25      0.00 
    4    6   11      0.79      0.00 
    4    6   12     -0.21      0.00 
    4    6   13     -0.36      0.00 
    4    6   14      0.53      0.00 
    4    6   15     -0.86      0.00 
    4    6   16     -0.35      0.00 
    4    6   17      0.53      0.00 
    4    6   18      0.33      0.00 
    4    6   19      0.41      0.00 
    4    6   20     -1.14      0.00 
    4    6   21     -1.84      0.00 
    4    6   22     -1.48      0.00 
    4    6   23     -0.16      0.00 
    4    6   24     -1.91      0.00 
    5    6    0     12.27      0.00 
    5    6    1      1.29      0.00 
    5    6    2     -4.05      0.00 
    5    6    3     -4.58      0.00 
    5    6    4      0.75      0.00 
    5    6    5     -1.33      0.00 
    5    6    6     -1.76      0.00 
    5    6    7     -0.42      0.00 
    5    6    8     -2.15      0.00 
    5    6    9      2.27      0.00 
    5    6   10      1.47      0.00 
    5    6   11      1.53      0.00 
    5    6   12     -0.67      0.00 
    5    6   13     -0.06      0.00 
    5    6   14     -0.72      0.00 
    5    6   15     -0.62      0.00 
    5    6   16     -0.16      0.00 
    5    6   17      0.10      0.00 
    5    6   18     -0.02      0.00 
    5    6   19     -1.15      0.00 
    5    6   20     -3.19      0.00 
    5    6   21      0.61      0.00 
    5    6   22      0.36      0.00 
    5    6   23      0.79      0.00 
    6    6    0     10.08      0.00 
    6    6    1      1.46      0.00 
    6    6    2     -1.04      0.00 
    6    6    3    -15.54      0.00 
    6    6    4      2.11      0.00 
    6    6    5      2.22      0.00 
    6    6    6      3.24      0.00 
    6    6    7     -0.88      0.00 
    6    6    8     -1.01      0.00 
    6    6    9     -0.55      0.00 
    6    6   10      4.77      0.00 
    6    6   11      1.52      0.00 
    6    6   12      0.50      0.00 
    6    6   13     -0.01      0.00 
    6    6   14     -0.33      0.00 
    6    6   15      1.63      0.00 
    6    6   16      1.60      0.00 
    6    6   17      0.20      0.00 
    6    6   18      0.62      0.00 
    6    6   19      2.09      0.00 
    6    6   20     -1.52      0.00 
    6    6   21     -2.14      0.00 
    6    6   22     -0.25      0.00 
    6    6   23      0.29      0.00 
    0    7    0     -3.95      0.00 
    0    7    1     -9.35      0.00 
    0    7    2     -7.52      0.00 
    0    7    3     -5.48      0.00 
    0    7    4     12.64      0.00 
    0    7    5      0.42      0.00 
    0    7    6      3.16      0.00 
    0    7    7     -5.50      0.00 
    0    7    8      0.95      0.00 
    0    7    9     -0.14      0.00 
    0    7   10      2.94      0.00 
    0    7   11     -0.70      0.00 
    0    7   12      1.06      0.00 
    0    7   13     -1.36      0.00 
    0    7   14     -1.17      0.00 
    0    7   15     -1.67      0.00 
    0    7   16      0.63      0.00 
    0    7   17      7.72      0.00 
    0    7   18      1.27      0.00 
    0    7   19     -0.22      0.00 
    0    7   20     -1.75      0.00 
    0    7   21      0.69      0.00 
    0    7   22      0.33      0.00 
    0    7   23      1.35      0.00 
    1    7    0      4.66      0.00 
    1    7    1     -3.03      0.00 
    1    7    2    -12.52      0.00 
    1    7    3     -7.41      0.00 
    1    7    4     -5.72      0.00 
    1    7    5      9.91      0.00 
    1    7    6     -4.01      0.00 
    1    7    7      3.77      0.00 
    1    7    8     -1.99      0.00 
    1    7    9      1.50      0.00 
    1    7   10      0.79      0.00 
    1    7   11      1.90      0.00 
    1    7   12     -0.11      0.00 
    1    7   13     -0.31      0.00 
    1    7   14      0.17      0.00 
    1    7   15     -0.76      0.00 
    1    7   16     -1.65      0.00 
    1    7   17     -2.99      0.00 
    1    7   18      0.11      0.00 
    1    7   19     -1.49      0.00 
    1    7   20      0.08      0.00 
    1    7   21     -0.42      0.00 
    1    7   22     -1.01      0.00 
    1    7   23     -0.51      0.00 
    1    7   24      1.19      0.00 
    2    7    0     -1.43      0.00 
    2    7    1     -4.64      0.00 
    2    7    2      0.39      0.00 
    2    7    3     -0.12      0.00 
    2    7    4      4.66      0.00 
    2    7    5     -5.30      0.00 
    2    7    6      5.51      0.00 
    2    7    7     -5.65      0.00 
    2    7    8     -0.06      0.00 
    2    7    9      0.56      0.00 
    2    7   10      0.28      0.00 
    2    7   11      2.04      0.00 
    2    7   12      0.42      0.00 
    2    7   13      1.58      0.00 
    2    7   14     -1.03      0.00 
    2    7   15     -1.41      0.00 
    2    7   16      0.32      0.00 
    2    7   17      1.72      0.00 
    2    7   18     -0.43      0.00 
    2    7   19      0.41      0.00 
    2    7   20      0.59      0.00 
    2    7   21     -1.03      0.00 
    2    7   22     -1.29      0.00 
    2    7   23     -0.51      0.00 
    2    7   24      1.76      0.00 
    3    7    0      9.28      0.00 
    3    7    1      1.95      0.00 
    3    7    2     -0.64      0.00 
    3    7    3      4.66      0.00 
    3    7    4      0.71      0.00 
    3    7    5    -13.74      0.00 
    3    7    6      3.53      0.00 
    3    7    7      0.70      0.00 
    3    7    8     -2.23      0.00 
    3    7    9     -1.89      0.00 
    3    7   10     -1.07      0.00 
    3    7   11      1.70      0.00 
    3    7   12     -0.36      0.00 
    3    7   13     -0.34      0.00 
    3    7   14     -2.02      0.00 
    3    7   15     -0.22      0.00 
    3    7   16      1.86      0.00 
    3    7   17     -0.85      0.00 
    3    7   18      1.18      0.00 
    3    7   19      1.23      0.00 
    3    7   20     -2.18      0.00 
    3    7   21      0.33      0.00 
    3    7   22     -0.34      0.00 
    3    7   23     -0.58      0.00 
    4    7    0     -6.31      0.00 
    4    7    1      1.69      0.00 
    4    7    2     -4.92      0.00 
    4    7    3      3.49      0.00 
    4    7    4     -0.79      0.00 
    4    7    5      1.43      0.00 
    4    7    6      3.24      0.00 
    4    7    7     -0.31      0.00 
    4    7    8     -1.70      0.00 
    4    7    9      0.49      0.00 
    4    7   10      2.30      0.00 
    4    7   11     -0.67      0.00 
    4    7   12      1.37      0.00 
    4    7   13     -1.83      0.00 
    4    7   14      0.74      0.00 
    4    7   15     -1.16      0.00 
    4    7   16     -0.29      0.00 
    4    7   17      0.15      0.00 
    4    7   18     -1.58      0.00 
    4    7   19      2.51      0.00 
    4    7   20      0.52      0.00 
    4    7   21      0.79      0.00 
    4    7   22      0.07      0.00 
    4    7   23     -0.67      0.00 
    5    7    0      0.93      0.00 
    5    7    1     -5.40      0.00 
    5    7    2      2.46      0.00 
    5    7    3      4.83      0.00 
    5    7    4      0.15      0.00 
    5    7    5      1.76      0.00 
    5    7    6      1.84      0.00 
    5    7    7      0.66      0.00 
    5    7    8     -2.53      0.00 
    5    7    9     -1.84      0.00 
    5    7   10      1.08      0.00 
    5    7   11     -0.58      0.00 
    5    7   12      0.55      0.00 
    5    7   13      0.02      0.00 
    5    7   14      0.77      0.00 
    5    7   15      0.92      0.00 
    5    7   16     -0.45      0.00 
    5    7   17      0.11      0.00 
    5    7   18     -0.18      0.00 
    5    7   19     -0.70      0.00 
    5    7   20     -0.51      0.00 
    5    7   21      0.94      0.00 
    5    7   22      3.72      0.00 
    5    7   23      1.35      0.00 
    6    7    0     -1.50      0.00 
    6    7    1     -0.97      0.00 
    6    7    2     13.10      0.00 
    6    7    3     -0.08      0.00 
    6    7    4      2.31      0.00 
    6    7    5      2.31      0.00 
    6    7    6     -0.08      0.00 
    6    7    7     -1.23      0.00 
    6    7    8     -0.97      0.00 
    6    7    9     -1.21      0.00 
    6    7   10      2.52      0.00 
    6    7   11     -1.73      0.00 
    6    7   12     -1.03      0.00 
    6    7   13     -1.40      0.00 
    6    7   14     -0.49      0.00 
    6    7   15     -1.42      0.00 
    6    7   16     -0.54      0.00 
    6    7   17      0.06      0.00 
    6    7   18     -0.39      0.00 
    6    7   19      1.35      0.00 
    6    7   20      0.73      0.00 
    6    7   21     -0.99      0.00 
    6    7   22     -1.67      0.00 
    6    7   23     -2.15      0.00 
    7    7    0      0.49      0.00 
    7    7    1     -7.57      0.00 
    7    7    2     -1.82      0.00 
    7    7    3     -4.40      0.00 
    7    7    4      0.27      0.00 
    7    7    5      0.84      0.00 
    7    7    6      0.04      0.00 
    7    7    7      1.49      0.00 
    7    7    8      2.07      0.00 
    7    7    9     -0.04      0.00 
    7    7   10     -2.40      0.00 
    7    7   11      1.48      0.00 
    7    7   12     -0.48      0.00 
    7    7   13      0.02      0.00 
    7    7   14     -2.05      0.00 
    7    7   15      1.11      0.00 
    7    7   16      0.11      0.00 
    7    7   17      0.77      0.00 
    7    7   18     -0.61      0.00 
    7    7   19      0.46      0.00 
    7    7   20     -2.01      0.00 
    7    7   21      0.98      0.00 
    7    7   22      1.81      0.00 
    0    8    0     23.99      0.00 
    0    8    1      7.08      0.00 
    0    8    2     -5.87      0.00 
    0    8    3     -0.48      0.00 
    0    8    4     -3.84      0.00 
    0    8    5      3.35      0.00 
    0    8    6      3.74      0.00 
    0    8    7     -2.27      0.00 
    0    8    8      0.36      0.00 
    0    8    9     -1.40      0.00 
    0    8   10      1.22      0.00 
    0    8   11     -2.78      0.00 
    0    8   12      1.84      0.00 
    0    8   13     -1.39      0.00 
    0    8   14     -0.74      0.00 
    0    8   15      0.19      0.00 
    0    8   16      1.77      0.00 
    0    8   17      2.16      0.00 
    0    8   18     -0.96      0.00 
    0    8   19     -0.36      0.00 
    0    8   20     -1.60      0.00 
    0    8   21     -0.08      0.00 
    0    8   22     -1.77      0.00 
    0    8   23      0.78      0.00 
    1    8    0      0.37      0.00 
    1    8    1      1.25      0.00 
    1    8    2     -3.44      0.00 
    1    8    3     -2.59      0.00 
    1    8    4      9.92      0.00 
    1    8    5     -0.16      0.00 
    1    8    6     -1.85      0.00 
    1    8    7     -2.60      0.00 
    1    8    8     -3.52      0.00 
    1    8    9      1.97      0.00 
    1    8   10      0.28      0.00 
    1    8   11      1.38      0.00 
    1    8   12     -1.53      0.00 
    1    8   13      0.98      0.00 
    1    8   14      0.83      0.00 
    1    8   15      0.30      0.00 
    1    8   16      0.47      0.00 
    1    8   17     -1.36      0.00 
    1    8   18      0.78      0.00 
    1    8   19     -0.68      0.00 
    1    8   20      0.17      0.00 
    1    8   21     -0.27      0.00 
    1    8   22      0.23      0.00 
    1    8   23      0.19      0.00 
    2    8    0      3.85      0.00 
    2    8    1     -0.72      0.00 
    2    8    2      0.63      0.00 
    2    8    3     -0.86      0.00 
    2    8    4     -6.19      0.00 
    2    8    5      9.39      0.00 
    2    8    6      3.18      0.00 
    2    8    7     -2.34      0.00 
    2    8    8      1.15      0.00 
    2    8    9     -2.89      0.00 
    2    8   10      0.20      0.00 
    2    8   11     -0.77      0.00 
    2    8   12      1.00      0.00 
    2    8   13     -0.64      0.00 
    2    8   14      0.03      0.00 
    2    8   15     -1.10      0.00 
    2    8   16      1.39      0.00 
    2    8   17      1.59      0.00 
    2    8   18     -0.66      0.00 
    2    8   19     -2.55      0.00 
    2    8   20     -0.29      0.00 
    2    8   21     -1.58      0.00 
    2    8   22      1.52      0.00 
    2    8   23      1.40      0.00 
    3    8    0     -5.29      0.00 
    3    8    1      4.11      0.00 
    3    8    2      1.91      0.00 
    3    8    3     -1.29      0.00 
    3    8    4      3.92      0.00 
    3    8    5      0.87      0.00 
    3    8    6      0.78      0.00 
    3    8    7      2.95      0.00 
    3    8    8     -2.60      0.00 
    3    8    9      2.64      0.00 
    3    8   10      0.89      0.00 
    3    8   11      0.15      0.00 
    3    8   12      0.65      0.00 
    3    8   13     -1.72      0.00 
    3    8   14      0.18      0.00 
    3    8   15     -0.19      0.00 
    3    8   16      0.80      0.00 
    3    8   17      1.28      0.00 
    3    8   18     -0.44      0.00 
    3    8   19      0.98      0.00 
    3    8   20      0.16      0.00 
    3    8   21      1.45      0.00 
    3    8   22     -0.83      0.00 
    3    8   23     -3.50      0.00 
    4    8    0      6.21      0.00 
    4    8    1      1.26      0.00 
    4    8    2     -1.72      0.00 
    4    8    3     -4.94      0.00 
    4    8    4      0.27      0.00 
    4    8    5      3.96      0.00 
    4    8    6      1.18      0.00 
    4    8    7      0.00      0.00 
    4    8    8     -2.19      0.00 
    4    8    9     -1.37      0.00 
    4    8   10     -0.09      0.00 
    4    8   11      0.44      0.00 
    4    8   12      0.11      0.00 
    4    8   13     -0.43      0.00 
    4    8   14     -1.07      0.00 
    4    8   15     -0.25      0.00 
    4    8   16      0.69      0.00 
    4    8   17      2.20      0.00 
    4    8   18      0.19      0.00 
    4    8   19      0.73      0.00 
    4    8   20     -0.33      0.00 
    4    8   21      0.61      0.00 
    4    8   22      1.09      0.00 
    4    8   23      3.28      0.00 
    5    8    0      8.73      0.00 
    5    8    1      0.10      0.00 
    5    8    2     -9.89      0.00 
    5    8    3     -3.45      0.00 
    5    8    4     -1.37      0.00 
    5    8    5      0.48      0.00 
    5    8    6      0.87      0.00 
    5    8    7     -1.08      0.00 
    5    8    8     -0.65      0.00 
    5    8    9     -1.49      0.00 
    5    8   10     -0.53      0.00 
    5    8   11      1.98      0.00 
    5    8   12     -1.25      0.00 
    5    8   13      0.27      0.00 
    5    8   14     -0.75      0.00 
    5    8   15      0.14      0.00 
    5    8   16      0.97      0.00 
    5    8   17      0.56      0.00 
    5    8   18      0.36      0.00 
    5    8   19     -0.91      0.00 
    5    8   20     -1.52      0.00 
    5    8   21     -2.35      0.00 
    5    8   22      0.33      0.00 
    5    8   23     -4.24      0.00 
    6    8    0      3.03      0.00 
    6    8    1      2.45      0.00 
    6    8    2      0.03      0.00 
    6    8    3     -4.77      0.00 
    6    8    4     -1.57      0.00 
    6    8    5      2.42      0.00 
    6    8    6      0.08      0.00 
    6    8    7      1.10      0.00 
    6    8    8      1.05      0.00 
    6    8    9     -1.65      0.00 
    6    8   10      4.48      0.00 
    6    8   11      1.00      0.00 
    6    8   12     -0.33      0.00 
    6    8   13      0.27      0.00 
    6    8   14      0.40      0.00 
    6    8   15     -1.50      0.00 
    6    8   16      0.27      0.00 
    6    8   17      0.19      0.00 
    6    8   18      1.72      0.00 
    6    8   19      0.50      0.00 
    6    8   20      1.39      0.00 
    6    8   21      2.29      0.00 
    6    8   22      1.58      0.00 
    7    8    0     -1.09      0.00 
    7    8    1      3.45      0.00 
    7    8    2     -2.23      0.00 
    7    8    3     -0.21      0.00 
    7    8    4      2.01      0.00 
    7    8    5     -0.49      0.00 
    7    8    6     -2.63      0.00 
    7    8    7     -1.07      0.00 
    7    8    8     -2.79      0.00 
    7    8    9     -2.45      0.00 
    7    8   10     -0.79      0.00 
    7    8   11      0.82      0.00 
    7    8   12      2.21      0.00 
    7    8   13     -0.27      0.00 
    7    8   14      0.29      0.00 
    7    8   15      1.08      0.00 
    7    8   16      1.11      0.00 
    7    8   17      0.81      0.00 
    7    8   18      0.03      0.00 
    7    8   19     -0.10      0.00 
    7    8   20     -0.79      0.00 
    7    8   21     -0.66      0.00 
    7    8   22     -2.00      0.00 
    8    8    0      2.75      0.00 
    8    8    1      1.34      0.00 
    8    8    2     -1.88      0.00 
    8    8    3      0.20      0.00 
    8    8    4     -3.18      0.00 
    8    8    5     -1.41      0.00 
    8    8    6      0.70      0.00 
    8    8    7      4.13      0.00 
    8    8    8     -2.08      0.00 
    8    8    9     -1.01      0.00 
    8    8   10     -1.13      0.00 
    8    8   11     -0.25      0.00 
    8    8   12      0.09      0.00 
    8    8   13      1.52      0.00 
    8    8   14     -1.20      0.00 
    8    8   15     -2.43      0.00 
    8    8   16      0.82      0.00 
    8    8   17     -0.15      0.00 
    8    8   18     -1.34      0.00 
    8    8   19      1.19      0.00 
    8    8   20      2.46      0.00 
    8    8   21     -0.80      0.00 
    0    9    0      7.06      0.00 
    0    9    1      2.28      0.00 
    0    9    2     -3.74      0.00 
    0    9    3     -1.84      0.00 
    0    9    4     -0.58      0.00 
    0    9    5      6.96      0.00 
    0    9    6     -8.43      0.00 
    0    9    7     -1.76      0.00 
    0    9    8     -1.94      0.00 
    0    9    9      1.28      0.00 
    0    9   10     -0.35      0.00 
    0    9   11      0.72      0.00 
    0    9   12      1.62      0.00 
    0    9   13     -0.88      0.00 
    0    9   14      0.08      0.00 
    0    9   15      0.05      0.00 
    0    9   16      0.64      0.00 
    0    9   17      1.03      0.00 
    0    9   18      0.99      0.00 
    0    9   19      0.72      0.00 
    0    9   20     -2.33      0.00 
    0    9   21      2.66      0.00 
    0    9   22      3.71      0.00 
    0    9   23     -4.82      0.00 
    1    9    0      4.89      0.00 
    1    9    1      5.40      0.00 
    1    9    2     -2.25      0.00 
    1    9    3     -5.37      0.00 
    1    9    4      6.31      0.00 
    1    9    5      0.46      0.00 
    1    9    6      6.05      0.00 
    1    9    7     -1.79      0.00 
    1    9    8      0.64      0.00 
    1    9    9     -1.19      0.00 
    1    9   10     -0.92      0.00 
    1    9   11      2.13      0.00 
    1    9   12     -1.80      0.00 
    1    9   13      0.38      0.00 
    1    9   14     -0.47      0.00 
    1    9   15     -0.12      0.00 
    1    9   16      0.37      0.00 
    1    9   17      0.65      0.00 
    1    9   18     -0.82      0.00 
    1    9   19      0.00      0.00 
    1    9   20      0.08      0.00 
    1    9   21      2.44      0.00 
    1    9   22      6.46      0.00 
    1    9   23      2.37      0.00 
    2    9    0      0.87      0.00 
    2    9    1     -0.25      0.00 
    2    9    2     -1.03      0.00 
    2    9    3     -0.56      0.00 
    2    9    4     -3.29      0.00 
    2    9    5      3.57      0.00 
    2    9    6     -0.55      0.00 
    2    9    7      2.30      0.00 
    2    9    8     -0.95      0.00 
    2    9    9      0.13      0.00 
    2    9   10     -0.14      0.00 
    2    9   11      1.53      0.00 
    2    9   12     -0.77      0.00 
    2    9   13      0.08      0.00 
    2    9   14     -1.03      0.00 
    2    9   15     -0.83      0.00 
    2    9   16      0.49      0.00 
    2    9   17     -1.04      0.00 
    2    9   18      0.03      0.00 
    2    9   19     -0.79      0.00 
    2    9   20     -0.04      0.00 
    2    9   21     -0.45      0.00 
    2    9   22      0.33      0.00 
    2    9   23     -5.84      0.00 
    3    9    0      2.12      0.00 
    3    9    1      3.82      0.00 
    3    9    2     -6.19      0.00 
    3    9    3     -2.85      0.00 
    3    9    4     -1.54      0.00 
    3    9    5     -0.49      0.00 
    3    9    6      2.56      0.00 
    3    9    7      1.49      0.00 
    3    9    8     -1.01      0.00 
    3    9    9     -0.80      0.00 
    3    9   10      1.41      0.00 
    3    9   11      1.01      0.00 
    3    9   12     -0.06      0.00 
    3    9   13     -0.69      0.00 
    3    9   14      0.03      0.00 
    3    9   15     -0.95      0.00 
    3    9   16      1.02      0.00 
    3    9   17      1.02      0.00 
    3    9   18     -3.19      0.00 
    3    9   19      0.27      0.00 
    3    9   20     -0.41      0.00 
    3    9   21      0.84      0.00 
    3    9   22      0.15      0.00 
    3    9   23      0.25      0.00 
    4    9    0      1.98      0.00 
    4    9    1     -4.86      0.00 
    4    9    2     -1.39      0.00 
    4    9    3     -2.17      0.00 
    4    9    4      3.22      0.00 
    4    9    5      1.55      0.00 
    4    9    6      0.08      0.00 
    4    9    7     -1.51      0.00 
    4    9    8     -1.26      0.00 
    4    9    9     -5.18      0.00 
    4    9   10      0.54      0.00 
    4    9   11      0.75      0.00 
    4    9   12     -0.37      0.00 
    4    9   13      0.80      0.00 
    4    9   14     -0.66      0.00 
    4    9   15      0.42      0.00 
    4    9   16      1.15      0.00 
    4    9   17      0.08      0.00 
    4    9   18     -1.61      0.00 
    4    9   19     -1.00      0.00 
    4    9   20     -1.55      0.00 
    4    9   21      1.36      0.00 
    4    9   22     -1.51      0.00 
    5    9    0      7.02      0.00 
    5    9    1      4.35      0.00 
    5    9    2     -1.01      0.00 
    5    9    3      0.48      0.00 
    5    9    4     -2.43      0.00 
    5    9    5      2.48      0.00 
    5    9    6      0.51      0.00 
    5    9    7      0.47      0.00 
    5    9    8     -0.26      0.00 
    5    9    9      3.51      0.00 
    5    9   10      0.60      0.00 
    5    9   11      2.24      0.00 
    5    9   12      0.02      0.00 
    5    9   13     -1.18      0.00 
    5    9   14      0.39      0.00 
    5    9   15     -0.88      0.00 
    5    9   16      1.28      0.00 
    5    9   17     -2.82      0.00 
    5    9   18     -2.67      0.00 
    5    9   19     -1.11      0.00 
    5    9   20     -1.33      0.00 
    5    9   21      0.13      0.00 
    5    9   22     -0.13      0.00 
    6    9    0     -3.99      0.00 
    6    9    1     -9.87      0.00 
    6    9    2      0.57      0.00 
    6    9    3     -1.01      0.00 
    6    9    4     -1.71      0.00 
    6    9    5      3.64      0.00 
    6    9    6     -1.12      0.00 
    6    9    7     -1.24      0.00 
    6    9    8     -1.84      0.00 
    6    9    9     -1.01      0.00 
    6    9   10     -2.18      0.00 
    6    9   11     -0.19      0.00 
    6    9   12     -0.67      0.00 
    6    9   13      1.64      0.00 
    6    9   14     -0.49      0.00 
    6    9   15     -0.35      0.00 
    6    9   16     -0.39      0.00 
    6    9   17     -0.63      0.00 
    6    9   18      1.19      0.00 
    6    9   19     -0.13      0.00 
    6    9   20      0.55      0.00 
    6    9   21     -1.09      0.00 
    6    9   22     -1.17      0.00 
    7    9    0      2.50      0.00 
    7    9    1      3.53      0.00 
    7    9    2     -0.16      0.00 
    7    9    3     -2.03      0.00 
    7    9    4      1.03      0.00 
    7    9    5      0.28      0.00 
    7    9    6      1.28      0.00 
    7    9    7      0.10      0.00 
    7    9    8      3.28      0.00 
    7    9    9      0.85      0.00 
    7    9   10     -0.12      0.00 
    7    9   11     -0.09      0.00 
    7    9   12      0.60      0.00 
    7    9   13     -0.93      0.00 
    7    9   14     -0.97      0.00 
    7    9   15      0.03      0.00 
    7    9   16      1.72      0.00 
    7    9   17     -2.48      0.00 
    7    9   18     -1.54      0.00 
    7    9   19     -1.11      0.00 
    7    9   20     -0.06      0.00 
    7    9   21     -1.69      0.00 
    8    9    0      2.28      0.00 
    8    9    1     -2.82      0.00 
    8    9    2     -1.57      0.00 
    8    9    3     -0.11      0.00 
    8    9    4      0.92      0.00 
    8    9    5      0.70      0.00 
    8    9    6      1.17      0.00 
    8    9    7      1.92      0.00 
    8    9    8      2.43      0.00 
    8    9    9     -0.18      0.00 
    8    9   10      0.81      0.00 
    8    9   11      0.68      0.00 
    8    9   12      0.06      0.00 
    8    9   13      0.96      0.00 
    8    9   14     -1.83      0.00 
    8    9   15      1.53      0.00 
    8    9   16      0.89      0.00 
    8    9   17     -0.73      0.00 
    8    9   18     -0.72      0.00 
    8    9   19      0.28      0.00 
    8    9   20     -0.08      0.00 
    9    9    0      0.60      0.00 
    9    9    1      0.70      0.00 
    9    9    2      0.71      0.00 
    9    9    3      2.44      0.00 
    9    9    4     -2.08      0.00 
    9    9    5     -1.43      0.00 
    9    9    6     -1.27      0.00 
    9    9    7     -1.22      0.00 
    9    9    8      1.48      0.00 
    9    9    9     -1.27      0.00 
    9    9   10      0.52      0.00 
    9    9   11     -0.38      0.00 
    9    9   12     -0.23      0.00 
    9    9   13     -1.05      0.00 
    9    9   14     -0.69      0.00 
    9    9   15      1.00      0.00 
    9    9   16     -0.90      0.00 
    9    9   17     -1.41      0.00 
    9    9   18      1.18      0.00 
    9    9   19     -0.66      0.00 
    0   10    0      2.92      0.00 
    0   10    1      1.26      0.00 
    0   10    2     -6.54      0.00 
    0   10    3    -10.55      0.00 
    0   10    4     -1.18      0.00 
    0   10    5      0.63      0.00 
    0   10    6     -1.44      0.00 
    0   10    7     -0.13      0.00 
    0   10    8     -1.19      0.00 
    0   10    9      3.31      0.00 
    0   10   10      0.55      0.00 
    0   10   11      2.30      0.00 
    0   10   12     -0.02      0.00 
    0   10   13     -1.02      0.00 
    0   10   14      1.63      0.00 
    0   10   15     -0.74      0.00 
    0   10   16     -0.78      0.00 
    0   10   17      0.68      0.00 
    0   10   18     -0.25      0.00 
    0   10   19     -0.89      0.00 
    0   10   20     -0.47      0.00 
    0   10   21     -2.33      0.00 
    0   10   22      0.55      0.00 
    1   10    0      1.55      0.00 
    1   10    1     -3.55      0.00 
    1   10    2     -3.33      0.00 
    1   10    3     -1.26      0.00 
    1   10    4     -1.36      0.00 
    1   10    5      4.19      0.00 
    1   10    6      2.38      0.00 
    1   10    7     -2.32      0.00 
    1   10    8     -0.40      0.00 
    1   10    9     -3.05      0.00 
    1   10   10      2.29      0.00 
    1   10   11      0.11      0.00 
    1   10   12     -0.65      0.00 
    1   10   13     -2.93      0.00 
    1   10   14     -1.43      0.00 
    1   10   15     -2.00      0.00 
    1   10   16      1.05      0.00 
    1   10   17      0.00      0.00 
    1   10   18     -0.42      0.00 
    1   10   19      1.03      0.00 
    1   10   20     -1.84      0.00 
    1   10   21     -2.86      0.00 
    1   10   22     -3.52      0.00 
    2   10    0      0.55      0.00 
    2   10    1      2.85      0.00 
    2   10    2     -1.22      0.00 
    2   10    3     -6.01      0.00 
    2   10    4      1.17      0.00 
    2   10    5     -0.07      0.00 
    2   10    6     -8.72      0.00 
    2   10    7      0.66      0.00 
    2   10    8     -4.27      0.00 
    2   10    9      0.09      0.00 
    2   10   10     -1.40      0.00 
    2   10   11      3.70      0.00 
    2   10   12      0.26      0.00 
    2   10   13      1.69      0.00 
    2   10   14      2.53      0.00 
    2   10   15     -2.06      0.00 
    2   10   16     -1.00      0.00 
    2   10   17      0.48      0.00 
    2   10   18      0.52      0.00 
    2   10   19      1.59      0.00 
    2   10   20     -3.15      0.00 
    2   10   21      0.94      0.00 
    2   10   22     -2.71      0.00 
    3   10    0      3.73      0.00 
    3   10    1      0.05      0.00 
    3   10    2      0.43      0.00 
    3   10    3      0.07      0.00 
    3   10    4     -1.19      0.00 
    3   10    5      2.03      0.00 
    3   10    6     -1.07      0.00 
    3   10    7      0.77      0.00 
    3   10    8     -0.06      0.00 
    3   10    9     -1.26      0.00 
    3   10   10      0.05      0.00 
    3   10   11      1.27      0.00 
    3   10   12     -0.61      0.00 
    3   10   13     -1.29      0.00 
    3   10   14     -0.06      0.00 
    3   10   15      1.34      0.00 
    3   10   16     -0.36      0.00 
    3   10   17     -0.99      0.00 
    3   10   18      0.67      0.00 
    3   10   19      2.77      0.00 
    3   10   20      0.83      0.00 
    3   10   21      2.11      0.00 
    3   10   22      1.36      0.00 
    4   10    0      0.69      0.00 
    4   10    1     -0.55      0.00 
    4   10    2     -0.94      0.00 
    4   10    3     -3.54      0.00 
    4   10    4     -0.02      0.00 
    4   10    5     -0.42      0.00 
    4   10    6      2.93      0.00 
    4   10    7     -1.12      0.00 
    4   10    8      1.76      0.00 
    4   10    9     -2.51      0.00 
    4   10   10      1.76      0.00 
    4   10   11      3.02      0.00 
    4   10   12      0.61      0.00 
    4   10   13     -0.09      0.00 
    4   10   14     -0.33      0.00 
    4   10   15     -0.79      0.00 
    4   10   16     -1.68      0.00 
    4   10   17      3.19      0.00 
    4   10   18      1.67      0.00 
    4   10   19      0.35      0.00 
    4   10   20      0.50      0.00 
    4   10   21     -1.00      0.00 
    4   10   22      3.16      0.00 
    5   10    0      0.99      0.00 
    5   10    1      2.75      0.00 
    5   10    2     -1.03      0.00 
    5   10    3      1.13      0.00 
    5   10    4     -0.11      0.00 
    5   10    5      2.15      0.00 
    5   10    6      1.07      0.00 
    5   10    7      1.03      0.00 
    5   10    8     -1.06      0.00 
    5   10    9     -0.70      0.00 
    5   10   10      1.02      0.00 
    5   10   11      0.12      0.00 
    5   10   12      0.12      0.00 
    5   10   13     -1.49      0.00 
    5   10   14      0.44      0.00 
    5   10   15      2.51      0.00 
    5   10   16      0.58      0.00 
    5   10   17     -0.58      0.00 
    5   10   18      0.06      0.00 
    5   10   19      1.26      0.00 
    5   10   20     -1.51      0.00 
    5   10   21      1.66      0.00 
    6   10    0      5.22      0.00 
    6   10    1      3.74      0.00 
    6   10    2      2.08      0.00 
    6   10    3     -1.40      0.00 
    6   10    4      1.88      0.00 
    6   10    5      1.23      0.00 
    6   10    6      0.92      0.00 
    6   10    7     -0.57      0.00 
    6   10    8      0.59      0.00 
    6   10    9      0.50      0.00 
    6   10   10      0.65      0.00 
    6   10   11     -0.46      0.00 
    6   10   12      0.11      0.00 
    6   10   13     -1.76      0.00 
    6   10   14     -2.27      0.00 
    6   10   15      1.35      0.00 
    6   10   16     -3.86      0.00 
    6   10   17      1.94      0.00 
    6   10   18      1.00      0.00 
    6   10   19      0.96      0.00 
    6   10   20      0.03      0.00 
    6   10   21      1.68      0.00 
    7   10    0     -6.11      0.00 
    7   10    1      0.83      0.00 
    7   10    2      0.78      0.00 
    7   10    3      0.04      0.00 
    7   10    4      0.24      0.00 
    7   10    5     -1.04      0.00 
    7   10    6      0.84      0.00 
    7   10    7     -4.39      0.00 
    7   10    8      1.59      0.00 
    7   10    9     -3.09      0.00 
    7   10   10      1.19      0.00 
    7   10   11     -0.66      0.00 
    7   10   12      1.34      0.00 
    7   10   13     -0.35      0.00 
    7   10   14     -0.22      0.00 
    7   10   15     -0.17      0.00 
    7   10   16      3.96      0.00 
    7   10   17     -0.82      0.00 
    7   10   18      1.58      0.00 
    7   10   19      0.25      0.00 
    7   10   20      1.01      0.00 
    8   10    0      1.76      0.00 
    8   10    1      0.77      0.00 
    8   10    2     -0.50      0.00 
    8   10    3     -1.11      0.00 
    8   10    4     -1.05      0.00 
    8   10    5      1.27      0.00 
    8   10    6      1.51      0.00 
    8   10    7     -0.66      0.00 
    8   10    8     -1.16      0.00 
    8   10    9     -1.92      0.00 
    8   10   10     -0.49      0.00 
    8   10   11     -0.51      0.00 
    8   10   12     -0.09      0.00 
    8   10   13      0.15      0.00 
    8   10   14     -0.96      0.00 
    8   10   15      0.11      0.00 
    8   10   16     -0.61      0.00 
    8   10   17     -0.49      0.00 
    8   10   18     -0.81      0.00 
    8   10   19      1.56      0.00 
    8   10   20     -0.06      0.00 
    9   10    0      0.20      0.00 
    9   10    1     -0.84      0.00 
    9   10    2     -0.71      0.00 
    9   10    3      5.54      0.00 
    9   10    4     -0.52      0.00 
    9   10    5      0.17      0.00 
    9   10    6      0.61      0.00 
    9   10    7     -0.30      0.00 
    9   10    8     -0.83      0.00 
    9   10    9     -0.69      0.00 
    9   10   10     -0.68      0.00 
    9   10   11      1.42      0.00 
    9   10   12      0.13      0.00 
    9   10   13     -0.17      0.00 
    9   10   14      0.68      0.00 
    9   10   15      0.25      0.00 
    9   10   16      0.22      0.00 
    9   10   17      0.30      0.00 
    9   10   18      0.18      0.00 
    9   10   19     -1.04      0.00 
   10   10    0     -0.77      0.00 
   10   10    1     -0.91      0.00 
   10   10    2      0.28      0.00 
   10   10    3      0.85      0.00 
   10   10    4     -1.65      0.00 
   10   10    5     -1.63      0.00 
   10   10    6     -0.44      0.00 
   10   10    7      0.51      0.00 
   10   10    8     -0.40      0.00 
   10   10    9     -0.41      0.00 
   10   10   10      1.23      0.00 
   10   10   11      2.77      0.00 
   10   10   12     -0.15      0.00 
   10   10   13     -4.58      0.00 
   10   10   14     -0.70      0.00 
   10   10   15      1.59      0.00 
   10   10   16     -1.60      0.00 
   10   10   17      0.17      0.00 
   10   10   18     -0.08      0.00 
    0   11    0      4.23      0.00 
    0   11    1      3.34      0.00 
    0   11    2     -1.87      0.00 
    0   11    3     -3.66      0.00 
    0   11    4     16.86      0.00 
    0   11    5      1.55      0.00 
    0   11    6     -0.56      0.00 
    0   11    7     -3.43      0.00 
    0   11    8      0.45      0.00 
    0   11    9      0.50      0.00 
    0   11   10     -0.91      0.00 
    0   11   11      3.19      0.00 
    0   11   12     -1.18      0.00 
    0   11   13     -0.95      0.00 
    0   11   14      1.03      0.00 
    0   11   15      1.80      0.00 
    0   11   16      1.13      0.00 
    0   11   17      1.59      0.00 
    0   11   18     -1.18      0.00 
    0   11   19     -0.91      0.00 
    0   11   20      0.55      0.00 
    0   11   21     -4.26      0.00 
    1   11    0      5.07      0.00 
    1   11    1      1.55      0.00 
    1   11    2     -2.59      0.00 
    1   11    3     -4.66      0.00 
    1   11    4      1.85      0.00 
    1   11    5      6.88      0.00 
    1   11    6     -0.20      0.00 
    1   11    7      0.04      0.00 
    1   11    8     -1.33      0.00 
    1   11    9     -0.38      0.00 
    1   11   10      1.05      0.00 
    1   11   11      1.00      0.00 
    1   11   12      2.60      0.00 
    1   11   13     -1.42      0.00 
    1   11   14     -0.07      0.00 
    1   11   15     -0.23      0.00 
    1   11   16      1.62      0.00 
    1   11   17     -0.94      0.00 
    1   11   18      2.07      0.00 
    1   11   19      1.98      0.00 
    1   11   20      1.69      0.00 
    1   11   21      0.22      0.00 
    1   11   22      4.01      0.00 
    2   11    0     -1.16      0.00 
    2   11    1      2.00      0.00 
    2   11    2     -0.58      0.00 
    2   11    3      0.35      0.00 
    2   11    4      2.39      0.00 
    2   11    5      3.02      0.00 
    2   11    6      0.19      0.00 
    2   11    7      0.24      0.00 
    2   11    8      0.25      0.00 
    2   11    9     -0.33      0.00 
    2   11   10      0.15      0.00 
    2   11   11      0.02      0.00 
    2   11   12     -0.41      0.00 
    2   11   13     -1.56      0.00 
    2   11   14     -1.08      0.00 
    2   11   15     -0.45      0.00 
    2   11   16     -1.73      0.00 
    2   11   17      2.43      0.00 
    2   11   18     -1.06      0.00 
    2   11   19      1.02      0.00 
    2   11   20     -0.47      0.00 
    2   11   21      0.29      0.00 
    2   11   22     -4.09      0.00 
    3   11    0      2.99      0.00 
    3   11    1     -0.26      0.00 
    3   11    2      1.85      0.00 
    3   11    3     -0.63      0.00 
    3   11    4      0.69      0.00 
    3   11    5      2.39      0.00 
    3   11    6      2.63      0.00 
    3   11    7     -0.48      0.00 
    3   11    8     -1.13      0.00 
    3   11    9     -0.90      0.00 
    3   11   10      0.12      0.00 
    3   11   11      1.31      0.00 
    3   11   12      1.57      0.00 
    3   11   13      0.79      0.00 
    3   11   14     -2.41      0.00 
    3   11   15      2.73      0.00 
    3   11   16     -0.15      0.00 
    3   11   17     -0.46      0.00 
    3   11   18     -1.67      0.00 
    3   11   19      0.51      0.00 
    3   11   20     -0.87      0.00 
    3   11   21     -1.88      0.00 
    4   11    0     -1.43      0.00 
    4   11    1      3.56      0.00 
    4   11    2     -1.53      0.00 
    4   11    3     -0.87      0.00 
    4   11    4     -1.24      0.00 
    4   11    5     -0.13      0.00 
    4   11    6      1.22      0.00 
    4   11    7     -2.98      0.00 
    4   11    8     -0.89      0.00 
    4   11    9     -2.78      0.00 
    4   11   10     -0.07      0.00 
    4   11   11      0.27      0.00 
    4   11   12     -1.93      0.00 
    4   11   13     -2.36      0.00 
    4   11   14      0.38      0.00 
    4   11   15     -0.80      0.00 
    4   11   16      1.90      0.00 
    4   11   17      2.16      0.00 
    4   11   18     -1.63      0.00 
    4   11   19     -0.90      0.00 
    4   11   20      1.60      0.00 
    4   11   21      0.51      0.00 
    5   11    0     -0.49      0.00 
    5   11    1      0.05      0.00 
    5   11    2     -0.88      0.00 
    5   11    3     -1.14      0.00 
    5   11    4     -0.86      0.00 
    5   11    5      2.36      0.00 
    5   11    6     -0.78      0.00 
    5   11    7     -0.47      0.00 
    5   11    8     -2.72      0.00 
    5   11    9     -0.54      0.00 
    5   11   10      2.44      0.00 
    5   11   11      1.66      0.00 
    5   11   12      0.66      0.00 
    5   11   13     -1.16      0.00 
    5   11   14      0.35      0.00 
    5   11   15      0.48      0.00 
    5   11   16      0.05      0.00 
    5   11   17     -1.79      0.00 
    5   11   18      1.95      0.00 
    5   11   19     -0.09      0.00 
    5   11   20     -1.10      0.00 
    5   11   21      0.86      0.00 
    6   11    0      0.26      0.00 
    6   11    1      1.18      0.00 
    6   11    2     -1.18      0.00 
    6   11    3     -0.28      0.00 
    6   11    4      1.51      0.00 
    6   11    5      0.16      0.00 
    6   11    6      0.98      0.00 
    6   11    7     -0.76      0.00 
    6   11    8     -2.85      0.00 
    6   11    9      0.13      0.00 
    6   11   10     -0.48      0.00 
    6   11   11      1.21      0.00 
    6   11   12     -1.16      0.00 
    6   11   13      0.58      0.00 
    6   11   14      1.90      0.00 
    6   11   15     -1.50      0.00 
    6   11   16     -3.33      0.00 
    6   11   17      2.22      0.00 
    6   11   18      0.10      0.00 
    6   11   19     -0.89      0.00 
    6   11   20     -0.51      0.00 
    7   11    0      2.47      0.00 
    7   11    1      1.60      0.00 
    7   11    2     -3.31      0.00 
    7   11    3     -1.11      0.00 
    7   11    4     -1.62      0.00 
    7   11    5      1.20      0.00 
    7   11    6      1.28      0.00 
    7   11    7     -1.96      0.00 
    7   11    8      1.40      0.00 
    7   11    9     -1.91      0.00 
    7   11   10      1.56      0.00 
    7   11   11      1.97      0.00 
    7   11   12     -0.45      0.00 
    7   11   13      1.42      0.00 
    7   11   14      1.10      0.00 
    7   11   15     -1.13      0.00 
    7   11   16      1.29      0.00 
    7   11   17      0.49      0.00 
    7   11   18      1.48      0.00 
    7   11   19     -1.71      0.00 
    7   11   20      0.89      0.00 
    8   11    0      0.04      0.00 
    8   11    1      1.32      0.00 
    8   11    2     -0.58      0.00 
    8   11    3     -2.30      0.00 
    8   11    4     -0.42      0.00 
    8   11    5      0.52      0.00 
    8   11    6     -0.92      0.00 
    8   11    7      0.53      0.00 
    8   11    8     -0.09      0.00 
    8   11    9     -0.33      0.00 
    8   11   10      0.20      0.00 
    8   11   11      1.17      0.00 
    8   11   12      0.69      0.00 
    8   11   13     -0.63      0.00 
    8   11   14     -0.14      0.00 
    8   11   15      0.43      0.00 
    8   11   16     -1.02      0.00 
    8   11   17      0.00      0.00 
    8   11   18     -0.69      0.00 
    8   11   19      2.44      0.00 
    9   11    0      2.51      0.00 
    9   11    1      0.40      0.00 
    9   11    2     -1.55      0.00 
    9   11    3     -1.27      0.00 
    9   11    4     -0.01      0.00 
    9   11    5     -0.54      0.00 
    9   11    6      0.34      0.00 
    9   11    7      0.81      0.00 
    9   11    8     -1.30      0.00 
    9   11    9      0.31      0.00 
    9   11   10     -0.34      0.00 
    9   11   11      0.07      0.00 
    9   11   12      2.38      0.00 
    9   11   13     -1.77      0.00 
    9   11   14     -1.36      0.00 
    9   11   15     -0.01      0.00 
    9   11   16      0.77      0.00 
    9   11   17      0.06      0.00 
    9   11   18     -1.55      0.00 
    9   11   19     -0.39      0.00 
   10   11    0     -0.50      0.00 
   10   11    1     -1.24      0.00 
   10   11    2      0.18      0.00 
   10   11    3     -0.70      0.00 
   10   11    4     -0.56      0.00 
   10   11    5     -0.28      0.00 
   10   11    6      1.40      0.00 
   10   11    7      0.30      0.00 
   10   11    8     -0.86      0.00 
   10   11    9     -0.15      0.00 
   10   11   10     -0.35      0.00 
   10   11   11     -1.36      0.00 
   10   11   12      2.28      0.00 
   10   11   13     -0.86      0.00 
   10   11   14      2.23      0.00 
   10   11   15      0.69      0.00 
   10   11   16     -0.35      0.00 
   10   11   17      0.48      0.00 
   10   11   18     -0.10      0.00 
   11   11    0     -1.58      0.00 
   11   11    1     -1.11      0.00 
   11   11    2     -0.33      0.00 
   11   11    3      0.12      0.00 
   11   11    4     -2.05      0.00 
   11   11    5     -0.09      0.00 
   11   11    6      1.45      0.00 
   11   11    7     -1.40      0.00 
   11   11    8     -1.13      0.00 
   11   11    9      0.29      0.00 
   11   11   10     -0.82      0.00 
   11   11   11     -0.20      0.00 
   11   11   12     -0.71      0.00 
   11   11   13     -2.68      0.00 
   11   11   14      1.37      0.00 
   11   11   15     -2.02      0.00 
   11   11   16     -0.62      0.00 
   11   11   17     -1.20      0.00 
    0   12    0      7.70      0.00 
    0   12    1      1.15      0.00 
    0   12    2     -0.71      0.00 
    0   12    3     -1.28      0.00 
    0   12    4     -1.36      0.00 
    0   12    5     -2.39      0.00 
    0   12    6      3.37      0.00 
    0   12    7     -2.00      0.00 
    0   12    8     -1.26      0.00 
    0   12    9     -2.39      0.00 
    0   12   10      1.54      0.00 
    0   12   11      1.41      0.00 
    0   12   12      1.52      0.00 
    0   12   13      0.94      0.00 
    0   12   14     -2.67      0.00 
    0   12   15      1.34      0.00 
    0   12   16      0.47      0.00 
    0   12   17      0.29      0.00 
    0   12   18     -3.49      0.00 
    0   12   19      1.25      0.00 
    0   12   20     -0.46      0.00 
    0   12   21     -1.20      0.00 
    1   12    0     -0.26      0.00 
    1   12    1      1.40      0.00 
    1   12    2      1.09      0.00 
    1   12    3     -2.25      0.00 
    1   12    4     -1.61      0.00 
    1   12    5     -0.28      0.00 
    1   12    6     -1.01      0.00 
    1   12    7     -0.17      0.00 
    1   12    8     -1.70      0.00 
    1   12    9      1.88      0.00 
    1   12   10     -2.22      0.00 
    1   12   11     -0.61      0.00 
    1   12   12     -0.60      0.00 
    1   12   13      0.08      0.00 
    1   12   14     -0.37      0.00 
    1   12   15     -1.49      0.00 
    1   12   16      0.39      0.00 
    1   12   17      0.28      0.00 
    1   12   18      0.42      0.00 
    1   12   19     -2.14      0.00 
    1   12   20     -0.87      0.00 
    1   12   21      0.31      0.00 
    2   12    0      1.15      0.00 
    2   12    1      1.07      0.00 
    2   12    2     -3.20      0.00 
    2   12    3     -0.51      0.00 
    2   12    4     -0.57      0.00 
    2   12    5      1.30      0.00 
    2   12    6      0.42      0.00 
    2   12    7      0.03      0.00 
    2   12    8      0.31      0.00 
    2   12    9     -1.00      0.00 
    2   12   10      1.40      0.00 
    2   12   11     -0.28      0.00 
    2   12   12      1.28      0.00 
    2   12   13      0.31      0.00 
    2   12   14      0.87      0.00 
    2   12   15      1.13      0.00 
    2   12   16      0.53      0.00 
    2   12   17     -1.36      0.00 
    2   12   18      0.46      0.00 
    2   12   19     -0.47      0.00 
    2   12   20      0.51      0.00 
    2   12   21     -1.69      0.00 
    3   12    0      1.38      0.00 
    3   12    1      0.14      0.00 
    3   12    2      0.15      0.00 
    3   12    3     -3.28      0.00 
    3   12    4      2.07      0.00 
    3   12    5     -0.27      0.00 
    3   12    6      2.37      0.00 
    3   12    7      0.57      0.00 
    3   12    8      0.11      0.00 
    3   12    9      1.54      0.00 
    3   12   10     -1.64      0.00 
    3   12   11      0.03      0.00 
    3   12   12     -0.08      0.00 
    3   12   13     -0.58      0.00 
    3   12   14     -0.61      0.00 
    3   12   15     -0.69      0.00 
    3   12   16     -0.97      0.00 
    3   12   17      1.04      0.00 
    3   12   18     -0.08      0.00 
    3   12   19     -1.30      0.00 
    3   12   20      1.00      0.00 
    3   12   21     -0.20      0.00 
    4   12    0      0.35      0.00 
    4   12    1      1.73      0.00 
    4   12    2     -2.17      0.00 
    4   12    3      0.60      0.00 
    4   12    4     -1.52      0.00 
    4   12    5      3.14      0.00 
    4   12    6      1.86      0.00 
    4   12    7      0.69      0.00 
    4   12    8      0.25      0.00 
    4   12    9      0.31      0.00 
    4   12   10      0.36      0.00 
    4   12   11      1.82      0.00 
    4   12   12      0.48      0.00 
    4   12   13     -1.59      0.00 
    4   12   14     -0.16      0.00 
    4   12   15     -2.25      0.00 
    4   12   16      2.20      0.00 
    4   12   17      0.42      0.00 
    4   12   18      0.52      0.00 
    4   12   19     -0.69      0.00 
    4   12   20     -1.04      0.00 
    5   12    0      1.44      0.00 
    5   12    1     -3.01      0.00 
    5   12    2     -1.31      0.00 
    5   12    3     -1.83      0.00 
    5   12    4      0.36      0.00 
    5   12    5      0.91      0.00 
    5   12    6     -0.70      0.00 
    5   12    7     -0.49      0.00 
    5   12    8      0.36      0.00 
    5   12    9     -0.17      0.00 
    5   12   10     -2.46      0.00 
    5   12   11      0.86      0.00 
    5   12   12      1.89      0.00 
    5   12   13      1.11      0.00 
    5   12   14     -1.55      0.00 
    5   12   15     -0.93      0.00 
    5   12   16      0.71      0.00 
    5   12   17     -0.11      0.00 
    5   12   18     -0.09      0.00 
    5   12   19     -0.82      0.00 
    5   12   20     -0.90      0.00 
    6   12    0     -0.02      0.00 
    6   12    1     -0.48      0.00 
    6   12    2     -3.21      0.00 
    6   12    3     -1.63      0.00 
    6   12    4      0.85      0.00 
    6   12    5     -1.28      0.00 
    6   12    6     -3.85      0.00 
    6   12    7      1.15      0.00 
    6   12    8      0.45      0.00 
    6   12    9      1.40      0.00 
    6   12   10      0.07      0.00 
    6   12   11     -0.01      0.00 
    6   12   12     -0.01      0.00 
    6   12   13      2.18      0.00 
    6   12   14     -3.57      0.00 
    6   12   15      0.08      0.00 
    6   12   16      2.17      0.00 
    6   12   17     -0.71      0.00 
    6   12   18     -2.13      0.00 
    6   12   19      0.29      0.00 
    6   12   20      0.81      0.00 
    7   12    0      0.12      0.00 
    7   12    1      0.01      0.00 
    7   12    2     -1.58      0.00 
    7   12    3     -0.22      0.00 
    7   12    4     -0.01      0.00 
    7   12    5      3.75      0.00 
    7   12    6      0.73      0.00 
    7   12    7      2.55      0.00 
    7   12    8     -0.06      0.00 
    7   12    9      1.07      0.00 
    7   12   10     -0.62      0.00 
    7   12   11     -3.24      0.00 
    7   12   12      1.88      0.00 
    7   12   13      0.51      0.00 
    7   12   14     -2.38      0.00 
    7   12   15      0.55      0.00 
    7   12   16     -0.15      0.00 
    7   12   17      0.53      0.00 
    7   12   18      0.90      0.00 
    7   12   19     -2.21      0.00 
    8   12    0      0.60      0.00 
    8   12    1     -1.11      0.00 
    8   12    2      1.28      0.00 
    8   12    3     -0.41      0.00 
    8   12    4     -0.49      0.00 
    8   12    5      0.94      0.00 
    8   12    6      2.17      0.00 
    8   12    7      0.64      0.00 
    8   12    8     -0.49      0.00 
    8   12    9      0.81      0.00 
    8   12   10     -0.22      0.00 
    8   12   11     -1.48      0.00 
    8   12   12     -0.19      0.00 
    8   12   13      0.28      0.00 
    8   12   14      1.07      0.00 
    8   12   15     -0.03      0.00 
    8   12   16      0.81      0.00 
    8   12   17     -0.01      0.00 
    8   12   18     -0.20      0.00 
    8   12   19      0.32      0.00 
    9   12    0      0.27      0.00 
    9   12    1      0.54      0.00 
    9   12    2      1.56      0.00 
    9   12    3     -0.72      0.00 
    9   12    4      0.96      0.00 
    9   12    5     -1.32      0.00 
    9   12    6      1.57      0.00 
    9   12    7      0.16      0.00 
    9   12    8     -0.06      0.00 
    9   12    9      0.09      0.00 
    9   12   10      0.87      0.00 
    9   12   11      0.59      0.00 
    9   12   12      1.75      0.00 
    9   12   13      0.60      0.00 
    9   12   14     -0.12      0.00 
    9   12   15     -1.14      0.00 
    9   12   16     -0.66      0.00 
    9   12   17      0.15      0.00 
    9   12   18      0.57      0.00 
   10   12    0      1.86      0.00 
   10   12    1      1.34      0.00 
   10   12    2     -0.54      0.00 
   10   12    3      0.87      0.00 
   10   12    4      0.14      0.00 
   10   12    5     -1.21      0.00 
   10   12    6      1.82      0.00 
   10   12    7      0.26      0.00 
   10   12    8      0.54      0.00 
   10   12    9     -0.91      0.00 
   10   12   10     -0.16      0.00 
   10   12   11      1.19      0.00 
   10   12   12     -1.06      0.00 
   10   12   13     -2.62      0.00 
   10   12   14     -0.19      0.00 
   10   12   15      1.10      0.00 
   10   12   16      0.59      0.00 
   10   12   17     -0.20      0.00 
   11   12    0     -0.02      0.00 
   11   12    1      1.17      0.00 
   11   12    2      0.34      0.00 
   11   12    3      0.06      0.00 
   11   12    4     -0.64      0.00 
   11   12    5      1.12      0.00 
   11   12    6      2.02      0.00 
   11   12    7      0.66      0.00 
   11   12    8      0.60      0.00 
   11   12    9     -0.64      0.00 
   11   12   10     -1.38      0.00 
   11   12   11      2.86      0.00 
   11   12   12      0.86      0.00 
   11   12   13     -0.66      0.00 
   11   12   14      1.67      0.00 
   11   12   15      1.18      0.00 
   11   12   16     -0.50      0.00 
   11   12   17     -1.49      0.00 
   12   12    0     -2.17      0.00 
   12   12    1      0.76      0.00 
   12   12    2      0.46      0.00 
   12   12    3     -1.76      0.00 
   12   12    4     -0.89      0.00 
   12   12    5      0.46      0.00 
   12   12    6      0.50      0.00 
   12   12    7      0.00      0.00 
   12   12    8      0.49      0.00 
   12   12    9      0.42      0.00 
   12   12   10      1.53      0.00 
   12   12   11      0.32      0.00 
   12   12   12     -0.61      0.00 
   12   12   13      0.01      0.00 
   12   12   14      0.05      0.00 
   12   12   15      1.53      0.00 
   12   12   16      0.89      0.00 
    0   13    0     -0.48      0.00 
    0   13    1     -0.25      0.00 
    0   13    2    -12.31      0.00 
    0   13    3     -1.91      0.00 
    0   13    4      1.94      0.00 
    0   13    5      3.00      0.00 
    0   13    6      1.39      0.00 
    0   13    7      2.03      0.00 
    0   13    8      0.12      0.00 
    0   13    9     -0.21      0.00 
    0   13   10      2.87      0.00 
    0   13   11     -2.20      0.00 
    0   13   12     -0.35      0.00 
    0   13   13     -1.09      0.00 
    0   13   14     -0.10      0.00 
    0   13   15     -1.03      0.00 
    0   13   16      2.54      0.00 
    0   13   17      0.53      0.00 
    0   13   18      0.06      0.00 
    0   13   19      3.99      0.00 
    0   13   20     -2.14      0.00 
    1   13    0      0.90      0.00 
    1   13    1      2.21      0.00 
    1   13    2     -2.75      0.00 
    1   13    3      0.61      0.00 
    1   13    4      1.10      0.00 
    1   13    5      0.93      0.00 
    1   13    6     -1.42      0.00 
    1   13    7      0.23      0.00 
    1   13    8      0.02      0.00 
    1   13    9      1.89      0.00 
    1   13   10      0.07      0.00 
    1   13   11      0.19      0.00 
    1   13   12     -1.09      0.00 
    1   13   13      0.33      0.00 
    1   13   14      0.31      0.00 
    1   13   15     -0.33      0.00 
    1   13   16     -0.84      0.00 
    1   13   17      1.18      0.00 
    1   13   18     -0.68      0.00 
    1   13   19     -1.27      0.00 
    1   13   20      0.30      0.00 
    2   13    0      1.53      0.00 
    2   13    1     -1.26      0.00 
    2   13    2     -4.61      0.00 
    2   13    3     -0.88      0.00 
    2   13    4     -1.26      0.00 
    2   13    5     -0.80      0.00 
    2   13    6     -1.86      0.00 
    2   13    7     -0.79      0.00 
    2   13    8     -1.51      0.00 
    2   13    9      0.46      0.00 
    2   13   10     -3.01      0.00 
    2   13   11     -0.04      0.00 
    2   13   12      0.15      0.00 
    2   13   13      0.43      0.00 
    2   13   14      0.31      0.00 
    2   13   15     -2.36      0.00 
    2   13   16     -0.73      0.00 
    2   13   17     -0.27      0.00 
    2   13   18      2.52      0.00 
    2   13   19      1.46      0.00 
    2   13   20     -0.14      0.00 
    3   13    0      1.04      0.00 
    3   13    1     -0.27      0.00 
    3   13    2     -1.83      0.00 
    3   13    3     -1.69      0.00 
    3   13    4     -0.27      0.00 
    3   13    5     -1.50      0.00 
    3   13    6     -0.03      0.00 
    3   13    7     -0.08      0.00 
    3   13    8      0.56      0.00 
    3   13    9     -1.20      0.00 
    3   13   10      0.92      0.00 
    3   13   11      0.83      0.00 
    3   13   12      0.82      0.00 
    3   13   13      1.63      0.00 
    3   13   14      0.85      0.00 
    3   13   15     -2.86      0.00 
    3   13   16     -0.42      0.00 
    3   13   17      1.06      0.00 
    3   13   18     -1.58      0.00 
    3   13   19     -2.31      0.00 
    3   13   20      2.73      0.00 
    4   13    0     -0.35      0.00 
    4   13    1      0.74      0.00 
    4   13    2     -0.06      0.00 
    4   13    3     -1.25      0.00 
    4   13    4      0.01      0.00 
    4   13    5      1.40      0.00 
    4   13    6     -1.30      0.00 
    4   13    7      2.12      0.00 
    4   13    8     -0.72      0.00 
    4   13    9     -0.77      0.00 
    4   13   10      1.02      0.00 
    4   13   11     -0.09      0.00 
    4   13   12      0.94      0.00 
    4   13   13     -0.28      0.00 
    4   13   14     -0.65      0.00 
    4   13   15      2.23      0.00 
    4   13   16      3.09      0.00 
    4   13   17     -4.07      0.00 
    4   13   18      1.24      0.00 
    4   13   19     -0.80      0.00 
    4   13   20     -0.80      0.00 
    5   13    0      1.25      0.00 
    5   13    1     -0.84      0.00 
    5   13    2      2.60      0.00 
    5   13    3     -1.81      0.00 
    5   13    4      2.20      0.00 
    5   13    5     -0.38      0.00 
    5   13    6      2.20      0.00 
    5   13    7     -0.09      0.00 
    5   13    8     -0.58      0.00 
    5   13    9      0.42      0.00 
    5   13   10     -1.79      0.00 
    5   13   11     -0.30      0.00 
    5   13   12     -0.47      0.00 
    5   13   13     -0.37      0.00 
    5   13   14     -1.50      0.00 
    5   13   15      1.22      0.00 
    5   13   16      1.44      0.00 
    5   13   17     -0.31      0.00 
    5   13   18      0.54      0.00 
    5   13   19     -0.90      0.00 
    6   13    0      1.05      0.00 
    6   13    1      1.56      0.00 
    6   13    2      1.44      0.00 
    6   13    3     -0.36      0.00 
    6   13    4     -0.09      0.00 
    6   13    5     -0.73      0.00 
    6   13    6     -0.26      0.00 
    6   13    7     -1.25      0.00 
    6   13    8      0.19      0.00 
    6   13    9      0.61      0.00 
    6   13   10      2.13      0.00 
    6   13   11     -2.81      0.00 
    6   13   12      0.09      0.00 
    6   13   13      3.30      0.00 
    6   13   14     -2.54      0.00 
    6   13   15     -0.64      0.00 
    6   13   16     -0.25      0.00 
    6   13   17     -1.23      0.00 
    6   13   18     -0.97      0.00 
    6   13   19     -0.63      0.00 
    7   13    0      0.17      0.00 
    7   13    1      1.27      0.00 
    7   13    2     -0.06      0.00 
    7   13    3      0.59      0.00 
    7   13    4     -0.25      0.00 
    7   13    5      0.10      0.00 
    7   13    6      0.16      0.00 
    7   13    7     -0.47      0.00 
    7   13    8     -1.10      0.00 
    7   13    9      1.01      0.00 
    7   13   10     -0.50      0.00 
    7   13   11     -6.32      0.00 
    7   13   12     -0.37      0.00 
    7   13   13      0.14      0.00 
    7   13   14      0.58      0.00 
    7   13   15      1.16      0.00 
    7   13   16     -0.02      0.00 
    7   13   17      1.70      0.00 
    7   13   18      0.45      0.00 
    8   13    0     -0.84      0.00 
    8   13    1     -1.49      0.00 
    8   13    2     -0.44      0.00 
    8   13    3     -0.26      0.00 
    8   13    4      0.42      0.00 
    8   13    5     -1.68      0.00 
    8   13    6     -0.91      0.00 
    8   13    7     -0.75      0.00 
    8   13    8      0.03      0.00 
    8   13    9      0.16      0.00 
    8   13   10      1.63      0.00 
    8   13   11     -0.45      0.00 
    8   13   12      2.07      0.00 
    8   13   13      0.56      0.00 
    8   13   14     -2.04      0.00 
    8   13   15      0.09      0.00 
    8   13   16     -0.34      0.00 
    8   13   17     -0.95      0.00 
    8   13   18     -1.30      0.00 
    9   13    0     -2.30      0.00 
    9   13    1      0.04      0.00 
    9   13    2      1.33      0.00 
    9   13    3     -0.01      0.00 
    9   13    4      0.26      0.00 
    9   13    5      0.67      0.00 
    9   13    6     -3.24      0.00 
    9   13    7      0.10      0.00 
    9   13    8     -0.25      0.00 
    9   13    9     -0.86      0.00 
    9   13   10     -0.52      0.00 
    9   13   11     -2.56      0.00 
    9   13   12      0.50      0.00 
    9   13   13      0.96      0.00 
    9   13   14     -2.92      0.00 
    9   13   15      1.43      0.00 
    9   13   16      0.68      0.00 
    9   13   17      0.98      0.00 
   10   13    0      0.17      0.00 
   10   13    1      0.53      0.00 
   10   13    2     -0.02      0.00 
   10   13    3      0.93      0.00 
   10   13    4      0.24      0.00 
   10   13    5      1.24      0.00 
   10   13    6     -0.85      0.00 
   10   13    7     -0.23      0.00 
   10   13    8     -0.73      0.00 
   10   13    9     -0.20      0.00 
   10   13   10      0.30      0.00 
   10   13   11     -0.68      0.00 
   10   13   12     -1.14      0.00 
   10   13   13      0.63      0.00 
   10   13   14     -0.81      0.00 
   10   13   15      0.51      0.00 
   10   13   16      0.46      0.00 
   10   13   17      1.28      0.00 
   11   13    0     -1.75      0.00 
   11   13    1     -0.83      0.00 
   11   13    2      0.23      0.00 
   11   13    3     -0.48      0.00 
   11   13    4     -0.50      0.00 
   11   13    5     -0.23      0.00 
   11   13    6     -1.64      0.00 
   11   13    7     -2.13      0.00 
   11   13    8      0.40      0.00 
   11   13    9      0.46      0.00 
   11   13   10      0.31      0.00 
   11   13   11     -0.01      0.00 
   11   13   12     -1.63      0.00 
   11   13   13     -0.28      0.00 
   11   13   14      1.22      0.00 
   11   13   15     -0.57      0.00 
   11   13   16      0.83      0.00 
   12   13    0      0.01      0.00 
   12   13    1      2.19      0.00 
   12   13    2      0.03      0.00 
   12   13    3     -1.26      0.00 
   12   13    4     -0.54      0.00 
   12   13    5      0.62      0.00 
   12   13    6      1.00      0.00 
   12   13    7     -2.81      0.00 
   12   13    8      0.83      0.00 
   12   13    9     -1.02      0.00 
   12   13   10      0.31      0.00 
   12   13   11      0.17      0.00 
   12   13   12     -0.75      0.00 
   12   13   13      1.27      0.00 
   12   13   14     -1.09      0.00 
   12   13   15     -2.25      0.00 
   13   13    0     -0.77      0.00 
   13   13    1      0.43      0.00 
   13   13    2     -1.09      0.00 
   13   13    3      0.63      0.00 
   13   13    4      0.47      0.00 
   13   13    5      1.63      0.00 
   13   13    6      0.31      0.00 
   13   13    7     -4.85      0.00 
   13   13    8      2.55      0.00 
   13   13    9     -1.12      0.00 
   13   13   10     -0.78      0.00 
   13   13   11     -0.24      0.00 
   13   13   12      0.41      0.00 
   13   13   13     -0.29      0.00 
   13   13   14     -0.99      0.00 
    0   14    0      3.59      0.00 
    0   14    1      2.01      0.00 
    0   14    2     -2.46      0.00 
    0   14    3      0.31      0.00 
    0   14    4      1.93      0.00 
    0   14    5      1.69      0.00 
    0   14    6      3.23      0.00 
    0   14    7     -5.43      0.00 
    0   14    8     -2.18      0.00 
    0   14    9     -0.92      0.00 
    0   14   10     -0.79      0.00 
    0   14   11      4.34      0.00 
    0   14   12     -0.42      0.00 
    0   14   13     -0.26      0.00 
    0   14   14      0.13      0.00 
    0   14   15     -3.95      0.00 
    0   14   16      0.02      0.00 
    0   14   17      1.07      0.00 
    0   14   18     -0.45      0.00 
    0   14   19     -1.04      0.00 
    1   14    0      1.99      0.00 
    1   14    1      0.73      0.00 
    1   14    2      0.47      0.00 
    1   14    3     -0.24      0.00 
    1   14    4     -0.36      0.00 
    1   14    5      2.82      0.00 
    1   14    6     -0.14      0.00 
    1   14    7     -0.56      0.00 
    1   14    8      0.17      0.00 
    1   14    9     -0.09      0.00 
    1   14   10      2.68      0.00 
    1   14   11     -0.23      0.00 
    1   14   12     -0.88      0.00 
    1   14   13      0.04      0.00 
    1   14   14     -1.31      0.00 
    1   14   15      3.72      0.00 
    1   14   16     -1.05      0.00 
    1   14   17     -0.81      0.00 
    1   14   18     -1.33      0.00 
    1   14   19      1.71      0.00 
    2   14    0     -0.18      0.00 
    2   14    1      1.95      0.00 
    2   14    2      1.55      0.00 
    2   14    3     -0.01      0.00 
    2   14    4      2.09      0.00 
    2   14    5      0.76      0.00 
    2   14    6      0.20      0.00 
    2   14    7      0.95      0.00 
    2   14    8     -2.24      0.00 
    2   14    9      1.61      0.00 
    2   14   10     -0.35      0.00 
    2   14   11     -0.56      0.00 
    2   14   12     -0.22      0.00 
    2   14   13     -0.02      0.00 
    2   14   14      0.53      0.00 
    2   14   15      2.23      0.00 
    2   14   16     -0.18      0.00 
    2   14   17      2.07      0.00 
    2   14   18      1.61      0.00 
    2   14   19     -2.17      0.00 
    3   14    0      0.67      0.00 
    3   14    1      2.91      0.00 
    3   14    2     -2.01      0.00 
    3   14    3      0.09      0.00 
    3   14    4      0.05      0.00 
    3   14    5      1.44      0.00 
    3   14    6      0.27      0.00 
    3   14    7     -1.36      0.00 
    3   14    8     -0.31      0.00 
    3   14    9     -1.98      0.00 
    3   14   10      6.08      0.00 
    3   14   11     -2.46      0.00 
    3   14   12      0.71      0.00 
    3   14   13     -0.07      0.00 
    3   14   14      0.92      0.00 
    3   14   15      0.90      0.00 
    3   14   16     -2.66      0.00 
    3   14   17     -0.28      0.00 
    3   14   18      0.87      0.00 
    3   14   19      1.02      0.00 
    4   14    0      0.48      0.00 
    4   14    1      0.55      0.00 
    4   14    2      2.20      0.00 
    4   14    3      0.36      0.00 
    4   14    4     -0.18      0.00 
    4   14    5     -1.18      0.00 
    4   14    6      0.10      0.00 
    4   14    7     -0.53      0.00 
    4   14    8     -1.53      0.00 
    4   14    9     -1.20      0.00 
    4   14   10     -2.19      0.00 
    4   14   11     -2.69      0.00 
    4   14   12      0.17      0.00 
    4   14   13     -0.94      0.00 
    4   14   14      0.70      0.00 
    4   14   15      2.70      0.00 
    4   14   16     -0.35      0.00 
    4   14   17      2.45      0.00 
    4   14   18      0.69      0.00 
    4   14   19     -0.52      0.00 
    5   14    0      0.22      0.00 
    5   14    1     -0.19      0.00 
    5   14    2     -0.91      0.00 
    5   14    3     -1.47      0.00 
    5   14    4      1.77      0.00 
    5   14    5     -2.07      0.00 
    5   14    6     -2.02      0.00 
    5   14    7      0.69      0.00 
    5   14    8     -0.53      0.00 
    5   14    9      1.49      0.00 
    5   14   10      1.67      0.00 
    5   14   11      3.90      0.00 
    5   14   12     -0.38      0.00 
    5   14   13     -1.69      0.00 
    5   14   14      0.06      0.00 
    5   14   15     -1.67      0.00 
    5   14   16     -0.07      0.00 
    5   14   17      1.77      0.00 
    5   14   18     -1.20      0.00 
    6   14    0      1.33      0.00 
    6   14    1      1.32      0.00 
    6   14    2     -0.81      0.00 
    6   14    3      1.53      0.00 
    6   14    4      1.10      0.00 
    6   14    5      2.07      0.00 
    6   14    6     -1.85      0.00 
    6   14    7      1.56      0.00 
    6   14    8      0.34      0.00 
    6   14    9     -1.18      0.00 
    6   14   10      0.60      0.00 
    6   14   11     -1.26      0.00 
    6   14   12      1.48      0.00 
    6   14   13      1.50      0.00 
    6   14   14      1.48      0.00 
    6   14   15      0.15      0.00 
    6   14   16     -0.19      0.00 
    6   14   17     -1.12      0.00 
    6   14   18     -0.81      0.00 
    7   14    0      3.12      0.00 
    7   14    1     -0.25      0.00 
    7   14    2      0.19      0.00 
    7   14    3      0.25      0.00 
    7   14    4      0.00      0.00 
    7   14    5      0.99      0.00 
    7   14    6     -0.64      0.00 
    7   14    7     -0.37      0.00 
    7   14    8     -1.27      0.00 
    7   14    9      0.83      0.00 
    7   14   10      1.16      0.00 
    7   14   11      2.60      0.00 
    7   14   12     -0.85      0.00 
    7   14   13     -1.85      0.00 
    7   14   14     -0.37      0.00 
    7   14   15     -1.17      0.00 
    7   14   16      0.38      0.00 
    7   14   17     -0.19      0.00 
    7   14   18      0.37      0.00 
    8   14    0      0.80      0.00 
    8   14    1      0.23      0.00 
    8   14    2      0.62      0.00 
    8   14    3     -1.92      0.00 
    8   14    4      0.64      0.00 
    8   14    5     -0.93      0.00 
    8   14    6      1.83      0.00 
    8   14    7     -0.74      0.00 
    8   14    8     -1.66      0.00 
    8   14    9      0.86      0.00 
    8   14   10      0.58      0.00 
    8   14   11     -0.31      0.00 
    8   14   12     -0.28      0.00 
    8   14   13      1.30      0.00 
    8   14   14      2.41      0.00 
    8   14   15      2.38      0.00 
    8   14   16      0.83      0.00 
    8   14   17      0.26      0.00 
    9   14    0     -0.97      0.00 
    9   14    1     -1.02      0.00 
    9   14    2      0.41      0.00 
    9   14    3      0.07      0.00 
    9   14    4     -1.02      0.00 
    9   14    5     -0.72      0.00 
    9   14    6      0.02      0.00 
    9   14    7      0.00      0.00 
    9   14    8     -0.21      0.00 
    9   14    9      0.23      0.00 
    9   14   10      2.08      0.00 
    9   14   11      1.58      0.00 
    9   14   12      0.26      0.00 
    9   14   13      1.49      0.00 
    9   14   14     -2.76      0.00 
    9   14   15     -3.96      0.00 
    9   14   16     -0.14      0.00 
   10   14    0     -0.93      0.00 
   10   14    1     -0.46      0.00 
   10   14    2     -0.98      0.00 
   10   14    3      0.03      0.00 
   10   14    4     -0.43      0.00 
   10   14    5     -0.43      0.00 
   10   14    6      1.84      0.00 
   10   14    7     -0.06      0.00 
   10   14    8      0.02      0.00 
   10   14    9     -0.79      0.00 
   10   14   10      0.57      0.00 
   10   14   11     -0.52      0.00 
   10   14   12     -0.36      0.00 
   10   14   13      0.24      0.00 
   10   14   14     -0.12      0.00 
   10   14   15      1.56      0.00 
   10   14   16      3.43      0.00 
   11   14    0     -2.32      0.00 
   11   14    1      2.31      0.00 
   11   14    2      0.54      0.00 
   11   14    3      0.60      0.00 
   11   14    4      0.23      0.00 
   11   14    5     -1.38      0.00 
   11   14    6      0.87      0.00 
   11   14    7      1.61      0.00 
   11   14    8      1.73      0.00 
   11   14    9     -0.18      0.00 
   11   14   10      1.34      0.00 
   11   14   11      0.89      0.00 
   11   14   12      0.99      0.00 
   11   14   13     -1.37      0.00 
   11   14   14     -0.71      0.00 
   11   14   15      0.20      0.00 
   12   14    0     -4.19      0.00 
   12   14    1     -0.09      0.00 
   12   14    2      0.59      0.00 
   12   14    3      0.44      0.00 
   12   14    4      0.19      0.00 
   12   14    5      0.19      0.00 
   12   14    6      1.90      0.00 
   12   14    7     -0.19      0.00 
   12   14    8      0.88      0.00 
   12   14    9      0.51      0.00 
   12   14   10     -0.80      0.00 
   12   14   11      0.20      0.00 
   12   14   12     -0.97      0.00 
   12   14   13      1.08      0.00 
   12   14   14     -1.57      0.00 
   13   14    0      0.82      0.00 
   13   14    1      0.35      0.00 
   13   14    2      2.31      0.00 
   13   14    3     -0.65      0.00 
   13   14    4     -0.98      0.00 
   13   14    5     -0.20      0.00 
   13   14    6      0.61      0.00 
   13   14    7     -0.53      0.00 
   13   14    8     -0.63      0.00 
   13   14    9     -1.75      0.00 
   13   14   10     -0.13      0.00 
   13   14   11      0.68      0.00 
   13   14   12      0.64      0.00 
   13   14   13     -0.84      0.00 
   14   14    0      1.16      0.00 
   14   14    1     -1.88      0.00 
   14   14    2     -0.13      0.00 
   14   14    3     -0.46      0.00 
   14   14    4      1.52      0.00 
   14   14    5     -0.30      0.00 
   14   14    6      1.44      0.00 
   14   14    7      1.99      0.00 
   14   14    8     -1.03      0.00 
   14   14    9      0.78      0.00 
   14   14   10      1.33      0.00 
   14   14   11     -0.42      0.00 
    0   15    0      1.81      0.00 
    0   15    1      0.69      0.00 
    0   15    2     -2.17      0.00 
    0   15    3     -1.89      0.00 
    0   15    4      1.90      0.00 
    0   15    5     -0.10      0.00 
    0   15    6      1.55      0.00 
    0   15    7     -0.19      0.00 
    0   15    8     -0.24      0.00 
    0   15    9     -2.51      0.00 
    0   15   10      2.76      0.00 
    0   15   11      2.30      0.00 
    0   15   12     -0.63      0.00 
    0   15   13     -0.70      0.00 
    0   15   14      1.54      0.00 
    0   15   15     -3.46      0.00 
    0   15   16     -3.07      0.00 
    0   15   17      1.15      0.00 
    0   15   18      0.39      0.00 
    1   15    0      1.59      0.00 
    1   15    1      2.69      0.00 
    1   15    2     -1.77      0.00 
    1   15    3     -2.40      0.00 
    1   15    4      0.04      0.00 
    1   15    5      0.21      0.00 
    1   15    6     -2.40      0.00 
    1   15    7      1.03      0.00 
    1   15    8     -2.10      0.00 
    1   15    9     -4.19      0.00 
    1   15   10      0.26      0.00 
    1   15   11     -0.83      0.00 
    1   15   12      2.02      0.00 
    1   15   13     -0.45      0.00 
    1   15   14      0.41      0.00 
    1   15   15      1.26      0.00 
    1   15   16      2.76      0.00 
    1   15   17      4.03      0.00 
    1   15   18     -2.01      0.00 
    2   15    0     -0.60      0.00 
    2   15    1      0.90      0.00 
    2   15    2     -0.53      0.00 
    2   15    3     -1.02      0.00 
    2   15    4     -0.32      0.00 
    2   15    5     -0.78      0.00 
    2   15    6      2.27      0.00 
    2   15    7      1.05      0.00 
    2   15    8     -1.74      0.00 
    2   15    9      0.71      0.00 
    2   15   10     -0.21      0.00 
    2   15   11      1.50      0.00 
    2   15   12     -0.64      0.00 
    2   15   13     -0.19      0.00 
    2   15   14     -0.03      0.00 
    2   15   15     -4.83      0.00 
    2   15   16     -1.96      0.00 
    2   15   17      1.50      0.00 
    2   15   18     -1.16      0.00 
    3   15    0      0.34      0.00 
    3   15    1      2.19      0.00 
    3   15    2     -3.53      0.00 
    3   15    3      0.06      0.00 
    3   15    4      0.31      0.00 
    3   15    5      1.41      0.00 
    3   15    6      4.99      0.00 
    3   15    7      0.56      0.00 
    3   15    8     -0.03      0.00 
    3   15    9     -0.71      0.00 
    3   15   10     -1.15      0.00 
    3   15   11      0.00      0.00 
    3   15   12     -0.89      0.00 
    3   15   13      0.06      0.00 
    3   15   14     -0.75      0.00 
    3   15   15     -1.41      0.00 
    3   15   16      1.19      0.00 
    3   15   17     -1.07      0.00 
    3   15   18      0.08      0.00 
    4   15    0      2.99      0.00 
    4   15    1     -1.25      0.00 
    4   15    2      2.48      0.00 
    4   15    3      0.08      0.00 
    4   15    4     -0.83      0.00 
    4   15    5     -0.77      0.00 
    4   15    6      5.12      0.00 
    4   15    7     -1.01      0.00 
    4   15    8     -0.50      0.00 
    4   15    9      0.48      0.00 
    4   15   10     -0.69      0.00 
    4   15   11      2.63      0.00 
    4   15   12      0.14      0.00 
    4   15   13     -0.45      0.00 
    4   15   14     -4.92      0.00 
    4   15   15      0.00      0.00 
    4   15   16     -0.42      0.00 
    4   15   17      0.55      0.00 
    4   15   18     -0.10      0.00 
    5   15    0      0.22      0.00 
    5   15    1     -0.47      0.00 
    5   15    2     -1.76      0.00 
    5   15    3     -2.74      0.00 
    5   15    4      3.87      0.00 
    5   15    5     -0.23      0.00 
    5   15    6      0.79      0.00 
    5   15    7     -0.31      0.00 
    5   15    8     -1.20      0.00 
    5   15    9     -1.18      0.00 
    5   15   10     -0.16      0.00 
    5   15   11      1.38      0.00 
    5   15   12      3.69      0.00 
    5   15   13     -0.46      0.00 
    5   15   14     -1.38      0.00 
    5   15   15      0.20      0.00 
    5   15   16      0.52      0.00 
    5   15   17     -0.32      0.00 
    6   15    0     -0.92      0.00 
    6   15    1     -0.21      0.00 
    6   15    2     -1.77      0.00 
    6   15    3     -1.89      0.00 
    6   15    4     -0.09      0.00 
    6   15    5      1.00      0.00 
    6   15    6      1.43      0.00 
    6   15    7     -0.35      0.00 
    6   15    8     -0.17      0.00 
    6   15    9     -0.13      0.00 
    6   15   10     -0.10      0.00 
    6   15   11     -2.77      0.00 
    6   15   12      1.62      0.00 
    6   15   13     -1.07      0.00 
    6   15   14     -0.70      0.00 
    6   15   15     -1.30      0.00 
    6   15   16      0.85      0.00 
    6   15   17     -0.27      0.00 
    7   15    0      0.49      0.00 
    7   15    1     -1.71      0.00 
    7   15    2      1.31      0.00 
    7   15    3     -3.97      0.00 
    7   15    4     -1.14      0.00 
    7   15    5      0.78      0.00 
    7   15    6      2.04      0.00 
    7   15    7     -0.38      0.00 
    7   15    8      0.57      0.00 
    7   15    9     -0.04      0.00 
    7   15   10     -0.38      0.00 
    7   15   11      0.01      0.00 
    7   15   12     -0.74      0.00 
    7   15   13      3.97      0.00 
    7   15   14      0.66      0.00 
    7   15   15     -1.06      0.00 
    7   15   16      0.04      0.00 
    7   15   17      2.48      0.00 
    8   15    0      1.04      0.00 
    8   15    1      1.14      0.00 
    8   15    2      1.66      0.00 
    8   15    3      0.83      0.00 
    8   15    4      1.43      0.00 
    8   15    5      1.27      0.00 
    8   15    6      1.54      0.00 
    8   15    7      1.03      0.00 
    8   15    8     -0.18      0.00 
    8   15    9      1.10      0.00 
    8   15   10      1.12      0.00 
    8   15   11     -0.89      0.00 
    8   15   12      0.69      0.00 
    8   15   13     -0.64      0.00 
    8   15   14     -1.98      0.00 
    8   15   15     -0.41      0.00 
    8   15   16     -2.47      0.00 
    9   15    0     -0.31      0.00 
    9   15    1     -0.87      0.00 
    9   15    2      0.42      0.00 
    9   15    3      0.21      0.00 
    9   15    4     -0.85      0.00 
    9   15    5      0.40      0.00 
    9   15    6      0.88      0.00 
    9   15    7      3.78      0.00 
    9   15    8     -0.50      0.00 
    9   15    9     -2.35      0.00 
    9   15   10     -1.26      0.00 
    9   15   11     -0.18      0.00 
    9   15   12      3.03      0.00 
    9   15   13     -0.37      0.00 
    9   15   14     -1.39      0.00 
    9   15   15     -0.32      0.00 
   10   15    0      2.81      0.00 
   10   15    1      0.21      0.00 
   10   15    2      0.63      0.00 
   10   15    3      0.13      0.00 
   10   15    4     -0.72      0.00 
   10   15    5      0.18      0.00 
   10   15    6     -1.17      0.00 
   10   15    7     -1.57      0.00 
   10   15    8     -1.82      0.00 
   10   15    9     -0.93      0.00 
   10   15   10     -1.63      0.00 
   10   15   11     -0.18      0.00 
   10   15   12      0.76      0.00 
   10   15   13     -0.20      0.00 
   10   15   14     -0.47      0.00 
   10   15   15      0.68      0.00 
   11   15    0     -3.98      0.00 
   11   15    1      0.29      0.00 
   11   15    2     -0.43      0.00 
   11   15    3     -0.44      0.00 
   11   15    4      0.25      0.00 
   11   15    5      0.56      0.00 
   11   15    6      0.41      0.00 
   11   15    7      1.12      0.00 
   11   15    8      1.31      0.00 
   11   15    9     -1.13      0.00 
   11   15   10      1.37      0.00 
   11   15   11      2.10      0.00 
   11   15   12     -0.72      0.00 
   11   15   13      0.64      0.00 
   11   15   14      0.79      0.00 
   12   15    0      0.33      0.00 
   12   15    1      0.05      0.00 
   12   15    2     -1.61      0.00 
   12   15    3     -1.32      0.00 
   12   15    4     -0.66      0.00 
   12   15    5      0.11      0.00 
   12   15    6      0.74      0.00 
   12   15    7     -1.81      0.00 
   12   15    8     -0.39      0.00 
   12   15    9     -1.00      0.00 
   12   15   10     -0.85      0.00 
   12   15   11     -0.95      0.00 
   12   15   12     -0.37      0.00 
   13   15    0     -0.97      0.00 
   13   15    1     -0.37      0.00 
   13   15    2      1.37      0.00 
   13   15    3     -0.37      0.00 
   13   15    4      0.20      0.00 
   13   15    5     -0.02      0.00 
   13   15    6      0.26      0.00 
   13   15    7     -0.07      0.00 
   13   15    8     -0.25      0.00 
   13   15    9      0.98      0.00 
   13   15   10      0.92      0.00 
   13   15   11      1.47      0.00 
   14   15    0     -0.43      0.00 
   14   15    1     -0.13      0.00 
   14   15    2     -1.23      0.00 
   14   15    3     -1.15      0.00 
   14   15    4      0.74      0.00 
   14   15    5     -0.85      0.00 
   14   15    6      0.58      0.00 
   14   15    7      0.23      0.00 
   14   15    8     -0.12      0.00 
   15   15    0      2.26      0.00 
   15   15    1      0.94      0.00 
   15   15    2      1.32      0.00 
   15   15    3     -0.78      0.00 
   15   15    4     -3.15      0.00 
   15   15    5     -2.86      0.00 
   15   15    6      3.15      0.00 
   15   15    7     -0.39      0.00 
    0   16    0      0.57      0.00 
    0   16    1      0.16      0.00 
    0   16    2     -2.01      0.00 
    0   16    3      0.24      0.00 
    0   16    4     -0.09      0.00 
    0   16    5      1.81      0.00 
    0   16    6      3.69      0.00 
    0   16    7     -3.08      0.00 
    0   16    8      2.66      0.00 
    0   16    9      0.58      0.00 
    0   16   10     -1.39      0.00 
    0   16   11     -1.40      0.00 
    0   16   12     -0.12      0.00 
    0   16   13      0.53      0.00 
    0   16   14      0.98      0.00 
    0   16   15      2.39      0.00 
    0   16   16      0.51      0.00 
    0   16   17     -1.08      0.00 
    1   16    0     -2.08      0.00 
    1   16    1     -0.18      0.00 
    1   16    2     -2.20      0.00 
    1   16    3     -0.97      0.00 
    1   16    4      0.62      0.00 
    1   16    5      0.44      0.00 
    1   16    6      1.54      0.00 
    1   16    7     -1.78      0.00 
    1   16    8      3.34      0.00 
    1   16    9      2.14      0.00 
    1   16   10     -0.68      0.00 
    1   16   11      0.13      0.00 
    1   16   12      0.00      0.00 
    1   16   13     -1.08      0.00 
    1   16   14      0.02      0.00 
    1   16   15     -1.98      0.00 
    1   16   16     -1.98      0.00 
    1   16   17      0.54      0.00 
    2   16    0      1.66      0.00 
    2   16    1      0.54      0.00 
    2   16    2     -1.22      0.00 
    2   16    3     -1.71      0.00 
    2   16    4      1.94      0.00 
    2   16    5     -0.17      0.00 
    2   16    6     -1.34      0.00 
    2   16    7      1.35      0.00 
    2   16    8      0.11      0.00 
    2   16    9     -2.34      0.00 
    2   16   10      3.58      0.00 
    2   16   11     -0.08      0.00 
    2   16   12      1.38      0.00 
    2   16   13      0.32      0.00 
    2   16   14     -0.08      0.00 
    2   16   15     -2.44      0.00 
    2   16   16     -0.72      0.00 
    2   16   17      2.01      0.00 
    3   16    0     -1.53      0.00 
    3   16    1     -0.30      0.00 
    3   16    2     -4.44      0.00 
    3   16    3     -0.75      0.00 
    3   16    4      2.08      0.00 
    3   16    5     -1.62      0.00 
    3   16    6     -2.83      0.00 
    3   16    7     -0.63      0.00 
    3   16    8     -0.50      0.00 
    3   16    9      0.49      0.00 
    3   16   10     -0.25      0.00 
    3   16   11     -0.30      0.00 
    3   16   12      0.90      0.00 
    3   16   13     -0.86      0.00 
    3   16   14      4.05      0.00 
    3   16   15      1.36      0.00 
    3   16   16      0.24      0.00 
    3   16   17     -0.50      0.00 
    4   16    0      0.51      0.00 
    4   16    1     -0.50      0.00 
    4   16    2     -1.19      0.00 
    4   16    3     -3.06      0.00 
    4   16    4     -1.98      0.00 
    4   16    5      1.28      0.00 
    4   16    6     -0.30      0.00 
    4   16    7      0.53      0.00 
    4   16    8     -0.31      0.00 
    4   16    9     -1.47      0.00 
    4   16   10      0.59      0.00 
    4   16   11      2.13      0.00 
    4   16   12      1.54      0.00 
    4   16   13      1.29      0.00 
    4   16   14      0.70      0.00 
    4   16   15     -1.04      0.00 
    4   16   16     -0.23      0.00 
    4   16   17      0.80      0.00 
    5   16    0     -1.04      0.00 
    5   16    1      0.48      0.00 
    5   16    2     -0.11      0.00 
    5   16    3      0.58      0.00 
    5   16    4      2.02      0.00 
    5   16    5      0.03      0.00 
    5   16    6     -2.05      0.00 
    5   16    7      0.27      0.00 
    5   16    8      0.38      0.00 
    5   16    9     -0.11      0.00 
    5   16   10     -0.24      0.00 
    5   16   11      0.32      0.00 
    5   16   12     -0.06      0.00 
    5   16   13     -3.81      0.00 
    5   16   14     -1.20      0.00 
    5   16   15      0.39      0.00 
    5   16   16      1.53      0.00 
    6   16    0      1.01      0.00 
    6   16    1      0.85      0.00 
    6   16    2     -0.71      0.00 
    6   16    3      0.29      0.00 
    6   16    4     -1.58      0.00 
    6   16    5     -0.21      0.00 
    6   16    6     -1.45      0.00 
    6   16    7      1.22      0.00 
    6   16    8     -1.03      0.00 
    6   16    9     -0.89      0.00 
    6   16   10     -2.03      0.00 
    6   16   11      0.98      0.00 
    6   16   12      0.35      0.00 
    6   16   13      0.20      0.00 
    6   16   14      1.29      0.00 
    6   16   15      3.36      0.00 
    6   16   16      1.68      0.00 
    7   16    0     -2.76      0.00 
    7   16    1     -0.30      0.00 
    7   16    2      1.39      0.00 
    7   16    3     -1.24      0.00 
    7   16    4      0.03      0.00 
    7   16    5     -0.88      0.00 
    7   16    6     -0.84      0.00 
    7   16    7     -0.62      0.00 
    7   16    8     -0.07      0.00 
    7   16    9     -0.02      0.00 
    7   16   10     -0.68      0.00 
    7   16   11      0.25      0.00 
    7   16   12     -0.54      0.00 
    7   16   13     -2.31      0.00 
    7   16   14     -1.80      0.00 
    7   16   15     -2.67      0.00 
    8   16    0      0.62      0.00 
    8   16    1      0.74      0.00 
    8   16    2     -1.94      0.00 
    8   16    3     -0.33      0.00 
    8   16    4     -0.82      0.00 
    8   16    5     -0.10      0.00 
    8   16    6      0.00      0.00 
    8   16    7     -1.89      0.00 
    8   16    8      0.24      0.00 
    8   16    9     -0.18      0.00 
    8   16   10     -1.18      0.00 
    8   16   11     -0.28      0.00 
    8   16   12     -0.66      0.00 
    8   16   13     -2.02      0.00 
    8   16   14      4.85      0.00 
    8   16   15      3.51      0.00 
    9   16    0     -2.28      0.00 
    9   16    1     -1.37      0.00 
    9   16    2     -1.33      0.00 
    9   16    3     -1.35      0.00 
    9   16    4     -0.11      0.00 
    9   16    5     -0.41      0.00 
    9   16    6      0.20      0.00 
    9   16    7     -0.26      0.00 
    9   16    8     -1.14      0.00 
    9   16    9     -3.88      0.00 
    9   16   10      1.93      0.00 
    9   16   11     -0.79      0.00 
    9   16   12      1.44      0.00 
    9   16   13     -0.41      0.00 
    9   16   14      0.26      0.00 
   10   16    0      7.10      0.00 
   10   16    1      0.97      0.00 
   10   16    2      0.99      0.00 
   10   16    3      0.19      0.00 
   10   16    4     -0.63      0.00 
   10   16    5      0.92      0.00 
   10   16    6     -0.18      0.00 
   10   16    7      0.95      0.00 
   10   16    8      0.84      0.00 
   10   16    9      0.25      0.00 
   10   16   10      0.41      0.00 
   10   16   11     -0.72      0.00 
   10   16   12     -1.39      0.00 
   10   16   13     -0.13      0.00 
   11   16    0      2.22      0.00 
   11   16    1     -0.45      0.00 
   11   16    2     -0.47      0.00 
   11   16    3     -0.58      0.00 
   11   16    4     -0.85      0.00 
   11   16    5      0.86      0.00 
   11   16    6     -1.06      0.00 
   11   16    7      0.05      0.00 
   11   16    8      1.35      0.00 
   11   16    9      0.24      0.00 
   11   16   10     -2.47      0.00 
   11   16   11      0.38      0.00 
   11   16   12     -0.90      0.00 
   12   16    0      3.66      0.00 
   12   16    1      0.14      0.00 
   12   16    2     -0.24      0.00 
   12   16    3      0.74      0.00 
   12   16    4     -0.24      0.00 
   12   16    5     -0.78      0.00 
   12   16    6     -0.53      0.00 
   12   16    7     -0.47      0.00 
   12   16    8      0.39      0.00 
   12   16    9      1.28      0.00 
   12   16   10      0.00      0.00 
   13   16    0      3.16      0.00 
   13   16    1      0.30      0.00 
   13   16    2     -2.07      0.00 
   13   16    3     -0.68      0.00 
   13   16    4      0.88      0.00 
   13   16    5      0.99      0.00 
   13   16    6     -0.03      0.00 
   13   16    7     -1.52      0.00 
   13   16    8     -2.19      0.00 
   14   16    0      0.17      0.00 
   14   16    1     -0.02      0.00 
   14   16    2     -0.24      0.00 
   14   16    3     -0.36      0.00 
   14   16    4      0.50      0.00 
   14   16    5      0.21      0.00 
   14   16    6     -2.35      0.00 
   14   16    7     -1.21      0.00 
   15   16    0      1.84      0.00 
   15   16    1     -0.12      0.00 
   15   16    2      1.45      0.00 
   15   16    3      1.03      0.00 
   15   16    4      1.40      0.00 
    0   17    0      0.82      0.00 
    0   17    1     -0.40      0.00 
    0   17    2     -1.34      0.00 
    0   17    3     -2.04      0.00 
    0   17    4     -1.31      0.00 
    0   17    5     -0.11      0.00 
    0   17    6      1.76      0.00 
    0   17    7      2.45      0.00 
    0   17    8     -2.07      0.00 
    0   17    9      2.61      0.00 
    0   17   10      2.34      0.00 
    0   17   11     -3.33      0.00 
    0   17   12      0.80      0.00 
    0   17   13     -1.81      0.00 
    0   17   14     -0.42      0.00 
    0   17   15      3.14      0.00 
    0   17   16      0.14      0.00 
    1   17    0      1.41      0.00 
    1   17    1      0.15      0.00 
    1   17    2      2.20      0.00 
    1   17    3     -0.29      0.00 
    1   17    4     -0.87      0.00 
    1   17    5      1.70      0.00 
    1   17    6      1.96      0.00 
    1   17    7     -4.90      0.00 
    1   17    8     -4.66      0.00 
    1   17    9     -0.07      0.00 
    1   17   10      2.95      0.00 
    1   17   11      1.00      0.00 
    1   17   12      0.11      0.00 
    1   17   13     -0.36      0.00 
    1   17   14      0.32      0.00 
    1   17   15     -1.73      0.00 
    1   17   16     -2.16      0.00 
    2   17    0      1.27      0.00 
    2   17    1      1.84      0.00 
    2   17    2     -0.70      0.00 
    2   17    3     -0.51      0.00 
    2   17    4      0.87      0.00 
    2   17    5      1.62      0.00 
    2   17    6      1.33      0.00 
    2   17    7     -0.10      0.00 
    2   17    8     -0.40      0.00 
    2   17    9      0.36      0.00 
    2   17   10      0.38      0.00 
    2   17   11     -2.57      0.00 
    2   17   12      0.37      0.00 
    2   17   13      0.36      0.00 
    2   17   14      0.17      0.00 
    2   17   15      1.47      0.00 
    2   17   16      1.05      0.00 
    3   17    0     -0.27      0.00 
    3   17    1      0.24      0.00 
    3   17    2      1.39      0.00 
    3   17    3      2.60      0.00 
    3   17    4     -2.57      0.00 
    3   17    5     -1.82      0.00 
    3   17    6      1.54      0.00 
    3   17    7     -1.47      0.00 
    3   17    8     -0.54      0.00 
    3   17    9      0.76      0.00 
    3   17   10     -0.50      0.00 
    3   17   11     -2.60      0.00 
    3   17   12      0.47      0.00 
    3   17   13      0.78      0.00 
    3   17   14      2.56      0.00 
    3   17   15      3.20      0.00 
    3   17   16     -1.11      0.00 
    4   17    0      1.61      0.00 
    4   17    1      0.59      0.00 
    4   17    2      0.21      0.00 
    4   17    3      1.81      0.00 
    4   17    4     -0.44      0.00 
    4   17    5     -0.29      0.00 
    4   17    6     -1.79      0.00 
    4   17    7      0.70      0.00 
    4   17    8     -0.22      0.00 
    4   17    9     -0.49      0.00 
    4   17   10      0.93      0.00 
    4   17   11     -3.17      0.00 
    4   17   12      1.67      0.00 
    4   17   13     -1.66      0.00 
    4   17   14     -2.34      0.00 
    4   17   15     -0.76      0.00 
    5   17    0      1.30      0.00 
    5   17    1      0.29      0.00 
    5   17    2     -2.33      0.00 
    5   17    3      3.46      0.00 
    5   17    4      1.74      0.00 
    5   17    5     -0.88      0.00 
    5   17    6      1.32      0.00 
    5   17    7      0.83      0.00 
    5   17    8      1.73      0.00 
    5   17    9      0.24      0.00 
    5   17   10     -0.16      0.00 
    5   17   11     -2.03      0.00 
    5   17   12      2.08      0.00 
    5   17   13     -0.68      0.00 
    5   17   14      0.12      0.00 
    5   17   15      3.23      0.00 
    6   17    0      0.71      0.00 
    6   17    1      1.92      0.00 
    6   17    2     -1.00      0.00 
    6   17    3     -1.22      0.00 
    6   17    4      0.35      0.00 
    6   17    5     -0.04      0.00 
    6   17    6     -0.77      0.00 
    6   17    7      0.12      0.00 
    6   17    8      0.60      0.00 
    6   17    9      0.95      0.00 
    6   17   10     -0.35      0.00 
    6   17   11     -1.13      0.00 
    6   17   12     -0.85      0.00 
    6   17   13      1.09      0.00 
    6   17   14     -1.80      0.00 
    7   17    0     -1.97      0.00 
    7   17    1      2.35      0.00 
    7   17    2      3.06      0.00 
    7   17    3     -1.16      0.00 
    7   17    4     -0.44      0.00 
    7   17    5      1.10      0.00 
    7   17    6     -0.29      0.00 
    7   17    7      0.36      0.00 
    7   17    8      1.34      0.00 
    7   17    9      0.41      0.00 
    7   17   10      2.25      0.00 
    7   17   11     -1.26      0.00 
    7   17   12     -0.38      0.00 
    7   17   13      0.45      0.00 
    7   17   14      4.07      0.00 
    8   17    0      0.51      0.00 
    8   17    1     -1.13      0.00 
    8   17    2      2.25      0.00 
    8   17    3      0.55      0.00 
    8   17    4     -0.53      0.00 
    8   17    5      1.21      0.00 
    8   17    6     -0.11      0.00 
    8   17    7     -0.82      0.00 
    8   17    8     -0.80      0.00 
    8   17    9      2.25      0.00 
    8   17   10      0.20      0.00 
    8   17   11      0.27      0.00 
    8   17   12      0.70      0.00 
    8   17   13      1.43      0.00 
    9   17    0     -1.93      0.00 
    9   17    1      0.49      0.00 
    9   17    2     -0.27      0.00 
    9   17    3      0.74      0.00 
    9   17    4      1.68      0.00 
    9   17    5     -1.48      0.00 
    9   17    6     -0.03      0.00 
    9   17    7      1.92      0.00 
    9   17    8     -0.19      0.00 
    9   17    9      1.69      0.00 
    9   17   10      1.26      0.00 
    9   17   11     -2.23      0.00 
    9   17   12      0.48      0.00 
   10   17    0     -3.37      0.00 
   10   17    1     -0.53      0.00 
   10   17    2     -0.90      0.00 
   10   17    3      0.43      0.00 
   10   17    4      1.42      0.00 
   10   17    5     -0.17      0.00 
   10   17    6     -1.62      0.00 
   10   17    7     -1.63      0.00 
   10   17    8      0.41      0.00 
   10   17    9     -0.92      0.00 
   10   17   10     -0.85      0.00 
   11   17    0     -0.39      0.00 
   11   17    1     -0.53      0.00 
   11   17    2      0.04      0.00 
   11   17    3     -0.11      0.00 
   11   17    4     -0.07      0.00 
   11   17    5      1.20      0.00 
   11   17    6     -1.32      0.00 
   11   17    7     -1.92      0.00 
   11   17    8      9.69      0.00 
   11   17    9      3.96      0.00 
   12   17    0     -1.40      0.00 
   12   17    1     -2.60      0.00 
   12   17    2      2.51      0.00 
   12   17    3      1.14      0.00 
   12   17    4      0.26      0.00 
   12   17    5      2.05      0.00 
   12   17    6      0.01      0.00 
   12   17    7     -0.37      0.00 
   12   17    8     -1.54      0.00 
   13   17    0      2.56      0.00 
   13   17    1      0.09      0.00 
   13   17    2      0.31      0.00 
   13   17    3      0.03      0.00 
   13   17    4      1.31      0.00 
   13   17    5     -0.40      0.00 
   13   17    6     -2.40      0.00 
   14   17    0     -1.93      0.00 
   14   17    1     -1.03      0.00 
   14   17    2     -0.25      0.00 
   14   17    3      1.43      0.00 
   14   17    4      0.65      0.00 
    0   18    0      0.32      0.00 
    0   18    1      0.65      0.00 
    0   18    2      4.54      0.00 
    0   18    3      0.79      0.00 
    0   18    4      1.58      0.00 
    0   18    5     -5.51      0.00 
    0   18    6     -0.11      0.00 
    0   18    7     -3.54      0.00 
    0   18    8      1.72      0.00 
    0   18    9     -0.73      0.00 
    0   18   10     -3.48      0.00 
    0   18   11      1.25      0.00 
    0   18   12     -1.24      0.00 
    0   18   13      1.41      0.00 
    0   18   14     -0.02      0.00 
    1   18    0      1.69      0.00 
    1   18    1     -2.29      0.00 
    1   18    2      1.03      0.00 
    1   18    3     -1.25      0.00 
    1   18    4     -0.32      0.00 
    1   18    5     -0.04      0.00 
    1   18    6      1.81      0.00 
    1   18    7     -2.02      0.00 
    1   18    8      2.31      0.00 
    1   18    9     -2.64      0.00 
    1   18   10      0.57      0.00 
    1   18   11     -0.09      0.00 
    1   18   12     -1.27      0.00 
    1   18   13      1.25      0.00 
    1   18   14      2.43      0.00 
    2   18    0      0.24      0.00 
    2   18    1     -0.67      0.00 
    2   18    2     -1.42      0.00 
    2   18    3      2.34      0.00 
    2   18    4      1.66      0.00 
    2   18    5     -3.06      0.00 
    2   18    6     -1.10      0.00 
    2   18    7      2.88      0.00 
    2   18    8     -0.17      0.00 
    2   18    9      0.68      0.00 
    2   18   10     -0.45      0.00 
    2   18   11      0.58      0.00 
    2   18   12      0.70      0.00 
    2   18   13     -4.90      0.00 
    2   18   14     -2.62      0.00 
    3   18    0      2.83      0.00 
    3   18    1      0.85      0.00 
    3   18    2     -0.71      0.00 
    3   18    3     -0.95      0.00 
    3   18    4     -0.47      0.00 
    3   18    5     -0.10      0.00 
    3   18    6      1.97      0.00 
    3   18    7      3.30      0.00 
    3   18    8     -1.26      0.00 
    3   18    9      0.31      0.00 
    3   18   10      1.47      0.00 
    3   18   11     -3.83      0.00 
    3   18   12     -2.23      0.00 
    3   18   13      1.39      0.00 
    3   18   14      2.85      0.00 
    4   18    0      0.37      0.00 
    4   18    1      1.60      0.00 
    4   18    2     -1.48      0.00 
    4   18    3     -1.06      0.00 
    4   18    4      1.46      0.00 
    4   18    5      1.21      0.00 
    4   18    6     -2.53      0.00 
    4   18    7      1.55      0.00 
    4   18    8      0.22      0.00 
    4   18    9      2.26      0.00 
    4   18   10      0.34      0.00 
    4   18   11      0.77      0.00 
    4   18   12      1.17      0.00 
    4   18   13     -0.98      0.00 
    4   18   14     -2.33      0.00 
    5   18    0     -1.17      0.00 
    5   18    1     -0.03      0.00 
    5   18    2     -3.22      0.00 
    5   18    3      1.79      0.00 
    5   18    4     -0.72      0.00 
    5   18    5      3.22      0.00 
    5   18    6     -0.44      0.00 
    5   18    7     -2.52      0.00 
    5   18    8     -1.80      0.00 
    5   18    9     -0.09      0.00 
    5   18   10     -0.06      0.00 
    5   18   11      1.38      0.00 
    5   18   12      0.32      0.00 
    5   18   13      1.54      0.00 
    6   18    0      2.74      0.00 
    6   18    1     -0.77      0.00 
    6   18    2      0.25      0.00 
    6   18    3     -0.01      0.00 
    6   18    4      0.60      0.00 
    6   18    5     -0.11      0.00 
    6   18    6     -3.11      0.00 
    6   18    7      0.55      0.00 
    6   18    8     -0.98      0.00 
    6   18    9      2.32      0.00 
    6   18   10     -1.59      0.00 
    6   18   11     -1.41      0.00 
    6   18   12      3.76      0.00 
    7   18    0      0.76      0.00 
    7   18    1     -4.09      0.00 
    7   18    2     -0.22      0.00 
    7   18    3      1.13      0.00 
    7   18    4      0.95      0.00 
    7   18    5      0.45      0.00 
    7   18    6     -0.74      0.00 
    7   18    7      1.05      0.00 
    7   18    8      1.06      0.00 
    7   18    9      1.00      0.00 
    7   18   10      1.31      0.00 
    7   18   11     -0.91      0.00 
    8   18    0      3.42      0.00 
    8   18    1     -1.05      0.00 
    8   18    2      0.65      0.00 
    8   18    3     -0.04      0.00 
    8   18    4      0.79      0.00 
    8   18    5     -0.43      0.00 
    8   18    6      1.97      0.00 
    8   18    7     -2.34      0.00 
    8   18    8      1.39      0.00 
    8   18    9     -0.66      0.00 
    8   18   10      1.62      0.00 
    9   18    0     -0.06      0.00 
    9   18    1      1.25      0.00 
    9   18    2     -2.71      0.00 
    9   18    3      0.50      0.00 
    9   18    4     -0.29      0.00 
    9   18    5     -1.90      0.00 
    9   18    6     -0.22      0.00 
    9   18    7     -2.02      0.00 
    9   18    8      0.40      0.00 
    9   18    9      0.75      0.00 
   10   18    0     -0.38      0.00 
   10   18    1      1.67      0.00 
   10   18    2      0.35      0.00 
   10   18    3      0.34      0.00 
   10   18    4      0.44      0.00 
   10   18    5      1.10      0.00 
   10   18    6      0.41      0.00 
   10   18    7     -0.52      0.00 
   10   18    8     -2.07      0.00 
   11   18    0     -0.77      0.00 
   11   18    1      0.15      0.00 
   11   18    2      0.56      0.00 
   11   18    3      0.20      0.00 
   11   18    4      1.11      0.00 
   11   18    5     -1.49      0.00 
   11   18    6      1.28      0.00 
   11   18    7     -1.57      0.00 
   12   18    0      0.40      0.00 
   12   18    1     -0.17      0.00 
   12   18    2     -0.53      0.00 
   12   18    3      0.18      0.00 
   12   18    4      0.34      0.00 
   12   18    5     -0.69      0.00 
   13   18    1     -1.23      0.00 
   13   18    2     -3.04      0.00 
    0   19    0     -1.30      0.00 
    0   19    1     -0.23      0.00 
    0   19    2     -2.87      0.00 
    0   19    3     -3.38      0.00 
    0   19    4     -2.01      0.00 
    0   19    5     -0.97      0.00 
    0   19    6      3.91      0.00 
    0   19    7      2.59      0.00 
    0   19    8     -2.13      0.00 
    0   19    9      0.98      0.00 
    0   19   10     -0.11      0.00 
    0   19   11      1.58      0.00 
    0   19   12     -3.80      0.00 
    0   19   13      0.71      0.00 
    1   19    0     -0.67      0.00 
    1   19    1      1.09      0.00 
    1   19    2     -1.58      0.00 
    1   19    3      0.91      0.00 
    1   19    4      0.22      0.00 
    1   19    5      0.18      0.00 
    1   19    6     -0.21      0.00 
    1   19    7      1.70      0.00 
    1   19    8      1.53      0.00 
    1   19    9      0.06      0.00 
    1   19   10      1.68      0.00 
    1   19   11      0.16      0.00 
    1   19   12      0.34      0.00 
    1   19   13     -2.96      0.00 
    2   19    0      0.13      0.00 
    2   19    1      0.45      0.00 
    2   19    2     -0.31      0.00 
    2   19    3     -0.72      0.00 
    2   19    4      1.51      0.00 
    2   19    5      2.13      0.00 
    2   19    6      0.05      0.00 
    2   19    7     -1.23      0.00 
    2   19    8     -0.24      0.00 
    2   19    9     -0.80      0.00 
    2   19   10     -1.10      0.00 
    2   19   11      0.61      0.00 
    2   19   12      1.54      0.00 
    2   19   13     -0.12      0.00 
    3   19    0     -2.70      0.00 
    3   19    1     -1.55      0.00 
    3   19    2      1.71      0.00 
    3   19    3     -0.96      0.00 
    3   19    4     -0.50      0.00 
    3   19    5     -2.43      0.00 
    3   19    6     -2.24      0.00 
    3   19    7     -1.07      0.00 
    3   19    8      0.37      0.00 
    3   19    9     -0.98      0.00 
    3   19   10      1.15      0.00 
    3   19   11      1.73      0.00 
    3   19   12      2.86      0.00 
    4   19    0     -0.80      0.00 
    4   19    1     -0.86      0.00 
    4   19    2      0.22      0.00 
    4   19    3      1.07      0.00 
    4   19    4      1.44      0.00 
    4   19    5     -0.16      0.00 
    4   19    6     -0.77      0.00 
    4   19    7      0.62      0.00 
    4   19    8      2.34      0.00 
    4   19    9      0.44      0.00 
    4   19   10     -2.97      0.00 
    4   19   11      2.09      0.00 
    4   19   12     -0.87      0.00 
    5   19    0     -2.98      0.00 
    5   19    1      0.58      0.00 
    5   19    2     -0.92      0.00 
    5   19    3      1.91      0.00 
    5   19    4     -1.69      0.00 
    5   19    5      0.04      0.00 
    5   19    6      0.65      0.00 
    5   19    7      0.43      0.00 
    5   19    8     -0.56      0.00 
    5   19    9     -0.37      0.00 
    5   19   10     -1.41      0.00 
    5   19   11     -1.34      0.00 
    6   19    0      0.35      0.00 
    6   19    1      2.10      0.00 
    6   19    2      0.23      0.00 
    6   19    3     -2.05      0.00 
    6   19    4      0.37      0.00 
    6   19    5     -0.70      0.00 
    6   19    6     -0.36      0.00 
    6   19    7      0.66      0.00 
    6   19    8      0.63      0.00 
    6   19    9      2.54      0.00 
    6   19   10     -1.27      0.00 
    7   19    0     -0.57      0.00 
    7   19    1     -0.44      0.00 
    7   19    2      0.18      0.00 
    7   19    3     -0.26      0.00 
    7   19    4      0.13      0.00 
    7   19    5      1.05      0.00 
    7   19    6      0.07      0.00 
    7   19    7      0.24      0.00 
    7   19    8     -0.60      0.00 
    7   19    9     -1.26      0.00 
    8   19    0     -2.07      0.00 
    8   19    1      1.81      0.00 
    8   19    2     -0.69      0.00 
    8   19    3      0.09      0.00 
    8   19    4      1.46      0.00 
    8   19    5     -0.76      0.00 
    8   19    6      0.29      0.00 
    8   19    7     -0.74      0.00 
    8   19    8      1.08      0.00 
    9   19    0     -0.91      0.00 
    9   19    1      0.76      0.00 
    9   19    2     -0.99      0.00 
    9   19    3     -0.14      0.00 
    9   19    4     -0.22      0.00 
    9   19    5      0.99      0.00 
    9   19    6      2.04      0.00 
    9   19    7      0.71      0.00 
   10   19    0      0.40      0.00 
   10   19    1     -0.60      0.00 
   10   19    2      1.18      0.00 
   10   19    3     -1.28      0.00 
   10   19    4     -0.70      0.00 
   10   19    5      0.34      0.00 
   10   19    6     -1.07      0.00 
   11   19    0     -0.22      0.00 
   11   19    1      0.85      0.00 
   11   19    2      0.15      0.00 
   11   19    3     -2.59      0.00 
   11   19    4     -0.79      0.00 
    0   20    0     -0.61      0.00 
    0   20    1      0.64      0.00 
    0   20    2      4.03      0.00 
    0   20    3      0.12      0.00 
    0   20    4      0.68      0.00 
    0   20    5      1.70      0.00 
    0   20    6     -0.37      0.00 
    0   20    7     -1.92      0.00 
    0   20    8      0.95      0.00 
    0   20    9      0.80      0.00 
    0   20   10      1.71      0.00 
    0   20   11      1.72      0.00 
    1   20    0     -1.10      0.00 
    1   20    1      1.14      0.00 
    1   20    2     -2.09      0.00 
    1   20    3      1.16      0.00 
    1   20    4      0.04      0.00 
    1   20    5      1.10      0.00 
    1   20    6      0.43      0.00 
    1   20    7     -0.87      0.00 
    1   20    8     -1.13      0.00 
    1   20    9     -1.96      0.00 
    1   20   10     -0.85      0.00 
    1   20   11      2.44      0.00 
    2   20    0      1.47      0.00 
    2   20    1     -0.60      0.00 
    2   20    2      0.90      0.00 
    2   20    3      3.31      0.00 
    2   20    4     -1.64      0.00 
    2   20    5     -0.10      0.00 
    2   20    6     -0.70      0.00 
    2   20    7     -0.60      0.00 
    2   20    8      0.75      0.00 
    2   20    9     -0.81      0.00 
    2   20   10     -0.05      0.00 
    2   20   11     -1.54      0.00 
    3   20    0      1.95      0.00 
    3   20    1      0.79      0.00 
    3   20    2     -4.89      0.00 
    3   20    3      0.43      0.00 
    3   20    4     -1.07      0.00 
    3   20    5     -0.19      0.00 
    3   20    6      0.69      0.00 
    3   20    7      1.70      0.00 
    3   20    8     -1.63      0.00 
    3   20    9      0.30      0.00 
    3   20   10      0.55      0.00 
    4   20    0      0.35      0.00 
    4   20    1      1.12      0.00 
    4   20    2     -2.38      0.00 
    4   20    3      2.12      0.00 
    4   20    4      1.54      0.00 
    4   20    5      1.08      0.00 
    4   20    6     -0.10      0.00 
    4   20    7     -1.00      0.00 
    4   20    8      0.55      0.00 
    4   20    9     -0.20      0.00 
    5   20    0      0.35      0.00 
    5   20    1      0.83      0.00 
    5   20    2     -1.43      0.00 
    5   20    3     -0.46      0.00 
    5   20    4      1.46      0.00 
    5   20    5     -0.08      0.00 
    5   20    6     -1.60      0.00 
    5   20    7     -1.84      0.00 
    5   20    8     -1.19      0.00 
    6   20    0     -1.54      0.00 
    6   20    1     -0.68      0.00 
    6   20    2      1.38      0.00 
    6   20    3     -1.48      0.00 
    6   20    4     -0.21      0.00 
    6   20    5     -0.69      0.00 
    6   20    6      1.42      0.00 
    6   20    7     -1.55      0.00 
    6   20    8      0.69      0.00 
    7   20    0      0.35      0.00 
    7   20    1     -1.45      0.00 
    7   20    2      2.21      0.00 
    7   20    3     -1.07      0.00 
    7   20    4     -1.77      0.00 
    7   20    5     -2.14      0.00 
    7   20    6      0.94      0.00 
    7   20    7     -1.36      0.00 
    8   20    0     -4.42      0.00 
    8   20    1      0.52      0.00 
    8   20    2     -0.08      0.00 
    8   20    3     -1.07      0.00 
    8   20    4     -0.31      0.00 
    8   20    5     -1.72      0.00 
    8   20    6      0.76      0.00 
    9   20    0      2.73      0.00 
    9   20    1     -0.47      0.00 
    9   20    2      1.76      0.00 
    9   20    3     -0.46      0.00 
    9   20    4      0.00      0.00 
    0   21    0      2.25      0.00 
    0   21    1     -3.78      0.00 
    0   21    2     -2.49      0.00 
    0   21    3     -3.87      0.00 
    0   21    4     -2.58      0.00 
    0   21    5     -0.63      0.00 
    0   21    6     -1.12      0.00 
    0   21    7     -2.04      0.00 
    0   21    8      1.33      0.00 
    1   21    0      1.52      0.00 
    1   21    1      0.42      0.00 
    1   21    2      0.72      0.00 
    1   21    3      1.82      0.00 
    1   21    4      0.81      0.00 
    1   21    5     -0.65      0.00 
    1   21    6      0.90      0.00 
    1   21    7     -0.73      0.00 
    1   21    8     -1.14      0.00 
    2   21    0      0.45      0.00 
    2   21    1     -2.70      0.00 
    2   21    2     -2.05      0.00 
    2   21    3     -1.37      0.00 
    2   21    4      0.93      0.00 
    2   21    5     -0.14      0.00 
    2   21    6      1.07      0.00 
    2   21    7      2.27      0.00 
    2   21    8      0.77      0.00 
    3   21    0      2.54      0.00 
    3   21    1      1.79      0.00 
    3   21    2     -1.39      0.00 
    3   21    3      0.85      0.00 
    3   21    4      2.02      0.00 
    3   21    5     -2.23      0.00 
    3   21    6     -0.84      0.00 
    3   21    7      0.26      0.00 
    4   21    0      2.74      0.00 
    4   21    1      0.15      0.00 
    4   21    2     -0.82      0.00 
    4   21    3     -0.80      0.00 
    4   21    4     -1.13      0.00 
    4   21    5     -1.69      0.00 
    4   21    6      2.19      0.00 
    5   21    0      2.06      0.00 
    5   21    1     -1.01      0.00 
    5   21    2     -0.79      0.00 
    5   21    3      0.05      0.00 
    5   21    4      0.75      0.00 
    5   21    5     -0.77      0.00 
    5   21    6      1.29      0.00 
    6   21    0      0.24      0.00 
    6   21    1      0.96      0.00 
    6   21    2      0.07      0.00 
    6   21    3      1.41      0.00 
    6   21    4     -1.72      0.00 
    6   21    5     -0.32      0.00 
    0   22    1      4.52      0.00 
    0   22    2     -1.55      0.00 
    0   22    3     -1.37      0.00 
    0   22    4      2.47      0.00 
    1   22    1     -1.50      0.00 
    1   22    2      1.63      0.00 
    1   22    3      0.89      0.00 
    2   22    2      2.83      0.00 
    2   22    3     -1.57      0.00 
    0    1    0      7.09      0.00 
   16   16    0     -0.93      0.00 
   15   17    0     -0.21      0.00 
   16   17    0      0.54      0.00 
   13   18    0     -0.76      0.00 
   14   18    0      2.17      0.00 
   15   18    0     -2.09      0.00 
   12   19    0      0.66      0.00 
   13   19    0     -0.31      0.00 
   10   20    0     -0.31      0.00 
   11   20    0      1.45      0.00 
   12   20    0     -0.92      0.00 
    7   21    0      1.20      0.00 
    8   21    0     -1.09      0.00 
    9   21    0      2.24      0.00 
   10   21    0     -0.20      0.00 
    0   22    0      4.22      0.00 
    1   22    0     -1.05      0.00 
    2   22    0      5.68      0.00 
    3   22    0     -2.04      0.00 
    4   22    0     -1.46      0.00 
    5   22    0     -2.49      0.00 
    6   22    0     -1.53      0.00 
    7   22    0     -1.15      0.00 
    8   22    0     -1.35      0.00 
    0   23    0     -1.51      0.00 
    1   23    0     -6.88      0.00 
    2   23    0     -0.14      0.00 
    3   23    0     -0.54      0.00 
    4   23    0      2.97      0.00 
    5   23    0     -3.58      0.00 
    0    0    1     57.68      0.00 
   16   16    1     -1.40      0.00 
   15   17    1      0.82      0.00 
   16   17    1      0.85      0.00 
   14   18    1      2.51      0.00 
   15   18    1      1.08      0.00 
   12   19    1      0.64      0.00 
   13   19    1     -0.04      0.00 
   10   20    1     -3.78      0.00 
   11   20    1      1.88      0.00 
   12   20    1     -0.19      0.00 
    7   21    1      0.93      0.00 
    8   21    1      2.58      0.00 
    9   21    1     -1.04      0.00 
   10   21    1     -1.03      0.00 
    2   22    1      0.96      0.00 
    3   22    1     -2.53      0.00 
    4   22    1     -1.21      0.00 
    5   22    1      1.37      0.00 
    6   22    1      0.80      0.00 
    7   22    1     -0.48      0.00 
    8   22    1      0.05      0.00 
    0   23    1      4.76      0.00 
    1   23    1     -3.57      0.00 
    2   23    1     -1.40      0.00 
    3   23    1     -0.64      0.00 
    4   23    1     -0.46      0.00 
    5   23    1     -0.40      0.00 
   16   16    2     -2.34      0.00 
   15   17    2     -2.96      0.00 
   16   17    2     -2.11      0.00 
   14   18    2      0.29      0.00 
   15   18    2     -0.26      0.00 
   12   19    2     -1.51      0.00 
   13   19    2      1.96      0.00 
   10   20    2     -0.73      0.00 
   11   20    2      1.21      0.00 
   12   20    2     -1.38      0.00 
    7   21    2     -1.86      0.00 
    8   21    2     -1.24      0.00 
    9   21    2      1.97      0.00 
   10   21    2      1.71      0.00 
    3   22    2      3.00      0.00 
    4   22    2      2.92      0.00 
    5   22    2      0.78      0.00 
    6   22    2      0.10      0.00 
    7   22    2     -1.29      0.00 
    8   22    2      0.31      0.00 
    0   23    2     -0.49      0.00 
    1   23    2      2.31      0.00 
    2   23    2     -2.66      0.00 
    3   23    2      0.50      0.00 
    4   23    2     -1.02      0.00 
   16   16    3     -1.05      0.00 
   15   17    3      0.37      0.00 
   16   17    3      1.46      0.00 
   13   18    3     -1.92      0.00 
   14   18    3      0.47      0.00 
   15   18    3      1.19      0.00 
   12   19    3     -0.34      0.00 
   13   19    3      0.20      0.00 
   10   20    3      0.03      0.00 
   11   20    3      3.43      0.00 
   12   20    3      2.10      0.00 
    7   21    3      2.59      0.00 
    8   21    3      1.41      0.00 
    9   21    3      0.46      0.00 
   10   21    3     -0.83      0.00 
    3   22    3     -0.42      0.00 
    4   22    3     -0.73      0.00 
    5   22    3      1.77      0.00 
    6   22    3      1.21      0.00 
    7   22    3     -0.30      0.00 
    8   22    3      0.61      0.00 
    0   23    3     -3.39      0.00 
    1   23    3      1.60      0.00 
    2   23    3     -0.76      0.00 
    3   23    3      1.80      0.00 
    4   23    3     -2.83      0.00 
   16   16    4      1.35      0.00 
   15   17    4     -2.38      0.00 
   13   18    4      0.43      0.00 
   14   18    4     -1.66      0.00 
   12   19    4     -1.00      0.00 
   13   19    4      0.51      0.00 
   10   20    4      0.45      0.00 
   11   20    4      1.88      0.00 
    7   21    4      3.93      0.00 
    8   21    4      0.38      0.00 
    9   21    4     -1.47      0.00 
   10   21    4     -2.84      0.00 
    1   22    4      0.82      0.00 
    2   22    4     -1.03      0.00 
    3   22    4      1.37      0.00 
    4   22    4      1.41      0.00 
    5   22    4      1.85      0.00 
    6   22    4     -3.68      0.00 
    7   22    4     -1.07      0.00 
    0   23    4     -0.43      0.00 
    1   23    4     -0.94      0.00 
    2   23    4      0.44      0.00 
    3   23    4      0.84      0.00 
    0    3    5     25.58      0.00 
   15   16    5      2.92      0.00 
   16   16    5      1.10      0.00 
   14   17    5      0.38      0.00 
   15   17    5     -2.88      0.00 
   13   18    5     -0.31      0.00 
   14   18    5      0.96      0.00 
   11   19    5     -1.25      0.00 
   12   19    5     -1.03      0.00 
   13   19    5      1.02      0.00 
    9   20    5      0.57      0.00 
   10   20    5      0.80      0.00 
   11   20    5      1.56      0.00 
    7   21    5      0.32      0.00 
    8   21    5     -1.11      0.00 
    9   21    5      2.35      0.00 
    0   22    5     -0.34      0.00 
    1   22    5     -1.46      0.00 
    2   22    5     -2.02      0.00 
    3   22    5      0.92      0.00 
    4   22    5     -0.35      0.00 
    5   22    5     -0.44      0.00 
    6   22    5      0.20      0.00 
    7   22    5     -1.26      0.00 
    0   23    5      3.56      0.00 
    1   23    5     -1.11      0.00 
    2   23    5      0.86      0.00 
   15   16    6      1.21      0.00 
   16   16    6     -7.09      0.00 
   14   17    6      1.56      0.00 
   15   17    6      1.14      0.00 
   12   18    6      2.30      0.00 
   13   18    6     -1.64      0.00 
   14   18    6      0.17      0.00 
   11   19    6      0.24      0.00 
   12   19    6     -0.53      0.00 
    9   20    6     -0.73      0.00 
   10   20    6     -1.95      0.00 
   11   20    6     -0.35      0.00 
    6   21    6      2.33      0.00 
    7   21    6      3.19      0.00 
    8   21    6     -2.13      0.00 
    9   21    6      0.32      0.00 
    0   22    6     -0.09      0.00 
    1   22    6      1.59      0.00 
    2   22    6     -2.73      0.00 
    3   22    6     -0.38      0.00 
    4   22    6      1.02      0.00 
    5   22    6     -2.02      0.00 
    6   22    6     -0.38      0.00 
   15   16    7     -0.70      0.00 
   16   16    7     -2.85      0.00 
   13   17    7      2.06      0.00 
   14   17    7      1.48      0.00 
   15   17    7      0.12      0.00 
   12   18    7     -0.96      0.00 
   13   18    7      1.03      0.00 
   10   19    7      1.90      0.00 
   11   19    7     -0.54      0.00 
   12   19    7     -1.38      0.00 
    8   20    7      0.33      0.00 
    9   20    7     -2.02      0.00 
   10   20    7      0.69      0.00 
    4   21    7     -0.01      0.00 
    5   21    7      0.25      0.00 
    6   21    7     -3.16      0.00 
    7   21    7      1.55      0.00 
    8   21    7     -0.36      0.00 
    0   22    7      2.22      0.00 
    1   22    7      1.46      0.00 
    2   22    7      0.55      0.00 
    3   22    7     -0.78      0.00 
    4   22    7      0.40      0.00 
    5   22    7     -1.62      0.00 
   15   15    8     -0.21      0.00 
   14   16    8      2.58      0.00 
   15   16    8     -0.11      0.00 
   13   17    8      0.82      0.00 
   14   17    8      0.08      0.00 
   11   18    8      1.91      0.00 
   12   18    8     -5.77      0.00 
   13   18    8     -0.94      0.00 
    9   19    8     -3.70      0.00 
   10   19    8      1.28      0.00 
   11   19    8      4.25      0.00 
   12   19    8      0.42      0.00 
    7   20    8     -1.49      0.00 
    8   20    8      2.30      0.00 
    9   20    8     -0.56      0.00 
   10   20    8      2.30      0.00 
    3   21    8     -2.16      0.00 
    4   21    8      2.29      0.00 
    5   21    8      2.58      0.00 
    6   21    8     -0.02      0.00 
    7   21    8      1.90      0.00 
    8   21    8     -1.61      0.00 
    0   22    8      1.52      0.00 
    1   22    8     -0.94      0.00 
    2   22    8      0.64      0.00 
    3   22    8     -0.59      0.00 
    4   22    8      0.68      0.00 
   14   15    9      3.26      0.00 
   15   15    9      1.98      0.00 
   13   16    9     -2.54      0.00 
   14   16    9      1.75      0.00 
   15   16    9     -2.67      0.00 
   12   17    9     -5.86      0.00 
   13   17    9      3.35      0.00 
   14   17    9     -0.16      0.00 
   10   18    9     -3.99      0.00 
   11   18    9      1.75      0.00 
   12   18    9     -1.98      0.00 
   13   18    9      3.14      0.00 
    8   19    9     -2.83      0.00 
    9   19    9     -1.13      0.00 
   10   19    9      0.03      0.00 
   11   19    9      0.97      0.00 
    5   20    9      1.71      0.00 
    6   20    9      0.94      0.00 
    7   20    9      1.89      0.00 
    8   20    9      1.67      0.00 
    9   20    9      2.74      0.00 
    0   21    9     -4.00      0.00 
    1   21    9      0.56      0.00 
    2   21    9      2.07      0.00 
    3   21    9      1.12      0.00 
    4   21    9      0.33      0.00 
    5   21    9      0.64      0.00 
    6   21    9     -0.75      0.00 
    7   21    9      1.78      0.00 
    0   22    9      0.20      0.00 
    1   22    9     -0.08      0.00 
    2   22    9     -0.70      0.00 
    3   22    9     -1.03      0.00 
   14   15   10     -1.88      0.00 
   15   15   10     -1.95      0.00 
   13   16   10     -3.18      0.00 
   14   16   10      0.02      0.00 
   11   17   10      0.46      0.00 
   12   17   10     -0.82      0.00 
   13   17   10      1.52      0.00 
    9   18   10      3.40      0.00 
   10   18   10     -0.57      0.00 
   11   18   10     -1.62      0.00 
   12   18   10      0.74      0.00 
    7   19   10     -2.80      0.00 
    8   19   10      1.59      0.00 
    9   19   10     -2.60      0.00 
   10   19   10      0.15      0.00 
    4   20   10     -3.20      0.00 
    5   20   10      1.38      0.00 
    6   20   10     -2.61      0.00 
    7   20   10     -2.62      0.00 
    8   20   10      3.41      0.00 
    0   21   10     -0.53      0.00 
    1   21   10      1.13      0.00 
    2   21   10      0.25      0.00 
    3   21   10     -1.17      0.00 
    4   21   10     -1.20      0.00 
    5   21   10     -1.25      0.00 
    6   21   10     -0.94      0.00 
   14   15   11     -1.68      0.00 
   15   15   11      0.63      0.00 
   12   16   11     -1.30      0.00 
   13   16   11      0.70      0.00 
   14   16   11      1.24      0.00 
   10   17   11      2.40      0.00 
   11   17   11      4.40      0.00 
   12   17   11      0.08      0.00 
   13   17   11      2.80      0.00 
    8   18   11     -2.78      0.00 
    9   18   11     -1.17      0.00 
   10   18   11     -0.43      0.00 
   11   18   11     -1.04      0.00 
    6   19   11     -1.07      0.00 
    7   19   11      3.03      0.00 
    8   19   11     -0.85      0.00 
    9   19   11     -0.93      0.00 
   10   19   11      1.65      0.00 
    3   20   11     -0.77      0.00 
    4   20   11      0.01      0.00 
    5   20   11      1.91      0.00 
    6   20   11     -1.15      0.00 
    7   20   11      1.30      0.00 
    0   21   11     -2.45      0.00 
    1   21   11      1.18      0.00 
    2   21   11     -1.53      0.00 
    3   21   11      0.11      0.00 
    4   21   11      1.33      0.00 
   14   14   12      3.68      0.00 
   13   15   12      0.37      0.00 
   14   15   12      0.83      0.00 
   12   16   12      0.42      0.00 
   13   16   12      0.07      0.00 
   10   17   12      0.82      0.00 
   11   17   12     -2.38      0.00 
   12   17   12     -1.60      0.00 
    7   18   12     -0.60      0.00 
    8   18   12     -0.85      0.00 
    9   18   12     -0.99      0.00 
   10   18   12     -0.75      0.00 
   11   18   12     -1.06      0.00 
    5   19   12     -0.76      0.00 
    6   19   12      1.27      0.00 
    7   19   12     -2.31      0.00 
    8   19   12     -0.28      0.00 
    9   19   12      1.16      0.00 
    0   20   12     -3.00      0.00 
    1   20   12      3.23      0.00 
    2   20   12     -0.87      0.00 
    3   20   12      1.24      0.00 
    4   20   12     -1.43      0.00 
    5   20   12      3.64      0.00 
    6   20   12      2.01      0.00 
    0   21   12     -5.00      0.00 
    1   21   12     -0.69      0.00 
    2   21   12     -0.51      0.00 
   14   14   13     -0.84      0.00 
   12   15   13      2.63      0.00 
   13   15   13      0.33      0.00 
   14   15   13     -1.86      0.00 
   11   16   13      0.01      0.00 
   12   16   13     -1.20      0.00 
   13   16   13      0.09      0.00 
    9   17   13     -2.59      0.00 
   10   17   13      1.10      0.00 
   11   17   13     -0.21      0.00 
    6   18   13      2.64      0.00 
    7   18   13     -3.85      0.00 
    8   18   13      3.49      0.00 
    9   18   13     -0.50      0.00 
   10   18   13      1.80      0.00 
    3   19   13      3.77      0.00 
    4   19   13     -2.60      0.00 
    5   19   13     -0.33      0.00 
    6   19   13     -1.03      0.00 
    7   19   13     -0.63      0.00 
    8   19   13      4.85      0.00 
    0   20   13      1.98      0.00 
    1   20   13      0.10      0.00 
    2   20   13     -0.33      0.00 
    3   20   13      0.12      0.00 
    4   20   13     -1.65      0.00 
    5   20   13      2.24      0.00 
   13   14   14     -1.78      0.00 
   14   14   14      0.77      0.00 
   12   15   14     -1.64      0.00 
   13   15   14      1.21      0.00 
   10   16   14      0.04      0.00 
   11   16   14      1.43      0.00 
   12   16   14     -2.73      0.00 
    8   17   14      2.96      0.00 
    9   17   14     -0.92      0.00 
   10   17   14      0.49      0.00 
    5   18   14     -0.04      0.00 
    6   18   14     -0.50      0.00 
    7   18   14      0.55      0.00 
    8   18   14     -1.02      0.00 
    9   18   14     -1.65      0.00 
    0   19   14      3.48      0.00 
    1   19   14     -0.62      0.00 
    2   19   14      1.73      0.00 
    3   19   14      0.90      0.00 
    4   19   14     -1.34      0.00 
    5   19   14     -3.00      0.00 
    6   19   14     -1.54      0.00 
    0   20   14      0.92      0.00 
    1   20   14     -0.15      0.00 
    2   20   14     -2.38      0.00 
   13   13   15     -0.28      0.00 
   12   14   15      1.83      0.00 
   13   14   15      0.14      0.00 
   11   15   15      0.70      0.00 
   12   15   15     -0.21      0.00 
    9   16   15     -2.02      0.00 
   10   16   15      0.69      0.00 
   11   16   15      1.34      0.00 
    6   17   15      0.53      0.00 
    7   17   15     -1.70      0.00 
    8   17   15     -3.36      0.00 
    9   17   15     -1.04      0.00 
    0   18   15      7.38      0.00 
    1   18   15     -0.35      0.00 
    2   18   15     -2.49      0.00 
    3   18   15      0.92      0.00 
    4   18   15     -1.81      0.00 
    5   18   15      2.70      0.00 
    6   18   15      1.33      0.00 
    7   18   15     -1.19      0.00 
    0   19   15      0.76      0.00 
    1   19   15     -5.73      0.00 
    2   19   15      2.57      0.00 
    3   19   15     -0.31      0.00 
    4   19   15      0.96      0.00 
   12   13   16      1.03      0.00 
   13   13   16      2.62      0.00 
   11   14   16     -0.81      0.00 
   12   14   16      0.96      0.00 
    9   15   16     -0.46      0.00 
   10   15   16      1.22      0.00 
   11   15   16     -1.46      0.00 
    7   16   16     -5.38      0.00 
    8   16   16      1.34      0.00 
    9   16   16     -3.57      0.00 
   10   16   16      1.96      0.00 
    4   17   16     -4.97      0.00 
    5   17   16     -2.73      0.00 
    6   17   16     -2.78      0.00 
    7   17   16      0.87      0.00 
    8   17   16      2.56      0.00 
    0   18   16      1.41      0.00 
    1   18   16     -1.99      0.00 
    2   18   16     -0.11      0.00 
    3   18   16      1.83      0.00 
    4   18   16     -1.22      0.00 
    5   18   16      4.76      0.00 
   12   12   17      0.92      0.00 
   11   13   17     -0.57      0.00 
   12   13   17      0.41      0.00 
    9   14   17     -1.29      0.00 
   10   14   17     -2.11      0.00 
   11   14   17     -3.42      0.00 
    8   15   17      0.97      0.00 
    9   15   17      2.37      0.00 
   10   15   17     -0.71      0.00 
    5   16   17      1.43      0.00 
    6   16   17     -1.83      0.00 
    7   16   17      1.51      0.00 
    8   16   17      1.68      0.00 
    0   17   17     -4.37      0.00 
    1   17   17      2.42      0.00 
    2   17   17     -1.31      0.00 
    3   17   17     -2.19      0.00 
    4   17   17      1.52      0.00 
    5   17   17      0.49      0.00 
    6   17   17     -2.09      0.00 
    0   18   17     -1.79      0.00 
    1   18   17      0.79      0.00 
    2   18   17      0.89      0.00 
    3   18   17     -0.90      0.00 
   11   11   18     -3.10      0.00 
   10   12   18      0.46      0.00 
   11   12   18      0.34      0.00 
   12   12   18     -2.33      0.00 
    9   13   18     -3.38      0.00 
   10   13   18     -2.08      0.00 
   11   13   18      0.17      0.00 
    8   14   18      2.31      0.00 
    9   14   18     -0.26      0.00 
   10   14   18      1.93      0.00 
    5   15   18     -0.76      0.00 
    6   15   18      1.59      0.00 
    7   15   18     -1.03      0.00 
    8   15   18      0.81      0.00 
    9   15   18     -0.86      0.00 
    0   16   18      3.96      0.00 
    1   16   18     -1.95      0.00 
    2   16   18      2.84      0.00 
    3   16   18      2.24      0.00 
    4   16   18     -0.83      0.00 
    5   16   18      0.59      0.00 
    6   16   18      0.94      0.00 
    7   16   18     -0.58      0.00 
    0   17   18      1.49      0.00 
    1   17   18      1.34      0.00 
    2   17   18     -0.14      0.00 
    3   17   18      0.89      0.00 
    4   17   18      1.70      0.00 
   10   10   19     -1.08      0.00 
   10   11   19      4.09      0.00 
   11   11   19      2.35      0.00 
    9   12   19     -0.97      0.00 
   10   12   19      1.52      0.00 
   11   12   19      0.58      0.00 
    7   13   19      0.57      0.00 
    8   13   19     -1.03      0.00 
    9   13   19     -0.17      0.00 
   10   13   19      1.29      0.00 
    5   14   19      3.16      0.00 
    6   14   19      1.06      0.00 
    7   14   19      0.76      0.00 
    8   14   19     -1.59      0.00 
    9   14   19      2.25      0.00 
    0   15   19      1.14      0.00 
    1   15   19      1.96      0.00 
    2   15   19     -1.66      0.00 
    3   15   19     -0.60      0.00 
    4   15   19     -0.92      0.00 
    5   15   19     -1.63      0.00 
    6   15   19     -0.31      0.00 
    7   15   19     -0.84      0.00 
    0   16   19     -0.56      0.00 
    1   16   19     -2.50      0.00 
    2   16   19     -0.11      0.00 
    3   16   19      0.57      0.00 
    4   16   19     -1.69      0.00 
    9    9   20      2.47      0.00 
    9   10   20      2.16      0.00 
   10   10   20      2.22      0.00 
    8   11   20     -1.49      0.00 
    9   11   20     -1.39      0.00 
   10   11   20     -0.18      0.00 
   11   11   20     -2.49      0.00 
    7   12   20      0.01      0.00 
    8   12   20      0.62      0.00 
    9   12   20     -1.35      0.00 
   10   12   20     -0.54      0.00 
    5   13   20      1.61      0.00 
    6   13   20      0.33      0.00 
    7   13   20      1.16      0.00 
    8   13   20      2.88      0.00 
    0   14   20     -5.79      0.00 
    1   14   20      0.20      0.00 
    2   14   20     -3.48      0.00 
    3   14   20      3.99      0.00 
    4   14   20     -4.29      0.00 
    5   14   20      0.70      0.00 
    6   14   20     -0.38      0.00 
    7   14   20     -1.23      0.00 
    0   15   20      0.46      0.00 
    1   15   20     -0.44      0.00 
    2   15   20     -0.18      0.00 
    3   15   20      0.61      0.00 
    4   15   20      0.12      0.00 
    8    9   21     -2.60      0.00 
    9    9   21     -0.87      0.00 
    7   10   21      1.22      0.00 
    8   10   21      0.57      0.00 
    9   10   21     -2.25      0.00 
   10   10   21     -1.86      0.00 
    6   11   21     -0.47      0.00 
    7   11   21     -0.59      0.00 
    8   11   21      0.42      0.00 
    9   11   21      0.10      0.00 
    4   12   21      2.94      0.00 
    5   12   21     -0.71      0.00 
    6   12   21      1.19      0.00 
    7   12   21     -1.65      0.00 
    8   12   21     -0.10      0.00 
    0   13   21     -3.41      0.00 
    1   13   21      3.28      0.00 
    2   13   21     -1.21      0.00 
    3   13   21      1.56      0.00 
    4   13   21      2.69      0.00 
    5   13   21     -0.60      0.00 
    6   13   21      0.43      0.00 
    0   14   21      1.15      0.00 
    1   14   21      3.42      0.00 
    2   14   21     -4.22      0.00 
    3   14   21      0.58      0.00 
    4   14   21     -1.15      0.00 
    8    8   22      4.20      0.00 
    7    9   22      0.18      0.00 
    8    9   22      1.31      0.00 
    9    9   22      0.74      0.00 
    5   10   22      2.62      0.00 
    6   10   22     -0.34      0.00 
    7   10   22     -0.99      0.00 
    8   10   22      0.08      0.00 
    9   10   22     -1.19      0.00 
    0   11   22      5.61      0.00 
    3   11   22     -4.87      0.00 
    4   11   22     -3.22      0.00 
    5   11   22     -4.25      0.00 
    6   11   22     -1.74      0.00 
    7   11   22      2.11      0.00 
    8   11   22      1.18      0.00 
    0   12   22     -1.01      0.00 
    1   12   22      3.29      0.00 
    2   12   22     -3.20      0.00 
    3   12   22      2.22      0.00 
    4   12   22      1.61      0.00 
    5   12   22     -1.22      0.00 
    6   12   22     -0.70      0.00 
    0   13   22     -2.71      0.00 
    1   13   22      5.23      0.00 
    2   13   22     -3.05      0.00 
    3   13   22      0.45      0.00 
    4   13   22     -0.60      0.00 
    7    7   23      7.32      0.00 
    6    8   23     -0.68      0.00 
    7    8   23     -0.08      0.00 
    8    8   23      0.76      0.00 
    4    9   23      0.41      0.00 
    5    9   23      1.70      0.00 
    6    9   23     -1.66      0.00 
    7    9   23      2.23      0.00 
    8    9   23     -2.40      0.00 
    0   10   23     -3.99      0.00 
    1   10   23      2.16      0.00 
    2   10   23      0.45      0.00 
    3   10   23      4.46      0.00 
    4   10   23     -2.46      0.00 
    5   10   23     -0.16      0.00 
    6   10   23     -2.89      0.00 
    7   10   23      1.86      0.00 
    0   11   23     -1.65      0.00 
    1   11   23      2.27      0.00 
    2   11   23      1.22      0.00 
    3   11   23      2.60      0.00 
    4   11   23      0.18      0.00 
    5   11   23      2.45      0.00 
    0   12   23     -2.41      0.00 
    1   12   23     -1.96      0.00 
    2   12   23      1.12      0.00 
    0    0   24     -6.21      0.00 
    5    6   24     -0.48      0.00 
    6    6   24      1.94      0.00 
    0    7   24      4.28      0.00 
    3    7   24      7.86      0.00 
    4    7   24     -2.33      0.00 
    5    7   24      1.96      0.00 
    6    7   24     -4.70      0.00 
    7    7   24      1.85      0.00 
    0    8   24     -2.90      0.00 
    1    8   24     -1.88      0.00 
    2    8   24      1.76      0.00 
    3    8   24     -0.72      0.00 
    4    8   24     -0.49      0.00 
    5    8   24     -0.36      0.00 
    6    8   24      1.95      0.00 
    7    8   24     -1.48      0.00 
    0    9   24     -4.86      0.00 
    1    9   24      1.28      0.00 
    2    9   24     -0.90      0.00 
    3    9   24     -0.21      0.00 
    4    9   24     -0.44      0.00 
    5    9   24     -0.58      0.00 
    0   10   24     -0.77      0.00 
    1   10   24      1.17      0.00 
    2   10   24      1.09      0.00 
    3   10   24     -1.26      0.00 
    0    0   25      1.14      0.00 
    0    1   25     -0.95      0.00 
    1    1   25     -0.47      0.00 
    0    2   25     -2.73      0.00 
    1    2   25      1.30      0.00 
    2    2   25     -0.81      0.00 
    0    3   25     -1.91      0.00 
    3    3   25     -0.72      0.00 
    0    4   25      3.83      0.00 
    1    4   25     -2.44      0.00 
    2    4   25      2.05      0.00 
    3    4   25      0.93      0.00 
    4    4   25      1.58      0.00 
    0    5   25      3.06      0.00 
    1    5   25     -1.72      0.00 
    2    5   25     -0.36      0.00 
    3    5   25      0.93      0.00 
    4    5   25      1.19      0.00 
    5    5   25      0.81      0.00 
    0    6   25     -2.41      0.00 
    1    6   25     -1.27      0.00 
    2    6   25     -2.54      0.00 
    3    6   25     -0.54      0.00 
    4    6   25     -1.16      0.00 
    5    6   25      0.53      0.00 
    6    6   25      3.18      0.00 
    0    7   25     -0.74      0.00 
    1    7   25      2.35      0.00 
    2    7   25     -1.62      0.00 
    3    7   25      0.21      0.00 
    4    7   25     -0.65      0.00 
    5    7   25      2.45      0.00 
    0    8   25     -0.73      0.00 
    1    8   25     -0.24      0.00 
    2    8   25     -0.52      0.00 
    3    8   25     -3.20      0.00 
    0    0   26     -4.14      0.00 
    0    1   26      2.43      0.00 
    1    1   26      0.55      0.00 
    0    2   26      1.54      0.00 
    1    2   26     -1.42      0.00 
    2    2   26      0.58      0.00 
    0    3   26      1.84      0.00 
    1    3   26     -1.79      0.00 
    2    3   26      0.43      0.00 
    3    3   26     -0.57      0.00 
    0    4   26      0.91      0.00 
    1    4   26      0.07      0.00 
    2    4   26     -0.04      0.00 
    3    4   26     -0.91      0.00 
    4    4   26     -0.28      0.00 
    0    5   26     -1.42      0.00 
    1    5   26      1.24      0.00 
    2    5   26      0.45      0.00 
    3    5   26     -1.61      0.00 
    0    6   26      0.11      0.00 
    1    6   26      0.70      0.00 
    0    0    0      0.00      0.00 
# SQUEEZE RESULTS (Version = 130220) 
# Note: Data are Listed for all Voids in the P1 Unit Cell 
# i.e. Centre of Gravity, Solvent Accessible Volume, 
# Recovered number of Electrons in the Void and 
# Details about the Squeezed Material 
loop_ 
  _platon_squeeze_void_nr 
  _platon_squeeze_void_average_x 
  _platon_squeeze_void_average_y 
  _platon_squeeze_void_average_z 
  _platon_squeeze_void_volume 
  _platon_squeeze_void_count_electrons 
  _platon_squeeze_void_content 
   1 -0.027 -0.013  0.293      4768      1110 ' ' 
# Missing Reflections Below sin(th)/lambda = 0.25 
loop_ 
  _platon_missing_refln_index_h 
  _platon_missing_refln_index_k 
  _platon_missing_refln_index_l 
  _platon_missing_refln_theta 
    0    1    0     2.449 
    0    0    1     2.144 
    0    3    5    13.108 
_platon_squeeze_void_probe_radius                  1.20 
_platon_squeeze_details 

;
_shelx_fab_checksum              31346
loop_
_space_group_symop_operation_xyz
'x, y, z'
'-x, -y, z'
'-y, x, z'
'y, -x, z'
'-x, y, -z'
'x, -y, -z'
'y, x, -z'
'-y, -x, -z'
'-x, -y, -z'
'x, y, -z'
'y, -x, -z'
'-y, x, -z'
'x, -y, z'
'-x, y, z'
'-y, -x, z'
'y, x, z'
loop_
_atom_site_label
_atom_site_type_symbol
_atom_site_fract_x
_atom_site_fract_y
_atom_site_fract_z
_atom_site_U_iso_or_equiv
_atom_site_adp_type
_atom_site_occupancy
_atom_site_site_symmetry_order
_atom_site_calc_flag
_atom_site_refinement_flags_posn
_atom_site_refinement_flags_adp
_atom_site_refinement_flags_occupancy
_atom_site_disorder_assembly
_atom_site_disorder_group
C1 C 0.3366(4) 0.3366(4) 0.2931(4) 0.158(6) Uani 1 2 d DS TU P . .
C2 C 0.3487(4) 0.3487(4) 0.2291(4) 0.164(6) Uani 1 2 d DS TU P . .
H2 H 0.3838 0.3838 0.2170 0.197 Uiso 1 2 calc R U P . .
C3 C 0.3121(4) 0.3121(4) 0.1823(5) 0.094(4) Uani 0.5 2 d DS TU P . .
H3 H 0.3222 0.3222 0.1390 0.113 Uiso 0.5 2 calc R U P . .
C4 C 0.2606(4) 0.2606(4) 0.1976(4) 0.217(7) Uani 1 2 d DS TU P . .
C5 C 0.2481(4) 0.2481(4) 0.2617(4) 0.251(9) Uani 1 2 d DS TU P . .
H5 H 0.2131 0.2131 0.2744 0.301 Uiso 1 2 calc R U P . .
C6 C 0.2864(5) 0.2864(5) 0.3072(5) 0.229(8) Uani 1 2 d DS TU P . .
H6 H 0.2766 0.2766 0.3507 0.275 Uiso 1 2 calc R U P . .
C7 C 0.3790(4) 0.3790(4) 0.3444(4) 0.128(5) Uani 1 2 d S TU P . .
C8 C 0.0526(6) 0.0526(6) 0.0000 0.098(4) Uani 1 4 d S TU P . .
C9 C 0.0767(19) 0.0000 0.0000 0.091(6) Uani 0.5 4 d S TU P . .
C10 C 0.161(2) 0.0000 0.0000 0.117(8) Uani 0.5 4 d S TU P . .
C11 C 0.1401(4) 0.1401(4) 0.0543(5) 0.235(8) Uani 1 2 d DS TU P . .
C12 C 0.1918(4) 0.1918(4) 0.0355(5) 0.224(7) Uani 1 2 d DS TU P . .
C13 C 0.2311(4) 0.2311(4) 0.0814(5) 0.219(7) Uani 1 2 d DS TU P . .
H13 H 0.2662 0.2662 0.0689 0.263 Uiso 1 2 calc R U P . .
C14 C 0.2174(4) 0.2174(4) 0.1466(5) 0.246(8) Uani 1 2 d DS TU P . .
C15 C 0.1658(4) 0.1658(4) 0.1647(5) 0.238(8) Uani 1 2 d DS TU P . .
H15 H 0.1575 0.1575 0.2087 0.286 Uiso 1 2 calc R U P . .
C16 C 0.1258(4) 0.1258(4) 0.1199(5) 0.234(9) Uani 1 2 d DS TU P . .
H16 H 0.0908 0.0908 0.1326 0.281 Uiso 1 2 calc R U P . .
N1 N 0.1059(5) 0.1059(5) 0.0000 0.190(7) Uani 1 4 d S TU P . .
O1 O 0.5000 0.5962(4) 0.4413(3) 0.103(2) Uani 1 2 d S TU P . .
O2 O 0.4201(9) 0.2795(5) 0.5000 0.230(7) Uani 1 2 d S TU P . .
O3 O 0.4255(2) 0.4255(2) 0.3257(2) 0.0830(18) Uani 1 2 d S TU P . .
O4 O 0.3634(3) 0.3634(3) 0.4023(3) 0.147(4) Uani 1 2 d S TU P . .
O5 O 0.1933(12) 0.0000 0.0498(13) 0.179(10) Uani 0.5 2 d S TU P . .
Zr1 Zr 0.5000 0.5000 0.37998(4) 0.0502(4) Uani 1 8 d S TU P . .
Zr2 Zr 0.40291(4) 0.40291(4) 0.5000 0.0985(6) Uani 1 4 d S TU P . .
loop_
_atom_site_aniso_label
_atom_site_aniso_U_11
_atom_site_aniso_U_22
_atom_site_aniso_U_33
_atom_site_aniso_U_23
_atom_site_aniso_U_13
_atom_site_aniso_U_12
C1 0.221(9) 0.221(9) 0.033(4) -0.006(3) -0.006(3) -0.147(10)
C2 0.226(9) 0.226(9) 0.041(4) -0.006(3) -0.006(3) -0.148(11)
C3 0.125(6) 0.125(6) 0.033(5) -0.005(3) -0.005(3) -0.058(7)
C4 0.300(11) 0.300(11) 0.049(4) -0.007(3) -0.007(3) -0.218(12)
C5 0.348(13) 0.348(13) 0.056(5) -0.001(3) -0.001(3) -0.273(14)
C6 0.320(13) 0.320(13) 0.048(5) -0.005(3) -0.005(3) -0.237(13)
C7 0.177(7) 0.177(7) 0.031(4) -0.003(3) -0.003(3) -0.099(8)
C8 0.124(6) 0.124(6) 0.045(6) 0.000 0.000 -0.051(7)
C9 0.095(10) 0.155(9) 0.024(8) 0.000 0.000 0.000
C10 0.118(11) 0.12(2) 0.111(17) 0.000 0.000 0.000
C11 0.329(11) 0.329(11) 0.048(5) -0.001(3) -0.001(3) -0.254(12)
C12 0.305(10) 0.305(10) 0.061(6) 0.002(3) 0.002(3) -0.224(10)
C13 0.299(10) 0.299(10) 0.060(5) -0.006(3) -0.006(3) -0.219(11)
C14 0.340(12) 0.340(12) 0.058(5) -0.004(3) -0.004(3) -0.268(12)
C15 0.336(13) 0.336(13) 0.042(5) 0.000(3) 0.000(3) -0.254(14)
C16 0.328(13) 0.328(13) 0.046(5) 0.001(3) 0.001(3) -0.254(14)
N1 0.261(11) 0.261(11) 0.047(6) 0.000 0.000 -0.188(12)
O1 0.129(6) 0.126(5) 0.055(4) -0.041(3) 0.000 0.000
O2 0.53(2) 0.114(5) 0.043(4) 0.000 0.000 -0.139(8)
O3 0.109(3) 0.109(3) 0.031(2) -0.0059(15) -0.0059(15) -0.040(3)
O4 0.207(6) 0.207(6) 0.028(3) -0.0076(18) -0.0076(18) -0.133(6)
O5 0.149(15) 0.166(17) 0.22(2) 0.000 -0.093(16) 0.000
Zr1 0.0675(5) 0.0675(5) 0.0154(5) 0.000 0.000 0.000
Zr2 0.1382(9) 0.1382(9) 0.0190(5) 0.000 0.000 -0.0777(9)
loop_
_atom_type_symbol
_atom_type_description
_atom_type_scat_dispersion_real
_atom_type_scat_dispersion_imag
_atom_type_scat_source
C C 0.0181 0.0091 'International Tables Vol C Tables 4.2.6.8 and 6.1.1.4'
H H 0.0000 0.0000 'International Tables Vol C Tables 4.2.6.8 and 6.1.1.4'
N N 0.0311 0.0180 'International Tables Vol C Tables 4.2.6.8 and 6.1.1.4'
O O 0.0492 0.0322 'International Tables Vol C Tables 4.2.6.8 and 6.1.1.4'
Zr Zr -0.1862 2.2449 'International Tables Vol C Tables 4.2.6.8 and 6.1.1.4'
loop_
_geom_angle_atom_site_label_1
_geom_angle_atom_site_label_2
_geom_angle_atom_site_label_3
_geom_angle
_geom_angle_site_symmetry_1
_geom_angle_site_symmetry_3
_geom_angle_publ_flag
C6 C1 C2 115.9(8) . . ?
C6 C1 C7 123.0(8) . . ?
C2 C1 C7 121.2(9) . . ?
C3 C2 C1 122.7(9) . . ?
C3 C2 H2 118.6 . . ?
C1 C2 H2 118.6 . . ?
C2 C3 C4 120.6(9) . . ?
C2 C3 H3 119.7 . . ?
C4 C3 H3 119.7 . . ?
C3 C4 C5 117.1(8) . . ?
C3 C4 C14 122.8(8) . . ?
C5 C4 C14 120.1(8) . . ?
C6 C5 C4 120.2(9) . . ?
C6 C5 H5 119.9 . . ?
C4 C5 H5 119.9 . . ?
C1 C6 C5 123.5(10) . . ?
C1 C6 H6 118.2 . . ?
C5 C6 H6 118.2 . . ?
O3 C7 O4 126.5(9) . . ?
O3 C7 C1 117.7(8) . . ?
O4 C7 C1 115.9(9) . . ?
C9 C8 C9 139(4) . 3 ?
C9 C8 N1 110(2) . . ?
C9 C8 N1 110(2) 3 . ?
C9 C8 C8 115(2) . 3 ?
C9 C8 C8 25(2) 3 3 ?
N1 C8 C8 135.0 . 3 ?
C9 C8 C8 25(2) . 11 ?
C9 C8 C8 115(2) 3 11 ?
N1 C8 C8 135.0 . 11 ?
C8 C8 C8 90.0 3 11 ?
C8 C9 C8 131(4) 11 . ?
C8 C9 C10 115(2) 11 . ?
C8 C9 C10 115(2) . . ?
C8 C9 C9 20(2) 11 11 ?
C8 C9 C9 110(2) . 11 ?
C10 C9 C9 135.0 . 11 ?
C8 C9 C9 110(2) 11 3 ?
C8 C9 C9 20(2) . 3 ?
C10 C9 C9 134.999(1) . 3 ?
C9 C9 C9 90.001(1) 11 3 ?
O5 C10 O5 121(5) 10 . ?
O5 C10 C9 119(2) 10 . ?
O5 C10 C9 119(2) . . ?
C12 C11 C16 121.6(9) . . ?
C12 C11 N1 111.6(9) . . ?
C16 C11 N1 126.9(10) . . ?
C11 C12 C13 120.3(9) . . ?
C11 C12 C12 106.4(6) . 10 ?
C13 C12 C12 133.3(6) . 10 ?
C12 C13 C14 118.8(8) . . ?
C12 C13 H13 120.6 . . ?
C14 C13 H13 120.6 . . ?
C15 C14 C13 120.4(8) . . ?
C15 C14 C4 120.5(8) . . ?
C13 C14 C4 119.1(8) . . ?
C14 C15 C16 122.0(8) . . ?
C14 C15 H15 119.0 . . ?
C16 C15 H15 119.0 . . ?
C15 C16 C11 117.0(9) . . ?
C15 C16 H16 121.5 . . ?
C11 C16 H16 121.5 . . ?
C8 N1 C11 127.9(6) . 10 ?
C8 N1 C11 127.9(6) . . ?
C11 N1 C11 104.1(12) 10 . ?
Zr2 O1 Zr2 110.8(3) 9_666 11_566 ?
Zr2 O1 Zr1 109.9(2) 9_666 . ?
Zr2 O1 Zr1 109.9(2) 11_566 . ?
C7 O3 Zr1 131.5(5) . . ?
C7 O4 Zr2 134.9(7) . . ?
O1 Zr1 O1 69.7(2) 4_565 . ?
O1 Zr1 O1 107.8(4) 4_565 3_655 ?
O1 Zr1 O1 69.7(2) . 3_655 ?
O1 Zr1 O1 69.7(2) 4_565 2_665 ?
O1 Zr1 O1 107.8(4) . 2_665 ?
O1 Zr1 O1 69.7(2) 3_655 2_665 ?
O1 Zr1 O3 78.83(19) 4_565 2_665 ?
O1 Zr1 O3 78.82(19) . 2_665 ?
O1 Zr1 O3 142.30(5) 3_655 2_665 ?
O1 Zr1 O3 142.30(5) 2_665 2_665 ?
O1 Zr1 O3 142.30(5) 4_565 4_565 ?
O1 Zr1 O3 78.82(19) . 4_565 ?
O1 Zr1 O3 78.83(19) 3_655 4_565 ?
O1 Zr1 O3 142.30(5) 2_665 4_565 ?
O3 Zr1 O3 75.09(13) 2_665 4_565 ?
O1 Zr1 O3 78.83(19) 4_565 3_655 ?
O1 Zr1 O3 142.30(5) . 3_655 ?
O1 Zr1 O3 142.30(5) 3_655 3_655 ?
O1 Zr1 O3 78.83(19) 2_665 3_655 ?
O3 Zr1 O3 75.09(13) 2_665 3_655 ?
O3 Zr1 O3 119.0(3) 4_565 3_655 ?
O1 Zr1 O3 142.30(5) 4_565 . ?
O1 Zr1 O3 142.30(5) . . ?
O1 Zr1 O3 78.83(19) 3_655 . ?
O1 Zr1 O3 78.83(19) 2_665 . ?
O3 Zr1 O3 119.0(3) 2_665 . ?
O3 Zr1 O3 75.09(13) 4_565 . ?
O3 Zr1 O3 75.09(13) 3_655 . ?
O1 Zr1 Zr2 89.34(17) 4_565 . ?
O1 Zr1 Zr2 89.34(17) . . ?
O1 Zr1 Zr2 34.87(10) 3_655 . ?
O1 Zr1 Zr2 34.87(10) 2_665 . ?
O3 Zr1 Zr2 165.53(14) 2_665 . ?
O3 Zr1 Zr2 111.00(9) 4_565 . ?
O3 Zr1 Zr2 111.00(9) 3_655 . ?
O3 Zr1 Zr2 75.43(14) . . ?
O1 Zr1 Zr2 34.87(10) 4_565 9_666 ?
O1 Zr1 Zr2 34.87(10) . 9_666 ?
O1 Zr1 Zr2 89.34(17) 3_655 9_666 ?
O1 Zr1 Zr2 89.34(17) 2_665 9_666 ?
O3 Zr1 Zr2 75.43(14) 2_665 9_666 ?
O3 Zr1 Zr2 111.00(9) 4_565 9_666 ?
O3 Zr1 Zr2 111.00(9) 3_655 9_666 ?
O3 Zr1 Zr2 165.53(14) . 9_666 ?
Zr2 Zr1 Zr2 90.10(3) . 9_666 ?
O1 Zr1 Zr2 89.34(17) 4_565 11_566 ?
O1 Zr1 Zr2 34.87(10) . 11_566 ?
O1 Zr1 Zr2 34.87(10) 3_655 11_566 ?
O1 Zr1 Zr2 89.34(17) 2_665 11_566 ?
O3 Zr1 Zr2 111.00(9) 2_665 11_566 ?
O3 Zr1 Zr2 75.43(14) 4_565 11_566 ?
O3 Zr1 Zr2 165.53(14) 3_655 11_566 ?
O3 Zr1 Zr2 111.00(9) . 11_566 ?
Zr2 Zr1 Zr2 60.056(18) . 11_566 ?
Zr2 Zr1 Zr2 60.057(18) 9_666 11_566 ?
O1 Zr1 Zr2 34.87(10) 4_565 3_655 ?
O1 Zr1 Zr2 89.34(17) . 3_655 ?
O1 Zr1 Zr2 89.34(17) 3_655 3_655 ?
O1 Zr1 Zr2 34.87(10) 2_665 3_655 ?
O3 Zr1 Zr2 111.00(9) 2_665 3_655 ?
O3 Zr1 Zr2 165.53(14) 4_565 3_655 ?
O3 Zr1 Zr2 75.43(14) 3_655 3_655 ?
O3 Zr1 Zr2 111.00(9) . 3_655 ?
Zr2 Zr1 Zr2 60.056(18) . 3_655 ?
Zr2 Zr1 Zr2 60.057(18) 9_666 3_655 ?
Zr2 Zr1 Zr2 90.10(3) 11_566 3_655 ?
O1 Zr2 O1 70.4(3) 12_656 9_666 ?
O1 Zr2 O1 69.2(3) 12_656 3_655 ?
O1 Zr2 O1 108.0(4) 9_666 3_655 ?
O1 Zr2 O1 108.0(4) 12_656 2_665 ?
O1 Zr2 O1 69.2(3) 9_666 2_665 ?
O1 Zr2 O1 70.4(3) 3_655 2_665 ?
O1 Zr2 O2 144.49(14) 12_656 . ?
O1 Zr2 O2 83.9(4) 9_666 . ?
O1 Zr2 O2 144.49(14) 3_655 . ?
O1 Zr2 O2 83.9(4) 2_665 . ?
O1 Zr2 O2 83.9(4) 12_656 7_556 ?
O1 Zr2 O2 144.49(14) 9_666 7_556 ?
O1 Zr2 O2 83.9(4) 3_655 7_556 ?
O1 Zr2 O2 144.49(14) 2_665 7_556 ?
O2 Zr2 O2 105.9(8) . 7_556 ?
O1 Zr2 O4 140.44(15) 12_656 . ?
O1 Zr2 O4 140.44(15) 9_666 . ?
O1 Zr2 O4 75.8(2) 3_655 . ?
O1 Zr2 O4 75.8(2) 2_665 . ?
O2 Zr2 O4 74.3(2) . . ?
O2 Zr2 O4 74.3(2) 7_556 . ?
O1 Zr2 O4 75.8(2) 12_656 10_556 ?
O1 Zr2 O4 75.8(2) 9_666 10_556 ?
O1 Zr2 O4 140.44(15) 3_655 10_556 ?
O1 Zr2 O4 140.44(15) 2_665 10_556 ?
O2 Zr2 O4 74.3(2) . 10_556 ?
O2 Zr2 O4 74.3(2) 7_556 10_556 ?
O4 Zr2 O4 126.8(4) . 10_556 ?
O1 Zr2 Zr1 89.17(18) 12_656 . ?
O1 Zr2 Zr1 89.17(18) 9_666 . ?
O1 Zr2 Zr1 35.20(16) 3_655 . ?
O1 Zr2 Zr1 35.20(16) 2_665 . ?
O2 Zr2 Zr1 115.2(3) . . ?
O2 Zr2 Zr1 115.2(3) 7_556 . ?
O4 Zr2 Zr1 71.64(18) . . ?
O4 Zr2 Zr1 161.55(19) 10_556 . ?
O1 Zr2 Zr1 35.20(16) 12_656 9_666 ?
O1 Zr2 Zr1 35.20(16) 9_666 9_666 ?
O1 Zr2 Zr1 89.17(18) 3_655 9_666 ?
O1 Zr2 Zr1 89.17(18) 2_665 9_666 ?
O2 Zr2 Zr1 115.2(3) . 9_666 ?
O2 Zr2 Zr1 115.2(3) 7_556 9_666 ?
O4 Zr2 Zr1 161.55(19) . 9_666 ?
O4 Zr2 Zr1 71.64(18) 10_556 9_666 ?
Zr1 Zr2 Zr1 89.90(3) . 9_666 ?
O1 Zr2 Zr2 34.62(13) 12_656 11_566 ?
O1 Zr2 Zr2 89.5(2) 9_666 11_566 ?
O1 Zr2 Zr2 34.62(13) 3_655 11_566 ?
O1 Zr2 Zr2 89.5(2) 2_665 11_566 ?
O2 Zr2 Zr2 172.1(4) . 11_566 ?
O2 Zr2 Zr2 82.1(4) 7_556 11_566 ?
O4 Zr2 Zr2 108.46(12) . 11_566 ?
O4 Zr2 Zr2 108.46(12) 10_556 11_566 ?
Zr1 Zr2 Zr2 59.973(9) . 11_566 ?
Zr1 Zr2 Zr2 59.973(9) 9_666 11_566 ?
O1 Zr2 Zr2 89.5(2) 12_656 3_655 ?
O1 Zr2 Zr2 34.62(13) 9_666 3_655 ?
O1 Zr2 Zr2 89.5(2) 3_655 3_655 ?
O1 Zr2 Zr2 34.62(13) 2_665 3_655 ?
O2 Zr2 Zr2 82.1(4) . 3_655 ?
O2 Zr2 Zr2 172.1(4) 7_556 3_655 ?
O4 Zr2 Zr2 108.46(12) . 3_655 ?
O4 Zr2 Zr2 108.46(12) 10_556 3_655 ?
Zr1 Zr2 Zr2 59.973(9) . 3_655 ?
Zr1 Zr2 Zr2 59.973(9) 9_666 3_655 ?
Zr2 Zr2 Zr2 90.0 11_566 3_655 ?
loop_
_geom_bond_atom_site_label_1
_geom_bond_atom_site_label_2
_geom_bond_distance
_geom_bond_site_symmetry_2
_geom_bond_publ_flag
C1 C6 1.314(15) . ?
C1 C2 1.355(10) . ?
C1 C7 1.511(13) . ?
C2 C3 1.343(11) . ?
C2 H2 0.9300 . ?
C3 C4 1.350(12) . ?
C3 H3 0.9300 . ?
C4 C5 1.359(11) . ?
C4 C14 1.523(14) . ?
C5 C6 1.353(12) . ?
C5 H5 0.9300 . ?
C6 H6 0.9300 . ?
C7 O3 1.248(12) . ?
C7 O4 1.257(11) . ?
C8 C9 1.043(13) . ?
C8 C9 1.043(13) 3 ?
C8 N1 1.36(2) . ?
C8 C8 1.90(2) 3 ?
C8 C8 1.90(2) 11 ?
C9 C8 1.043(13) 11 ?
C9 C10 1.52(5) . ?
C9 C9 1.96(5) 11 ?
C9 C9 1.96(5) 3 ?
C10 O5 1.18(3) 10 ?
C10 O5 1.18(3) . ?
C11 C12 1.375(12) . ?
C11 C16 1.399(15) . ?
C11 N1 1.420(13) . ?
C12 C13 1.378(11) . ?
C12 C12 1.46(2) 10 ?
C13 C14 1.387(11) . ?
C13 H13 0.9300 . ?
C14 C15 1.370(11) . ?
C15 C16 1.377(11) . ?
C15 H15 0.9300 . ?
C16 H16 0.9300 . ?
N1 C11 1.420(13) 10 ?
O1 Zr2 2.128(3) 9_666 ?
O1 Zr2 2.128(3) 11_566 ?
O1 Zr1 2.146(6) . ?
O2 Zr2 2.247(11) . ?
O3 Zr1 2.206(5) . ?
O4 Zr2 2.252(6) . ?
Zr1 O1 2.146(6) 4_565 ?
Zr1 O1 2.146(6) 3_655 ?
Zr1 O1 2.146(6) 2_665 ?
Zr1 O3 2.206(5) 2_665 ?
Zr1 O3 2.206(5) 4_565 ?
Zr1 O3 2.206(5) 3_655 ?
Zr1 Zr2 3.5001(10) . ?
Zr1 Zr2 3.5002(10) 9_666 ?
Zr1 Zr2 3.5002(10) 11_566 ?
Zr1 Zr2 3.5002(10) 3_655 ?
Zr2 O1 2.128(3) 12_656 ?
Zr2 O1 2.128(3) 9_666 ?
Zr2 O1 2.128(3) 3_655 ?
Zr2 O1 2.128(3) 2_665 ?
Zr2 O2 2.247(11) 7_556 ?
Zr2 O4 2.252(6) 10_556 ?
Zr2 Zr1 3.5002(10) 9_666 ?
Zr2 Zr2 3.5031(15) 11_566 ?
Zr2 Zr2 3.5031(15) 3_655 ?
