#------------------------------------------------------------------------------
#$Date: 2020-04-10 00:15:10 +0300 (Fri, 10 Apr 2020) $
#$Revision: 250538 $
#$URL: file:///home/coder/svn-repositories/cod/cif/4/51/75/4517555.cif $
#------------------------------------------------------------------------------
#
# This file is available in the Crystallography Open Database (COD),
# http://www.crystallography.net/
#
# All data on this site have been placed in the public domain by the
# contributors.
#
data_4517555
loop_
_publ_author_name
'Kan, Liang'
'Li, Guanghua'
'Liu, Yunling'
_publ_section_title
;
 Highly Selective Separation of C3H8 and C2H2 over CH4 within Two
 Water-Stable Zn5 Cluster-Based Metal-Organic Frameworks.
;
_journal_name_full               'ACS applied materials &amp; interfaces'
_journal_paper_doi               10.1021/acsami.0c04538
_journal_year                    2020
_chemical_formula_moiety         'C42 H44 N20 O12 Zn5'
_chemical_formula_sum            'C42 H44 N20 O12 Zn5'
_chemical_formula_weight         1347.82
_space_group_crystal_system      triclinic
_space_group_IT_number           2
_space_group_name_Hall           '-P 1'
_space_group_name_H-M_alt        'P -1'
_atom_sites_solution_hydrogens   geom
_audit_creation_method           SHELXL-2016/6
_cell_angle_alpha                101.19(3)
_cell_angle_beta                 97.41(3)
_cell_angle_gamma                92.52(3)
_cell_formula_units_Z            2
_cell_length_a                   12.219(2)
_cell_length_b                   15.700(3)
_cell_length_c                   15.737(3)
_cell_measurement_reflns_used    29631
_cell_measurement_temperature    293(2)
_cell_measurement_theta_max      25.037
_cell_measurement_theta_min      2.290
_cell_volume                     2929.4(10)
_computing_structure_refinement  'SHELXL-2016/6 (Sheldrick, 2016)'
_diffrn_ambient_temperature      293(2)
_diffrn_detector_area_resol_mean 20.00cm
_diffrn_measured_fraction_theta_full 0.994
_diffrn_measured_fraction_theta_max 0.994
_diffrn_measurement_device_type  'CCD area detector'
_diffrn_measurement_method       'phi and omega scans'
_diffrn_radiation_type           MoK\a
_diffrn_radiation_wavelength     0.71073
_diffrn_reflns_av_R_equivalents  0.0369
_diffrn_reflns_av_unetI/netI     0.0501
_diffrn_reflns_Laue_measured_fraction_full 0.994
_diffrn_reflns_Laue_measured_fraction_max 0.994
_diffrn_reflns_limit_h_max       12
_diffrn_reflns_limit_h_min       -14
_diffrn_reflns_limit_k_max       18
_diffrn_reflns_limit_k_min       -18
_diffrn_reflns_limit_l_max       18
_diffrn_reflns_limit_l_min       -18
_diffrn_reflns_number            29631
_diffrn_reflns_point_group_measured_fraction_full 0.994
_diffrn_reflns_point_group_measured_fraction_max 0.994
_diffrn_reflns_theta_full        25.037
_diffrn_reflns_theta_max         25.037
_diffrn_reflns_theta_min         2.290
_exptl_absorpt_coefficient_mu    2.089
_exptl_absorpt_correction_T_max  0.6014
_exptl_absorpt_correction_T_min  0.5471
_exptl_absorpt_correction_type   empirical
_exptl_absorpt_process_details   SADABS
_exptl_crystal_colour            colourless
_exptl_crystal_density_diffrn    1.528
_exptl_crystal_description       block
_exptl_crystal_F_000             1364
_exptl_crystal_size_max          0.22
_exptl_crystal_size_mid          0.20
_exptl_crystal_size_min          0.17
_refine_diff_density_max         0.461
_refine_diff_density_min         -0.534
_refine_diff_density_rms         0.070
_refine_ls_extinction_method     none
_refine_ls_goodness_of_fit_ref   1.055
_refine_ls_hydrogen_treatment    constr
_refine_ls_matrix_type           full
_refine_ls_number_parameters     595
_refine_ls_number_reflns         10299
_refine_ls_number_restraints     0
_refine_ls_restrained_S_all      1.055
_refine_ls_R_factor_all          0.0506
_refine_ls_R_factor_gt           0.0355
_refine_ls_shift/su_max          0.001
_refine_ls_shift/su_mean         0.000
_refine_ls_structure_factor_coef Fsqd
_refine_ls_weighting_details
'w=1/[\s^2^(Fo^2^)+(0.0456P)^2^+1.2472P] where P=(Fo^2^+2Fc^2^)/3'
_refine_ls_weighting_scheme      calc
_refine_ls_wR_factor_gt          0.0956
_refine_ls_wR_factor_ref         0.0999
_reflns_Friedel_coverage         0.000
_reflns_number_gt                7697
_reflns_number_total             10299
_reflns_threshold_expression     'I > 2\s(I)'
_cod_data_source_file            am0c04538_si_003.cif
_cod_data_source_block           JLU-MOF67
_cod_original_cell_volume        2929.3(11)
_cod_database_code               4517555
_shelx_shelxl_version_number     2016/6
_shelx_space_group_comment
;
The symmetry employed for this shelxl refinement is uniquely defined
by the following loop, which should always be used as a source of
symmetry information in preference to the above space-group names.
They are only intended as comments.
;
_shelx_res_file
;
TITL aaa in P-1
    aaa.res
    created by SHELXL-2016/6 at 14:43:11 on 23-Dec-2019
CELL 0.71073  12.2188  15.6998  15.7370 101.194  97.410  92.522
ZERR    2.00   0.0024   0.0031   0.0031   0.030   0.030   0.030
LATT  1
SFAC C H N O ZN
UNIT 84 88 40 24 10

L.S. 15
BOND $h
acta
htab
FMAP 2
PLAN -20

WGHT    0.045600    1.247200
FVAR       0.38038
ZN1   5    0.703031    0.553210    0.727087    11.00000    0.03569    0.02396 =
         0.02175    0.00628    0.00022   -0.00233
ZN2   5    0.878202    0.581332    0.567084    11.00000    0.04894    0.03719 =
         0.03229    0.00586    0.01338   -0.00925
ZN3   5    0.577698    0.337429    0.674912    11.00000    0.03873    0.02240 =
         0.02975    0.00343   -0.00147   -0.00696
ZN4   5    0.482736    0.705788    0.734802    11.00000    0.04427    0.02889 =
         0.03983    0.01322    0.00356    0.00598
ZN5   5    0.868956    0.589103    0.935941    11.00000    0.05608    0.03728 =
         0.02467    0.00821   -0.01238   -0.01297
O1    4    0.965098    0.647084    0.501158    11.00000    0.05108    0.04975 =
         0.03466    0.01470    0.01279   -0.00348
O2    4    0.907007    0.526419    0.410804    11.00000    0.09664    0.06810 =
         0.04958    0.02044    0.00424   -0.04901
O3    4    0.947728    0.645337    0.049090    11.00000    0.06796    0.05039 =
         0.02477    0.01039   -0.01397   -0.00725
O4    4    0.899079    0.525114    0.083460    11.00000    0.24529    0.07357 =
         0.04099    0.00949   -0.04263   -0.09005
O5    4    1.509651    1.224596    0.610987    11.00000    0.05399    0.02434 =
         0.04838    0.00615   -0.00562   -0.01055
O6    4    1.521292    1.210629    0.747780    11.00000    0.08874    0.03494 =
         0.04751   -0.00427   -0.00974   -0.02051
O7    4    1.414537    0.795849    0.676404    11.00000    0.05694    0.02372 =
         0.05046    0.01156   -0.00635    0.00596
O8    4    1.512023    0.892101    0.782031    11.00000    0.13693    0.05049 =
         0.06999    0.02437   -0.05704   -0.02027
O9    4    0.345683    0.717115    0.808851    11.00000    0.08675    0.06816 =
         0.12599    0.00468    0.06298    0.00698
N1    3    0.793910    0.464968    0.555389    11.00000    0.03628    0.03790 =
         0.02485    0.00754    0.00499    0.00013
N2    3    0.732906    0.452773    0.616372    11.00000    0.03951    0.02474 =
         0.02718    0.00061    0.00262   -0.00832
N3    3    0.674618    0.377203    0.591931    11.00000    0.04152    0.02397 =
         0.02946    0.00286    0.00154   -0.00219
N4    3    0.740580    0.651694    0.579820    11.00000    0.04591    0.03437 =
         0.02794    0.01361    0.00687   -0.00107
N5    3    0.681202    0.643487    0.643073    11.00000    0.03876    0.03470 =
         0.02668    0.01171    0.00639    0.00484
N6    3    0.597264    0.694358    0.640470    11.00000    0.04229    0.03129 =
         0.03249    0.01548    0.00305    0.00200
N7    3    0.945464    0.608031    0.695378    11.00000    0.03523    0.03766 =
         0.03927    0.00928    0.00682   -0.00382
N8    3    0.882927    0.591675    0.754493    11.00000    0.03777    0.03671 =
         0.02666    0.00777    0.00032   -0.00213
N9    3    0.944564    0.609702    0.834225    11.00000    0.04138    0.04243 =
         0.03240    0.00980   -0.00915   -0.00751
N10   3    0.476415    0.435774    0.685034    11.00000    0.03894    0.02752 =
         0.03345    0.00563   -0.00062   -0.00625
N11   3    0.522820    0.516543    0.701491    11.00000    0.03576    0.01911 =
         0.03355    0.00431    0.00199   -0.00130
N12   3    0.443905    0.572420    0.705538    11.00000    0.03825    0.03124 =
         0.03795    0.00930    0.00516    0.00221
N13   3    0.681027    0.377438    0.789864    11.00000    0.03898    0.02344 =
         0.03120    0.00810   -0.00279   -0.00558
N14   3    0.726715    0.458454    0.808804    11.00000    0.04203    0.02703 =
         0.02757    0.00773   -0.00723   -0.00398
N15   3    0.786218    0.472250    0.888647    11.00000    0.04105    0.03162 =
         0.02464    0.00783   -0.00590   -0.00589
N16   3    0.603619    0.712691    0.839437    11.00000    0.05789    0.03546 =
         0.03482    0.00439    0.00490    0.01020
N17   3    0.677410    0.651839    0.839646    11.00000    0.04404    0.03131 =
         0.02399    0.00573   -0.00412    0.00237
N18   3    0.742350    0.667803    0.916024    11.00000    0.06420    0.03517 =
         0.02653    0.00254   -0.00507    0.00206
C1    1    0.773936    0.395295    0.489916    11.00000    0.04621    0.03837 =
         0.02351    0.00398    0.00505    0.00771
AFIX  43
H1    2    0.805841    0.386272    0.438636    11.00000   -1.20000
AFIX   0
C2    1    0.698488    0.340065    0.511987    11.00000    0.04658    0.02947 =
         0.03274   -0.00315    0.00166    0.00100
AFIX  43
H2    2    0.668821    0.286697    0.478381    11.00000   -1.20000
AFIX   0
C3    1    0.693349    0.708624    0.535807    11.00000    0.05448    0.04604 =
         0.03261    0.01558    0.00478   -0.00582
AFIX  43
H3    2    0.717088    0.726401    0.487769    11.00000   -1.20000
AFIX   0
C4    1    0.604597    0.735425    0.574361    11.00000    0.05174    0.04243 =
         0.04080    0.02083   -0.00335   -0.00014
AFIX  43
H4    2    0.556822    0.775606    0.557671    11.00000   -1.20000
AFIX   0
C5    1    1.046856    0.636975    0.738096    11.00000    0.03482    0.05489 =
         0.06217    0.01819    0.00477   -0.00677
AFIX  43
H5    2    1.107135    0.653483    0.712924    11.00000   -1.20000
AFIX   0
C6    1    1.045700    0.637839    0.823930    11.00000    0.04036    0.06142 =
         0.04879    0.01462   -0.01252   -0.00961
AFIX  43
H6    2    1.105117    0.655066    0.868212    11.00000   -1.20000
AFIX   0
C7    1    0.366165    0.439893    0.678618    11.00000    0.03694    0.04000 =
         0.04189    0.00601    0.00090   -0.00705
AFIX  43
H7    2    0.313449    0.393076    0.667369    11.00000   -1.20000
AFIX   0
C8    1    0.346497    0.525676    0.691738    11.00000    0.03196    0.04548 =
         0.05401    0.01241   -0.00140    0.00174
AFIX  43
H8    2    0.277283    0.548108    0.691227    11.00000   -1.20000
AFIX   0
C9    1    0.711209    0.340074    0.856972    11.00000    0.04815    0.03719 =
         0.03942    0.01883   -0.00235   -0.00697
AFIX  43
H9    2    0.690697    0.283373    0.860908    11.00000   -1.20000
AFIX   0
C10   1    0.777591    0.399290    0.919235    11.00000    0.04804    0.03646 =
         0.02904    0.01797   -0.00641   -0.00576
AFIX  43
H10   2    0.810721    0.390372    0.973112    11.00000   -1.20000
AFIX   0
C11   1    0.621123    0.766811    0.915297    11.00000    0.11050    0.05632 =
         0.03599   -0.00857    0.00063    0.03505
AFIX  43
H11   2    0.581439    0.814904    0.932444    11.00000   -1.20000
AFIX   0
C12   1    0.708979    0.739641    0.965155    11.00000    0.11531    0.05765 =
         0.03846   -0.01647   -0.00864    0.02364
AFIX  43
H12   2    0.739456    0.765905    1.021941    11.00000   -1.20000
AFIX   0
C13   1    1.158596    0.838871    0.326647    11.00000    0.03588    0.02838 =
         0.02557    0.00725    0.00151   -0.00362
C14   1    1.214670    0.870351    0.409259    11.00000    0.03565    0.02636 =
         0.02887    0.00557    0.00233   -0.00490
AFIX  43
H14   2    1.207559    0.838136    0.452238    11.00000   -1.20000
AFIX   0
C15   1    1.281699    0.948040    0.432141    11.00000    0.03601    0.02602 =
         0.03074    0.00639   -0.00043    0.00169
C16   1    1.289754    0.994720    0.366697    11.00000    0.05965    0.02836 =
         0.04093    0.00916   -0.00051   -0.01320
AFIX  43
H16   2    1.332713    1.047185    0.379403    11.00000   -1.20000
AFIX   0
C17   1    1.235872    0.965168    0.284022    11.00000    0.08890    0.05015 =
         0.03524    0.02035   -0.00439   -0.02531
AFIX  43
H17   2    1.242894    0.997609    0.241214    11.00000   -1.20000
AFIX   0
C18   1    1.170591    0.887217    0.262847    11.00000    0.07742    0.04233 =
         0.03079    0.00931   -0.00556   -0.01777
AFIX  43
H18   2    1.134988    0.867454    0.206036    11.00000   -1.20000
AFIX   0
C19   1    1.086904    0.755060    0.305227    11.00000    0.03054    0.02571 =
         0.02444    0.00550   -0.00095   -0.00259
C20   1    1.054548    0.716265    0.371313    11.00000    0.03113    0.02685 =
         0.02099    0.00091   -0.00174   -0.00239
AFIX  43
H20   2    1.077444    0.742941    0.429422    11.00000   -1.20000
AFIX   0
C21   1    0.989050    0.638865    0.352473    11.00000    0.02648    0.03487 =
         0.02774    0.01061    0.00266   -0.00056
C22   1    0.953922    0.599375    0.265596    11.00000    0.03748    0.03572 =
         0.02732    0.01062   -0.00651   -0.01149
AFIX  43
H22   2    0.910700    0.547021    0.252430    11.00000   -1.20000
AFIX   0
C23   1    0.982719    0.637290    0.198809    11.00000    0.03948    0.03209 =
         0.02504    0.00370   -0.00410   -0.00421
C24   1    1.049302    0.715347    0.219842    11.00000    0.03536    0.03332 =
         0.02182    0.00781   -0.00173   -0.00294
AFIX  43
H24   2    1.068678    0.741095    0.174921    11.00000   -1.20000
AFIX   0
C25   1    0.950760    0.600237    0.424422    11.00000    0.02815    0.05437 =
         0.02744    0.01521   -0.00206   -0.00545
C26   1    0.940986    0.598139    0.105295    11.00000    0.05273    0.04186 =
         0.03178    0.00708   -0.01258   -0.00982
C27   1    1.344553    0.977032    0.521949    11.00000    0.03259    0.01944 =
         0.03170    0.00173   -0.00220   -0.00508
C28   1    1.387264    1.062645    0.553938    11.00000    0.03738    0.02243 =
         0.03530    0.00849   -0.00179    0.00023
AFIX  43
H28   2    1.375830    1.103518    0.518699    11.00000   -1.20000
AFIX   0
C29   1    1.446350    1.088343    0.636972    11.00000    0.03455    0.01667 =
         0.03689    0.00207   -0.00184   -0.00288
C30   1    1.462069    1.028226    0.690324    11.00000    0.04397    0.02669 =
         0.03481    0.00515   -0.00875   -0.00011
AFIX  43
H30   2    1.498000    1.045925    0.747300    11.00000   -1.20000
AFIX   0
C31   1    1.424409    0.941447    0.659188    11.00000    0.04002    0.02192 =
         0.04124    0.00502   -0.00298    0.00032
C32   1    1.366171    0.917545    0.575785    11.00000    0.04307    0.01542 =
         0.04074    0.00277   -0.00840   -0.00388
AFIX  43
H32   2    1.340587    0.859616    0.555019    11.00000   -1.20000
AFIX   0
C33   1    1.494973    1.179917    0.668392    11.00000    0.03676    0.02372 =
         0.05038    0.00056   -0.00191   -0.00344
C34   1    1.451820    0.873653    0.712353    11.00000    0.05488    0.03196 =
         0.04466    0.01092   -0.01252    0.00571
HKLF 4




REM  aaa in P-1
REM R1 =  0.0355 for    7697 Fo > 4sig(Fo)  and  0.0506 for all   10299 data
REM    595 parameters refined using      0 restraints

END

WGHT      0.0456      1.2468

REM Instructions for potential hydrogen bonds
HTAB C1 O2
EQIV $7 -x+2, -y+1, -z+1
HTAB C2 O7_$7
EQIV $5 x-1, y-1, z
HTAB C9 O6_$5
EQIV $4 x, y, z+1
HTAB C10 O4_$4

REM Highest difference peak  0.461,  deepest hole -0.534,  1-sigma level  0.070
Q1    1   0.7991  0.5642  0.7361  11.00000  0.05    0.46
Q2    1   0.5643  0.7158  0.7464  11.00000  0.05    0.38
Q3    1   0.6143  0.5455  0.7227  11.00000  0.05    0.37
Q4    1   0.9340  0.5042  0.0799  11.00000  0.05    0.36
Q5    1   0.6726  0.3435  0.6702  11.00000  0.05    0.36
Q6    1   0.9515  0.5798  0.9343  11.00000  0.05    0.36
Q7    1   0.4975  0.3348  0.6744  11.00000  0.05    0.34
Q8    1   0.3920  0.7368  0.8535  11.00000  0.05    0.33
Q9    1   0.6203  0.7039  0.6844  11.00000  0.05    0.32
Q10   1   0.3380  0.7079  0.7745  11.00000  0.05    0.32
Q11   1   0.7753  0.5772  0.5655  11.00000  0.05    0.32
Q12   1   1.4348  0.9086  0.8038  11.00000  0.05    0.32
Q13   1   0.7829  0.5661  0.9165  11.00000  0.05    0.30
Q14   1   0.3578  0.7012  0.8575  11.00000  0.05    0.30
Q15   1   0.3048  0.7612  0.8317  11.00000  0.05    0.30
Q16   1   0.3920  0.7044  0.7368  11.00000  0.05    0.28
Q17   1   0.7009  0.4186  0.7929  11.00000  0.05    0.28
Q18   1   0.9613  0.5810  0.5660  11.00000  0.05    0.28
Q19   1   0.8578  0.5844  1.0940  11.00000  0.05    0.28
Q20   1   0.4669  0.6767  0.6138  11.00000  0.05    0.27
;
_shelx_res_checksum              24664
_shelx_hkl_file
;
  -2   0   0 1116.40   39.40
  -2   0   0 1091.70   39.50
  -3   0   0   11.00    8.20
  -3   0   0   10.80    8.10
  -3   0   0   10.90    8.50
  -4   0   0   59.00    7.30
  -4   0   0   70.00    7.80
  -4   0   0   62.10    7.90
  -5   0   0 3096.80   88.00
  -5   0   0 3230.90   88.00
  -5   0   0 3059.10   88.40
  -6   0   0    4.10    4.80
  -6   0   0    5.40    5.10
  -6   0   0    3.60    5.10
  -7   0   0  310.50   14.30
  -7   0   0  281.90   13.20
  -7   0   0  320.30   14.00
  -8   0   0    3.30    6.40
  -8   0   0    3.30    6.80
  -8   0   0    1.10    5.90
  -9   0   0   27.10    8.90
  -9   0   0   18.50    6.90
  -9   0   0   24.60    6.50
 -10   0   0   97.80   12.50
 -10   0   0   62.00   11.60
 -10   0   0   78.70   11.20
 -11   0   0  503.70   25.20
 -11   0   0  545.40   25.60
 -11   0   0  523.60   26.30
 -12   0   0  153.10   16.20
 -12   0   0  170.80   16.70
 -12   0   0  149.30   16.50
 -13   0   0   50.40   12.50
 -13   0   0   32.80   10.90
 -13   0   0   54.80   12.20
 -14   0   0   15.50   10.40
 -14   0   0   20.60   10.50
 -14   0   0   27.10   11.60
 -14   1   0    0.30    8.70
 -14   1   0    3.90   11.30
 -14   1   0   13.30    9.40
 -13   1   0    4.20    8.90
 -13   1   0    0.00   10.60
 -13   1   0    0.60    9.00
 -12   1   0  150.30   16.90
 -12   1   0  169.30   16.30
 -12   1   0  192.40   16.30
 -11   1   0  547.40   28.50
 -11   1   0  533.10   25.30
 -11   1   0  586.10   27.00
 -10   1   0    1.10    8.50
 -10   1   0    3.40    7.70
 -10   1   0    0.80    8.20
  -9   1   0   16.10    7.30
  -9   1   0   12.50    7.90
  -9   1   0   15.50    9.30
  -8   1   0  203.00   13.20
  -8   1   0  190.40   15.00
  -8   1   0  197.80   14.10
  -7   1   0 1243.70   47.10
  -7   1   0 1286.20   46.20
  -7   1   0 1272.80   45.10
  -6   1   0   13.90    7.00
  -6   1   0   13.30    8.00
  -6   1   0    7.00    8.00
  -5   1   0  396.00   15.60
  -5   1   0  384.90   13.90
  -4   1   0 1968.40   38.60
  -4   1   0 1867.00   40.20
   3  -1   0  273.50   16.60
  -3   1   0  257.50   16.40
  -3   1   0  243.10   17.90
   2  -1   0 1032.40   39.10
   2  -1   0  969.80   40.20
  -2   1   0 1047.30   39.00
  -2   1   0 1006.20   40.40
  -2  -1   0  601.80   41.70
  -2  -1   0  594.60   40.80
   2   1   0  641.30   41.90
  -3  -1   0  234.40    8.10
  -3  -1   0  256.20    8.90
   3   1   0  242.10    8.70
  -4  -1   0  780.90   27.90
  -4  -1   0  792.80   27.50
   4   1   0  789.20   28.20
  -5  -1   0 4112.30  103.30
  -5  -1   0 3941.90  102.70
  -6  -1   0   68.30    5.50
  -6  -1   0   45.90    4.90
  -7  -1   0   20.20    5.40
  -7  -1   0    3.90    4.50
  -7  -1   0   13.40    5.50
  -8  -1   0  161.00   11.80
  -8  -1   0  193.30   13.10
  -8  -1   0  201.60   13.00
  -9  -1   0  162.80   13.50
  -9  -1   0  165.70   14.40
  -9  -1   0  147.60   13.40
 -10  -1   0  133.10   13.70
 -10  -1   0  156.80   14.70
 -10  -1   0  131.90   13.90
 -11  -1   0   81.60   11.60
 -11  -1   0   86.10   12.30
 -11  -1   0   61.30   11.40
 -12  -1   0  136.60   15.30
 -12  -1   0  115.40   14.90
 -12  -1   0  115.30   14.80
 -13  -1   0  120.20   15.20
 -13  -1   0   90.80   14.00
 -13  -1   0  122.60   15.00
 -14  -1   0   28.30   11.60
 -14  -1   0   44.00   12.20
 -14  -1   0   22.10   11.10
 -14   2   0    0.20    8.50
 -14   2   0   11.70   23.70
 -14   2   0    0.20    8.40
 -13   2   0   79.20   12.30
 -13   2   0   43.90   13.40
 -13   2   0   54.00   12.10
 -12   2   0  215.70   20.90
 -12   2   0  186.10   18.20
 -12   2   0  185.30   16.20
 -11   2   0   23.20    9.50
 -11   2   0   17.90    7.80
 -11   2   0   26.10   10.60
 -10   2   0   62.80    9.10
 -10   2   0   51.70   10.00
 -10   2   0   71.40   12.10
  -9   2   0    0.60    8.30
  -9   2   0   14.50    8.10
  -9   2   0    2.70    6.20
  -8   2   0  109.40   12.90
  -8   2   0  110.40   10.60
  -7   2   0  515.90   26.00
  -7   2   0  503.50   22.30
  -6   2   0  136.00    8.90
  -6   2   0  137.10   11.80
   5  -2   0   14.60    3.60
  -5   2   0    6.60    5.50
  -5   2   0   10.70    3.50
   4  -2   0 2678.70   97.70
  -4   2   0 2667.10   97.40
  -4   2   0 2460.50  100.20
   3  -2   0  725.20   10.60
  -3   2   0  701.70   10.40
  -3   2   0  699.20   12.70
   1  -2   0   43.80    4.80
   1  -2   0   52.70    4.50
   1  -2   0   38.10    4.50
  -1   2   0   47.00    4.90
  -1   2   0   41.60    4.20
  -1   2   0   45.60    4.60
   0  -2   0  321.20    8.50
   0  -2   0  304.40    8.50
   0  -2   0  316.20    8.10
   0   2   0  311.30    8.40
   0   2   0  321.30    8.10
   0   2   0  317.00    8.50
  -2  -2   0   96.40    4.10
  -2  -2   0   99.00    6.30
   2   2   0  101.90    6.50
  -3  -2   0  500.40   15.60
  -3  -2   0  482.50   13.80
   3   2   0  502.20   15.90
  -4  -2   0  516.80   10.10
  -4  -2   0  508.40    8.50
   4   2   0  506.80   10.20
  -5  -2   0 1651.10   51.80
  -5  -2   0 1681.70   50.40
   5   2   0 1714.70   52.70
  -6  -2   0  382.20   14.20
  -6  -2   0  383.60   12.80
   6   2   0  362.60   14.50
  -7  -2   0   64.40    9.10
  -7  -2   0   68.10    9.60
  -8  -2   0  190.50   13.20
  -8  -2   0  173.20   16.20
  -9  -2   0  675.40   27.60
  -9  -2   0  743.40   26.90
  -9  -2   0  717.90   26.00
 -10  -2   0   13.20    8.50
 -10  -2   0   18.50    7.00
 -10  -2   0   10.10    7.80
 -11  -2   0  313.50   20.30
 -11  -2   0  316.70   19.20
 -11  -2   0  311.10   21.20
 -12  -2   0  331.50   21.60
 -12  -2   0  324.00   22.20
 -12  -2   0  317.70   20.30
 -13  -2   0   47.20   11.30
 -13  -2   0   35.40   11.10
 -13  -2   0   30.40   11.00
 -14  -2   0    8.80    9.80
 -14  -2   0   13.00   10.60
 -14  -2   0    0.30   10.00
 -14   3   0   50.50   16.80
 -14   3   0   43.60   12.90
 -14   3   0   31.10   10.60
 -13   3   0   92.10   13.90
 -13   3   0  112.30   16.90
 -13   3   0   83.30   11.60
 -12   3   0    0.10    7.50
 -12   3   0    1.10    9.00
 -12   3   0    1.20   10.60
 -11   3   0   23.20    8.00
 -11   3   0   15.90   10.00
 -11   3   0   14.90   11.10
 -10   3   0    8.30   10.30
 -10   3   0    9.70    9.00
 -10   3   0    5.60    7.20
  -9   3   0  195.60   18.00
  -9   3   0  204.70   13.50
  -8   3   0   74.20   10.80
  -8   3   0   63.70    7.50
   7  -3   0  194.30   13.10
  -7   3   0  221.10   12.80
  -7   3   0  205.10   17.10
  -6   3   0 2024.40   78.70
  -6   3   0 2123.90   74.30
   5  -3   0   11.20    5.00
  -5   3   0   10.30    6.40
  -5   3   0   19.20    4.20
   4  -3   0 1577.80   43.70
  -4   3   0 1570.10   43.10
  -4   3   0 1509.40   46.60
   1  -3   0  207.80    2.70
   1  -3   0  211.90    2.20
   1  -3   0  180.60    2.00
  -1   3   0  180.60    2.00
  -1   3   0  217.40    2.40
  -1   3   0  180.60    1.90
   0  -3   0 4152.40   29.80
   0  -3   0 4137.20   29.10
   0  -3   0 4077.70   29.90
   0   3   0 4060.50   29.80
   0   3   0 4129.70   29.90
   0   3   0 4231.40   29.30
  -1  -3   0  690.70   57.90
  -1  -3   0  712.30   56.00
  -1  -3   0  712.10   58.10
   1   3   0  743.90   56.20
   1   3   0  781.60   58.20
  -2  -3   0 1175.70   51.60
   2   3   0 1239.40   52.00
  -3  -3   0  448.30   19.60
   3   3   0  460.20   19.90
  -4  -3   0  715.00   36.60
  -4  -3   0  656.70   39.60
   4   3   0  682.20   40.30
  -5  -3   0  179.60   11.80
  -5  -3   0  164.70   14.40
   5   3   0  154.20   15.00
  -6  -3   0  885.90   34.70
  -6  -3   0  908.30   32.10
   6   3   0  889.30   35.70
  -7  -3   0    8.40    4.70
  -7  -3   0    9.80    6.40
   7   3   0    4.90    6.30
  -8  -3   0   62.20   10.00
  -8  -3   0   65.70    9.20
  -9  -3   0  288.80   17.30
  -9  -3   0  303.50   15.20
 -10  -3   0   39.80   10.30
 -10  -3   0   53.70    8.90
 -10  -3   0   42.80    9.90
 -11  -3   0  754.10   35.70
 -11  -3   0  830.50   32.10
 -11  -3   0  836.30   34.80
 -12  -3   0  240.40   16.20
 -12  -3   0  254.30   19.50
 -12  -3   0  219.60   17.50
 -13  -3   0    0.00    9.30
 -13  -3   0    0.00    7.20
 -13  -3   0    3.40    8.90
 -14  -3   0   22.40   11.30
 -14  -3   0   23.10   11.50
 -14  -3   0   12.20    9.40
 -14   4   0   53.10   16.00
 -14   4   0   65.70   14.30
 -14   4   0   53.80   10.90
 -13   4   0  114.30   15.40
 -13   4   0  101.60   17.80
 -13   4   0   89.20   11.80
 -12   4   0   52.20   12.70
 -12   4   0   49.80   10.60
 -12   4   0   64.20   16.30
 -11   4   0   11.00    7.50
 -11   4   0    0.30   10.70
 -11   4   0    0.30    8.70
 -10   4   0   24.50   10.20
 -10   4   0   30.30    7.40
  -9   4   0  223.60   17.60
  -9   4   0  220.50   13.00
   8  -4   0   11.50    5.90
  -8   4   0   14.40    6.10
  -8   4   0    0.30    7.80
   7  -4   0  492.50   24.20
  -7   4   0  484.90   29.00
  -7   4   0  503.80   23.50
   6  -4   0 1781.90   41.90
  -6   4   0 1841.30   41.20
   5  -4   0    2.60    4.40
  -5   4   0    4.00    4.20
  -5   4   0    1.50    5.80
   4  -4   0   53.50    4.70
  -4   4   0   39.70    5.40
  -4   4   0   30.70    5.50
  -4   4   0   27.60    3.60
   3  -4   0 2219.10   41.00
  -3   4   0 2338.40   43.90
  -3   4   0 2173.10   40.00
  -3   4   0 2138.40   41.60
   2  -4   0 1145.60   48.40
   2  -4   0 1165.60   47.30
   2  -4   0 1094.20   48.80
  -2   4   0 1090.00   47.50
  -2   4   0 1099.30   46.60
  -2   4   0 1093.40   48.50
   0  -4   0 1699.70   64.40
   0  -4   0 1742.40   65.80
   0  -4   0 1684.40   65.30
   0   4   0 1665.40   65.30
   0   4   0 1668.20   65.30
   0   4   0 1701.60   64.50
  -1  -4   0  270.60   30.50
  -1  -4   0  268.90   32.80
  -1  -4   0  270.30   32.90
   1   4   0  281.30   32.70
   1   4   0  260.30   30.60
  -2  -4   0  155.50    3.30
  -2  -4   0  175.00    3.70
   2   4   0  184.70    1.80
  -3  -4   0 1507.80   37.30
   3   4   0 1555.70   38.10
  -4  -4   0 1294.00   40.90
   4   4   0 1273.70   41.50
  -5  -4   0  384.50   14.90
  -5  -4   0  415.60   10.60
  -5  -4   0  425.80   10.90
   5   4   0  434.20   16.10
  -6  -4   0 1353.10   31.90
  -6  -4   0 1349.40   36.10
   6   4   0 1381.10   37.50
  -7  -4   0  369.90   15.60
  -7  -4   0  346.90   22.00
   7   4   0  360.10   20.60
  -8  -4   0  113.70   12.30
  -8  -4   0  101.70    8.70
   8   4   0  121.60   13.30
  -9  -4   0   79.30    8.80
  -9  -4   0   73.60   10.70
 -10  -4   0  319.20   18.40
 -10  -4   0  307.50   14.80
 -11  -4   0  553.90   25.00
 -11  -4   0  529.60   20.80
 -11  -4   0  536.00   27.00
 -12  -4   0    0.10    6.20
 -12  -4   0    5.10    9.00
 -12  -4   0    1.00    7.80
 -13  -4   0   10.80    7.40
 -13  -4   0    0.10   10.40
 -13  -4   0   22.50   10.10
 -14   5   0    0.20    7.70
 -14   5   0   11.30   14.40
 -14   5   0    7.10   10.80
 -13   5   0   53.50   13.00
 -13   5   0   50.10    9.80
 -13   5   0   45.50   14.80
 -12   5   0  165.60   18.10
 -12   5   0  180.60   14.40
 -12   5   0  176.70   22.70
 -11   5   0    4.40    7.10
 -11   5   0    3.40    9.30
 -10   5   0    0.60    9.30
 -10   5   0    3.10    6.10
   9  -5   0    7.40    6.00
  -9   5   0    9.90    6.20
  -9   5   0    0.90    9.80
   8  -5   0  363.00   15.40
  -8   5   0  400.70   15.10
  -8   5   0  336.50   19.50
   7  -5   0   83.00    7.90
  -7   5   0   80.00    6.20
  -7   5   0   77.40    7.80
  -7   5   0   85.70    9.30
   6  -5   0  830.20   28.80
  -6   5   0  847.70   30.50
  -6   5   0  877.70   28.00
  -6   5   0  868.30   33.40
   5  -5   0  890.20   21.90
  -5   5   0  904.30   20.70
  -5   5   0  937.80   23.50
  -5   5   0  889.70   25.20
  -4   5   0 1223.20   37.50
  -4   5   0 1286.20   39.70
  -4   5   0 1250.70   35.40
   3  -5   0  651.10   15.50
   3  -5   0  624.40   14.20
  -3   5   0  606.80   15.40
  -3   5   0  640.40   14.30
  -3   5   0  634.90   13.20
   2  -5   0  300.10   16.00
   2  -5   0  302.70   15.40
   2  -5   0  309.20   15.90
  -2   5   0  290.20   14.50
  -2   5   0  288.10   15.80
  -2   5   0  314.60   15.70
   1  -5   0 6809.60  172.70
   1  -5   0 6985.70  173.70
  -1   5   0 6823.50  173.00
  -1   5   0 6900.90  173.00
  -1   5   0 6639.60  172.30
   0  -5   0  322.30   24.90
   0  -5   0  308.30   23.40
   0  -5   0  299.60   25.00
   0   5   0  304.20   23.70
   0   5   0  294.90   24.60
   0   5   0  320.80   24.80
  -1  -5   0 1061.30   16.20
  -1  -5   0 1090.10   16.30
   1   5   0 1112.90   14.40
   1   5   0 1064.60   16.30
   1   5   0 1096.20   16.90
  -2  -5   0    9.20    4.10
  -2  -5   0    0.00    3.90
   2   5   0    1.20    3.70
   2   5   0    4.10    2.40
  -3  -5   0 1023.50   32.80
  -3  -5   0 1001.70   33.20
  -4  -5   0  182.60    6.80
   4   5   0  181.70    7.20
  -5  -5   0    0.10    4.40
   5   5   0    3.40    5.20
  -6  -5   0  988.30   38.10
   6   5   0 1048.80   36.80
  -7  -5   0  403.70   12.60
  -7  -5   0  393.70   12.30
  -7  -5   0  427.70   19.30
   7   5   0  417.70   20.50
  -8  -5   0   10.80    3.10
  -8  -5   0    6.80    3.40
  -8  -5   0    0.10    6.70
   8   5   0    0.10    7.00
  -9  -5   0  587.80   18.40
  -9  -5   0  609.70   25.40
  -9  -5   0  589.20   19.10
   9   5   0  609.10   26.80
 -10  -5   0  238.30   11.20
 -10  -5   0  220.90   17.60
 -10  -5   0  239.30   12.10
 -11  -5   0  282.40   19.50
 -11  -5   0  314.40   14.10
 -12  -5   0   32.20    5.40
 -12  -5   0   29.20    6.20
 -12  -5   0   34.30   10.40
 -12  -5   0   24.60   10.10
 -13  -5   0   17.90    8.10
 -13  -5   0   15.30   12.50
 -13  -5   0    3.60   10.10
 -13  -5   0   13.60    6.10
 -13   6   0    0.80   12.70
 -13   6   0    0.10    9.40
 -13   6   0    7.90    8.00
 -12   6   0  203.10   14.90
 -12   6   0  212.20   24.80
 -11   6   0    0.30    8.30
 -11   6   0    0.90    6.40
 -11   6   0    0.90   11.70
  10  -6   0   15.90    6.60
 -10   6   0    9.60    8.90
 -10   6   0   26.80    7.70
 -10   6   0    9.80   10.00
   9  -6   0  290.70   15.20
  -9   6   0  294.60   22.00
  -9   6   0  280.10   17.30
  -9   6   0  305.60   15.00
   8  -6   0  849.30   33.60
  -8   6   0  800.20   31.60
  -8   6   0  775.00   38.60
  -8   6   0  772.00   34.90
   7  -6   0   84.90    9.30
  -7   6   0   74.00    9.80
  -7   6   0   98.70    9.00
  -7   6   0  121.20   14.30
  -6   6   0  146.70   19.30
  -6   6   0  134.10   14.40
  -6   6   0  135.40   16.90
   5  -6   0 1290.60   48.20
  -5   6   0 1323.00   46.40
  -5   6   0 1315.10   48.60
  -5   6   0 1311.40   51.50
   4  -6   0  578.10   21.50
  -4   6   0  608.10   20.30
  -4   6   0  612.20   23.90
  -4   6   0  606.80   22.20
   3  -6   0  750.60   17.70
   3  -6   0  736.50   18.90
  -3   6   0  686.10   16.30
  -3   6   0  724.20   18.70
  -3   6   0  742.20   17.50
   2  -6   0  825.60   30.60
   2  -6   0  825.50   31.60
  -2   6   0  784.20   29.50
  -2   6   0  770.50   30.90
  -2   6   0  847.30   31.00
   1  -6   0 1416.60   37.30
   1  -6   0 1364.20   37.80
  -1   6   0 1382.00   37.10
  -1   6   0 1335.00   36.60
  -1   6   0 1353.50   39.60
   0  -6   0  583.20   13.50
   0  -6   0  605.20   12.80
   0   6   0  592.70   14.80
   0   6   0  579.50   12.00
   0   6   0  577.70   13.00
  -1  -6   0  337.50   20.70
  -1  -6   0  319.70   20.80
   1   6   0  347.50   21.00
   1   6   0  365.80   18.90
   1   6   0  341.00   21.40
  -2  -6   0  759.00   16.00
  -2  -6   0  763.30   16.00
   2   6   0  813.90   16.20
   2   6   0  811.60   13.00
  -3  -6   0  196.20   15.60
  -3  -6   0  192.70   14.70
   3   6   0  185.30   14.90
   3   6   0  194.60   10.00
  -4  -6   0 1382.80   47.00
  -4  -6   0 1390.20   46.30
   4   6   0 1425.10   47.50
  -5  -6   0  281.70   15.40
   5   6   0  286.70   16.20
  -6  -6   0  556.20   22.30
  -6  -6   0  525.70   21.50
   6   6   0  529.50   22.90
  -7  -6   0  168.70   13.60
   7   6   0  153.90   13.40
  -8  -6   0  141.30   13.80
   8   6   0  107.60   14.00
  -9  -6   0  567.70   25.60
   9   6   0  495.50   26.70
 -10  -6   0   51.40   11.00
  10   6   0   36.60   11.10
 -11  -6   0   23.30   10.50
 -12  -6   0  310.20   21.50
 -13  -6   0   16.20   11.50
 -13  -6   0    2.30    9.80
 -13   7   0   18.60    8.20
 -13   7   0   12.30   13.60
 -12   7   0  212.60   15.10
 -12   7   0  195.40   22.10
 -11   7   0   10.30    7.20
 -11   7   0    0.30   12.50
  10  -7   0   21.30    8.40
 -10   7   0    0.50   10.50
 -10   7   0   16.60    7.60
 -10   7   0   21.00    9.90
   9  -7   0   87.20   12.10
  -9   7   0   78.30   10.50
  -9   7   0   64.80   16.10
   8  -7   0   80.20   10.50
  -8   7   0   71.80   13.50
  -8   7   0   59.90    8.70
  -8   7   0   64.80   11.20
   7  -7   0   81.00   11.90
  -7   7   0   88.80   13.40
  -7   7   0   99.30   16.70
  -7   7   0   65.60   10.40
   6  -7   0  236.80   17.80
  -6   7   0  237.20   15.60
  -6   7   0  236.20   21.40
  -6   7   0  222.00   17.50
   5  -7   0 1355.70   46.80
  -5   7   0 1392.40   44.50
  -5   7   0 1335.30   49.40
  -5   7   0 1370.90   46.90
   4  -7   0   12.30    6.50
  -4   7   0   11.90    7.70
  -4   7   0   20.80    6.30
  -4   7   0   19.10    7.60
   3  -7   0 3126.30   93.90
   3  -7   0 3194.30   92.40
  -3   7   0 3264.00   92.40
  -3   7   0 3061.70   93.50
  -3   7   0 3168.60   90.70
   2  -7   0  495.40   19.00
   2  -7   0  425.70   19.30
  -2   7   0  438.60   18.60
  -2   7   0  461.60   18.20
  -2   7   0  464.60   18.50
   1  -7   0   46.80    6.50
   1  -7   0   53.40    7.40
  -1   7   0   51.40    7.00
  -1   7   0   35.30    6.20
  -1   7   0   36.90    6.10
   0  -7   0  485.20   29.00
   0  -7   0  482.20   28.00
   0   7   0  489.00   28.20
   0   7   0  498.80   27.10
   0   7   0  498.60   28.60
  -1  -7   0  526.00   23.20
  -1  -7   0  550.80   23.00
   1   7   0  517.60   22.60
   1   7   0  548.50   20.90
  -2  -7   0    2.40    5.20
  -2  -7   0    2.00    5.30
   2   7   0    6.20    4.60
   2   7   0   17.50    3.30
  -3  -7   0    5.20    5.30
  -3  -7   0   14.80    4.70
   3   7   0    6.00    2.90
   3   7   0    7.20    4.90
  -4  -7   0  762.00   31.20
  -4  -7   0  833.80   31.00
   4   7   0  815.00   31.80
  -5  -7   0  769.10   28.10
  -5  -7   0  871.60   28.60
   5   7   0  805.80   29.00
  -6  -7   0   84.90   10.60
  -6  -7   0   94.40   10.60
   6   7   0   81.80   10.70
  -7  -7   0   11.80    7.70
  -7  -7   0    9.50    7.50
   7   7   0    4.00    8.10
  -8  -7   0  651.90   27.30
  -8  -7   0  658.50   26.00
  -9  -7   0   51.40   10.90
  -9  -7   0   39.90   10.20
   9   7   0   39.70   11.20
 -10  -7   0  192.50   17.20
 -11  -7   0   58.20   11.40
 -12  -7   0  140.20   26.10
 -13   8   0   16.70   16.10
 -13   8   0   17.00    8.10
 -12   8   0   64.20   10.80
 -12   8   0   49.90   16.90
  11  -8   0    4.60    6.80
 -11   8   0    1.10   12.60
 -11   8   0    0.50    7.10
  10  -8   0   17.80    7.80
 -10   8   0   35.10   12.60
 -10   8   0   16.20    8.70
 -10   8   0   20.20    7.20
   9  -8   0    0.00    6.70
  -9   8   0    0.00    6.20
  -9   8   0    0.00    8.00
  -9   8   0    0.00   10.50
   8  -8   0   17.50    8.60
  -8   8   0   28.90   12.50
  -8   8   0   16.50    7.80
   7  -8   0 1437.90   46.00
  -7   8   0 1532.10   51.60
  -7   8   0 1410.70   45.90
  -7   8   0 1509.10   43.30
   6  -8   0    3.90    7.70
  -6   8   0   19.60    9.40
  -6   8   0    9.30    6.70
  -6   8   0    4.40    8.90
   5  -8   0   23.30    7.90
  -5   8   0   26.20    8.10
  -5   8   0   25.60    8.90
  -5   8   0   33.00    7.20
   4  -8   0  143.00   15.00
   4  -8   0  123.70   12.20
  -4   8   0  134.20   13.30
  -4   8   0  106.90   10.80
  -4   8   0  127.00   11.50
   3  -8   0 2208.10   79.50
   3  -8   0 2051.80   77.10
  -3   8   0 2175.10   77.30
  -3   8   0 2196.50   76.10
   2  -8   0  289.60   14.60
  -2   8   0  306.70   14.00
  -2   8   0  303.30   14.30
  -2   8   0  290.90   14.50
   1  -8   0 2136.00   70.20
   1  -8   0 2030.00   64.40
  -1   8   0 2054.60   64.50
  -1   8   0 1937.30   64.10
  -1   8   0 2051.00   64.30
   0  -8   0  587.80   20.40
   0   8   0  601.80   21.50
   0   8   0  605.50   21.10
   0   8   0  613.90   19.90
  -1  -8   0  253.50   18.80
  -1  -8   0  235.20   15.00
   1   8   0  232.20   15.30
   1   8   0  233.40   13.40
  -2  -8   0  137.00   14.60
  -2  -8   0  149.80   14.40
   2   8   0  145.50   14.20
   2   8   0  154.10   11.60
  -3  -8   0  301.20   15.60
  -3  -8   0  342.10   16.50
   3   8   0  319.50   16.10
   3   8   0  310.30   11.60
  -4  -8   0  497.80   22.00
  -4  -8   0  485.40   22.30
   4   8   0  541.20   23.50
  -5  -8   0  635.50   27.10
  -5  -8   0  652.60   26.80
   5   8   0  613.00   27.80
  -6  -8   0  199.90   14.20
   6   8   0  186.10   13.40
  -7  -8   0    5.20    7.40
  -7  -8   0    4.70    8.10
  -8  -8   0  495.50   23.20
  -8  -8   0  425.30   22.50
   8   8   0  448.90   24.10
  -9  -8   0   44.50   10.30
   9   8   0   33.50   11.60
 -10  -8   0  622.40   29.70
 -11  -8   0    1.00    8.20
 -12  -8   0    3.10   10.30
 -13   9   0   18.50    8.80
 -13   9   0   56.70   18.40
  12  -9   0    0.00    8.20
 -12   9   0   11.20    8.00
 -12   9   0   17.80   13.00
  11  -9   0   30.00    8.80
 -11   9   0   48.40   16.00
 -11   9   0   55.50    9.70
  10  -9   0   37.50    9.90
 -10   9   0   30.30   13.80
 -10   9   0   22.90    8.30
   9  -9   0    4.30    7.50
  -9   9   0   19.20    8.20
  -9   9   0   18.40    9.20
  -9   9   0   33.90   13.60
   8  -9   0  179.00   15.10
  -8   9   0  143.10   14.00
  -8   9   0  217.20   14.20
  -8   9   0  200.80   20.00
   7  -9   0 1440.00   49.50
  -7   9   0 1389.70   53.40
  -7   9   0 1454.60   53.30
  -7   9   0 1502.40   45.70
   6  -9   0   15.70    9.30
  -6   9   0   16.30    7.80
  -6   9   0   11.40    8.20
  -6   9   0   11.10    9.90
   5  -9   0  191.80   15.60
  -5   9   0  229.80   17.40
  -5   9   0  238.30   16.00
   4  -9   0   19.30   10.10
   4  -9   0   21.30    8.80
  -4   9   0   21.10    9.00
  -4   9   0   20.70    9.40
   3  -9   0    0.20    6.80
   3  -9   0    1.30    8.20
  -3   9   0    3.90    6.20
  -3   9   0    0.30    6.90
   2  -9   0 1645.40   54.40
   2  -9   0 1693.60   52.70
  -2   9   0 1683.80   52.60
  -2   9   0 1746.70   53.70
  -2   9   0 1699.10   52.50
   1  -9   0 2321.50   71.00
   1  -9   0 2381.30   72.70
  -1   9   0 2337.20   71.20
  -1   9   0 2360.80   70.90
  -1   9   0 2379.80   71.20
   0  -9   0  268.00   16.20
   0  -9   0  245.00   14.50
   0   9   0  239.80   14.40
   0   9   0  248.70   15.20
   0   9   0  250.10   14.00
  -1  -9   0    0.30    7.00
  -1  -9   0    1.10    6.70
   1   9   0    0.30    6.20
   1   9   0    0.30    5.50
  -2  -9   0  131.50   11.50
  -2  -9   0  128.90   10.30
   2   9   0  114.90   10.40
   2   9   0  133.10    8.80
  -3  -9   0  264.70   14.90
  -3  -9   0  309.20   16.90
   3   9   0  264.00   14.90
   3   9   0  241.10   10.70
  -4  -9   0   29.80    8.40
  -4  -9   0   34.40    7.90
   4   9   0   34.50    7.80
  -5  -9   0  447.30   23.50
  -5  -9   0  397.60   22.50
   5   9   0  397.20   23.10
  -6  -9   0  451.70   23.80
  -6  -9   0  418.00   23.10
   6   9   0  385.10   23.50
  -7  -9   0   57.80   10.90
  -7  -9   0   53.70   10.50
   7   9   0   44.90   10.40
  -8  -9   0   34.20    9.40
   8   9   0   26.00    8.80
  -9  -9   0    7.90    7.40
 -10  -9   0  591.50   27.80
 -11  -9   0   19.80   10.30
 -12  -9   0    8.90   10.90
  12 -10   0    0.00    7.80
 -12  10   0   15.40   14.10
 -12  10   0   14.60    8.50
  11 -10   0    0.10    8.00
 -11  10   0    0.10   11.90
 -11  10   0    2.90    7.20
  10 -10   0    1.10    8.30
 -10  10   0   44.10   15.70
 -10  10   0   20.10    7.90
   9 -10   0  128.80   16.00
  -9  10   0  140.30   13.80
  -9  10   0  169.80   21.20
   8 -10   0  114.30   14.80
  -8  10   0  100.80   12.80
  -8  10   0  118.80   11.80
  -8  10   0  129.60   17.10
   7 -10   0  412.90   24.60
  -7  10   0  442.20   28.20
  -7  10   0  432.00   21.20
  -7  10   0  403.10   22.40
   6 -10   0   15.40    8.50
  -6  10   0    1.50    7.40
  -6  10   0   14.40    6.80
  -6  10   0    1.50    9.70
   5 -10   0  439.40   25.00
  -5  10   0  468.90   26.50
  -5  10   0  500.00   22.90
   4 -10   0   10.30    8.00
   4 -10   0   17.40   10.00
  -4  10   0   13.70    7.10
  -4  10   0    7.00    8.90
  -4  10   0   23.60    8.30
   3 -10   0 1415.30   46.80
   3 -10   0 1463.70   49.00
  -3  10   0 1517.60   46.90
  -3  10   0 1519.50   48.00
  -3  10   0 1541.10   45.80
   2 -10   0 2305.00   73.10
   2 -10   0 2320.30   75.10
  -2  10   0 2355.60   72.80
  -2  10   0 2352.60   72.40
  -2  10   0 2315.00   73.00
   1 -10   0  388.60   19.30
   1 -10   0  417.60   21.70
  -1  10   0  414.10   20.60
  -1  10   0  429.30   20.40
  -1  10   0  352.00   18.90
   0 -10   0    4.90    8.80
   0 -10   0    6.10    9.30
   0  10   0    3.20    8.60
   0  10   0    7.10    7.90
   0  10   0    2.60    7.40
  -1 -10   0   62.60   11.80
  -1 -10   0   64.20   12.90
   1  10   0   63.20   10.10
   1  10   0   62.00   11.80
  -2 -10   0   51.30   10.90
  -2 -10   0   42.90    9.10
   2  10   0   51.50    7.20
   2  10   0   23.50    8.00
  -3 -10   0  954.70   37.90
   3  10   0  879.10   37.50
   3  10   0  904.50   31.80
  -4 -10   0  424.30   22.50
   4  10   0  289.10   13.00
   4  10   0  345.80   22.00
  -5 -10   0  107.80   11.90
  -5 -10   0  132.40   13.30
   5  10   0  110.20   13.70
  -6 -10   0  486.80   27.00
   6  10   0  489.60   27.70
  -7 -10   0  181.20   17.70
  -8 -10   0  486.60   26.90
  -9 -10   0  111.50   15.10
 -10 -10   0   82.70   14.20
 -11 -10   0  205.00   19.10
  12 -11   0   27.90   11.40
 -12  11   0   36.60    9.60
 -12  11   0   34.60   15.50
  11 -11   0   39.50   14.20
 -11  11   0   66.00   16.50
 -11  11   0   49.30    9.50
  10 -11   0   54.70   13.20
 -10  11   0   84.60   11.90
 -10  11   0   56.50   18.00
   9 -11   0  312.70   22.90
  -9  11   0  304.10   18.70
  -9  11   0  351.00   28.60
   8 -11   0    3.20    9.60
  -8  11   0    0.50    7.20
  -8  11   0    0.50   18.90
   7 -11   0   48.30   13.10
  -7  11   0   77.70   11.40
  -7  11   0   65.60   15.20
   6 -11   0  185.70   19.50
  -6  11   0  213.10   15.80
  -6  11   0  231.70   21.70
  -6  11   0  212.90   17.10
   5 -11   0    8.70    8.60
  -5  11   0   19.30    8.20
  -5  11   0    5.90   10.50
  -5  11   0   14.30    7.70
   4 -11   0  130.30   17.00
   4 -11   0  123.30   14.50
  -4  11   0  126.90   14.30
  -4  11   0  128.90   14.00
  -4  11   0  114.10   15.10
   3 -11   0 1886.20   67.60
   3 -11   0 1906.10   65.40
  -3  11   0 1883.90   64.50
  -3  11   0 1918.90   65.90
  -3  11   0 1969.40   63.80
   2 -11   0  168.10   16.60
   2 -11   0  205.50   16.40
  -2  11   0  182.40   15.10
  -2  11   0  186.30   15.30
  -2  11   0  212.30   15.50
   1 -11   0  792.70   38.20
   1 -11   0  736.50   34.80
  -1  11   0  780.30   35.50
  -1  11   0  754.20   34.80
  -1  11   0  739.20   39.40
   0 -11   0    0.00    9.40
   0 -11   0    0.00    6.20
   0  11   0    0.00    7.70
   0  11   0    0.00    6.70
   0  11   0    0.00    7.40
  -1 -11   0   12.10    8.60
  -1 -11   0   30.90    7.60
   1  11   0   19.90    7.10
   1  11   0   25.30    7.10
  -2 -11   0   50.90   10.30
  -2 -11   0   42.30    9.00
   2  11   0   71.10   10.50
   2  11   0   47.60    7.30
  -3 -11   0  228.30   16.90
  -3 -11   0  221.60   18.10
   3  11   0  214.50   16.70
   3  11   0  192.50   12.30
  -4 -11   0  857.10   38.50
  -4 -11   0  795.90   37.60
   4  11   0  844.40   39.50
  -5 -11   0  126.80   13.40
   5  11   0  117.00   12.60
  -6 -11   0    0.90    9.20
  -7 -11   0   11.30    8.90
  -8 -11   0  666.60   31.10
  -9 -11   0    0.10    9.30
 -10 -11   0   12.20   10.90
  11 -12   0   10.40   11.60
 -11  12   0   26.20    9.40
 -11  12   0   45.90   16.80
  10 -12   0   44.10   14.00
 -10  12   0   49.90   10.90
 -10  12   0   42.00   15.10
   9 -12   0   24.70   12.00
  -9  12   0   56.10   10.20
  -9  12   0   65.20   15.20
   8 -12   0    0.50    9.20
  -8  12   0    0.50    7.40
  -8  12   0    0.50   10.70
  -7  12   0  429.40   27.50
  -7  12   0  439.40   21.90
   6 -12   0  366.90   33.20
  -6  12   0  420.30   27.00
  -6  12   0  452.20   22.70
   5 -12   0   42.00   13.10
  -5  12   0   72.90   12.00
  -5  12   0   69.30   13.90
   4 -12   0  653.70   32.80
  -4  12   0  686.80   27.80
  -4  12   0  676.00   29.50
  -4  12   0  647.80   30.70
   3 -12   0  631.30   43.30
   3 -12   0  686.70   33.60
  -3  12   0  631.60   29.20
  -3  12   0  629.00   28.70
  -3  12   0  608.90   30.20
   2 -12   0   95.30   12.60
   2 -12   0   43.10   11.60
  -2  12   0   66.60   11.40
  -2  12   0   70.50   11.00
  -2  12   0   54.30   10.70
   1 -12   0  596.70   27.10
   1 -12   0  624.80   29.90
  -1  12   0  604.50   27.00
  -1  12   0  603.60   27.40
  -1  12   0  551.80   26.80
   0 -12   0    1.50    8.30
   0 -12   0    6.00    7.90
   0  12   0    1.50    6.70
   0  12   0    1.00    7.40
  -1 -12   0   62.70   10.30
  -1 -12   0   85.20   13.00
   1  12   0   87.40   11.70
   1  12   0   94.10   10.90
  -2 -12   0   92.40   13.20
  -2 -12   0  109.10   12.70
   2  12   0   94.00   12.40
   2  12   0  110.90   10.70
  -3 -12   0   14.30   10.00
   3  12   0   24.10    7.50
   4  12   0  683.70   17.20
  -5 -12   0   21.40   11.80
  -6 -12   0   72.70   14.00
  -7 -12   0  161.80   27.00
  -8 -12   0  138.00   16.00
  -9 -12   0  158.90   17.70
 -10 -12   0    9.50   11.60
  10 -13   0    0.10   10.40
 -10  13   0    0.10    8.00
 -10  13   0    9.40   13.30
   9 -13   0    7.60   11.40
  -9  13   0   58.70   16.80
  -9  13   0   53.40   10.80
   8 -13   0   35.60   13.80
  -8  13   0   69.20   11.40
  -8  13   0   55.40   15.90
   7 -13   0   71.70   16.90
  -7  13   0  119.40   14.30
  -7  13   0   94.80   17.60
   6 -13   0    0.60    7.70
  -6  13   0    0.80    8.20
  -6  13   0    3.60   10.50
   5 -13   0   11.70   10.20
  -5  13   0    8.90    9.40
  -5  13   0    9.80   12.00
   4 -13   0   45.90   11.40
   4 -13   0   26.80   12.70
  -4  13   0   33.10   10.80
  -4  13   0   41.00   13.00
   3 -13   0  383.90   23.50
   3 -13   0  383.20   28.00
  -3  13   0  379.70   24.80
  -3  13   0  386.60   23.70
   2 -13   0  113.00   16.90
   2 -13   0  129.60   15.20
  -2  13   0  125.20   15.90
  -2  13   0  113.60   14.60
   1 -13   0   48.20   12.50
   1 -13   0   45.20    9.90
  -1  13   0   73.50   12.30
  -1  13   0   52.40   10.90
   0 -13   0  137.80   18.40
   0  13   0  163.00   15.90
  -1 -13   0    5.20    9.80
   1  13   0    0.70    7.60
  -2 -13   0  759.70   34.40
   2  13   0  691.20   28.60
  -3 -13   0   56.10   10.90
   3  13   0   31.70    6.70
  -4 -13   0  292.60   23.00
  -5 -13   0   17.20   11.00
  -6 -13   0  227.20   18.50
  -7 -13   0  163.90   19.00
  -8 -13   0   10.90   10.00
  -9 -13   0  552.20   30.90
 -10  14   0   29.80   17.10
 -10  14   0   13.90    9.30
  -9  14   0  272.50   20.20
  -9  14   0  287.40   26.90
  -8  14   0  202.70   23.20
  -8  14   0  145.90   15.90
  -7  14   0   11.00    9.90
  -7  14   0    1.80   13.10
  -6  14   0   67.20   12.60
  -6  14   0   99.80   18.00
  -5  14   0   36.20   11.60
  -5  14   0   28.20   12.00
   4 -14   0   13.20   12.00
  -4  14   0   24.20   11.30
  -4  14   0   25.80   10.00
   3 -14   0   23.50   13.60
  -3  14   0   32.30   11.50
  -3  14   0   33.30   10.50
   2 -14   0  139.50   19.20
  -2  14   0  118.30   15.60
  -2  14   0  161.90   17.70
   1 -14   0   35.70   13.90
  -1  14   0   10.90    9.50
   0 -14   0  139.40   15.70
   0  14   0  134.60   13.80
  -1 -14   0   39.70   13.50
   1  14   0   41.30    9.60
  -2 -14   0 1368.70   56.20
   2  14   0 1386.90   50.70
  -3 -14   0   15.40   14.00
   3  14   0   20.70    8.40
  -4 -14   0   35.60   11.20
  -5 -14   0  390.50   29.30
  -6 -14   0    1.30   11.40
  -7 -14   0    8.20   11.00
  -8 -14   0   23.20   13.70
  -9  15   0   59.70   12.00
  -9  15   0   56.00   17.70
  -8  15   0   48.00   14.20
  -8  15   0   39.70   10.80
  -7  15   0    6.40   10.20
  -7  15   0    0.30   12.10
  -6  15   0  294.20   21.60
  -6  15   0  361.80   26.10
  -5  15   0   37.90   10.90
  -5  15   0    6.60   12.00
   4 -15   0  126.30   19.40
  -4  15   0  117.00   17.00
  -4  15   0   90.10   13.40
   3 -15   0   28.70   14.60
  -3  15   0   38.30   11.50
  -3  15   0   21.50   10.20
   2 -15   0   98.90   17.10
  -2  15   0   94.60   13.60
   1 -15   0   48.60   13.70
  -1  15   0   48.10   11.40
   0 -15   0   26.40   13.70
   0  15   0    5.60    8.30
  -1 -15   0    6.60   11.90
   1  15   0    0.20    8.60
  -2 -15   0  624.30   32.80
  -3 -15   0   26.70   11.60
   3  15   0    2.40    7.50
  -4 -15   0   52.40   16.20
  -5 -15   0  351.90   24.80
  -6 -15   0   74.80   16.50
  -7 -15   0  289.90   25.80
  -7  16   0   65.60   13.20
  -7  16   0   49.40   16.50
  -6  16   0    1.30    9.10
  -6  16   0   11.80   14.10
  -5  16   0    7.70    9.70
  -5  16   0   16.90   12.80
   4 -16   0  128.10   22.00
  -4  16   0   99.60   16.40
  -4  16   0   76.60   13.70
   3 -16   0   11.40   13.80
  -3  16   0    0.50   10.20
   2 -16   0   90.50   18.50
  -2  16   0   78.90   15.90
   1 -16   0   41.40   14.90
  -1  16   0   54.90   13.40
   0 -16   0  252.50   24.10
   0  16   0  254.00   20.30
  -1 -16   0    6.80   12.60
   1  16   0   15.90   10.30
  -2 -16   0   20.80   13.90
   2  16   0    8.90    8.80
  -3 -16   0  324.00   26.80
   3  16   0  304.80   18.90
  -4 -16   0    4.80   11.40
  -5 -16   0   39.80   14.20
  -6 -16   0    5.80   12.30
  -6  17   0    1.00   11.50
  -6  17   0   13.00   10.50
  -5  17   0    5.30   13.20
  -5  17   0    2.20   10.70
   4 -17   0   98.90   20.20
  -4  17   0   92.50   17.60
   3 -17   0   34.60   17.40
  -3  17   0   52.50   14.70
   2 -17   0   77.90   18.70
  -2  17   0   66.80   14.60
   1 -17   0   79.20   18.90
  -1  17   0   67.70   15.00
   0 -17   0  133.70   22.00
   0  17   0  175.00   19.10
  -1 -17   0   14.50   12.90
   1  17   0    3.20    8.50
  -2 -17   0   75.90   15.70
   2  17   0   52.40   10.80
   3  17   0  342.80   22.00
  -4 -17   0   25.70   14.00
   3 -18   0   48.30   17.20
  -3  18   0   19.10   13.10
   2 -18   0    0.30   13.80
  -2  18   0   11.40   10.10
   1 -18   0   69.30   16.80
  -1  18   0   80.70   15.70
   0 -18   0   12.10   13.40
   0  18   0    6.80   11.30
  -1 -18   0  147.70   21.50
   1  18   0   91.80   13.80
   2  18  -1  127.90   16.30
  -2 -18   1  104.30   19.20
   1  18  -1    9.80   11.10
  -1 -18   1   11.60   13.90
   0  18  -1    0.10    9.90
   0 -18   1    2.40   14.30
  -1  18  -1   55.30   14.00
   1 -18   1   45.60   18.50
  -2  18  -1  137.20   19.50
   2 -18   1  108.70   20.50
  -3  18  -1    0.30   11.20
   3 -18   1   19.10   16.90
  -4  18  -1    2.90   11.50
   4 -18   1    2.90   15.50
  -4 -17   1  216.40   22.50
   3  17  -1    0.40    8.60
  -3 -17   1    3.80   12.60
   2  17  -1  188.00   18.10
  -2 -17   1  185.80   21.70
   1  17  -1    0.00    8.80
  -1 -17   1   15.50   13.20
   0  17  -1   54.10   11.80
   0 -17   1   60.20   15.60
  -1  17  -1   62.20   14.80
   1 -17   1   55.30   16.70
  -2  17  -1    5.00   11.20
   2 -17   1    0.00   11.60
  -3  17  -1  159.90   18.80
   3 -17   1  154.80   21.80
  -4  17  -1    1.10   12.50
   4 -17   1    1.60   16.00
  -5  17  -1  105.90   18.50
  -6  17  -1   21.40   13.50
  -6 -16   1    0.80   12.80
  -5 -16   1    6.00   11.80
  -4 -16   1  174.80   22.40
   3  16  -1    0.50    7.70
  -3 -16   1   13.00   11.50
   2  16  -1   71.80   12.30
  -2 -16   1   70.10   17.10
   1  16  -1    0.10    8.70
  -1 -16   1    7.30   12.20
   0  16  -1  114.30   15.80
   0 -16   1  124.20   18.90
  -1  16  -1  207.20   20.10
   1 -16   1  192.40   21.80
  -2  16  -1   48.90   12.80
   2 -16   1   45.40   15.00
  -3  16  -1  481.20   31.00
   3 -16   1  441.20   33.40
  -4  16  -1   56.90   13.00
   4 -16   1   68.20   19.20
  -5  16  -1   18.20   10.40
  -5  16  -1   30.70   12.40
  -6  16  -1    1.70   13.30
  -6  16  -1    3.80    9.80
  -7  16  -1    6.40   12.10
  -7  16  -1   12.30    9.90
  -8  16  -1   13.40   10.40
  -8  16  -1   25.40   15.40
  -7 -15   1   20.90   11.90
  -6 -15   1   16.30   12.20
  -5 -15   1    0.80   10.70
  -4 -15   1  193.00   22.10
   3  15  -1   54.30   11.50
  -3 -15   1   74.60   16.40
   2  15  -1    0.30    7.20
  -2 -15   1    0.30    9.00
   1  15  -1   68.70   12.70
  -1 -15   1   84.20   15.60
   0  15  -1   11.80    9.90
   0 -15   1    7.30   12.50
  -1  15  -1    1.80    9.00
   1 -15   1    1.70   11.70
  -2  15  -1    0.10    9.20
   2 -15   1    0.10   10.90
  -3  15  -1  201.70   21.60
   3 -15   1  212.30   23.70
  -4  15  -1   30.20   11.60
  -4  15  -1   16.60   13.20
   4 -15   1   11.10   14.30
  -5  15  -1  546.70   33.00
  -5  15  -1  451.30   26.30
  -6  15  -1  297.80   26.70
  -6  15  -1  236.40   19.60
  -7  15  -1   65.60   16.40
  -7  15  -1   57.70   12.50
  -8  15  -1  241.50   26.00
  -8  15  -1  249.80   19.10
  -9  15  -1    8.20   12.40
  -9  15  -1    0.30    8.70
  -8 -14   1   77.70   15.00
  -7 -14   1    6.00   10.20
  -6 -14   1   97.80   16.80
  -5 -14   1    0.90   10.60
   4  14  -1   34.90    6.60
   3  14  -1   71.60    9.90
  -3 -14   1  107.30   15.00
   2  14  -1    0.70    7.30
  -2 -14   1    9.50   10.10
   1  14  -1  158.00   13.80
  -1 -14   1  168.70   17.30
   0  14  -1    2.90    8.70
   0 -14   1    5.10   12.00
  -1  14  -1  168.80   16.20
   1 -14   1  160.40   18.70
  -2  14  -1    0.40    9.30
   2 -14   1    1.10   11.60
  -3  14  -1   44.80   11.90
  -3  14  -1   38.50   11.90
   3 -14   1   51.80   14.60
   3 -14   1   18.40    9.20
  -4  14  -1   58.60   11.70
  -4  14  -1   44.50   12.10
   4 -14   1   41.70   13.90
   4 -14   1   58.60   11.50
  -5  14  -1   25.90   12.50
  -5  14  -1   33.30    9.20
   5 -14   1   21.10   10.10
  -6  14  -1    2.50   10.70
  -6  14  -1    2.50    8.00
   6 -14   1    2.50    8.00
  -7  14  -1    1.40   11.80
  -7  14  -1    0.80    7.90
   7 -14   1    0.80    8.80
  -8  14  -1  196.60   17.50
  -8  14  -1  220.70   24.90
   8 -14   1  143.60   20.70
  -9  14  -1    0.30   12.30
  -9  14  -1    2.30    8.50
 -10  14  -1    1.30   14.20
 -10  14  -1    0.90    7.60
  -9 -13   1   24.90   12.80
  -8 -13   1  105.80   16.30
  -7 -13   1   21.70   12.60
  -6 -13   1   42.50   14.30
  -5 -13   1  160.70   17.20
  -4 -13   1    7.30   11.00
   3  13  -1  231.60   17.50
  -3 -13   1  239.00   21.50
   2  13  -1    4.60    7.50
  -2 -13   1    0.00    9.00
  -1 -13   1  103.70   18.20
   0  13  -1  241.80   18.90
   0 -13   1  250.90   19.00
   0 -13   1  234.20   21.30
  -1  13  -1  776.90   34.20
   1 -13   1  734.90   36.00
   1 -13   1  694.30   32.10
  -2  13  -1    0.00    9.10
   2 -13   1    0.00    7.90
   2 -13   1    4.10   10.90
  -3  13  -1   82.30   14.60
  -3  13  -1   87.50   12.40
   3 -13   1  107.30   13.90
   3 -13   1   74.90   15.70
  -4  13  -1  282.10   24.50
  -4  13  -1  242.40   19.90
   4 -13   1  284.90   22.30
   4 -13   1  265.20   25.60
  -5  13  -1    5.00    8.60
  -5  13  -1    9.30   10.30
   5 -13   1    1.70    7.80
  -6  13  -1   47.20   10.80
  -6  13  -1   66.90   15.60
   6 -13   1   22.80   11.90
  -7  13  -1   30.70    9.40
  -7  13  -1   10.30   11.40
   7 -13   1    0.20    9.30
  -8  13  -1   85.70   17.60
  -8  13  -1   91.20   12.60
   8 -13   1   44.70   14.90
  -9  13  -1   69.30   10.80
  -9  13  -1   77.60   16.70
   9 -13   1   45.70   13.90
 -10  13  -1    1.00    7.60
 -10  13  -1    9.00   12.80
  10 -13   1    0.40   11.30
 -10 -12   1   97.00   15.00
  -9 -12   1   18.00   10.30
  -7 -12   1   51.20   11.90
  -6 -12   1   52.80   11.70
  -5 -12   1  166.40   18.10
   4  12  -1   41.10    7.20
  -4 -12   1   97.90   13.60
   3  12  -1  952.30   41.60
   3  12  -1 1009.50   37.30
  -3 -12   1  978.30   42.30
   2  12  -1  157.70   14.90
   2  12  -1  144.70   13.50
  -2 -12   1  132.10   14.70
  -2 -12   1  165.30   16.80
   1  12  -1  111.60   14.10
   1  12  -1  125.10   13.60
  -1 -12   1  128.60   14.50
  -1 -12   1  150.00   16.70
   0  12  -1    9.00    7.70
   0  12  -1    8.00    7.60
   0 -12   1    0.00    9.40
   0 -12   1    0.00    6.90
  -1  12  -1   11.50    9.40
  -1  12  -1    7.20    8.70
   1 -12   1    0.30    7.80
   1 -12   1    3.10    9.30
  -2  12  -1  855.20   34.20
  -2  12  -1  871.20   35.00
  -2  12  -1  827.90   35.20
   2 -12   1  816.90   34.80
   2 -12   1  819.00   37.30
  -3  12  -1  125.10   15.90
  -3  12  -1  129.50   16.90
  -3  12  -1  130.20   15.50
   3 -12   1  133.60   16.50
   3 -12   1  138.80   20.00
  -4  12  -1  599.00   29.50
  -4  12  -1  546.90   26.70
  -4  12  -1  579.50   25.20
   4 -12   1  584.70   30.70
   4 -12   1  584.90   27.50
  -5  12  -1  105.60   16.70
  -5  12  -1  103.60   13.50
   5 -12   1  112.10   16.40
  -6  12  -1  321.70   19.40
  -6  12  -1  300.10   25.70
   6 -12   1  254.50   23.00
  -7  12  -1    8.10   12.60
  -7  12  -1   23.90    9.00
   7 -12   1    1.80    9.50
  -8  12  -1    1.80    7.40
  -8  12  -1    3.70   12.70
   8 -12   1    0.00    9.00
  -9  12  -1  120.70   12.90
  -9  12  -1  150.70   21.70
   9 -12   1  115.80   16.50
 -10  12  -1    1.40    7.20
 -10  12  -1    0.90   12.10
  10 -12   1    0.00    9.60
 -11  12  -1    7.70    7.80
 -11  12  -1    0.30   12.30
  11 -12   1    0.30    8.60
 -11 -11   1   21.70   11.60
 -10 -11   1   11.40   10.20
  -9 -11   1  321.50   22.40
  -8 -11   1  105.70   15.10
  -7 -11   1    7.40   10.00
   6  11  -1   73.50   13.70
  -6 -11   1   76.20   13.80
   5  11  -1  367.20   21.10
  -5 -11   1  336.50   20.70
   4  11  -1  135.80   16.80
  -4 -11   1  125.50   18.30
  -4 -11   1  134.80   16.30
   3  11  -1 1094.50   34.70
   3  11  -1 1055.60   38.90
  -3 -11   1 1104.30   39.10
  -3 -11   1 1035.30   38.20
   2  11  -1  132.30   15.30
   2  11  -1  149.60   14.00
  -2 -11   1  133.80   16.60
  -2 -11   1  132.20   15.00
   1  11  -1  550.50   39.70
   1  11  -1  568.60   26.10
  -1 -11   1  579.00   27.50
  -1 -11   1  557.90   28.80
   0  11  -1   57.50   12.50
   0  11  -1   56.20   10.50
   0 -11   1   54.50   10.90
   0 -11   1   58.60   12.20
  -1  11  -1  903.10   40.10
   1 -11   1  907.00   39.90
   1 -11   1  926.10   42.40
  -2  11  -1 2724.50   77.20
  -2  11  -1 2705.20   83.80
  -2  11  -1 2675.10   78.90
   2 -11   1 2664.60   80.70
   2 -11   1 2691.10   78.10
  -3  11  -1   10.60    7.90
  -3  11  -1    9.40    7.30
  -3  11  -1    1.30    7.30
   3 -11   1    1.30    8.70
   3 -11   1    2.10    6.90
  -4  11  -1   37.30    8.30
  -4  11  -1   42.40   11.50
  -4  11  -1   47.60   10.10
   4 -11   1   37.70   11.90
   4 -11   1   26.20    8.60
  -5  11  -1    0.00    6.60
  -5  11  -1   10.50    7.90
  -5  11  -1   17.90   10.20
   5 -11   1   13.30    9.10
  -6  11  -1   10.30   10.60
  -6  11  -1    0.50    7.30
  -6  11  -1    0.50    7.00
   6 -11   1    0.50    7.60
  -7  11  -1  172.60   19.70
  -7  11  -1  187.70   15.00
   7 -11   1  190.90   18.80
  -8  11  -1   32.60   15.40
  -8  11  -1   36.50    9.00
   8 -11   1   21.20   10.10
  -9  11  -1   88.50   11.40
  -9  11  -1   82.60   17.80
   9 -11   1   70.60   12.30
 -10  11  -1   33.30    8.90
 -10  11  -1   51.10   15.80
  10 -11   1   16.40    9.60
 -11  11  -1    0.40    7.10
 -11  11  -1    0.30   14.10
  11 -11   1    0.40    6.70
 -12  11  -1   65.70   18.70
 -12  11  -1   58.10   10.20
  12 -11   1   46.30   11.30
 -11 -10   1    3.80    9.90
 -10 -10   1    5.40    9.50
  -9 -10   1  357.30   23.10
  -8 -10   1    0.70    8.30
   7  10  -1   41.60    9.40
  -7 -10   1   34.30    8.00
   6  10  -1  123.70   13.30
  -6 -10   1  146.30   14.00
   5  10  -1  486.80   24.80
  -5 -10   1  453.30   23.10
  -5 -10   1  458.30   23.30
   4  10  -1   83.30   10.70
   4  10  -1   59.30    5.50
  -4 -10   1   73.50    9.90
  -4 -10   1   52.90    9.00
   3  10  -1   99.10   11.00
   3  10  -1  117.70   13.30
  -3 -10   1  105.80   13.30
  -3 -10   1  108.00   14.10
   2  10  -1  281.30   17.10
   2  10  -1  262.80   19.10
  -2 -10   1  277.30   19.10
  -2 -10   1  289.20   20.50
   1  10  -1    0.20    6.40
   1  10  -1    1.90    7.20
  -1 -10   1    0.00    7.50
  -1 -10   1    2.10    6.80
   0  10  -1  122.10   11.60
   0  10  -1  110.10   10.90
   0 -10   1   88.90   10.10
   0 -10   1  122.70   10.10
   0 -10   1   99.20   12.10
  -1  10  -1 1897.60   55.00
  -1  10  -1 1962.30   55.20
  -1  10  -1 1909.00   54.90
   1 -10   1 1917.70   54.60
   1 -10   1 1826.60   53.30
   1 -10   1 1847.60   56.50
  -2  10  -1 2239.00   74.00
  -2  10  -1 2300.70   72.20
  -2  10  -1 2186.40   73.00
   2 -10   1 2280.80   75.80
   2 -10   1 2157.00   72.50
  -3  10  -1   53.80    8.90
  -3  10  -1   62.00    9.60
  -3  10  -1   64.30    8.40
   3 -10   1   81.50   11.40
   3 -10   1   81.00    9.30
  -4  10  -1  122.80   11.70
  -4  10  -1  136.50   13.60
  -4  10  -1  159.10   11.70
   4 -10   1  129.90   12.60
  -5  10  -1  106.10   12.60
  -5  10  -1  119.30   16.90
  -5  10  -1  121.80   17.30
   5 -10   1  117.00   14.70
  -6  10  -1  210.00   14.40
  -6  10  -1  200.60   20.90
  -6  10  -1  166.70   15.50
   6 -10   1  172.10   16.50
  -7  10  -1  421.80   23.70
  -7  10  -1  473.90   21.50
  -7  10  -1  466.30   28.30
   7 -10   1  421.30   24.60
  -8  10  -1   47.50    8.40
  -8  10  -1   47.90   12.90
   8 -10   1   31.80    9.20
  -9  10  -1   30.40    8.60
  -9  10  -1   28.80   14.50
   9 -10   1   20.30    8.80
 -10  10  -1   11.70   12.80
 -10  10  -1   17.60    7.10
  10 -10   1    0.00    8.00
 -11  10  -1    8.70    6.60
 -11  10  -1   14.80   13.70
  11 -10   1    0.00    7.50
 -12  10  -1   64.60    9.10
 -12  10  -1   41.40   14.80
  12 -10   1   28.10    8.90
 -12  -9   1    0.60    9.60
 -11  -9   1   32.00   11.30
 -10  -9   1   88.80   12.60
  -9  -9   1  261.20   18.60
   8   9  -1    0.20    7.50
  -8  -9   1   10.70    8.20
   7   9  -1   47.50   11.40
  -7  -9   1   52.60   12.00
  -7  -9   1   62.50   13.30
   6   9  -1   94.50   12.80
  -6  -9   1   92.70   12.50
  -6  -9   1   98.40   12.50
   5   9  -1  312.30   17.10
  -5  -9   1  336.80   18.40
  -5  -9   1  299.40   17.10
   4   9  -1   35.70    6.10
   4   9  -1   34.20    9.80
  -4  -9   1   56.20   11.40
  -4  -9   1   55.00   11.50
   3   9  -1  299.50   15.20
   3   9  -1  279.00   18.60
  -3  -9   1  309.00   18.70
  -3  -9   1  300.00   18.80
   2   9  -1  860.50   24.00
   2   9  -1  838.00   26.60
  -2  -9   1  848.40   22.80
  -2  -9   1  784.00   25.70
  -2  -9   1  826.90   27.00
   1   9  -1  308.00   19.10
   1   9  -1  315.60   17.90
  -1  -9   1  325.70   19.10
  -1  -9   1  330.80   17.00
  -1  -9   1  329.90   20.60
   0   9  -1 1985.40   62.20
   0   9  -1 2039.90   61.40
   0  -9   1 1969.00   60.20
   0  -9   1 1961.40   61.50
   0  -9   1 2029.60   63.60
  -1   9  -1  148.80   14.00
  -1   9  -1  121.50   12.70
   1  -9   1  125.50   14.30
   1  -9   1  126.00   12.50
   1  -9   1  120.60   12.10
  -2   9  -1   78.10   11.10
  -2   9  -1   91.60   12.10
  -2   9  -1   78.40   14.20
   2  -9   1   79.90   10.80
   2  -9   1   64.70   11.90
   2  -9   1   80.00   10.70
  -3   9  -1  853.80   31.90
  -3   9  -1  786.70   32.90
  -3   9  -1  826.50   34.70
   3  -9   1  846.80   33.30
   3  -9   1  769.00   35.10
   3  -9   1  791.80   33.70
  -4   9  -1   99.60   13.50
  -4   9  -1   73.80   13.50
  -4   9  -1   84.20   11.40
   4  -9   1   79.40   12.90
  -5   9  -1   38.20    7.60
  -5   9  -1   34.30    9.80
  -5   9  -1   43.80    8.70
   5  -9   1   48.70    9.00
  -6   9  -1  401.20   18.40
  -6   9  -1  406.40   21.40
  -6   9  -1  380.40   24.20
   6  -9   1  390.10   21.50
  -7   9  -1  231.90   17.20
  -7   9  -1  225.60   20.40
  -7   9  -1  250.00   14.50
   7  -9   1  199.30   16.30
  -8   9  -1  329.40   25.60
  -8   9  -1  309.30   17.30
  -8   9  -1  292.40   20.70
   8  -9   1  310.30   20.10
  -9   9  -1    3.00    7.20
  -9   9  -1    4.50   10.90
   9  -9   1    4.10    6.90
 -10   9  -1   20.20   13.70
 -10   9  -1   12.90    7.00
  10  -9   1   15.00    7.70
 -11   9  -1    0.00    6.30
 -11   9  -1    0.00   11.40
  11  -9   1    0.00    6.40
 -12   9  -1    0.00   10.20
 -12   9  -1    7.10    7.00
 -12  -8   1    0.90   10.80
 -11  -8   1   22.50    9.20
 -10  -8   1   17.80    9.20
   9   8  -1   33.00    9.40
  -9  -8   1   24.40    8.40
   8   8  -1   28.10    9.80
  -8  -8   1   37.40    9.10
  -8  -8   1   30.60    9.40
   7   8  -1  217.60   16.80
  -7  -8   1  235.00   16.10
  -7  -8   1  211.30   15.70
   6   8  -1    5.90    6.50
  -6  -8   1    8.10    7.60
   5   8  -1    0.40    6.00
  -5  -8   1    4.00    6.20
  -5  -8   1    1.30    6.90
   4   8  -1 1146.60   31.10
   4   8  -1 1120.00   38.40
  -4  -8   1 1096.00   37.90
  -4  -8   1 1129.50   37.80
   3   8  -1  169.10    7.80
   3   8  -1  191.20   10.00
  -3  -8   1  168.10   10.20
  -3  -8   1  194.50    6.70
  -3  -8   1  202.10   10.60
   2   8  -1  158.30   11.00
   2   8  -1  172.80    9.70
  -2  -8   1  160.10   11.00
  -2  -8   1  176.40    8.70
   1   8  -1  698.30   26.40
   1   8  -1  709.80   24.90
  -1  -8   1  710.80   26.10
  -1  -8   1  749.00   27.50
   0   8  -1 1852.80   58.50
   0   8  -1 1945.40   58.00
   0  -8   1 1924.00   57.00
   0  -8   1 1874.40   58.10
   0  -8   1 1948.10   59.70
  -1   8  -1  132.00    7.70
  -1   8  -1  121.80    7.70
  -1   8  -1  126.40    7.30
   1  -8   1  140.20    7.70
   1  -8   1  128.90    8.00
   1  -8   1  128.90    9.00
  -2   8  -1 1767.60   51.40
  -2   8  -1 1745.30   50.50
  -2   8  -1 1799.80   49.50
   2  -8   1 1772.30   50.80
   2  -8   1 1759.40   50.00
  -3   8  -1 1858.20   52.80
  -3   8  -1 1938.30   51.20
   3  -8   1 1933.90   54.30
   3  -8   1 1922.00   52.70
   3  -8   1 1947.30   55.30
  -4   8  -1   17.00    5.60
  -4   8  -1   16.10    6.20
  -4   8  -1   26.60    7.90
   4  -8   1   19.60    6.40
   4  -8   1    9.30    6.20
  -5   8  -1    3.30    7.00
  -5   8  -1   25.90    6.90
  -5   8  -1   19.30    5.70
   5  -8   1    3.30    6.00
  -6   8  -1  305.40   22.50
  -6   8  -1  304.80   16.70
  -6   8  -1  295.50   19.50
   6  -8   1  303.70   19.10
  -7   8  -1   70.20    7.90
  -7   8  -1   81.60   10.50
  -7   8  -1   66.30   12.60
   7  -8   1   71.10    9.30
  -8   8  -1  780.40   26.10
  -8   8  -1  698.60   34.20
  -8   8  -1  739.10   31.00
   8  -8   1  759.60   28.10
  -9   8  -1    0.00    5.80
  -9   8  -1    0.00    9.30
  -9   8  -1    0.00    8.10
   9  -8   1    0.00    5.80
 -10   8  -1   99.00   11.00
 -10   8  -1   85.40   16.70
  10  -8   1   95.60   11.40
 -11   8  -1    6.80   12.80
 -12   8  -1   13.00    6.90
 -12   8  -1    8.10   12.80
 -13   8  -1  183.70   24.50
 -13   8  -1  167.90   13.30
 -13  -7   1   13.90   10.40
 -13  -7   1    0.70   10.20
 -12  -7   1    5.00    9.20
 -11  -7   1   82.30   11.20
  10   7  -1   45.50   10.90
 -10  -7   1   54.10    9.70
   9   7  -1   24.30    9.70
  -9  -7   1   32.60    9.50
   8   7  -1   60.00   10.50
  -8  -7   1   57.80    9.50
   7   7  -1  142.00   13.90
  -7  -7   1  139.00   13.10
   6   7  -1  267.00   17.70
  -6  -7   1  286.30   17.00
   5   7  -1  322.80   14.70
  -5  -7   1  347.40   15.10
   4   7  -1 1362.50   43.30
  -4  -7   1 1360.50   43.20
  -4  -7   1 1408.20   42.60
   3   7  -1  255.20   13.00
   3   7  -1  256.20   16.00
  -3  -7   1  232.90   15.70
  -3  -7   1  256.60   11.70
  -3  -7   1  238.40   15.90
   2   7  -1  979.10   27.10
   2   7  -1 1043.40   24.90
  -2  -7   1 1074.70   27.70
  -2  -7   1 1067.00   27.80
  -2  -7   1 1069.30   24.10
   1   7  -1   25.60    8.10
   1   7  -1   22.70    6.90
  -1  -7   1   15.30    7.80
  -1  -7   1   24.00    7.70
  -1  -7   1   24.00    6.50
   0   7  -1   54.70    6.80
   0   7  -1   53.00    6.50
   0  -7   1   53.30    5.80
   0  -7   1   71.40    7.00
   0  -7   1   54.10    7.40
  -1   7  -1  788.60   24.00
  -1   7  -1  799.90   24.70
  -1   7  -1  779.10   24.50
   1  -7   1  757.10   25.40
   1  -7   1  779.60   24.30
   1  -7   1  790.50   26.10
  -2   7  -1 1577.20   52.70
  -2   7  -1 1627.90   51.90
  -2   7  -1 1569.40   50.20
   2  -7   1 1602.30   53.10
   2  -7   1 1607.00   51.20
   2  -7   1 1527.70   52.00
  -3   7  -1  558.00   20.30
  -3   7  -1  583.00   22.10
  -3   7  -1  554.00   18.70
   3  -7   1  555.10   21.30
   3  -7   1  532.30   21.60
   3  -7   1  551.20   19.80
  -4   7  -1  252.40   16.40
  -4   7  -1  237.10   14.50
  -4   7  -1  261.10   12.10
   4  -7   1  262.80   16.00
   4  -7   1  270.40   13.60
  -5   7  -1  171.50   12.60
  -5   7  -1  165.70   10.00
  -5   7  -1  149.80   13.00
   5  -7   1  187.70   13.50
   5  -7   1  181.30   11.40
  -6   7  -1   74.90    6.70
  -6   7  -1   91.70   11.60
  -6   7  -1   67.10    8.10
   6  -7   1   65.20    7.30
  -7   7  -1  156.50   16.70
  -7   7  -1  165.30   10.80
  -7   7  -1  159.40   13.60
   7  -7   1  144.10   13.90
  -8   7  -1  483.20   23.30
  -8   7  -1  525.20   18.90
  -8   7  -1  444.80   26.80
   8  -7   1  493.60   19.90
  -9   7  -1   13.10   10.60
  -9   7  -1    3.40    8.30
  -9   7  -1   10.40    5.60
   9  -7   1    0.60    5.90
 -10   7  -1    0.00    5.50
 -10   7  -1    6.00    9.30
 -10   7  -1    4.90   11.80
  10  -7   1    8.60    6.10
 -11   7  -1   35.80    7.60
 -11   7  -1   39.50   21.70
 -12   7  -1   13.60   13.80
 -12   7  -1   12.80   11.40
 -13   7  -1  146.40   13.60
 -13   7  -1  163.70   23.90
 -13  -6   1    4.70    4.30
 -13  -6   1    1.00    4.00
 -13  -6   1    9.00   10.40
 -13  -6   1    6.90    8.30
 -12  -6   1    5.70    4.50
 -12  -6   1    1.10    4.00
 -12  -6   1    1.70   10.40
 -12  -6   1    2.20    8.10
 -11  -6   1   28.40    9.50
 -11  -6   1   29.20    5.10
 -11  -6   1   30.90    4.90
  10   6  -1  120.10   14.50
 -10  -6   1  137.40    8.00
 -10  -6   1  121.60    7.60
 -10  -6   1  143.80   14.30
   9   6  -1    0.60    7.60
  -9  -6   1    7.80    3.20
  -9  -6   1   10.80    3.40
  -9  -6   1    7.90    7.30
   8   6  -1   22.70    7.70
  -8  -6   1   31.80    7.50
  -8  -6   1   27.10    3.20
  -8  -6   1   26.80    3.30
   7   6  -1   16.10    6.80
  -7  -6   1   28.80    7.20
   6   6  -1   59.80    7.20
   5   6  -1 1590.20   58.70
  -5  -6   1 1688.40   58.00
   4   6  -1 2984.10   84.10
  -4  -6   1 2969.70   77.40
  -4  -6   1 3130.20   83.50
   3   6  -1    8.50    6.20
   3   6  -1    5.80    4.00
  -3  -6   1    6.60    6.00
  -3  -6   1    5.90    3.30
  -3  -6   1    5.30    6.30
   2   6  -1 1942.90   59.50
   2   6  -1 1999.20   56.40
  -2  -6   1 1925.10   59.00
  -2  -6   1 1999.30   55.70
  -2  -6   1 1930.80   59.00
   1   6  -1 2099.10   47.20
   1   6  -1 2101.90   42.90
  -1  -6   1 2052.30   44.80
  -1  -6   1 2140.80   42.50
   0   6  -1 1800.00   61.60
   0   6  -1 1829.70   60.40
   0  -6   1 1803.00   60.40
   0  -6   1 1855.90   61.70
   0  -6   1 1780.60   59.80
  -1   6  -1 4432.60  105.20
  -1   6  -1 4335.90  103.90
   1  -6   1 4307.90  104.60
   1  -6   1 4337.60  105.70
   1  -6   1 4355.20  104.10
  -2   6  -1  251.00   13.60
  -2   6  -1  227.60   12.50
  -2   6  -1  218.60   14.10
   2  -6   1  227.50   12.80
   2  -6   1  251.70   14.90
   2  -6   1  227.40   15.80
  -3   6  -1  168.40   10.50
  -3   6  -1  144.40    7.50
  -3   6  -1  135.10    8.50
   3  -6   1  133.70    8.70
  -4   6  -1   37.70    6.40
  -4   6  -1   21.00    4.60
  -4   6  -1   24.90    6.40
   4  -6   1   31.70    6.00
  -5   6  -1   17.90    4.80
  -5   6  -1    0.40    4.40
  -5   6  -1    8.50    6.50
   5  -6   1    1.70    6.00
   5  -6   1    2.70    4.80
  -6   6  -1 1454.70   45.50
  -6   6  -1 1413.00   41.10
  -6   6  -1 1424.50   48.30
   6  -6   1 1458.50   42.80
  -7   6  -1  202.30   14.10
  -7   6  -1  218.20   16.70
  -7   6  -1  186.80   10.00
   7  -6   1  202.50   10.90
  -8   6  -1   20.20    9.80
  -8   6  -1   19.10    4.80
  -8   6  -1   22.20    8.20
   8  -6   1   21.10    6.60
  -9   6  -1   83.80    8.50
  -9   6  -1   67.40   13.50
   9  -6   1   72.50    8.60
 -10   6  -1  138.50   18.30
 -10   6  -1  167.10   12.40
 -11   6  -1  177.60   21.10
 -11   6  -1  175.90   13.30
 -12   6  -1   24.10   13.70
 -13   6  -1   51.30    8.40
 -13   6  -1   35.20   13.40
 -13   6  -1   17.70   13.50
 -13  -5   1    6.20    8.50
 -13  -5   1    3.20    6.20
 -13  -5   1    0.00   10.70
 -13  -5   1   10.30    5.30
 -12  -5   1   34.70   10.20
 -12  -5   1   26.00   12.20
 -12  -5   1   22.30    6.90
 -11  -5   1   10.70    5.40
 -11  -5   1    3.60    4.30
 -11  -5   1    3.20    7.60
 -10  -5   1  176.10   11.50
 -10  -5   1  177.80   15.70
   9   5  -1   43.90    9.10
  -9  -5   1   38.80    6.00
  -9  -5   1   57.20    9.50
  -9  -5   1   33.30    5.30
   8   5  -1  771.90   30.40
  -8  -5   1  808.60   28.90
  -8  -5   1  814.20   24.70
  -8  -5   1  785.70   23.90
   7   5  -1  880.70   33.10
  -7  -5   1  884.70   26.90
  -7  -5   1  925.20   27.60
   6   5  -1  707.40   24.40
  -6  -5   1  728.80   23.40
  -6  -5   1  728.60   19.00
  -6  -5   1  702.20   18.70
   5   5  -1   36.10    7.90
  -5  -5   1   31.10    4.10
  -5  -5   1   29.60    7.00
  -4  -5   1  432.10   14.80
  -4  -5   1  408.00   10.20
   3   5  -1  404.10   14.60
   3   5  -1  417.30   11.00
  -3  -5   1  390.00   13.90
  -3  -5   1  407.40   10.70
   2   5  -1   70.10    9.40
   2   5  -1   71.30    8.00
  -2  -5   1   82.30    7.30
  -2  -5   1   72.20   10.10
   1   5  -1   38.60   16.00
   1   5  -1   41.20   17.40
  -1  -5   1   45.50   17.50
  -1  -5   1   46.00   18.20
  -1  -5   1   42.20   15.70
   0   5  -1  889.00   20.80
   0   5  -1  871.30   21.50
   0  -5   1  835.60   21.30
   0  -5   1  853.00   20.20
  -1   5  -1 1468.20   66.10
  -1   5  -1 1520.40   67.10
  -1   5  -1 1494.80   67.40
   1  -5   1 1475.00   67.10
   1  -5   1 1553.10   66.40
   1  -5   1 1434.60   67.50
  -2   5  -1   72.90    4.70
  -2   5  -1   80.70    5.90
  -2   5  -1   75.90    6.00
   2  -5   1   69.10    6.10
   2  -5   1   78.60    6.00
   2  -5   1   74.10    4.90
  -3   5  -1   37.10    7.40
  -3   5  -1   27.40    9.40
  -3   5  -1   29.40   10.00
   3  -5   1   42.00   13.20
   3  -5   1   26.70    7.90
  -4   5  -1  562.90   30.40
  -4   5  -1  590.20   27.30
  -4   5  -1  598.70   32.40
   4  -5   1  595.70   32.40
   4  -5   1  575.10   28.20
  -5   5  -1  552.10   21.60
  -5   5  -1  569.50   23.90
  -5   5  -1  594.90   18.60
   5  -5   1  555.40   23.50
   5  -5   1  558.90   19.40
  -6   5  -1  722.00   28.40
  -6   5  -1  700.50   35.00
   6  -5   1  728.70   32.10
  -7   5  -1  753.80   29.10
  -7   5  -1  758.30   36.50
   7  -5   1  744.00   30.10
  -8   5  -1   41.30    6.30
  -8   5  -1   59.20   11.50
   8  -5   1   51.00    7.10
  -9   5  -1   38.30    7.50
  -9   5  -1   34.90   12.20
 -10   5  -1   75.30   13.50
 -10   5  -1   74.90    8.70
 -11   5  -1  211.50   13.50
 -11   5  -1  224.30   22.00
 -12   5  -1   41.70   14.70
 -12   5  -1   28.00   11.90
 -13   5  -1    6.00   13.00
 -13   5  -1    0.60    6.80
 -13   5  -1    3.40    9.90
 -14   5  -1   79.00   15.50
 -14   5  -1   66.80   17.20
 -14   5  -1   84.60   10.50
 -13  -4   1   15.10    9.50
 -13  -4   1    1.00   10.40
 -13  -4   1    8.70    7.50
 -12  -4   1   35.30    9.30
 -12  -4   1   26.00   11.40
 -12  -4   1   33.20    8.30
 -11  -4   1   28.40    8.90
 -11  -4   1   29.20    7.80
 -11  -4   1   18.50   10.10
 -10  -4   1  158.10   14.10
 -10  -4   1  172.20   12.60
  -9  -4   1    0.30    6.00
  -9  -4   1    5.20    5.30
   8   4  -1  564.30   26.80
  -8  -4   1  539.10   25.20
  -8  -4   1  573.60   23.20
   7   4  -1  829.50   31.40
  -7  -4   1  804.80   29.90
  -7  -4   1  828.80   27.70
   6   4  -1 1302.90   41.50
  -6  -4   1 1352.60   38.20
  -6  -4   1 1339.30   37.20
  -6  -4   1 1362.60   40.80
   5   4  -1  524.90   13.00
  -5  -4   1  550.00   12.60
  -5  -4   1  556.00    9.60
   4   4  -1  868.20   28.70
  -4  -4   1  847.40   24.90
  -4  -4   1  814.70   27.70
  -3  -4   1  692.60   13.20
  -3  -4   1  658.90   15.70
   2   4  -1  371.70   15.30
   2   4  -1  360.50   13.30
  -2  -4   1  337.60   14.80
  -2  -4   1  347.40   12.70
   1   4  -1 2175.40   95.00
   1   4  -1 2245.70   93.70
  -1  -4   1 2210.40   93.30
  -1  -4   1 2135.20   95.00
  -1  -4   1 2246.50   95.00
   0   4  -1   26.60    4.40
   0   4  -1   20.00    3.80
   0  -4   1   22.50    4.30
   0  -4   1   28.70    4.20
   0  -4   1   18.30    3.50
  -1   4  -1   47.50    8.40
  -1   4  -1   66.40   10.10
  -1   4  -1   58.10    9.20
   1  -4   1   53.60    8.30
   1  -4   1   67.10    9.70
  -2   4  -1   30.00    4.50
  -2   4  -1   33.70    3.00
   2  -4   1   32.80    3.20
  -3   4  -1    2.60    5.30
  -3   4  -1    3.60    4.00
  -3   4  -1    5.00    6.10
   3  -4   1    6.60    4.50
   3  -4   1   12.40    7.20
  -4   4  -1  410.20   17.20
  -4   4  -1  421.40   12.60
   4  -4   1  412.40   17.10
   4  -4   1  421.70   13.30
  -5   4  -1   25.10    6.10
  -5   4  -1   35.00    3.40
   5  -4   1   29.00    3.50
   5  -4   1   38.20    5.70
  -6   4  -1    0.30    4.30
   6  -4   1    2.00    4.10
  -7   4  -1 1363.40   41.90
  -7   4  -1 1406.00   49.30
  -8   4  -1   72.20   10.10
  -8   4  -1   73.00    6.60
  -9   4  -1   77.90    8.70
  -9   4  -1   72.60   13.10
 -10   4  -1   52.60   13.50
 -10   4  -1   57.30    8.80
 -11   4  -1    2.80    6.30
 -11   4  -1    0.20    9.50
 -11   4  -1    6.20    9.70
 -12   4  -1   62.60   13.70
 -12   4  -1   50.60   12.60
 -13   4  -1    6.70    7.30
 -13   4  -1    0.40   11.80
 -13   4  -1    5.30    9.50
 -14   4  -1  116.30   19.90
 -14   4  -1   97.60   15.60
 -14   4  -1  119.10   12.60
 -14  -3   1    0.10    8.40
 -14  -3   1    0.10   11.40
 -14  -3   1    9.00    8.60
 -13  -3   1    3.70   10.10
 -13  -3   1    0.40    8.70
 -13  -3   1   18.20    9.10
 -12  -3   1   39.50   10.70
 -12  -3   1   30.90    8.70
 -12  -3   1   30.10    9.10
 -11  -3   1  102.70   14.90
 -11  -3   1   99.60   11.80
 -11  -3   1  104.90   12.50
 -10  -3   1  183.70   13.60
 -10  -3   1  187.10   14.30
 -10  -3   1  197.10   17.20
  -9  -3   1  191.10   12.50
  -9  -3   1  164.80   14.90
  -9  -3   1  213.50   13.30
  -8  -3   1   24.90    6.90
  -8  -3   1    8.20    5.50
   7   3  -1  186.90   14.50
  -7  -3   1  166.70   13.10
  -7  -3   1  198.70   12.90
  -6  -3   1   10.80    3.50
  -6  -3   1   14.50    4.30
   5   3  -1  888.50   28.50
  -5  -3   1  865.40   27.60
   4   3  -1  110.40    9.50
  -4  -3   1  123.40    9.30
  -4  -3   1  109.20    7.30
   3   3  -1  121.40    8.70
  -3  -3   1  114.40    8.30
  -3  -3   1  119.70    6.80
   2   3  -1  567.40   16.10
   2   3  -1  556.50   14.50
  -2  -3   1  543.60   15.90
  -2  -3   1  552.00   14.50
   1   3  -1 2355.20   89.60
   1   3  -1 2431.90   88.70
  -1  -3   1 2377.70   88.40
  -1  -3   1 2346.40   89.60
   0   3  -1   21.70    2.00
   0   3  -1   14.40    2.40
   0  -3   1   17.10    2.00
   0  -3   1   16.10    2.30
   0  -3   1   16.00    2.20
  -1   3  -1 1072.90   29.80
  -1   3  -1 1049.00   28.50
   1  -3   1 1072.00   30.10
   1  -3   1 1024.30   29.90
   1  -3   1 1035.20   28.60
  -2   3  -1  581.40    7.10
  -2   3  -1  569.50    4.90
   2  -3   1  609.80    7.30
   2  -3   1  606.00    5.40
  -3   3  -1 1679.40   40.20
  -3   3  -1 1646.10   44.20
   3  -3   1 1740.00   40.70
   3  -3   1 1781.20   47.80
  -4   3  -1  177.50    7.50
  -4   3  -1  177.30    4.10
   4  -3   1  149.20    6.00
   4  -3   1  157.10    4.10
  -5   3  -1 1452.30   30.40
  -5   3  -1 1455.30   35.50
   5  -3   1 1473.30   35.70
   5  -3   1 1478.20   30.80
  -6   3  -1   10.60    7.10
  -6   3  -1   17.80    5.00
   6  -3   1   12.90    4.90
  -7   3  -1  679.80   25.80
  -7   3  -1  679.90   20.80
  -8   3  -1   70.20   13.00
  -8   3  -1   69.20    9.10
  -9   3  -1  236.00   14.80
  -9   3  -1  258.20   21.10
 -10   3  -1  187.80   18.90
 -10   3  -1  156.50   12.40
 -10   3  -1  163.80   16.60
 -11   3  -1   77.20   13.80
 -11   3  -1   61.60   11.60
 -11   3  -1   66.90    9.00
 -12   3  -1  296.50   22.40
 -12   3  -1  261.80   17.10
 -12   3  -1  245.40   23.30
 -13   3  -1    7.50   10.50
 -13   3  -1    0.20    6.50
 -13   3  -1    9.30   10.60
 -14   3  -1    5.60   10.80
 -14   3  -1    1.60   12.20
 -14   3  -1   15.00    8.30
 -14  -2   1    4.20   10.20
 -14  -2   1    3.90    8.90
 -14  -2   1    0.30    9.50
 -13  -2   1   15.00    9.30
 -13  -2   1   15.70    8.80
 -13  -2   1    1.40    8.80
 -12  -2   1   43.60    9.90
 -12  -2   1   43.90   10.30
 -12  -2   1   35.20   11.20
 -11  -2   1   30.50   10.30
 -11  -2   1   38.80    9.60
 -11  -2   1   42.60    9.40
 -10  -2   1   25.90    8.10
 -10  -2   1   22.40    7.80
 -10  -2   1   31.30    9.40
  -9  -2   1   36.80    9.10
  -9  -2   1   24.00    6.80
  -9  -2   1   20.10    7.20
  -8  -2   1   87.40   11.40
  -8  -2   1   84.70   12.50
  -8  -2   1  113.10   11.90
  -7  -2   1  148.50    7.90
  -7  -2   1  153.50    8.20
   6   2  -1 1789.70   50.60
  -6  -2   1 1780.30   49.90
  -6  -2   1 1795.30   50.10
  -5  -2   1 1709.20   59.80
   4   2  -1   92.80    5.30
  -4  -2   1   82.60    4.90
   3   2  -1  819.30   29.20
  -3  -2   1  770.70   28.80
   2   2  -1 1751.30   76.80
  -2  -2   1 1624.90   76.50
  -2  -2   1 1732.30   76.00
   1   2  -1   28.30   16.10
   1   2  -1   26.20   16.30
  -1  -2   1   22.60   16.30
  -1  -2   1   27.20   15.90
   0   2  -1 2048.10   19.50
   0   2  -1 2051.30   19.50
   0  -2   1 2063.60   19.50
  -1   2  -1  315.20   20.20
  -1   2  -1  322.90   22.10
   1  -2   1  314.50   20.30
   1  -2   1  307.00   22.00
  -2   2  -1  697.60   20.40
  -2   2  -1  728.40   17.40
   2  -2   1  715.10   17.60
   2  -2   1  701.50   20.30
  -3   2  -1 1479.00   80.20
  -3   2  -1 1467.50   76.50
   3  -2   1 1460.50   80.40
   3  -2   1 1490.50   76.70
  -4   2  -1   22.90    8.90
  -4   2  -1   18.80    5.40
   4  -2   1   20.60    8.10
   4  -2   1   22.50    5.60
  -5   2  -1 1802.40   55.40
  -5   2  -1 1817.60   59.80
   5  -2   1 1780.00   59.90
  -6   2  -1   93.80    4.80
  -6   2  -1   52.50    5.50
  -7   2  -1   13.60    7.30
  -7   2  -1    5.30    4.50
  -8   2  -1  196.50   14.60
  -8   2  -1  186.80   14.20
  -8   2  -1  183.30   11.20
  -9   2  -1    1.00    7.80
  -9   2  -1    9.50    8.70
  -9   2  -1    5.80    5.60
 -10   2  -1    3.80    6.20
 -10   2  -1    9.20    9.10
 -10   2  -1    0.00    8.00
 -11   2  -1  123.60   15.10
 -11   2  -1  122.00   14.50
 -11   2  -1  129.80   13.70
 -12   2  -1  366.60   25.30
 -12   2  -1  412.00   21.60
 -12   2  -1  442.70   27.80
 -13   2  -1    0.70    7.90
 -13   2  -1    3.60   11.20
 -13   2  -1   17.10   10.00
 -14   2  -1   23.60    9.60
 -14   2  -1   32.20   15.40
 -14   2  -1   15.30   10.70
 -14  -1   1   27.70   10.40
 -14  -1   1    2.10   10.40
 -14  -1   1   27.00   11.70
 -13  -1   1   30.30   10.60
 -13  -1   1   23.30   11.10
 -13  -1   1   34.30   10.10
 -12  -1   1    6.30    8.90
 -12  -1   1    6.70    8.80
 -12  -1   1   10.60    8.90
 -11  -1   1   21.10    8.70
 -11  -1   1    6.40    8.10
 -11  -1   1    4.00    7.90
 -10  -1   1    8.10    8.00
 -10  -1   1    6.10    7.20
 -10  -1   1    7.80    7.00
  -9  -1   1  304.70   17.20
  -9  -1   1  325.20   16.80
  -8  -1   1    2.90    7.60
  -8  -1   1    6.90    7.40
  -8  -1   1    5.80    8.10
  -7  -1   1   18.10    7.10
  -7  -1   1   10.80    5.90
  -7  -1   1   12.10    5.60
  -6  -1   1 1527.10   48.00
  -6  -1   1 1520.60   49.10
  -6  -1   1 1540.80   49.90
  -5  -1   1  933.40   21.00
  -5  -1   1  920.20   22.70
   4   1  -1    7.20    3.10
  -4  -1   1   10.50    3.10
   3   1  -1    7.00    6.90
  -3  -1   1    7.70    6.70
   2   1  -1  886.70   18.70
  -2  -1   1  879.20   18.60
  -1   1  -1 1242.70   60.20
   1  -1   1 1315.80   60.40
  -2   1  -1  419.20    2.40
  -2   1  -1  409.90    4.20
   2  -1   1  411.80    4.00
  -3   1  -1   16.70   10.40
  -3   1  -1   14.40   12.90
   3  -1   1   17.80   12.90
  -4   1  -1   24.50    3.30
  -4   1  -1   27.30    4.90
   4  -1   1   19.20    4.70
  -5   1  -1  511.20   25.70
  -5   1  -1  490.30   23.00
   5  -1   1  477.80   25.70
  -6   1  -1  512.80   19.10
  -6   1  -1  548.60   19.30
  -6   1  -1  544.10   16.90
  -7   1  -1   90.10   10.50
  -7   1  -1   74.70    9.20
  -7   1  -1   97.40    8.70
  -8   1  -1  540.50   25.20
  -8   1  -1  545.90   22.10
  -8   1  -1  554.00   25.00
  -9   1  -1  276.40   19.30
  -9   1  -1  286.30   16.60
  -9   1  -1  273.80   18.30
 -10   1  -1  362.60   19.20
 -10   1  -1  370.90   22.20
 -10   1  -1  380.60   22.30
 -11   1  -1    2.00    7.10
 -11   1  -1   11.80    8.70
 -11   1  -1   10.80    9.10
 -12   1  -1   62.90   10.40
 -12   1  -1   66.00   12.40
 -12   1  -1   61.10   12.40
 -13   1  -1   55.10   13.30
 -13   1  -1   54.10   12.60
 -13   1  -1   52.10   10.70
 -14   1  -1   57.10   11.40
 -14   1  -1   54.90   13.10
 -14   1  -1   57.30   14.30
 -14   0   1    0.50    9.10
 -14   0   1    8.40    9.80
 -14   0   1    7.50   11.60
 -13   0   1   12.80   10.60
 -13   0   1    6.40    9.30
 -13   0   1    1.80    8.90
 -12   0   1    5.20    8.20
 -12   0   1   17.00   10.70
 -12   0   1    4.60    9.20
 -11   0   1    7.00    8.60
 -11   0   1    6.50    8.00
 -11   0   1    7.00    8.30
 -10   0   1   54.20    9.10
 -10   0   1   46.50    8.30
 -10   0   1   38.30    9.10
  -9   0   1  865.70   36.50
  -9   0   1  901.40   34.80
  -9   0   1  884.50   35.60
  -8   0   1  767.80   30.30
  -8   0   1  788.40   29.50
  -8   0   1  776.50   28.20
  -7   0   1  398.60   17.30
  -7   0   1  374.20   16.30
  -7   0   1  410.40   15.70
  -6   0   1  493.90   17.10
  -6   0   1  483.40   18.60
  -6   0   1  497.80   18.30
  -5   0   1   16.80    4.50
  -5   0   1   19.00    5.50
  -5   0   1   11.40    4.80
  -4   0   1  266.20   29.90
  -4   0   1  268.20   31.20
  -3   0   1 1379.40   25.10
  -3   0   1 1371.50   26.40
   2   0  -1   10.80    1.50
  -2   0   1   13.30    1.50
  -1   0  -1 1815.40   43.00
  -1   0  -1 1844.90   42.40
  -1   0  -1 1859.10   41.50
   1   0   1 1964.70   42.40
  -2   0  -1  167.80    4.20
  -2   0  -1  173.30    4.60
   2   0   1  176.10    4.20
  -3   0  -1  471.50   16.80
  -3   0  -1  449.40   16.10
   3   0   1  462.90   16.40
  -4   0  -1  482.00   16.10
  -4   0  -1  459.50   15.60
   4   0   1  441.70   15.60
  -5   0  -1   72.70    7.90
  -5   0  -1   64.70    7.60
   5   0   1   54.50    6.90
  -6   0  -1 1010.50   37.80
  -6   0  -1 1009.20   36.40
  -6   0  -1  959.80   37.90
  -7   0  -1  166.50   10.60
  -7   0  -1  152.40   11.60
  -7   0  -1  157.10   11.60
  -8   0  -1  468.80   22.90
  -8   0  -1  457.40   21.70
  -8   0  -1  456.20   23.00
  -9   0  -1  480.30   21.40
  -9   0  -1  452.80   22.80
 -10   0  -1  420.90   22.60
 -10   0  -1  441.40   22.50
 -11   0  -1    6.30    7.40
 -11   0  -1    0.10    8.40
 -11   0  -1    8.40    8.50
 -12   0  -1    4.90    7.80
 -12   0  -1    0.80    8.90
 -12   0  -1    0.00    8.50
 -13   0  -1  100.20   13.80
 -13   0  -1  112.00   15.80
 -13   0  -1  130.40   16.30
 -14   0  -1    0.40    8.90
 -14   0  -1    0.40    9.30
 -14   0  -1    0.40    9.90
 -14   1   1    0.50   10.10
 -14   1   1    5.10    9.80
 -14   1   1    0.50    9.10
 -13   1   1    0.00    8.80
 -13   1   1    0.80   11.10
 -13   1   1    0.00    8.70
 -12   1   1   53.80   10.70
 -12   1   1   48.20   11.70
 -12   1   1   56.60   13.80
 -11   1   1   77.30   12.60
 -11   1   1   66.00   14.40
 -11   1   1   86.70   13.60
 -10   1   1   46.80   12.00
 -10   1   1   54.30   10.70
 -10   1   1   39.40   10.30
  -9   1   1  429.40   21.30
  -9   1   1  398.30   22.90
  -9   1   1  391.50   20.80
  -8   1   1  614.00   21.60
  -8   1   1  636.90   21.50
  -7   1   1  246.80   12.40
  -7   1   1  235.30   12.10
  -7   1   1  256.30   14.10
  -6   1   1  190.60   12.70
  -6   1   1  192.00   14.40
  -5   1   1  391.80   22.40
  -5   1   1  398.70   20.90
   4  -1  -1   38.20    5.50
  -4   1   1   37.70    5.60
   3  -1  -1  127.10    8.00
  -3   1   1  122.60    7.80
   2  -1  -1  727.80    2.60
  -2   1   1  693.20    2.80
   1  -1  -1    2.40   23.80
   1  -1  -1    2.60   24.50
  -1   1   1    2.60   24.40
  -1   1   1    2.50   23.80
  -2  -1  -1  110.40    5.00
  -2  -1  -1  109.50    6.10
   2   1   1  114.40    5.10
   2   1   1  122.00    6.50
  -3  -1  -1   43.30    5.10
  -3  -1  -1   35.00    5.80
   3   1   1   39.30    6.30
   3   1   1   40.90    5.20
  -4  -1  -1  639.10   27.70
  -4  -1  -1  636.30   29.20
   4   1   1  672.80   28.10
   4   1   1  651.80   29.90
  -5  -1  -1  147.90   14.20
  -5  -1  -1  150.80   13.20
  -6  -1  -1 1778.40   54.50
  -6  -1  -1 1700.20   55.60
  -7  -1  -1    1.50    5.90
  -7  -1  -1    0.50    5.20
  -8  -1  -1    6.00    6.50
  -8  -1  -1   15.30    6.70
  -8  -1  -1    9.00    7.20
  -9  -1  -1   10.60    7.00
  -9  -1  -1   16.20    6.90
  -9  -1  -1   18.40    7.40
 -10  -1  -1   90.20   12.20
 -10  -1  -1  114.50   13.20
 -10  -1  -1   97.00   13.00
 -11  -1  -1  161.70   14.90
 -11  -1  -1  147.60   15.00
 -11  -1  -1  172.90   14.80
 -12  -1  -1   56.10   12.20
 -12  -1  -1   71.60   11.90
 -12  -1  -1   51.40   11.60
 -13  -1  -1   83.40   13.00
 -13  -1  -1  118.80   15.00
 -13  -1  -1  101.40   13.70
 -14  -1  -1    7.30   10.50
 -14  -1  -1   11.30   10.60
 -14  -1  -1    5.50    9.20
 -14   2   1    0.60    9.10
 -14   2   1    0.60    9.10
 -14   2   1   10.70   13.40
 -13   2   1    1.40    8.40
 -13   2   1   19.90    9.80
 -13   2   1   10.00   11.30
 -12   2   1   54.40   11.60
 -12   2   1   50.10   14.30
 -12   2   1   43.50   10.60
 -11   2   1  163.30   14.20
 -11   2   1  143.30   15.30
 -11   2   1  185.10   15.10
 -10   2   1   15.10    9.80
 -10   2   1    3.10    6.80
 -10   2   1   14.40    7.50
  -9   2   1    0.10    6.40
  -9   2   1    0.80    7.80
  -8   2   1    0.50    6.60
  -8   2   1    6.40    6.40
  -7   2   1   19.60    6.10
  -7   2   1   12.40    7.30
   6  -2  -1    7.60    4.50
  -6   2   1    2.80    6.40
  -6   2   1   14.50    4.60
  -5   2   1 1141.70   26.10
  -5   2   1 1132.00   28.70
   4  -2  -1  572.30   14.90
  -4   2   1  515.70   15.90
  -4   2   1  566.30   14.60
   2  -2  -1  222.30    2.50
   2  -2  -1  245.30    2.40
  -2   2   1  236.00    2.30
  -2   2   1  243.20    2.40
   1  -2  -1 1311.20   10.10
   1  -2  -1 1300.00   10.20
  -1   2   1 1296.40   10.00
   0  -2  -1  270.10   16.70
   0  -2  -1  253.70   17.00
   0   2   1  261.20   17.10
   0   2   1  266.00   16.70
  -1  -2  -1    4.20   10.80
  -1  -2  -1    2.60   10.60
   1   2   1    4.20   10.70
   1   2   1    3.90   11.00
   1   2   1    3.90    9.00
  -2  -2  -1   78.80    6.60
  -2  -2  -1   84.00    4.90
  -2  -2  -1   82.80    6.50
   2   2   1   86.30    6.90
   2   2   1   82.70    4.50
  -3  -2  -1  146.30    9.40
  -3  -2  -1  159.60    7.20
   3   2   1  147.70    7.20
   3   2   1  156.80    9.80
  -4  -2  -1  398.50   14.60
  -4  -2  -1  406.40   12.10
   4   2   1  397.90   14.90
  -5  -2  -1  777.30   22.80
  -5  -2  -1  750.60   25.00
   5   2   1  774.20   26.10
  -6  -2  -1 1234.00   32.00
  -6  -2  -1 1178.10   34.30
   6   2   1 1148.20   34.60
  -7  -2  -1   49.70    8.60
  -7  -2  -1   49.00   10.70
  -8  -2  -1  130.20   11.70
  -8  -2  -1  158.80   14.00
  -9  -2  -1  238.40   15.60
  -9  -2  -1  204.40   14.10
 -10  -2  -1  109.90   12.40
 -10  -2  -1  135.30   13.50
 -10  -2  -1   96.40   10.00
 -11  -2  -1  881.80   36.90
 -11  -2  -1  956.00   35.50
 -11  -2  -1  974.00   37.60
 -12  -2  -1    5.10    7.30
 -12  -2  -1    8.80    8.60
 -12  -2  -1    9.90    9.40
 -13  -2  -1   17.80   10.10
 -13  -2  -1   30.30   10.10
 -13  -2  -1   29.10   11.20
 -14  -2  -1    0.50    8.50
 -14  -2  -1    0.50    9.40
 -14  -2  -1    0.50    9.00
 -14   3   1   10.20   12.40
 -14   3   1    0.20    9.40
 -14   3   1   21.50    9.30
 -13   3   1   12.30    9.90
 -13   3   1    0.80   11.30
 -13   3   1    0.00    8.30
 -12   3   1   99.70   14.90
 -12   3   1  105.30   12.90
 -12   3   1   99.80   11.50
 -11   3   1  227.30   21.40
 -11   3   1  260.20   17.80
 -11   3   1  252.80   17.20
 -10   3   1  166.20   15.10
 -10   3   1  226.40   17.00
 -10   3   1  163.00   19.20
  -9   3   1  366.30   23.80
  -9   3   1  411.50   19.50
  -8   3   1  551.60   21.50
  -8   3   1  529.30   24.90
   7  -3  -1 1435.40   37.10
  -7   3   1 1403.60   40.30
  -7   3   1 1442.20   36.60
   6  -3  -1  308.40   21.60
  -6   3   1  294.30   24.30
  -6   3   1  327.70   21.50
   5  -3  -1  122.10    7.50
  -5   3   1  125.70    7.40
  -5   3   1  112.70    8.90
   4  -3  -1   30.20    9.50
  -4   3   1   35.00   10.90
  -4   3   1   29.20    9.30
  -4   3   1   26.90    9.30
   3  -3  -1   46.60   13.70
  -3   3   1   53.80   13.40
  -3   3   1   45.70   15.10
  -3   3   1   56.10   13.70
   2  -3  -1  966.30   36.40
   2  -3  -1 1011.10   36.60
  -2   3   1  972.70   36.00
  -2   3   1  921.80   35.80
   1  -3  -1   24.60    9.40
   1  -3  -1   19.80    9.50
  -1   3   1   22.80    9.10
  -1   3   1   23.00    9.20
   0  -3  -1  282.80   15.10
   0  -3  -1  283.40   15.40
   0   3   1  273.20   15.40
   0   3   1  278.10   15.00
  -1  -3  -1 1153.80   58.10
  -1  -3  -1 1176.20   57.70
   1   3   1 1223.40   58.00
   1   3   1 1171.90   58.40
  -2  -3  -1  603.80   19.30
  -2  -3  -1  606.70   19.60
   2   3   1  622.10   19.90
   2   3   1  608.90   16.00
  -3  -3  -1  534.20   12.40
   3   3   1  533.90   12.40
  -4  -3  -1  452.40    4.60
  -4  -3  -1  445.10    7.60
   4   3   1  452.60    7.90
  -5  -3  -1  953.50   24.90
  -5  -3  -1  945.00   28.70
   5   3   1  942.00   29.50
  -6  -3  -1    0.00    4.70
  -6  -3  -1    1.90    3.30
   6   3   1    0.70    5.90
  -7  -3  -1   58.30    5.30
  -7  -3  -1   45.30    7.10
   7   3   1   48.70    7.50
  -8  -3  -1    0.60    4.60
  -8  -3  -1    0.10    6.30
  -9  -3  -1   89.40   11.60
  -9  -3  -1   87.60    8.80
 -10  -3  -1  344.30   21.10
 -10  -3  -1  362.20   17.80
 -11  -3  -1  583.30   25.40
 -11  -3  -1  594.10   30.00
 -11  -3  -1  641.10   29.70
 -12  -3  -1    3.80    8.40
 -12  -3  -1   13.70    9.50
 -13  -3  -1   14.60    8.50
 -13  -3  -1   17.00   10.70
 -13  -3  -1   15.20   10.90
 -14   4   1   22.50   13.50
 -14   4   1   34.20   11.50
 -14   4   1   42.90   10.60
 -13   4   1   11.50    9.40
 -13   4   1   14.40   13.40
 -13   4   1   18.40   10.50
 -12   4   1    6.30    8.50
 -12   4   1    0.10   10.90
 -12   4   1   17.10   10.30
 -11   4   1   17.40   12.10
 -11   4   1    7.50    7.80
 -10   4   1    0.20    7.00
 -10   4   1    8.40    9.90
   9  -4  -1  145.30   12.60
  -9   4   1  136.40   15.00
  -9   4   1  154.30   12.00
   8  -4  -1  261.40   13.90
  -8   4   1  285.00   13.50
  -8   4   1  297.10   18.80
   7  -4  -1 1487.00   58.00
  -7   4   1 1581.90   57.30
  -7   4   1 1521.50   62.50
   6  -4  -1  295.10   14.00
  -6   4   1  296.00   14.20
  -6   4   1  356.90   20.80
  -6   4   1  335.60   13.90
   5  -4  -1 1366.40   28.40
  -5   4   1 1380.30   27.60
  -5   4   1 1313.60   27.80
  -5   4   1 1439.50   31.90
   4  -4  -1   77.70   22.50
  -4   4   1   63.60   19.60
  -4   4   1   54.20   18.90
  -4   4   1   67.40   22.30
   3  -4  -1  537.40   24.10
   3  -4  -1  513.60   24.20
  -3   4   1  473.10   22.70
  -3   4   1  516.90   25.40
   2  -4  -1  472.80   13.80
   2  -4  -1  498.10   13.70
  -2   4   1  503.20   13.40
  -2   4   1  474.70   13.30
  -2   4   1  493.50   14.60
   1  -4  -1   63.30   11.60
   1  -4  -1   49.40   11.50
  -1   4   1   57.40   11.20
  -1   4   1   55.30   11.30
   0  -4  -1   57.20    9.90
   0  -4  -1   44.10    9.20
   0   4   1   46.70    8.20
   0   4   1   44.80    9.50
   0   4   1   52.30    9.00
  -1  -4  -1  939.00   33.30
   1   4   1  907.80   30.90
   1   4   1  890.80   34.00
  -2  -4  -1  548.10   17.50
  -2  -4  -1  548.20   17.00
   2   4   1  542.00   17.40
   2   4   1  567.20   13.50
  -3  -4  -1 1040.90   32.00
  -3  -4  -1 1011.50   31.60
   3   4   1 1032.50   32.30
  -4  -4  -1 1601.10   66.10
  -4  -4  -1 1591.80   66.00
   4   4   1 1604.80   66.90
  -5  -4  -1   71.60   10.70
  -5  -4  -1   92.00   11.50
   5   4   1   70.40   11.30
  -6  -4  -1 1032.30   25.20
  -6  -4  -1 1000.20   40.60
   6   4   1 1006.50   32.00
  -7  -4  -1 1594.00   48.90
  -7  -4  -1 1472.80   42.80
   7   4   1 1501.80   50.00
  -8  -4  -1  478.80   17.30
  -8  -4  -1  517.00   22.90
   8   4   1  488.20   23.80
  -9  -4  -1  277.50   18.50
  -9  -4  -1  289.70   13.70
 -10  -4  -1  101.00   13.40
 -10  -4  -1   98.40   10.10
 -11  -4  -1   63.70    7.70
 -11  -4  -1   55.00   10.50
 -12  -4  -1  117.90   15.30
 -12  -4  -1  115.10   15.00
 -12  -4  -1  123.20   15.20
 -12  -4  -1  114.60   10.60
 -13  -4  -1    0.00    9.30
 -13  -4  -1    0.00    6.60
 -13  -4  -1    0.00    9.70
 -14   5   1   53.80   16.80
 -14   5   1   45.40   10.50
 -14   5   1   32.40   12.20
 -13   5   1   28.50    9.50
 -13   5   1   29.30   11.00
 -13   5   1   38.50   15.00
 -12   5   1    5.20   13.30
 -12   5   1    7.80    9.40
 -12   5   1   23.50    8.70
 -11   5   1  106.80   11.50
 -11   5   1   86.20   15.50
 -11   5   1   85.50   12.00
 -10   5   1  396.50   23.30
 -10   5   1  415.90   27.60
 -10   5   1  432.10   22.00
   9  -5  -1  127.30   14.30
  -9   5   1  127.70   14.30
  -9   5   1  150.20   16.60
  -9   5   1  122.40   18.80
   8  -5  -1  112.30    8.70
  -8   5   1  106.20    8.30
  -8   5   1   98.80   11.00
  -8   5   1   70.10    8.40
   7  -5  -1  247.70   14.60
  -7   5   1  250.60   14.90
  -7   5   1  283.10   14.20
  -7   5   1  276.70   18.40
   6  -5  -1  489.80   29.30
  -6   5   1  506.70   33.30
  -6   5   1  478.20   28.80
  -6   5   1  518.80   28.20
   5  -5  -1   55.60   10.50
  -5   5   1   63.60    9.90
  -5   5   1   65.10   10.70
  -5   5   1   60.00   12.40
   4  -5  -1  621.00   23.00
  -4   5   1  590.50   24.30
  -4   5   1  562.80   24.30
  -4   5   1  566.40   21.40
   3  -5  -1  456.70   14.20
   3  -5  -1  433.20   13.20
  -3   5   1  454.20   12.90
  -3   5   1  452.80   12.20
  -3   5   1  476.30   14.80
   2  -5  -1  430.30   23.70
   2  -5  -1  447.70   23.50
  -2   5   1  407.40   23.40
  -2   5   1  440.40   22.80
  -2   5   1  415.30   22.70
   1  -5  -1  836.00   33.50
   1  -5  -1  837.40   33.80
  -1   5   1  836.30   33.40
  -1   5   1  825.20   33.00
  -1   5   1  850.10   33.20
   0  -5  -1  438.70    4.90
   0  -5  -1  443.80    4.90
   0   5   1  417.20    4.80
   0   5   1  410.40    3.80
   0   5   1  442.10    5.00
  -1  -5  -1  227.20   13.90
  -1  -5  -1  202.90   13.90
   1   5   1  229.90   13.90
   1   5   1  239.20   11.90
   1   5   1  227.80   14.70
  -2  -5  -1  163.30    8.00
   2   5   1  149.40    4.80
  -3  -5  -1    2.60    5.80
  -3  -5  -1    2.30    6.60
   3   5   1    1.20    5.70
  -4  -5  -1  127.90    9.40
  -4  -5  -1  123.20    9.00
   4   5   1  126.80    9.40
  -5  -5  -1  386.10   18.70
  -5  -5  -1  359.60   18.20
   5   5   1  367.60   19.10
  -6  -5  -1  176.60   13.30
  -6  -5  -1  184.40   13.80
   6   5   1  181.60   13.90
  -7  -5  -1  745.40   30.90
  -7  -5  -1  771.50   31.10
   7   5   1  787.20   33.10
  -8  -5  -1  385.60   20.80
  -8  -5  -1  412.10   14.00
  -8  -5  -1  401.90   21.70
   8   5   1  417.70   23.30
  -9  -5  -1  513.80   23.00
  -9  -5  -1  491.10   21.90
  -9  -5  -1  488.20   15.20
   9   5   1  462.10   22.90
 -10  -5  -1   54.10    5.60
 -10  -5  -1   60.80    9.60
 -10  -5  -1   55.10   10.00
 -11  -5  -1    9.90    7.90
 -11  -5  -1    0.10    8.50
 -11  -5  -1    5.80    4.80
 -12  -5  -1    7.10    5.10
 -12  -5  -1    1.80    8.80
 -13  -5  -1    0.30    4.90
 -13  -5  -1    2.90    9.20
 -13  -5  -1   18.50   11.50
 -13   6   1   20.10   13.70
 -13   6   1   21.10    8.70
 -12   6   1    7.20    8.00
 -12   6   1   12.00   13.50
 -12   6   1    0.00    8.70
 -11   6   1   75.00   15.70
 -11   6   1   58.80   11.30
 -11   6   1   52.20   10.30
  10  -6  -1  337.70   21.40
 -10   6   1  357.40   27.00
 -10   6   1  355.30   20.40
 -10   6   1  341.00   22.40
   9  -6  -1  135.90   11.30
  -9   6   1  141.70   10.50
  -9   6   1  146.60   15.10
  -9   6   1  157.20   12.10
   8  -6  -1  187.60   15.00
  -8   6   1  184.60   15.00
  -8   6   1  198.90   18.50
  -8   6   1  182.10   13.70
   7  -6  -1   16.30   10.30
  -7   6   1   21.00    9.40
  -7   6   1   12.20   12.50
  -7   6   1   15.20    9.80
   6  -6  -1  282.90   12.90
  -6   6   1  291.90   16.50
  -6   6   1  281.00   13.00
  -6   6   1  278.10   11.60
   5  -6  -1  520.40   20.40
  -5   6   1  545.90   19.10
  -5   6   1  515.60   22.30
  -5   6   1  517.20   19.50
   4  -6  -1   18.50   10.80
   4  -6  -1   19.00   11.40
  -4   6   1   19.80   10.50
  -4   6   1   12.90    9.10
  -4   6   1   16.50   12.40
   3  -6  -1    5.00    6.50
  -3   6   1    3.50    5.60
  -3   6   1   10.00    5.00
  -3   6   1    5.30    5.80
   2  -6  -1  719.70   22.80
  -2   6   1  703.30   22.30
  -2   6   1  711.50   21.40
  -2   6   1  726.40   21.80
   1  -6  -1 1217.50   35.70
   1  -6  -1 1192.40   33.00
  -1   6   1 1212.60   32.00
  -1   6   1 1201.30   32.40
  -1   6   1 1257.70   32.90
   0  -6  -1  997.00   63.00
   0  -6  -1 1048.30   63.40
   0   6   1 1002.20   61.40
   0   6   1 1003.80   62.80
   0   6   1 1004.50   63.30
  -1  -6  -1 3057.40  106.60
  -1  -6  -1 2944.50  106.50
   1   6   1 3109.50  107.50
   1   6   1 2981.90  106.30
   1   6   1 3057.40  103.70
  -2  -6  -1 3993.60  117.80
  -2  -6  -1 4080.00  118.40
   2   6   1 4059.50  113.70
   2   6   1 4031.80  118.30
  -3  -6  -1   75.20    8.50
  -3  -6  -1   71.50    8.70
   3   6   1   80.50    9.40
  -4  -6  -1 1959.60   71.70
  -4  -6  -1 1911.60   68.80
   4   6   1 1963.90   69.50
  -5  -6  -1 1517.60   42.30
  -5  -6  -1 1465.00   42.30
   5   6   1 1525.40   43.50
  -6  -6  -1  278.80   15.60
  -6  -6  -1  288.60   16.50
   6   6   1  291.50   16.70
  -7  -6  -1   45.80    9.20
  -7  -6  -1   38.50    9.20
   7   6   1   43.90   10.30
  -8  -6  -1    0.80    6.90
  -8  -6  -1    2.90    7.10
  -9  -6  -1   60.60   11.30
  -9  -6  -1   61.30   11.20
   9   6   1   56.10   12.30
 -10  -6  -1  103.40   12.00
 -10  -6  -1  110.60   13.00
 -11  -6  -1  158.50   17.80
 -12  -6  -1   43.40   11.90
 -13  -6  -1   16.30   11.30
 -13  -6  -1   14.50   11.50
 -13   7   1  135.60   14.80
 -13   7   1  102.90   21.10
 -12   7   1  114.30   19.30
 -12   7   1  129.00   13.10
  11  -7  -1    5.40    7.70
 -11   7   1    1.10    8.30
 -11   7   1    1.10    7.50
 -11   7   1    1.10   11.70
  10  -7  -1    0.20    7.60
 -10   7   1    1.70    7.50
 -10   7   1    6.60   12.40
 -10   7   1    1.30    7.90
   9  -7  -1   47.70    9.80
  -9   7   1   54.30    9.10
  -9   7   1   52.70   12.10
  -9   7   1   53.60   10.10
   8  -7  -1  581.60   23.70
  -8   7   1  582.20   23.40
  -8   7   1  601.30   21.40
  -8   7   1  601.80   28.70
   7  -7  -1    3.00    9.00
  -7   7   1   12.60   12.70
  -7   7   1   15.90    9.30
  -7   7   1    7.70    8.20
   6  -7  -1   38.60    8.10
  -6   7   1   54.90    7.50
  -6   7   1   64.30    9.00
  -6   7   1   60.60   10.00
   5  -7  -1  191.50   15.40
  -5   7   1  182.10   17.50
  -5   7   1  202.50   14.80
  -5   7   1  205.10   13.90
   4  -7  -1   19.80   10.50
   4  -7  -1   28.20   11.10
  -4   7   1   28.80   11.70
  -4   7   1   29.90   10.10
  -4   7   1   27.10    9.30
   3  -7  -1  269.40   15.30
   3  -7  -1  256.30   14.50
  -3   7   1  277.80   15.40
  -3   7   1  277.00   14.30
  -3   7   1  252.80   14.40
   2  -7  -1 1022.40   40.40
   2  -7  -1 1082.60   40.10
  -2   7   1 1070.10   39.60
  -2   7   1 1078.60   39.20
  -2   7   1 1025.80   39.80
   1  -7  -1    5.40    5.80
   1  -7  -1   25.20    7.20
  -1   7   1   20.90    6.10
  -1   7   1    9.40    5.80
  -1   7   1   19.80    6.30
   0  -7  -1  131.70   12.90
   0  -7  -1  115.60   13.70
   0   7   1  112.60   12.90
   0   7   1  132.10   12.40
   0   7   1  132.40   11.70
  -1  -7  -1  404.20   29.60
  -1  -7  -1  401.90   29.60
   1   7   1  442.30   27.10
   1   7   1  426.80   29.60
  -2  -7  -1    7.90    5.50
  -2  -7  -1    5.20    5.20
   2   7   1    0.10    4.70
   2   7   1    5.40    3.60
  -3  -7  -1  219.50   11.40
  -3  -7  -1  215.60   11.50
   3   7   1  218.20    6.40
   3   7   1  235.00   11.50
  -4  -7  -1  802.00   28.30
  -4  -7  -1  795.00   28.30
   4   7   1  796.20   29.30
  -5  -7  -1  555.90   24.50
  -5  -7  -1  588.90   24.30
   5   7   1  510.50   24.70
  -6  -7  -1  414.80   19.40
  -6  -7  -1  396.00   19.30
   6   7   1  375.00   19.40
  -7  -7  -1  464.50   27.40
  -7  -7  -1  503.70   24.30
   7   7   1  459.60   28.30
  -8  -7  -1  143.80   13.60
  -8  -7  -1  169.80   15.80
   8   7   1  139.20   15.60
  -9  -7  -1   98.40   12.20
  -9  -7  -1   96.80   12.00
   9   7   1  105.50   13.90
 -10  -7  -1  200.30   18.30
 -11  -7  -1   19.60    9.40
 -12  -7  -1    3.20    9.60
 -13   8   1   57.10   18.80
 -13   8   1   71.60   11.30
 -12   8   1  116.30   12.30
 -12   8   1  147.50   20.50
  11  -8  -1    0.80    7.70
 -11   8   1    0.80    7.10
 -11   8   1    0.80   10.80
  10  -8  -1   78.40   11.50
 -10   8   1   60.00   10.10
 -10   8   1  101.70   12.90
 -10   8   1   66.50   15.90
   9  -8  -1   33.40    9.20
  -9   8   1   22.40    8.80
  -9   8   1   46.80   12.20
  -9   8   1   46.90    8.50
   8  -8  -1  515.70   28.30
  -8   8   1  526.20   32.00
  -8   8   1  504.00   25.20
  -8   8   1  459.80   26.40
   7  -8  -1   74.10   11.90
  -7   8   1   84.00   14.20
  -7   8   1   85.70   10.80
  -7   8   1   80.30   11.30
   6  -8  -1   24.20    8.70
  -6   8   1   18.20    9.10
  -6   8   1   22.00    9.50
  -6   8   1   11.60    7.20
   5  -8  -1   25.10    8.00
  -5   8   1   31.30    8.80
  -5   8   1   19.30    7.30
  -5   8   1   31.20    7.50
   4  -8  -1   70.90   12.30
   4  -8  -1   81.10   12.00
  -4   8   1   70.40    9.40
  -4   8   1   50.60   10.40
  -4   8   1   69.20   10.50
   3  -8  -1  656.80   32.20
   3  -8  -1  634.90   33.30
  -3   8   1  641.60   31.00
  -3   8   1  646.70   36.00
  -3   8   1  649.80   30.90
   2  -8  -1  186.40   13.30
   2  -8  -1  177.40   15.40
  -2   8   1  168.30   13.50
  -2   8   1  176.80   13.60
  -2   8   1  160.00   12.30
   1  -8  -1    2.70    8.40
   1  -8  -1    5.00    7.90
  -1   8   1    1.30    7.60
  -1   8   1    1.00    7.70
  -1   8   1    2.70    7.40
   0  -8  -1  196.90   15.90
   0  -8  -1  184.90   16.40
   0   8   1  201.60   14.70
   0   8   1  183.80   18.40
   0   8   1  197.10   15.80
  -1  -8  -1  280.60   14.80
  -1  -8  -1  281.30   14.10
   1   8   1  251.20   12.80
   1   8   1  274.20   11.30
   1   8   1  264.40   14.00
  -2  -8  -1  669.40   26.60
  -2  -8  -1  648.90   26.30
   2   8   1  629.90   22.10
   2   8   1  689.10   26.70
  -3  -8  -1  489.40   23.80
  -3  -8  -1  582.80   24.70
   3   8   1  510.90   17.80
   3   8   1  533.50   24.20
  -4  -8  -1  181.50   11.80
  -4  -8  -1  148.60   10.50
   4   8   1  167.50   12.20
  -5  -8  -1    6.80    6.90
  -5  -8  -1    0.00    6.00
   5   8   1    0.40    6.50
  -6  -8  -1    9.90    7.50
  -6  -8  -1   14.50    7.40
  -7  -8  -1  116.10   13.00
  -7  -8  -1  119.20   13.70
   7   8   1  154.20   16.30
  -8  -8  -1   63.90   11.00
  -8  -8  -1   56.50   10.80
   8   8   1   44.00   10.20
  -9  -8  -1  399.20   23.10
 -10  -8  -1   57.20   11.80
 -11  -8  -1   21.90   10.50
 -12  -8  -1    0.30    9.80
 -13   9   1    0.00   13.30
 -13   9   1    5.70    8.20
  12  -9  -1    6.00    9.40
 -12   9   1    5.90    8.40
 -12   9   1   18.90   15.10
  11  -9  -1   26.60   10.50
 -11   9   1   26.50    9.10
 -11   9   1   28.50   15.00
  10  -9  -1   24.50    8.50
 -10   9   1   28.70    8.40
 -10   9   1   35.00   14.20
   9  -9  -1  133.20   17.40
  -9   9   1  150.90   14.80
  -9   9   1  142.80   16.80
  -9   9   1  127.40   20.70
   8  -9  -1  157.20   17.10
  -8   9   1  195.80   20.20
  -8   9   1  204.30   16.90
  -8   9   1  211.80   15.30
   7  -9  -1    1.30    8.00
  -7   9   1    1.30    6.70
  -7   9   1    4.20    7.00
  -7   9   1    1.30    8.60
   6  -9  -1  255.20   18.20
  -6   9   1  240.20   20.40
  -6   9   1  256.10   17.10
  -6   9   1  231.10   15.50
   5  -9  -1   30.60    8.80
  -5   9   1   14.10    8.20
  -5   9   1   13.80    7.00
  -5   9   1   46.40    8.70
   4  -9  -1   17.90    8.10
   4  -9  -1    8.70    8.10
  -4   9   1    3.70    6.50
  -4   9   1   16.10    8.70
  -4   9   1   12.70    7.30
   3  -9  -1  289.80   17.20
   3  -9  -1  276.30   18.80
  -3   9   1  289.00   17.40
  -3   9   1  280.10   15.70
  -3   9   1  280.20   15.60
   2  -9  -1  275.80   19.10
   2  -9  -1  277.80   20.40
  -2   9   1  286.10   19.10
  -2   9   1  274.00   19.20
  -2   9   1  284.90   21.50
   1  -9  -1  733.70   25.40
   1  -9  -1  733.80   23.70
  -1   9   1  775.40   23.50
  -1   9   1  784.50   24.20
  -1   9   1  747.20   24.00
   0  -9  -1  318.80   18.50
   0  -9  -1  334.70   17.00
   0   9   1  328.00   18.10
   0   9   1  331.00   15.40
   0   9   1  321.90   16.20
  -1  -9  -1  532.50   23.60
  -1  -9  -1  520.40   22.30
   1   9   1  536.40   20.20
   1   9   1  526.80   22.30
   1   9   1  547.20   23.50
  -2  -9  -1  665.90   29.20
  -2  -9  -1  676.60   29.70
   2   9   1  739.10   25.70
   2   9   1  686.40   29.50
  -3  -9  -1   59.00   11.70
  -3  -9  -1   81.10   13.40
   3   9   1   73.20   12.70
   3   9   1   69.60    8.00
  -4  -9  -1   18.90    9.70
  -4  -9  -1   12.30    8.40
   4   9   1   21.00    9.60
  -5  -9  -1  223.20   16.00
  -5  -9  -1  215.50   16.80
   5   9   1  235.70   16.70
  -6  -9  -1  325.10   17.80
  -6  -9  -1  284.40   16.90
   6   9   1  273.60   17.40
  -7  -9  -1   11.10    8.60
   7   9   1    8.90    9.80
  -8  -9  -1   39.50   11.10
  -9  -9  -1  261.70   20.80
 -10  -9  -1    0.00    9.10
 -11  -9  -1   28.70   11.80
  12 -10  -1   22.00   11.80
 -12  10   1   39.30   16.30
 -12  10   1   31.20   10.00
  11 -10  -1   37.90   12.30
 -11  10   1   59.40   11.00
 -11  10   1   48.60   17.40
 -10  10   1   24.60    8.60
 -10  10   1   14.30   13.80
   9 -10  -1    0.50    8.50
  -9  10   1    0.50    9.80
  -9  10   1    3.80    7.50
   8 -10  -1    3.70    9.30
  -8  10   1    4.90    7.70
  -8  10   1    6.80    8.30
  -8  10   1    5.20   11.20
   7 -10  -1   29.10   10.70
  -7  10   1   47.40    8.90
  -7  10   1   29.30    8.10
  -7  10   1   36.20   12.10
   6 -10  -1  153.80   16.60
  -6  10   1  156.20   14.40
  -6  10   1  173.00   15.80
  -6  10   1  165.20   17.50
   5 -10  -1    0.10    8.20
   5 -10  -1    1.50    8.90
  -5  10   1    2.50    7.00
  -5  10   1    0.50    7.60
  -5  10   1   10.40    8.40
   4 -10  -1   30.30   10.80
   4 -10  -1   47.40   14.00
  -4  10   1   26.00    9.70
  -4  10   1   27.70    9.90
  -4  10   1   40.30   11.10
   3 -10  -1   14.90   10.10
   3 -10  -1    0.40    7.30
  -3  10   1    3.60    8.00
  -3  10   1   12.40    7.10
  -3  10   1   32.50    9.10
   2 -10  -1  522.10   22.50
   2 -10  -1  531.50   23.60
  -2  10   1  519.30   21.80
  -2  10   1  566.90   22.40
  -2  10   1  532.80   22.40
   1 -10  -1 1131.70   39.40
   1 -10  -1 1195.60   40.70
  -1  10   1 1201.80   38.60
  -1  10   1 1156.20   39.70
  -1  10   1 1171.40   39.20
   0 -10  -1  173.50   15.00
   0 -10  -1  159.20   15.80
   0  10   1  159.40   13.20
   0  10   1  185.20   15.60
   0  10   1  178.10   14.20
  -1 -10  -1   38.40    9.20
  -1 -10  -1   30.00    7.60
   1  10   1   36.10    9.10
   1  10   1   40.60    6.90
   1  10   1   20.20    7.20
  -2 -10  -1   12.40    8.80
  -2 -10  -1    6.10    6.90
   2  10   1   27.40    6.30
   2  10   1   33.90    8.50
  -3 -10  -1  243.30   15.90
  -3 -10  -1  216.30   16.00
   3  10   1  225.20   11.00
   3  10   1  195.90   15.30
  -4 -10  -1   98.80   12.60
  -4 -10  -1  106.10   12.40
   4  10   1  105.10   12.40
  -5 -10  -1  299.10   19.00
  -5 -10  -1  292.50   19.40
   5  10   1  291.90   19.90
  -6 -10  -1  320.00   21.60
  -7 -10  -1   26.10   10.00
  -8 -10  -1    1.30    9.20
  -9 -10  -1  141.50   16.40
 -10 -10  -1   29.50   11.50
 -11 -10  -1    8.00   10.90
  12 -11  -1   36.60   13.50
 -12  11   1   83.50   12.90
 -12  11   1   88.10   21.20
  11 -11  -1   24.80   11.00
 -11  11   1   24.30   16.40
 -11  11   1   36.20    9.70
  10 -11  -1    0.00   10.10
 -10  11   1   12.10    8.90
 -10  11   1   16.70   12.60
   9 -11  -1    0.00    8.40
  -9  11   1    3.90    7.70
  -9  11   1   16.10   13.60
   8 -11  -1    7.40   12.20
  -8  11   1    8.00    8.30
   7 -11  -1   77.60   14.10
  -7  11   1   63.00   13.60
  -7  11   1   70.80   14.60
  -7  11   1   79.90   11.20
   6 -11  -1   24.60    9.80
  -6  11   1   30.20   11.60
  -6  11   1   44.80    9.80
  -6  11   1   41.30    9.10
   5 -11  -1   29.40   10.90
   5 -11  -1   28.80   12.80
  -5  11   1   26.50    9.10
  -5  11   1   23.80    8.30
  -5  11   1   19.30    9.60
   4 -11  -1  197.30   18.00
   4 -11  -1  179.40   16.20
  -4  11   1  223.50   15.10
  -4  11   1  219.30   15.40
  -4  11   1  217.10   16.90
   3 -11  -1   13.00    9.00
   3 -11  -1   21.80   11.40
  -3  11   1   30.20   10.50
  -3  11   1   16.60    9.50
  -3  11   1   25.00   10.00
   2 -11  -1  757.80   32.20
   2 -11  -1  767.40   30.50
  -2  11   1  786.00   30.50
  -2  11   1  815.50   31.20
  -2  11   1  761.40   29.60
   1 -11  -1  753.70   34.80
   1 -11  -1  736.60   36.80
  -1  11   1  697.40   32.30
  -1  11   1  728.20   32.30
  -1  11   1  737.50   33.40
   0 -11  -1  221.70   17.00
   0 -11  -1  216.40   15.20
   0  11   1  237.80   15.10
   0  11   1  217.90   16.10
   0  11   1  225.70   14.90
  -1 -11  -1  227.30   15.30
  -1 -11  -1  232.50   17.30
   1  11   1  226.20   13.50
   1  11   1  231.00   14.80
  -2 -11  -1  197.70   15.50
  -2 -11  -1  190.60   13.70
   2  11   1  179.30   11.00
   2  11   1  166.90   12.90
  -3 -11  -1  738.70   33.20
  -3 -11  -1  690.90   31.70
   3  11   1  688.90   25.50
   3  11   1  648.00   31.60
  -4 -11  -1  308.60   19.50
   4  11   1  286.90   20.20
  -5 -11  -1   28.80   10.20
  -6 -11  -1    6.00   10.40
  -7 -11  -1   50.00   11.20
  -8 -11  -1   55.70   13.00
  -9 -11  -1   90.70   14.40
 -10 -11  -1   50.80   13.30
 -11  12   1    4.00   13.60
 -11  12   1    0.10    8.00
  10 -12  -1    0.40    9.50
 -10  12   1    0.40    7.90
 -10  12   1    6.90   13.10
   9 -12  -1    0.20   10.10
  -9  12   1    3.50    8.40
  -9  12   1    4.40   11.90
   8 -12  -1    0.30    9.90
  -8  12   1   10.90   12.70
  -8  12   1    0.20    8.20
   7 -12  -1   31.70   12.70
  -7  12   1   66.70   12.10
  -7  12   1   28.30   13.50
   6 -12  -1    0.00    8.00
  -6  12   1    6.90    7.80
  -6  12   1    0.00    9.30
   5 -12  -1   57.00   13.00
   5 -12  -1   71.80   15.60
  -5  12   1   71.30   11.60
  -5  12   1   55.40   12.20
   4 -12  -1  132.10   17.80
   4 -12  -1  115.50   15.70
  -4  12   1  126.60   14.30
  -4  12   1  110.40   16.30
  -4  12   1  136.30   15.20
   3 -12  -1  127.70   14.80
   3 -12  -1  176.20   19.70
  -3  12   1  130.40   15.80
  -3  12   1  140.90   14.90
  -3  12   1  166.40   15.70
   2 -12  -1   22.60   11.20
   2 -12  -1   12.70   11.70
  -2  12   1   30.80   10.90
  -2  12   1   19.10    9.50
  -2  12   1   13.00   10.60
   1 -12  -1    9.70    9.80
   1 -12  -1    9.00    9.10
  -1  12   1   18.60    8.70
  -1  12   1    6.20    8.20
  -1  12   1    7.20    7.60
   0 -12  -1    0.10    8.50
   0 -12  -1    3.70    7.20
   0  12   1    7.50    7.50
   0  12   1    0.10    6.50
   0  12   1    0.10    7.60
  -1 -12  -1   10.50    9.40
  -1 -12  -1    3.10    7.80
   1  12   1    3.90    6.80
   1  12   1    3.70    7.10
  -2 -12  -1   69.00   14.00
   2  12   1   76.30   10.30
  -3 -12  -1  794.30   37.50
   3  12   1  737.50   29.50
  -4 -12  -1  340.20   23.50
   4  12   1  372.70   13.30
  -5 -12  -1    3.80    9.20
  -6 -12  -1   31.90   12.50
  -7 -12  -1    8.40   11.20
  -8 -12  -1   75.60   13.70
  -9 -12  -1    1.70    9.70
 -10  13   1   23.60   10.60
 -10  13   1   16.20   13.80
  -9  13   1    4.40   12.50
  -9  13   1   15.30    9.50
  -8  13   1   16.70   13.40
  -8  13   1    1.60    8.50
   7 -13  -1   95.70   19.10
  -7  13   1  104.00   17.60
  -7  13   1  101.40   12.70
   6 -13  -1    0.00   10.50
  -6  13   1   34.90   11.10
  -6  13   1   27.80   12.70
   5 -13  -1   67.50   14.80
   5 -13  -1   62.90   15.90
  -5  13   1   55.90   11.70
  -5  13   1   58.60   13.80
   4 -13  -1  169.50   20.10
   4 -13  -1  190.10   19.90
  -4  13   1  188.40   18.40
  -4  13   1  196.80   20.10
   3 -13  -1   56.70   11.50
   3 -13  -1   56.80   14.90
  -3  13   1   61.00   11.60
  -3  13   1   69.20   13.20
   2 -13  -1   10.90    9.90
  -2  13   1   10.80   10.20
  -2  13   1   13.60    9.80
   1 -13  -1  133.40   18.40
  -1  13   1  140.80   15.70
  -1  13   1  162.00   17.10
   0 -13  -1  439.20   26.40
   0  13   1  420.80   26.80
   0  13   1  479.50   24.10
  -1 -13  -1  438.10   27.40
   1  13   1  441.20   22.80
  -2 -13  -1   63.20   12.10
   2  13   1   54.50    8.60
  -3 -13  -1   63.30   11.70
   3  13   1   42.50    6.80
  -4 -13  -1   46.10   13.00
   4  13   1   64.60    6.00
  -5 -13  -1    7.70   12.20
  -6 -13  -1   91.20   15.50
  -7 -13  -1   25.80   12.70
  -8 -13  -1  216.40   21.10
  -9 -13  -1    0.20    9.80
  -9  14   1   79.30   18.40
  -9  14   1   60.60   12.30
  -8  14   1    3.20   13.20
  -8  14   1    1.00    9.30
  -7  14   1   38.90   13.60
  -7  14   1   71.20   12.50
  -6  14   1   57.60   11.90
  -6  14   1   80.00   15.60
   5 -14  -1   12.20   15.10
  -5  14   1   25.20   11.20
  -5  14   1   29.10   11.30
   4 -14  -1    0.80   12.90
  -4  14   1    0.00    8.20
  -4  14   1    0.00    8.40
   3 -14  -1   46.10   13.20
  -3  14   1   50.20   11.40
  -3  14   1   62.60   12.00
   2 -14  -1   10.30   11.80
  -2  14   1   13.80    9.40
  -2  14   1    7.10   10.40
   1 -14  -1   13.00   11.60
  -1  14   1   15.90    9.70
  -1  14   1    9.10    9.30
   0 -14  -1  274.80   24.00
   0  14   1  239.20   17.50
  -1 -14  -1  269.80   26.30
   1  14   1  285.80   17.70
  -2 -14  -1   44.70   14.20
   2  14   1   26.60    8.50
  -3 -14  -1    0.50    9.10
   3  14   1    0.50    6.10
  -4 -14  -1  177.50   21.20
   4  14   1  215.30   10.40
  -5 -14  -1  120.90   16.50
  -6 -14  -1    0.30   10.30
  -7 -14  -1   14.90   11.60
  -8 -14  -1  118.20   17.90
  -8  15   1   45.80   16.90
  -7  15   1   92.00   17.10
  -7  15   1  122.70   17.60
  -6  15   1    9.80   10.90
  -6  15   1    1.00   12.30
   5 -15  -1    0.00   13.00
  -5  15   1    0.00    8.30
  -5  15   1   14.10   11.50
   4 -15  -1   29.10   13.90
  -4  15   1   12.10    9.70
  -4  15   1    1.80   10.70
   3 -15  -1  204.00   24.40
  -3  15   1  221.80   25.40
  -3  15   1  205.00   21.40
   2 -15  -1   85.80   18.00
  -2  15   1   99.70   14.80
   1 -15  -1   53.10   14.60
  -1  15   1   35.80   12.00
   0 -15  -1    6.20   11.60
   0  15   1    0.00    7.20
  -1 -15  -1    0.10   10.70
   1  15   1    0.50    7.90
  -2 -15  -1   19.70   12.20
   2  15   1   18.50    9.20
  -3 -15  -1   40.60   12.00
   3  15   1   22.20    7.30
  -4 -15  -1  225.40   21.80
   4  15   1  249.80   10.30
  -5 -15  -1  115.90   18.00
  -6 -15  -1    7.80   11.70
  -7 -15  -1    7.20   12.40
  -7  16   1    0.50   12.10
  -7  16   1    9.70   10.90
  -6  16   1    7.50    9.50
  -6  16   1    0.10   11.50
   5 -16  -1    1.40   13.20
  -5  16   1    1.40   10.50
  -5  16   1    1.40    9.70
   4 -16  -1  103.50   21.00
  -4  16   1  103.20   16.40
  -4  16   1  127.40   18.90
   3 -16  -1  282.60   25.80
  -3  16   1  277.30   23.00
  -3  16   1  264.60   21.00
   2 -16  -1  143.40   21.30
  -2  16   1  150.00   19.00
  -2  16   1  152.80   17.70
   1 -16  -1  110.30   20.10
  -1  16   1   91.40   15.10
   0 -16  -1   44.00   14.80
   0  16   1   48.50   11.80
  -1 -16  -1  219.20   22.40
   1  16   1  246.10   17.80
  -2 -16  -1  178.20   21.10
   2  16   1  189.90   16.50
  -3 -16  -1   17.40   11.90
   3  16   1    2.90    7.10
  -4 -16  -1   34.00   15.50
   4  16   1   73.10    6.50
  -5 -16  -1   17.40   13.90
  -6  17   1  108.30   15.80
   5 -17  -1   62.30   19.60
  -5  17   1   72.50   15.90
  -5  17   1   74.00   13.50
   4 -17  -1    0.50   14.80
  -4  17   1    0.50   11.10
  -4  17   1    9.40   11.20
   3 -17  -1   13.60   13.80
  -3  17   1   13.40   11.80
  -3  17   1   12.20   12.40
   2 -17  -1    0.70   12.50
  -2  17   1   17.30   11.90
   1 -17  -1    0.30   11.40
  -1  17   1    1.40    9.10
   0 -17  -1   15.20   13.10
   0  17   1   20.70    9.90
  -1 -17  -1   56.50   16.30
   1  17   1   76.90   14.10
  -2 -17  -1  111.80   19.10
   2  17   1  118.30   14.20
  -3 -17  -1   43.90   13.30
   3  17   1   35.20    8.70
   2 -18  -1   55.90   18.50
  -2  18   1   43.60   14.90
   1 -18  -1  218.80   24.50
  -1  18   1  193.70   21.00
   0 -18  -1   15.10   13.90
   0  18   1   38.40   11.80
   2  18  -2   99.60   15.30
  -2 -18   2  124.60   20.30
   1  18  -2   14.90   11.00
  -1 -18   2   16.90   12.90
   0  18  -2   62.10   14.00
   0 -18   2   47.00   16.30
  -1  18  -2    0.00   11.00
   1 -18   2   11.50   13.60
  -2  18  -2    0.20   10.80
   2 -18   2    4.00   15.30
  -3  18  -2   19.10   11.30
   3 -18   2    0.40   12.40
  -4  18  -2   27.30   14.40
  -5 -17   2   64.00   14.60
  -4 -17   2   62.10   16.30
   3  17  -2   74.50   13.10
  -3 -17   2   95.00   17.70
   2  17  -2  318.70   23.50
  -2 -17   2  346.20   28.90
   1  17  -2   85.40   15.40
  -1 -17   2   52.00   15.70
   0  17  -2   26.50   11.50
   0 -17   2   15.70   12.50
  -1  17  -2  200.30   20.10
   1 -17   2  238.90   23.90
  -2  17  -2  114.00   17.60
   2 -17   2  110.50   20.90
  -3  17  -2   13.50   13.70
   3 -17   2   20.80   14.70
  -4  17  -2   27.50   14.70
  -5  17  -2   10.30   13.30
  -6  17  -2   22.40   13.90
  -6 -16   2  143.10   19.30
  -5 -16   2  105.60   18.50
  -4 -16   2    8.60   13.40
   3  16  -2    3.40   12.60
  -3 -16   2    1.60   13.40
   2  16  -2  156.00   18.00
  -2 -16   2  134.90   20.00
   1  16  -2    0.30    8.90
  -1 -16   2    0.30   11.90
   0  16  -2    0.00    9.30
   0 -16   2    0.00    9.90
  -1  16  -2  201.70   21.40
   1 -16   2  204.10   24.40
  -2  16  -2   91.90   16.20
   2 -16   2   45.40   16.60
  -3  16  -2  148.30   18.00
   3 -16   2  145.70   19.60
  -4  16  -2    1.20   11.60
  -5  16  -2   15.40   13.50
  -6  16  -2    1.40   11.70
  -7  16  -2   24.80   13.60
  -8  16  -2    0.30   12.70
  -7 -15   2   10.70   11.60
  -6 -15   2  325.00   25.40
   5  15  -2  120.20    7.70
  -5 -15   2  108.40   17.60
  -4 -15   2   55.10   14.70
   3  15  -2  197.00   16.70
  -3 -15   2  210.50   19.80
   2  15  -2   43.20   11.70
  -2 -15   2   25.40   12.70
   1  15  -2  212.50   20.00
  -1 -15   2  246.30   23.50
   0  15  -2  135.60   15.70
   0 -15   2   97.40   15.90
  -1  15  -2   18.80   10.50
   1 -15   2   17.00   12.00
  -2  15  -2    1.10   10.00
   2 -15   2    1.10   13.80
  -3  15  -2   12.40   10.40
   3 -15   2    1.90   13.20
  -4  15  -2   24.40   13.70
  -5  15  -2    4.70   12.30
  -6  15  -2    1.30    8.60
  -6  15  -2   13.90   11.20
  -7  15  -2    5.90    9.10
  -7  15  -2   23.80   15.50
  -8  15  -2   19.90   13.00
  -8  15  -2   11.40    8.70
   8 -15   2    0.20   11.40
  -9  15  -2   31.60   17.80
  -9  15  -2    5.70    8.20
  -8 -14   2  189.70   19.60
  -7 -14   2   43.40   13.70
  -6 -14   2   84.20   15.00
   5  14  -2   73.70    6.00
   4  14  -2    0.60    5.70
  -4 -14   2   51.10   12.10
   3  14  -2  140.80   15.20
  -3 -14   2  131.30   17.50
  -2 -14   2  224.20   23.10
   1  14  -2  643.10   27.40
  -1 -14   2  691.40   31.80
   0  14  -2   63.30   13.70
   0 -14   2   46.60   14.60
  -1  14  -2    4.20    9.40
   1 -14   2    0.20   11.20
  -2  14  -2   28.70   11.90
   2 -14   2   31.20   13.50
   2 -14   2   52.40   11.40
  -3  14  -2   63.20   13.30
   3 -14   2   67.90   15.30
   3 -14   2  101.90   13.70
  -4  14  -2    3.00   10.90
   4 -14   2   15.30    9.30
  -5  14  -2    5.50    8.90
  -5  14  -2    1.10   11.20
   5 -14   2    0.50    6.70
  -6  14  -2    3.70    8.80
  -6  14  -2   12.80   12.30
   6 -14   2    0.00    9.00
  -7  14  -2    9.40    9.00
  -7  14  -2    8.30   11.90
  -8  14  -2   52.80   10.20
  -8  14  -2   72.70   17.30
  -9  14  -2   38.10   16.10
  -9  14  -2   77.70   11.40
   9 -14   2   27.40   14.70
 -10  14  -2   65.10   10.30
 -10  14  -2   60.00   18.60
  10 -14   2   43.90   13.60
  -9 -13   2   90.20   15.40
  -8 -13   2  418.80   26.70
  -6 -13   2   20.60   11.00
   5  13  -2  489.00   20.10
  -5 -13   2  583.10   31.40
   4  13  -2   45.20    7.80
  -4 -13   2  116.50   14.80
   3  13  -2   57.30    9.50
  -3 -13   2   64.20   11.00
   2  13  -2   22.90    7.00
  -2 -13   2   46.10    9.70
   1  13  -2  462.10   25.70
  -1 -13   2  523.50   29.10
  -1 -13   2  490.40   25.90
   0  13  -2    2.60    7.60
   0 -13   2    2.60    9.30
   0 -13   2    0.60    7.40
  -1  13  -2   56.20   13.10
   1 -13   2   35.60   13.70
   1 -13   2   71.50   12.80
  -2  13  -2  111.70   14.80
   2 -13   2  117.40   13.50
   2 -13   2   91.80   15.20
  -3  13  -2  298.10   20.60
   3 -13   2  264.30   18.80
   3 -13   2  293.90   22.90
  -4  13  -2   97.70   15.70
  -4  13  -2   67.20   12.10
   4 -13   2   64.80   14.30
  -5  13  -2   13.10    8.60
  -5  13  -2   13.40   10.90
   5 -13   2    0.00    7.70
  -6  13  -2  286.00   18.80
  -6  13  -2  279.80   24.20
   6 -13   2  176.60   20.90
  -7  13  -2   18.70   13.30
  -7  13  -2   14.70    7.90
   7 -13   2    0.30    9.40
  -8  13  -2    0.00    6.90
  -8  13  -2   16.10   13.70
   8 -13   2    0.00    9.50
  -9  13  -2    9.40    7.50
  -9  13  -2    1.40   12.60
   9 -13   2    1.40   10.10
 -10  13  -2    0.10    7.50
 -10  13  -2    9.00   14.60
  10 -13   2    0.10    9.00
 -10 -12   2   35.30   13.00
  -9 -12   2    9.20   10.20
  -8 -12   2   33.30   10.90
  -7 -12   2   22.10   11.40
  -6 -12   2    3.00    9.20
   5  12  -2  715.30   19.80
   5  12  -2  747.30   42.40
  -5 -12   2  683.60   30.00
   4  12  -2  452.30   24.70
  -4 -12   2  495.10   25.40
   3  12  -2  718.20   31.50
   3  12  -2  717.10   33.70
  -3 -12   2  746.10   35.60
  -3 -12   2  673.50   33.20
   2  12  -2    6.90    7.30
   2  12  -2    6.90    6.70
  -2 -12   2    6.90    8.50
  -2 -12   2    6.90    7.80
   1  12  -2   11.70    7.80
   1  12  -2   14.40    7.90
  -1 -12   2    0.30    9.10
  -1 -12   2   15.90    6.40
  -1 -12   2   16.10    7.20
   0  12  -2  859.30   33.70
   0  12  -2  903.20   34.50
   0 -12   2  965.50   38.30
   0 -12   2  904.80   34.20
   0 -12   2  910.80   32.60
  -1  12  -2  261.80   21.00
  -1  12  -2  270.40   20.00
   1 -12   2  246.10   18.80
   1 -12   2  253.10   19.70
   1 -12   2  253.10   22.30
  -2  12  -2  211.00   19.90
  -2  12  -2  206.80   17.70
   2 -12   2  191.00   16.50
   2 -12   2  167.00   20.20
   2 -12   2  184.30   17.40
  -3  12  -2  102.70   13.60
  -3  12  -2   93.40   14.20
  -3  12  -2   97.00   16.60
   3 -12   2   72.00   13.00
   3 -12   2  105.90   13.70
   3 -12   2  109.10   17.50
  -4  12  -2   49.70   12.30
  -4  12  -2   34.70    8.70
  -4  12  -2   61.90    9.70
   4 -12   2   61.20   10.70
  -5  12  -2   20.00   12.40
  -5  12  -2    2.90    7.60
   5 -12   2    2.40    8.90
  -6  12  -2  336.40   18.40
  -6  12  -2  367.00   26.20
   6 -12   2  265.40   20.50
  -7  12  -2   64.80   15.20
  -7  12  -2  117.70   12.80
   7 -12   2   70.20   13.80
  -8  12  -2   84.30   11.30
  -8  12  -2   72.50   16.10
   8 -12   2   67.60   13.40
  -9  12  -2   33.20   14.40
  -9  12  -2   41.20    8.50
   9 -12   2   24.00    9.10
 -10  12  -2   40.20    9.00
 -10  12  -2   69.00   17.30
  10 -12   2   55.70   10.80
 -11  12  -2   62.60   19.40
 -11  12  -2   71.30    9.90
  11 -12   2   68.00   12.10
 -11 -11   2    0.10   10.30
  -9 -11   2    9.90    9.80
  -8 -11   2    3.10    9.20
   7  11  -2  740.90   37.00
  -7 -11   2  727.10   31.10
   6  11  -2   62.10   13.00
  -6 -11   2   63.30   12.70
   5  11  -2  104.70    5.90
   5  11  -2   76.90   11.00
  -5 -11   2   72.30   11.60
   4  11  -2   74.50    9.40
   4  11  -2  116.60   13.60
  -4 -11   2  119.50   14.30
  -4 -11   2  139.70   14.10
   3  11  -2  389.20   20.40
  -3 -11   2  392.70   23.00
  -3 -11   2  403.90   22.20
  -3 -11   2  386.50   17.20
   2  11  -2   84.50   13.30
   2  11  -2   85.40   13.90
  -2 -11   2  114.40   17.80
  -2 -11   2   77.60   13.90
  -2 -11   2  102.90   11.30
   1  11  -2   15.90    7.80
   1  11  -2   14.00    7.70
  -1 -11   2    9.50    9.60
  -1 -11   2   13.10    6.70
  -1 -11   2   23.90    8.30
   0  11  -2  971.00   35.50
   0  11  -2 1006.10   35.20
   0 -11   2  996.70   34.80
   0 -11   2  961.40   33.30
   0 -11   2 1029.60   37.60
  -1  11  -2  179.30   16.70
  -1  11  -2  225.90   18.60
   1 -11   2  205.30   16.10
   1 -11   2  183.30   15.60
   1 -11   2  160.30   18.00
  -2  11  -2    0.80    9.70
  -2  11  -2    8.90    8.60
   2 -11   2    0.90    7.10
   2 -11   2    0.50    7.40
   2 -11   2    8.90    9.40
  -3  11  -2  254.80   16.60
  -3  11  -2  245.30   18.00
  -3  11  -2  281.70   16.30
   3 -11   2  256.30   17.70
   3 -11   2  267.00   20.00
   3 -11   2  257.20   15.70
  -4  11  -2  299.20   21.30
  -4  11  -2  307.90   17.40
  -4  11  -2  278.70   19.50
   4 -11   2  290.00   18.80
   4 -11   2  290.50   20.10
  -5  11  -2   14.60    8.10
  -5  11  -2    3.90    8.90
  -5  11  -2    0.60    6.60
   5 -11   2   10.20    7.50
  -6  11  -2  115.80   17.20
  -6  11  -2  134.20   12.60
  -6  11  -2  106.30   16.90
   6 -11   2  117.00   15.10
  -7  11  -2    7.10    6.20
  -7  11  -2   22.80   11.70
   7 -11   2   21.00    8.90
  -8  11  -2    3.60    7.10
   8 -11   2    6.30    8.80
  -9  11  -2   27.00    7.70
  -9  11  -2   28.50   13.40
   9 -11   2   13.60    8.60
 -10  11  -2  156.50   13.00
 -10  11  -2  140.70   21.60
  10 -11   2  152.60   15.30
 -11  11  -2  145.70   21.50
 -11  11  -2  128.60   12.00
  11 -11   2  119.60   12.70
 -12  11  -2   41.30    8.70
 -12  11  -2   46.90   18.50
 -11 -10   2   35.80   11.40
 -10 -10   2    0.30    8.10
  -9 -10   2   14.70    9.70
   8  10  -2   19.50    8.70
  -8 -10   2    3.20    7.80
   7  10  -2  855.80   37.90
  -7 -10   2  849.10   35.50
   6  10  -2   29.50    9.70
  -6 -10   2   37.40   11.20
   5  10  -2  118.00   10.60
  -5 -10   2  122.80   11.20
  -5 -10   2  119.90   11.80
   4  10  -2    7.40    5.20
   4  10  -2    7.50    6.80
  -4 -10   2   17.40    4.20
  -4 -10   2   19.90    7.60
  -4 -10   2    6.60    8.50
   3  10  -2   14.10    7.00
   3  10  -2   18.10    8.20
  -3 -10   2   11.00    7.60
  -3 -10   2   14.40    8.70
   2  10  -2 1132.20   36.00
   2  10  -2 1181.10   38.40
  -2 -10   2 1144.40   34.30
  -2 -10   2 1131.60   37.50
  -2 -10   2 1224.70   39.40
   1  10  -2   29.30    9.40
   1  10  -2   23.10    9.60
  -1 -10   2   25.60    9.00
  -1 -10   2   25.00   10.50
  -1 -10   2   24.90    7.90
   0  10  -2  214.80   19.40
   0  10  -2  215.70   19.60
   0 -10   2  209.70   17.90
   0 -10   2  210.70   18.60
   0 -10   2  243.30   21.60
  -1  10  -2  130.10    9.30
   1 -10   2   98.90    7.80
   1 -10   2   85.50    9.40
   1 -10   2  104.20    7.50
  -2  10  -2  120.20   11.00
  -2  10  -2  119.50   12.30
   2 -10   2  121.30   10.40
   2 -10   2   94.30   12.20
   2 -10   2  122.20   10.80
  -3  10  -2  166.40   14.70
  -3  10  -2  167.80   13.50
   3 -10   2  182.80   14.80
   3 -10   2  213.40   14.00
   3 -10   2  209.90   17.70
  -4  10  -2  309.60   19.40
  -4  10  -2  311.10   22.00
  -4  10  -2  284.80   17.70
   4 -10   2  310.10   19.80
   4 -10   2  309.90   21.50
  -5  10  -2   18.00    9.70
  -5  10  -2    0.00    6.00
  -5  10  -2    5.40    7.90
   5 -10   2   13.20    7.40
   5 -10   2    0.00    6.80
  -6  10  -2   74.00   11.40
  -6  10  -2   85.50   14.30
  -6  10  -2   82.90    9.40
   6 -10   2   78.60   11.90
  -7  10  -2   82.40    9.30
  -7  10  -2   94.50   13.40
  -7  10  -2   77.60   15.50
   7 -10   2   79.20   11.60
  -8  10  -2   87.40    9.40
  -8  10  -2  133.20   17.30
   8 -10   2  101.90   11.90
  -9  10  -2   99.20   18.50
  -9  10  -2   90.30    9.60
   9 -10   2   72.10   10.40
 -10  10  -2   26.00   13.90
 -10  10  -2   25.00    7.40
  10 -10   2   29.40    7.90
 -11  10  -2    3.40    6.20
 -11  10  -2   17.70   13.00
  11 -10   2   17.70    7.30
 -12  10  -2    0.10   15.20
 -12  10  -2   12.10    6.60
 -12  -9   2    3.30   11.30
 -11  -9   2   82.50   12.20
 -10  -9   2   55.60   10.80
   9   9  -2  310.30   22.30
  -9  -9   2  253.30   19.70
   8   9  -2    3.80    7.50
  -8  -9   2   12.90    8.20
   7   9  -2  178.30   16.40
  -7  -9   2  138.20   15.00
  -7  -9   2  176.00   16.00
   6   9  -2  204.00   17.10
  -6  -9   2  207.10   17.20
  -6  -9   2  215.20   17.00
   5   9  -2  150.60   16.00
  -5  -9   2  195.20    9.70
  -5  -9   2  181.90   17.30
  -5  -9   2  182.20   17.10
   4   9  -2    0.40    6.60
   4   9  -2    2.10    4.70
  -4  -9   2    6.20    3.60
  -4  -9   2    2.60    7.90
  -4  -9   2    3.10    6.90
   3   9  -2   82.80   12.70
   3   9  -2   89.40   12.00
  -3  -9   2  108.20   14.20
  -3  -9   2   86.00   12.70
  -3  -9   2  111.40   10.00
   2   9  -2  885.20   29.00
   2   9  -2  791.40   30.00
  -2  -9   2  828.00   31.00
  -2  -9   2  864.70   30.70
  -2  -9   2  869.60   27.30
   1   9  -2  120.80   13.90
   1   9  -2  119.80   14.80
  -1  -9   2  142.70   15.50
  -1  -9   2  113.30   12.20
  -1  -9   2  129.40   14.40
   0   9  -2   89.00    6.80
   0   9  -2   36.20    5.70
   0  -9   2  102.50    6.90
   0  -9   2  108.10    6.20
   0  -9   2   70.20    7.30
  -1   9  -2  147.90   15.00
  -1   9  -2  134.60   13.60
   1  -9   2  132.60   13.20
   1  -9   2  153.30   13.80
   1  -9   2  148.70   15.20
  -2   9  -2  123.30   13.20
  -2   9  -2  116.30   16.20
  -2   9  -2  112.70   10.90
   2  -9   2  106.10   13.00
   2  -9   2  138.10   12.20
   2  -9   2  132.80   12.50
  -3   9  -2   80.70   11.80
  -3   9  -2   64.90   14.10
  -3   9  -2   77.40   13.00
   3  -9   2   67.50   14.80
   3  -9   2   93.30   12.90
   3  -9   2   79.60   13.10
  -4   9  -2   13.40    5.90
  -4   9  -2   12.10    6.60
  -4   9  -2    1.30    7.60
   4  -9   2    7.30    6.50
   4  -9   2   23.90    6.50
  -5   9  -2  301.00   21.50
  -5   9  -2  299.90   17.90
  -5   9  -2  295.90   15.10
   5  -9   2  305.40   19.50
   5  -9   2  300.90   17.60
  -6   9  -2  296.90   14.60
  -6   9  -2  289.80   20.90
   6  -9   2  311.60   20.90
   6  -9   2  282.70   17.20
  -7   9  -2  696.20   23.80
  -7   9  -2  677.40   32.10
  -7   9  -2  626.80   28.10
   7  -9   2  681.20   26.30
  -8   9  -2  432.70   24.80
  -8   9  -2  417.00   18.80
  -8   9  -2  432.40   28.00
   8  -9   2  436.80   21.00
  -9   9  -2  163.80   11.70
  -9   9  -2  167.90   19.50
   9  -9   2  163.60   12.40
 -10   9  -2   11.20   12.20
 -10   9  -2   22.50    6.40
  10  -9   2    0.10    5.70
 -11   9  -2   57.00   16.80
 -11   9  -2   65.60    8.40
 -12   9  -2   55.10    8.20
 -12   9  -2   83.60   18.70
 -12  -8   2    9.70    8.30
 -11  -8   2  136.90   15.00
  10   8  -2   34.30   11.00
 -10  -8   2   60.40   11.90
   9   8  -2  565.70   27.30
  -9  -8   2  557.10   24.90
   8   8  -2   52.80   10.00
  -8  -8   2   44.50    8.80
   7   8  -2   57.00   11.30
  -7  -8   2   78.20   11.20
   6   8  -2  864.90   34.30
  -6  -8   2  851.80   33.00
   5   8  -2    2.70    5.20
  -5  -8   2    2.70    2.40
  -5  -8   2    3.90    7.00
   4   8  -2  224.90    9.60
   4   8  -2  252.20   13.80
  -4  -8   2  243.90   13.20
  -4  -8   2  248.40    8.70
  -4  -8   2  230.70   13.30
   3   8  -2  164.00    9.90
   3   8  -2  172.60   11.80
  -3  -8   2  154.70   12.90
  -3  -8   2  175.60    8.00
  -3  -8   2  154.00   10.80
   2   8  -2  497.60   25.60
   2   8  -2  532.20   24.40
  -2  -8   2  544.60   26.60
  -2  -8   2  529.20   25.90
  -2  -8   2  525.20   22.90
   1   8  -2  491.30   18.40
   1   8  -2  452.90   17.20
  -1  -8   2  473.50   17.70
  -1  -8   2  488.50   16.50
  -1  -8   2  492.90   19.50
   0   8  -2  154.20    9.40
   0   8  -2  137.30    8.70
   0  -8   2  145.10    8.40
   0  -8   2  141.50    8.30
   0  -8   2  147.60   10.20
  -1   8  -2   17.40    6.50
  -1   8  -2   23.70    7.20
   1  -8   2   13.70    5.20
   1  -8   2   16.70    6.00
   1  -8   2   15.10    7.20
  -2   8  -2  146.40   18.00
  -2   8  -2  149.90   15.10
  -2   8  -2  143.50   16.00
   2  -8   2  126.00   17.70
   2  -8   2  138.90   16.90
   2  -8   2  136.00   15.20
  -3   8  -2   61.10    8.00
  -3   8  -2   42.50    8.30
  -3   8  -2   51.70   10.30
   3  -8   2   53.90    9.70
   3  -8   2   59.80    9.60
  -4   8  -2  250.50   13.20
  -4   8  -2  262.90   10.90
  -4   8  -2  246.50   14.80
   4  -8   2  240.90   14.00
   4  -8   2  232.60   12.40
  -5   8  -2  580.50   27.10
  -5   8  -2  543.00   24.10
  -5   8  -2  538.90   20.40
   5  -8   2  542.90   22.80
   5  -8   2  544.30   26.00
  -6   8  -2   50.00    9.90
  -6   8  -2   39.50    6.80
  -6   8  -2   43.20   11.60
   6  -8   2   44.90   10.40
   6  -8   2   40.90    8.00
  -7   8  -2   71.90    8.20
  -7   8  -2   81.10   14.20
   7  -8   2   94.20   10.20
  -8   8  -2  136.20   10.40
  -8   8  -2  121.70   16.20
  -8   8  -2  117.30   13.90
  -9   8  -2    0.10    4.70
  -9   8  -2    0.10    8.30
  -9   8  -2    3.40   11.60
   9  -8   2    0.10    5.30
 -10   8  -2    3.60    5.50
 -10   8  -2   13.20   13.10
  10  -8   2    4.70    6.00
 -11   8  -2  121.90   19.00
 -11   8  -2   96.60    9.90
 -12   8  -2  141.60   21.50
 -12   8  -2  164.50   11.40
 -13   8  -2   36.30   14.60
 -13   8  -2   24.50    6.30
 -13  -7   2  111.80   15.10
 -13  -7   2   77.30   16.00
 -12  -7   2   14.60    9.40
 -12  -7   2   15.60   10.00
  11   7  -2    9.50    8.10
 -11  -7   2    3.60    7.60
  10   7  -2   13.00    8.90
 -10  -7   2   12.10    3.20
 -10  -7   2   14.90    3.20
 -10  -7   2    8.60    7.70
   9   7  -2  336.00   19.30
  -9  -7   2  322.10   17.80
  -9  -7   2  340.20   10.70
   8   7  -2   27.70    7.70
  -8  -7   2   33.90    7.50
  -8  -7   2   29.00    2.90
   7   7  -2  477.40   21.80
  -7  -7   2  531.10   14.50
  -7  -7   2  551.40   21.40
  -7  -7   2  517.70   14.20
   6   7  -2 1242.50   42.30
  -6  -7   2 1330.50   41.40
  -6  -7   2 1264.50   34.60
   5   7  -2  129.20   11.50
  -5  -7   2  151.10   12.10
  -5  -7   2  141.00    6.70
   4   7  -2  577.60   27.10
   4   7  -2  612.10   22.90
  -4  -7   2  600.20   22.20
  -4  -7   2  601.90   27.00
   3   7  -2  104.60    6.60
   3   7  -2  100.60    5.80
  -3  -7   2  107.50    4.60
  -3  -7   2  111.30    7.30
   2   7  -2    2.50    4.60
   2   7  -2    0.50    4.30
  -2  -7   2    4.80    3.80
  -2  -7   2    2.40    5.30
  -2  -7   2    0.90    5.20
   1   7  -2  377.90   12.40
   1   7  -2  333.80   13.00
  -1  -7   2  356.10   13.20
  -1  -7   2  353.60   12.30
  -1  -7   2  346.80   13.00
   0   7  -2  184.50   24.10
   0   7  -2  179.20   24.20
   0  -7   2  184.80   24.90
   0  -7   2  183.10   23.20
   0  -7   2  182.10   23.20
  -1   7  -2  113.60    6.70
  -1   7  -2  136.00    7.90
   1  -7   2  142.20    6.80
   1  -7   2  102.60    6.60
  -2   7  -2    8.80    6.80
  -2   7  -2    7.70    7.80
  -2   7  -2   12.50    9.30
   2  -7   2   10.40    8.00
   2  -7   2    9.10    8.90
   2  -7   2    9.30    6.90
  -3   7  -2   70.80   10.20
  -3   7  -2   81.10   11.80
  -3   7  -2   71.50    8.50
   3  -7   2   63.80    8.80
   3  -7   2   62.20   10.50
  -4   7  -2 1024.50   35.60
  -4   7  -2 1032.20   37.70
  -4   7  -2 1016.30   32.00
   4  -7   2 1022.70   37.80
   4  -7   2 1034.40   33.70
  -5   7  -2  761.90   32.10
  -5   7  -2  828.50   28.20
  -5   7  -2  776.30   34.40
   5  -7   2  799.30   34.30
   5  -7   2  789.90   29.80
  -6   7  -2    0.50    7.40
  -6   7  -2    0.50    3.90
  -6   7  -2    5.50    7.10
   6  -7   2    1.50    5.00
   6  -7   2    0.50    6.30
  -7   7  -2   15.40    7.90
  -7   7  -2   17.80    5.10
  -7   7  -2   30.60   10.30
   7  -7   2   18.90    5.90
  -8   7  -2    0.20    8.30
  -8   7  -2    1.30    4.70
  -8   7  -2    0.70    9.10
   8  -7   2    4.40    5.70
  -9   7  -2  238.40   21.20
  -9   7  -2  217.10   18.70
  -9   7  -2  238.20   12.20
   9  -7   2  256.70   13.60
 -10   7  -2   15.20    5.40
 -10   7  -2   17.40   11.40
 -11   7  -2   57.60    7.50
 -11   7  -2   61.10   14.50
 -12   7  -2   65.70    8.30
 -12   7  -2   76.20   17.90
 -13   7  -2   13.40    5.90
 -13   7  -2   13.80   13.20
 -13  -6   2  132.10   11.00
 -13  -6   2  136.80   10.00
 -13  -6   2  173.80   16.90
 -13  -6   2  137.20   19.00
 -12  -6   2    0.20    7.50
 -12  -6   2    0.60    4.60
 -12  -6   2    4.30    5.10
 -11  -6   2  104.80   12.20
 -11  -6   2  111.50    9.70
  10   6  -2   37.30   10.00
 -10  -6   2   34.30    5.80
 -10  -6   2   46.20    9.60
 -10  -6   2   33.80    6.30
   9   6  -2   18.70    8.50
  -9  -6   2   18.40    4.90
  -9  -6   2   17.40    7.50
  -9  -6   2   21.90    4.90
   8   6  -2 1163.30   42.10
  -8  -6   2 1237.70   36.20
  -8  -6   2 1185.30   35.60
  -8  -6   2 1229.20   40.60
   7   6  -2    9.50    7.10
  -7  -6   2   26.60   12.10
  -7  -6   2   12.60    4.20
  -7  -6   2   13.70    4.10
   6   6  -2   66.90    7.20
  -6  -6   2   68.30    4.30
  -6  -6   2   57.60    6.30
   5   6  -2  574.60   22.90
  -5  -6   2  613.90   18.60
  -5  -6   2  654.80   22.90
   4   6  -2 1901.00   59.00
   4   6  -2 1937.10   63.40
  -4  -6   2 1832.00   58.80
  -4  -6   2 1955.10   62.80
   3   6  -2   73.00    9.50
  -3  -6   2   83.50    8.60
  -3  -6   2   72.70   11.50
   2   6  -2  654.60   24.70
   2   6  -2  622.50   25.60
  -2  -6   2  672.00   26.50
  -2  -6   2  690.40   23.80
   1   6  -2  532.40   23.20
   1   6  -2  568.30   24.60
  -1  -6   2  537.20   24.50
  -1  -6   2  530.90   23.70
  -1  -6   2  530.00   22.40
   0   6  -2   22.70   12.90
   0   6  -2   26.30   13.00
   0  -6   2   33.00   12.70
   0  -6   2   25.10   13.60
  -1   6  -2  188.10    7.70
  -1   6  -2  179.90    6.70
   1  -6   2  170.40    5.70
   1  -6   2  197.90    6.30
   1  -6   2  214.70    7.80
  -2   6  -2  353.10   17.00
  -2   6  -2  361.70   19.10
  -2   6  -2  364.10   20.00
   2  -6   2  402.90   20.30
   2  -6   2  357.20   17.40
  -3   6  -2  978.40   30.50
  -3   6  -2  971.30   31.90
  -3   6  -2  965.50   27.50
   3  -6   2  957.80   31.50
   3  -6   2  978.20   28.60
  -4   6  -2  121.90   13.20
  -4   6  -2  116.10   14.60
  -4   6  -2  129.10   10.40
   4  -6   2  117.50   11.20
   4  -6   2  135.10   14.50
  -5   6  -2  113.20   12.30
  -5   6  -2  108.10    7.40
  -5   6  -2   91.30   10.00
   5  -6   2  114.60    8.40
   5  -6   2  115.30   12.30
  -6   6  -2  129.20   13.70
  -6   6  -2  137.90    8.50
   6  -6   2  139.30    9.30
   6  -6   2  153.10   15.10
  -7   6  -2  118.20   15.60
  -7   6  -2  125.80    9.10
   7  -6   2  132.10   16.20
   7  -6   2  115.20    9.70
  -8   6  -2  139.30    9.40
  -8   6  -2  174.10   17.40
   8  -6   2  142.90   11.10
  -9   6  -2  492.10   18.10
  -9   6  -2  498.60   27.50
 -10   6  -2  191.80   11.40
 -10   6  -2  225.90   22.70
 -11   6  -2    8.50    5.30
 -11   6  -2    0.20   10.00
 -12   6  -2   11.70    5.70
 -12   6  -2    2.10   12.70
 -13   6  -2    8.80    6.10
 -13   6  -2    2.10   10.20
 -13   6  -2   18.60   14.70
 -13  -5   2   31.80   11.90
 -13  -5   2   15.80    6.10
 -13  -5   2   24.20    7.60
 -13  -5   2    9.90    8.30
 -12  -5   2   24.10    7.60
 -12  -5   2   34.80   12.10
 -12  -5   2   33.40    6.70
 -12  -5   2   29.40    9.40
 -11  -5   2   13.20    5.60
 -11  -5   2   12.40    6.70
 -11  -5   2    0.10    9.70
 -11  -5   2    0.30    7.20
 -10  -5   2    0.70    5.40
 -10  -5   2   12.20    5.30
 -10  -5   2    3.30    7.10
   9   5  -2  260.80   16.70
  -9  -5   2  276.70   13.60
  -9  -5   2  251.00   13.00
  -9  -5   2  245.20   14.90
   8   5  -2 1764.40   56.30
  -8  -5   2 1707.00   51.20
  -8  -5   2 1842.80   52.80
   7   5  -2    4.70    5.30
  -7  -5   2    5.60    5.20
  -7  -5   2    2.40    3.50
   6   5  -2  428.00   17.00
  -6  -5   2  420.20   13.60
  -6  -5   2  426.30   16.10
  -5  -5   2   50.60    7.90
  -5  -5   2   57.60    6.30
   4   5  -2   30.40    3.50
  -4  -5   2   15.00    2.80
  -4  -5   2   30.40    3.70
   3   5  -2  834.50   27.40
   3   5  -2  850.90   25.60
  -3  -5   2  834.60   25.10
  -3  -5   2  823.70   27.10
   2   5  -2   48.50    3.50
   2   5  -2   86.40    4.00
  -2  -5   2   82.60    4.00
  -2  -5   2   48.50    2.90
   1   5  -2   53.80    6.60
  -1  -5   2   57.20    7.30
  -1  -5   2   51.10    6.40
   0   5  -2  357.60   19.40
   0   5  -2  339.10   19.10
   0  -5   2  330.40   18.60
   0  -5   2  343.80   19.70
   0  -5   2  318.90   18.00
  -1   5  -2  349.80   19.90
  -1   5  -2  355.70   21.00
   1  -5   2  349.50   18.60
   1  -5   2  347.20   20.70
  -2   5  -2  926.60   37.30
  -2   5  -2  935.40   39.80
  -2   5  -2  976.30   41.10
   2  -5   2  982.70   38.00
   2  -5   2  987.30   41.00
  -3   5  -2 1186.30   34.60
  -3   5  -2 1176.30   29.80
  -3   5  -2 1152.40   33.20
   3  -5   2 1163.70   30.50
   3  -5   2 1213.50   34.80
  -4   5  -2  109.00    8.20
  -4   5  -2   88.70   12.20
   4  -5   2  100.20   13.10
   4  -5   2  105.90    8.80
  -5   5  -2 1435.40   50.90
  -5   5  -2 1415.30   42.90
   5  -5   2 1443.40   50.60
   5  -5   2 1414.80   43.80
  -6   5  -2  161.10   13.20
  -6   5  -2  185.40    7.70
   6  -5   2  162.50    8.10
   6  -5   2  184.10   13.20
  -7   5  -2  530.10   25.80
  -7   5  -2  560.00   18.20
   7  -5   2  555.20   26.80
   7  -5   2  528.50   18.90
  -8   5  -2   35.30   12.40
  -8   5  -2   32.80    6.20
  -9   5  -2   63.10   14.30
  -9   5  -2   66.80    8.40
 -10   5  -2   26.10   11.80
 -10   5  -2   45.70    6.90
 -11   5  -2    4.30    5.10
 -11   5  -2    1.10   11.30
 -12   5  -2    1.00   11.10
 -12   5  -2    7.80    5.70
 -12   5  -2    0.10   10.10
 -13   5  -2   18.10   11.50
 -13   5  -2    7.40   13.00
 -13   5  -2   22.30    6.60
 -14  -4   2    1.10    6.40
 -14  -4   2    6.50    8.70
 -14  -4   2   10.80   12.00
 -14  -4   2   15.10    9.00
 -13  -4   2    7.90    8.10
 -13  -4   2   17.90    6.70
 -13  -4   2   19.80    8.80
 -13  -4   2   31.30   12.30
 -12  -4   2  190.40   22.30
 -12  -4   2  167.80   18.90
 -12  -4   2  163.30   15.00
 -11  -4   2   80.20   11.00
 -11  -4   2   74.60   13.90
 -11  -4   2  120.20   12.50
 -10  -4   2  245.10   20.20
 -10  -4   2  288.10   15.90
 -10  -4   2  214.70   15.00
  -9  -4   2  195.20   12.70
  -9  -4   2  181.30   12.80
   8   4  -2  672.20   25.80
  -8  -4   2  718.40   23.00
  -8  -4   2  726.20   25.00
  -8  -4   2  719.20   24.60
   7   4  -2   11.70    6.00
  -7  -4   2   13.50    5.70
  -7  -4   2   13.50    4.50
   6   4  -2  478.80   15.60
  -6  -4   2  465.90   12.80
  -6  -4   2  457.10   14.30
   5   4  -2   24.90    7.20
  -5  -4   2   22.40    6.60
  -5  -4   2   18.60    5.80
   4   4  -2  605.40   22.90
  -4  -4   2  644.60   19.80
  -4  -4   2  632.90   20.80
   3   4  -2 1989.90   49.90
   3   4  -2 1992.40   51.20
  -3  -4   2 1931.80   49.80
  -3  -4   2 1962.20   51.00
   2   4  -2  679.90   28.90
   2   4  -2  670.00   29.30
  -2  -4   2  664.60   29.40
  -2  -4   2  682.80   28.40
   1   4  -2  418.80   13.90
   1   4  -2  386.90   13.70
  -1  -4   2  394.30   13.70
  -1  -4   2  415.20   13.00
   0   4  -2   37.00   19.10
   0   4  -2   31.80   18.50
   0  -4   2   31.50   18.70
   0  -4   2   30.80   18.30
  -1   4  -2  104.90   16.90
  -1   4  -2  110.40   16.40
   1  -4   2  101.60   14.60
   1  -4   2  105.80   16.70
  -2   4  -2  328.60    6.00
  -2   4  -2  346.40    4.20
  -2   4  -2  351.40    6.40
   2  -4   2  359.60    6.70
   2  -4   2  377.90    5.20
  -3   4  -2    0.00    3.20
  -3   4  -2    0.40    6.60
   3  -4   2    0.10    3.60
   3  -4   2    0.10    6.00
  -4   4  -2    8.30    2.30
  -4   4  -2   12.10    4.90
   4  -4   2    9.20    2.70
   4  -4   2   10.70    4.60
  -5   4  -2 2302.20   49.70
  -5   4  -2 2284.60   56.90
   5  -4   2 2270.20   50.30
   5  -4   2 2313.40   57.20
  -6   4  -2  553.10   18.10
  -6   4  -2  530.10   27.90
   6  -4   2  579.40   25.70
   6  -4   2  561.50   18.70
  -7   4  -2 1378.30   43.00
  -7   4  -2 1410.80   51.10
   7  -4   2 1395.10   51.40
  -8   4  -2  501.40   17.00
  -8   4  -2  494.60   24.90
  -9   4  -2   13.60    5.20
  -9   4  -2   41.90   11.40
 -10   4  -2  152.30   17.20
 -10   4  -2  166.10   11.10
 -11   4  -2  160.40   11.70
 -11   4  -2  158.30   18.40
 -11   4  -2  151.20   17.40
 -12   4  -2   21.40    6.60
 -12   4  -2   17.90   11.80
 -12   4  -2   34.90   11.70
 -13   4  -2    0.00   11.70
 -13   4  -2    0.40    9.40
 -13   4  -2   10.60    6.50
 -14   4  -2    9.60   11.10
 -14   4  -2    3.60   13.00
 -14  -3   2   29.30   11.60
 -14  -3   2   18.90    9.70
 -14  -3   2   25.10    9.70
 -13  -3   2   58.70   11.40
 -13  -3   2   47.50   10.10
 -13  -3   2   69.40   14.60
 -12  -3   2  191.90   15.00
 -12  -3   2  182.40   18.60
 -12  -3   2  166.60   15.80
 -11  -3   2  376.70   24.00
 -11  -3   2  410.10   21.40
 -11  -3   2  395.30   20.50
 -10  -3   2  662.40   28.90
 -10  -3   2  694.50   28.20
 -10  -3   2  695.00   33.30
  -9  -3   2   35.10   10.50
  -9  -3   2   53.30    8.40
  -9  -3   2   38.40    8.10
  -8  -3   2  187.30   12.60
  -8  -3   2  164.10   11.70
  -8  -3   2  171.20   15.70
  -7  -3   2 1487.70   47.60
   6   3  -2   45.00    7.10
  -6  -3   2   42.20    6.50
   5   3  -2   59.50    5.90
  -5  -3   2   70.70    5.90
  -5  -3   2   61.60    5.40
   4   3  -2  607.20   16.50
  -4  -3   2  577.70   15.60
  -4  -3   2  574.90   15.80
   3   3  -2 1282.70   41.80
  -3  -3   2 1284.00   41.50
  -3  -3   2 1286.30   41.60
   2   3  -2 1598.30   54.60
   2   3  -2 1656.30   54.90
  -2  -3   2 1632.30   54.70
  -2  -3   2 1577.60   54.70
   1   3  -2    7.20    4.00
   1   3  -2    8.50    3.90
  -1  -3   2    6.30    3.90
  -1  -3   2    5.90    3.60
   0   3  -2    7.50    7.90
   0   3  -2    4.70    8.70
   0  -3   2    5.90    8.30
   0  -3   2    6.90    8.10
  -1   3  -2   73.00   12.80
  -1   3  -2   76.70   13.10
   1  -3   2   73.60   13.00
   1  -3   2   69.70   10.90
  -2   3  -2   30.10    2.20
  -2   3  -2   26.30    4.80
   2  -3   2   30.40    2.30
   2  -3   2   42.90    3.90
  -3   3  -2 2410.60   65.40
  -3   3  -2 2483.50   60.20
   3  -3   2 2529.30   65.90
   3  -3   2 2490.00   60.50
  -4   3  -2  264.30   13.60
  -4   3  -2  269.40   19.50
   4  -3   2  267.20   13.90
   4  -3   2  238.90   18.80
  -5   3  -2  300.60   17.30
  -5   3  -2  272.40   11.10
   5  -3   2  288.50   16.80
  -6   3  -2  108.60   12.00
  -6   3  -2  111.20    7.20
   6  -3   2  114.10   12.70
  -7   3  -2  160.30   13.00
  -7   3  -2  149.70    7.90
   7  -3   2  157.90   12.10
  -8   3  -2  181.40    9.30
  -8   3  -2  180.40   14.10
  -9   3  -2   39.30   11.30
  -9   3  -2   51.80    7.30
  -9   3  -2   47.20   10.90
 -10   3  -2  263.00   20.00
 -10   3  -2  263.90   14.90
 -10   3  -2  266.60   21.60
 -11   3  -2  143.10   10.50
 -11   3  -2  121.60   14.50
 -11   3  -2  137.20   14.90
 -12   3  -2   10.30   11.00
 -12   3  -2   15.70   11.90
 -12   3  -2   13.60    6.90
 -13   3  -2   15.70   12.20
 -14   3  -2   29.80    8.20
 -14   3  -2   33.50   13.50
 -14   3  -2   19.10   11.90
 -14  -2   2   90.20   12.60
 -14  -2   2  124.90   14.60
 -14  -2   2  128.00   16.90
 -13  -2   2    0.10   10.00
 -13  -2   2   12.90    8.20
 -13  -2   2    3.80    9.10
 -12  -2   2    3.80    8.70
 -12  -2   2    0.10    7.40
 -12  -2   2    9.70   10.10
 -11  -2   2  177.90   16.20
 -11  -2   2  155.90   17.00
 -11  -2   2  161.40   14.60
 -10  -2   2  246.30   15.50
 -10  -2   2  250.40   18.90
 -10  -2   2  279.20   19.70
  -9  -2   2  207.60   16.10
  -9  -2   2  217.00   13.60
  -9  -2   2  235.10   15.80
  -8  -2   2  200.10   15.70
  -8  -2   2  223.80   18.20
  -8  -2   2  220.50   13.80
  -7  -2   2  746.10   30.70
  -7  -2   2  749.10   27.00
  -6  -2   2   76.10    9.30
  -6  -2   2   91.10    7.10
   5   2  -2   58.70    5.10
  -5  -2   2   72.90    5.40
   4   2  -2  284.80    8.10
  -4  -2   2  275.60    7.70
   3   2  -2  146.30    2.80
  -3  -2   2  140.60    2.50
  -3  -2   2  132.70    3.10
   2   2  -2  767.60   17.30
   2   2  -2  793.40   16.50
  -2  -2   2  756.20   17.30
  -2  -2   2  772.30   16.50
   1   2  -2  462.80   18.00
   1   2  -2  458.60   17.10
  -1  -2   2  465.70   17.10
  -1  -2   2  440.80   17.70
   0   2  -2  552.10   51.70
   0   2  -2  528.60   52.40
   0  -2   2  504.80   52.10
  -1   2  -2    7.50    7.30
   1  -2   2    8.50    7.00
  -2   2  -2  129.20    3.50
   2  -2   2  108.20    3.50
  -4   2  -2  385.30   11.70
  -4   2  -2  392.00    7.10
   4  -2   2  371.60   11.10
  -5   2  -2  276.80    5.80
  -5   2  -2  278.40   10.10
   5  -2   2  322.50   17.90
  -6   2  -2  157.10    7.90
  -6   2  -2  173.20   12.60
   6  -2   2  130.40   11.60
  -7   2  -2  270.70   16.10
  -7   2  -2  262.50   11.90
   7  -2   2  281.70   17.10
  -8   2  -2  516.70   23.20
  -8   2  -2  520.10   18.00
  -8   2  -2  510.00   23.30
  -9   2  -2  139.60   10.80
  -9   2  -2  127.30   14.50
  -9   2  -2  166.70   16.10
 -10   2  -2   41.10    7.30
 -10   2  -2   48.50   10.70
 -10   2  -2   55.90   10.20
 -11   2  -2   34.30   12.40
 -11   2  -2   29.00    8.00
 -11   2  -2   36.90   11.70
 -12   2  -2   12.10    9.50
 -12   2  -2    2.70   10.70
 -12   2  -2    0.80    7.50
 -13   2  -2    6.70    7.00
 -13   2  -2    0.40   10.30
 -13   2  -2   21.30   16.80
 -14   2  -2   32.30    9.70
 -14   2  -2   39.50   17.30
 -14   2  -2   42.10   13.70
 -14  -1   2  115.80   17.00
 -14  -1   2  121.50   14.60
 -14  -1   2  124.80   17.50
 -13  -1   2    6.00    9.70
 -13  -1   2    4.20    8.50
 -13  -1   2   36.30   11.50
 -12  -1   2  128.50   15.00
 -12  -1   2  110.10   12.50
 -12  -1   2  115.80   15.00
 -11  -1   2    7.80    8.80
 -11  -1   2    0.10    8.50
 -11  -1   2    0.30    6.80
 -10  -1   2   55.40    9.50
 -10  -1   2   78.60   12.40
 -10  -1   2   62.90   12.40
  -9  -1   2  846.20   26.80
  -9  -1   2  823.10   30.20
  -9  -1   2  776.70   32.80
  -8  -1   2  226.00   16.10
  -8  -1   2  233.00   16.20
  -8  -1   2  232.40   14.00
  -7  -1   2   14.70    6.70
  -7  -1   2   10.20    4.90
  -6  -1   2  214.00   10.60
  -6  -1   2  184.20    7.40
  -5  -1   2  122.40    5.20
  -5  -1   2  108.50    6.80
  -4  -1   2  434.20    7.70
  -4  -1   2  430.20   10.50
   3   1  -2  993.20   41.00
  -3  -1   2  948.90   44.00
  -3  -1   2  983.70   40.80
   2   1  -2   29.00    9.20
  -2  -1   2   28.20    9.30
  -2  -1   2   28.40   11.10
  -2  -1   2   23.70   11.80
   1   1  -2 6280.90   59.90
   1   1  -2 6286.40   61.50
  -1  -1   2 6391.30   61.60
  -1  -1   2 6288.40   61.50
   0   1  -2 1900.80   42.90
   0   1  -2 1857.20   41.70
   0  -1   2 1872.00   41.70
   0  -1   2 1898.20   42.90
  -1   1  -2  476.40   33.10
  -1   1  -2  468.60   30.60
   1  -1   2  471.00   33.20
  -2   1  -2 1315.70   12.60
   2  -1   2 1292.20   12.60
  -3   1  -2 3210.20   86.80
   3  -1   2 3204.00   87.00
  -4   1  -2   13.50    7.00
  -4   1  -2   11.10    4.60
   4  -1   2   16.50    8.80
  -5   1  -2    8.20    5.50
  -5   1  -2   10.20    3.50
  -5   1  -2   10.00    5.70
   5  -1   2   15.10    5.60
  -6   1  -2   11.70    4.00
  -6   1  -2   11.60    5.50
  -6   1  -2   19.70    6.00
   6  -1   2   15.60    5.30
  -7   1  -2   52.30    8.90
  -7   1  -2   51.30    8.20
  -7   1  -2   44.90    5.80
   7  -1   2   46.00    7.70
  -8   1  -2  455.40   17.00
  -8   1  -2  456.00   20.20
  -8   1  -2  438.70   20.30
  -9   1  -2   23.10    7.30
  -9   1  -2   20.50    9.90
  -9   1  -2   12.80    8.60
 -10   1  -2    0.10    8.40
 -10   1  -2    0.10    8.40
 -10   1  -2   12.80    6.60
 -11   1  -2    3.20    7.90
 -11   1  -2    0.00    6.50
 -11   1  -2    9.20    8.90
 -12   1  -2    0.00    9.60
 -12   1  -2    0.00    7.00
 -12   1  -2    0.00    8.90
 -13   1  -2   11.60   10.70
 -13   1  -2    0.10   11.10
 -13   1  -2    9.70    8.20
 -14   1  -2    4.20    8.40
 -14   1  -2    6.00   11.20
 -14   1  -2    0.40    9.90
 -14   0   2    9.60   10.80
 -14   0   2    0.20    8.20
 -14   0   2    3.20   10.90
 -13   0   2    3.60    9.50
 -13   0   2    0.00    8.00
 -13   0   2    8.90   10.10
 -12   0   2   57.90   13.10
 -12   0   2   50.70   10.40
 -12   0   2   44.70   12.10
 -11   0   2    0.40    6.80
 -11   0   2   11.10    9.80
 -11   0   2    6.60    9.00
 -10   0   2  212.30   16.10
 -10   0   2  234.10   17.20
  -9   0   2  869.80   32.00
  -9   0   2  937.50   36.70
  -9   0   2  882.50   35.20
  -8   0   2  116.60    8.80
  -8   0   2   86.50   10.00
  -8   0   2   90.60    9.40
  -7   0   2   22.60    5.20
  -7   0   2   11.00    6.60
  -7   0   2   21.60    6.70
  -6   0   2   25.70    6.00
  -6   0   2   45.30    5.10
  -5   0   2  163.00    4.20
  -5   0   2  154.80    3.10
  -4   0   2 3081.80   98.40
  -4   0   2 3155.00   95.40
   3   0  -2   55.40    5.70
  -3   0   2   52.90    5.10
   2   0  -2 4858.80   41.20
  -2   0   2 4968.90   41.40
  -2   0   2 5006.60   38.30
   1   0  -2 3944.00   60.10
  -1   0   2 3836.00   59.70
  -1   0   2 3860.80   59.90
  -1   0   2 3917.00   58.00
   0   0  -2 3725.90   71.40
   0   0  -2 3792.40   72.20
   0   0  -2 3636.00   71.50
   0   0   2 3851.70   71.70
   0   0   2 3669.40   71.40
   0   0   2 3777.20   72.30
  -1   0  -2 7353.80   85.90
  -1   0  -2 7086.50   87.20
  -1   0  -2 7295.90   87.20
   1   0   2 7493.10   86.10
   1   0   2 7249.30   87.30
   1   0   2 7415.60   87.50
  -2   0  -2 2273.70   77.50
  -2   0  -2 2417.50   79.20
  -2   0  -2 2332.40   79.70
   2   0   2 2550.90   79.50
  -3   0  -2   14.70    3.00
  -3   0  -2   16.00    5.00
  -3   0  -2   19.40    4.50
   3   0   2   18.70    4.50
  -4   0  -2  952.30   27.70
  -4   0  -2  994.30   26.90
   4   0   2  960.80   27.00
  -5   0  -2  690.40   23.40
  -5   0  -2  696.20   22.30
  -6   0  -2  243.70   12.50
  -6   0  -2  268.00   13.60
   6   0   2  273.20   13.30
  -7   0  -2    3.70    4.60
  -7   0  -2    8.70    5.50
  -7   0  -2   14.70    6.70
  -8   0  -2  972.80   37.20
  -8   0  -2  977.20   38.70
  -8   0  -2  953.30   35.40
  -9   0  -2    1.00    6.00
  -9   0  -2    3.20    7.30
 -10   0  -2    9.90    7.10
 -10   0  -2    9.90    8.90
 -10   0  -2    6.30    9.00
 -11   0  -2    4.10    7.20
 -11   0  -2    4.10    9.20
 -11   0  -2   12.50    8.70
 -12   0  -2   24.50   10.90
 -12   0  -2   10.10    9.70
 -12   0  -2   21.20    8.80
 -13   0  -2    2.80    9.40
 -13   0  -2    0.10    7.80
 -14   0  -2   12.50    9.20
 -14   0  -2   14.50   11.60
 -14   0  -2   16.70   11.40
 -14   1   2   68.90   14.40
 -14   1   2   82.40   12.90
 -14   1   2  115.10   18.00
 -13   1   2   69.50   14.30
 -13   1   2   62.80   11.80
 -13   1   2   82.40   13.90
 -12   1   2   37.10    9.10
 -12   1   2   30.50   10.80
 -12   1   2   36.00   10.20
 -11   1   2   19.80   11.20
 -11   1   2   34.90   10.90
 -11   1   2   26.90    8.90
 -10   1   2  260.70   18.90
 -10   1   2  222.50   16.50
 -10   1   2  208.00   18.60
  -9   1   2   62.50   11.00
  -9   1   2   70.40   10.10
  -9   1   2   54.70   11.70
  -8   1   2   90.50   10.80
  -8   1   2   87.70    8.50
  -8   1   2   77.60    8.90
  -7   1   2    3.40    4.40
  -7   1   2    1.70    5.50
  -7   1   2    2.60    5.20
   6  -1  -2  211.00   15.70
  -6   1   2  187.20   13.80
   5  -1  -2   35.00    4.40
  -5   1   2   37.80    4.00
   4  -1  -2    3.20    5.40
  -4   1   2    3.30    4.80
   2  -1  -2  730.30   12.10
   2  -1  -2  744.30   10.10
  -2   1   2  701.90   11.80
  -2   1   2  728.20   10.00
   1  -1  -2   21.40   10.60
   1  -1  -2   28.60    9.40
  -1   1   2   30.60    9.30
  -1   1   2   24.70   10.60
   0  -1  -2  329.60   28.80
   0  -1  -2  345.30   28.70
   0  -1  -2  354.50   29.20
   0   1   2  351.00   28.80
   0   1   2  339.20   28.90
   0   1   2  329.30   29.10
  -1  -1  -2 3514.60   99.40
  -1  -1  -2 3440.80  100.10
  -1  -1  -2 3538.30   99.70
   1   1   2 3568.30   99.80
   1   1   2 3418.20   99.80
   1   1   2 3547.40  100.40
  -2  -1  -2   39.20    5.70
  -2  -1  -2   36.10    5.50
  -2  -1  -2   36.20    6.50
   2   1   2   48.10    5.90
   2   1   2   38.60    6.50
   2   1   2   36.10    5.80
  -3  -1  -2  137.60   11.20
  -3  -1  -2  135.10   12.70
  -3  -1  -2  133.30   11.30
   3   1   2  139.30   11.60
  -4  -1  -2 1217.20   30.50
  -4  -1  -2 1207.80   30.70
  -4  -1  -2 1168.70   32.40
   4   1   2 1210.80   31.10
   4   1   2 1153.80   32.60
  -5  -1  -2 1092.00   32.00
  -5  -1  -2 1095.40   30.10
   5   1   2 1101.20   30.70
  -6  -1  -2  640.70   26.20
  -6  -1  -2  636.00   27.90
   6   1   2  630.70   29.10
  -7  -1  -2    0.70    5.60
  -7  -1  -2    9.00    5.40
  -8  -1  -2  399.00   20.90
  -8  -1  -2  364.30   18.30
  -9  -1  -2  203.10   15.30
  -9  -1  -2  214.20   15.60
  -9  -1  -2  206.90   17.60
 -10  -1  -2   36.60    9.10
 -10  -1  -2   53.10   11.50
 -10  -1  -2   27.10    8.40
 -11  -1  -2   47.40    9.70
 -11  -1  -2   59.90    9.70
 -11  -1  -2   48.30   11.90
 -12  -1  -2    7.00   10.50
 -12  -1  -2   20.90    9.50
 -12  -1  -2   21.50    9.50
 -13  -1  -2    0.40    8.60
 -13  -1  -2    3.70    9.00
 -13  -1  -2    0.40   10.50
 -13  -1  -2    0.40    8.00
 -14   2   2  129.50   19.40
 -14   2   2  152.90   17.40
 -14   2   2   99.70   14.20
 -13   2   2   64.60   13.10
 -13   2   2   92.10   13.40
 -13   2   2   77.40   16.10
 -12   2   2  122.40   15.50
 -12   2   2  121.10   14.00
 -12   2   2   86.90   16.40
 -11   2   2  136.30   14.00
 -11   2   2  185.90   19.80
 -11   2   2  177.40   16.10
 -10   2   2   99.00   12.40
 -10   2   2  114.70   16.60
 -10   2   2  126.00   14.10
  -9   2   2   65.40   10.30
  -9   2   2   72.30    9.60
  -9   2   2   56.70   11.00
  -8   2   2   54.50    9.50
  -8   2   2   53.70   11.40
   7  -2  -2    4.10    5.40
  -7   2   2    5.40    5.60
  -7   2   2   12.20   12.00
   6  -2  -2  280.40   11.70
  -6   2   2  289.30   11.40
   5  -2  -2  378.30   15.10
  -5   2   2  358.30   14.50
  -4   2   2 1414.40   22.40
  -4   2   2 1465.00   20.90
   3  -2  -2  764.50   21.20
  -3   2   2  790.90   19.30
  -3   2   2  773.00   20.80
   2  -2  -2  760.50   28.20
   2  -2  -2  777.40   27.00
  -2   2   2  764.30   27.90
  -2   2   2  765.10   26.70
   1  -2  -2   22.70   27.80
   1  -2  -2   30.90   27.00
  -1   2   2   24.80   27.70
  -1   2   2   30.50   26.80
   0  -2  -2  133.60   10.70
   0  -2  -2  148.10   11.60
   0   2   2  141.50   11.50
   0   2   2  132.10   10.70
  -1  -2  -2    0.20    2.90
  -1  -2  -2    0.10    3.10
   1   2   2    0.50    3.10
   1   2   2    0.10    3.30
   1   2   2    0.10    2.50
  -2  -2  -2 4957.10  150.20
  -2  -2  -2 5019.70  148.40
  -2  -2  -2 4921.30  150.70
   2   2   2 5049.90  150.60
   2   2   2 5319.50  149.10
   2   2   2 5074.50  151.10
  -3  -2  -2  215.80   16.40
  -3  -2  -2  194.50   17.80
  -3  -2  -2  199.10   18.80
   3   2   2  212.90   19.20
   3   2   2  217.40   16.50
  -4  -2  -2  748.90   27.70
  -4  -2  -2  763.10   24.90
  -4  -2  -2  775.40   26.70
   4   2   2  762.10   25.30
  -5  -2  -2  439.80   22.60
  -5  -2  -2  434.60   19.80
  -5  -2  -2  434.00   20.90
   5   2   2  445.90   20.40
   5   2   2  440.80   23.60
  -6  -2  -2  592.10   20.00
  -6  -2  -2  630.60   17.70
   6   2   2  633.80   21.50
  -7  -2  -2  109.80   13.50
  -7  -2  -2  119.10   10.70
  -8  -2  -2  135.70   10.40
  -8  -2  -2  155.50   12.90
  -9  -2  -2  362.50   17.30
  -9  -2  -2  359.90   21.00
 -10  -2  -2   13.90    9.00
 -10  -2  -2    5.60    7.20
 -10  -2  -2   11.40    8.20
 -11  -2  -2   15.70    9.10
 -11  -2  -2   21.20    9.30
 -11  -2  -2   28.90   10.40
 -12  -2  -2  117.90   15.20
 -12  -2  -2  151.50   13.30
 -12  -2  -2  127.50   13.10
 -12  -2  -2  109.00   13.40
 -13  -2  -2   97.30   14.80
 -13  -2  -2   89.20   12.60
 -13  -2  -2   84.50   11.50
 -13  -2  -2   89.90   13.50
 -14   3   2    6.00   12.70
 -14   3   2    4.10    8.90
 -14   3   2    3.40    9.60
 -13   3   2   10.00    9.50
 -13   3   2    3.50   13.20
 -13   3   2    0.40    8.00
 -12   3   2    3.90    8.60
 -12   3   2    9.30   11.90
 -12   3   2   11.70    9.00
 -11   3   2   17.70   10.30
 -11   3   2    3.40    7.50
 -11   3   2   13.10    8.50
 -10   3   2   73.00   11.20
 -10   3   2   65.10   13.20
  -9   3   2  237.30   16.40
  -9   3   2  234.00   20.30
   8  -3  -2    3.00    7.20
  -8   3   2    2.60    9.50
  -8   3   2    1.40    7.30
   7  -3  -2  122.40   15.60
  -7   3   2  130.60   15.30
  -7   3   2  123.80   18.60
   6  -3  -2    7.30    5.10
  -6   3   2   18.70    6.40
  -6   3   2   18.10    5.40
  -6   3   2   12.80    4.90
   5  -3  -2 2523.50   47.50
  -5   3   2 2431.20   46.40
   4  -3  -2  203.70    4.90
  -4   3   2  210.60    4.40
  -4   3   2  195.50    4.00
   3  -3  -2  461.10   15.70
  -3   3   2  438.20   15.80
  -3   3   2  437.00   14.70
   2  -3  -2  617.40    8.20
   2  -3  -2  624.00    7.90
  -2   3   2  593.50    7.80
  -2   3   2  624.90    7.50
   1  -3  -2  418.80   14.30
   1  -3  -2  435.80   15.10
  -1   3   2  419.80   14.70
  -1   3   2  426.70   13.90
   0  -3  -2   37.50    7.40
   0  -3  -2   35.00    6.80
   0   3   2   31.40    7.30
   0   3   2   33.00    6.70
  -1  -3  -2  775.70   14.80
  -1  -3  -2  804.30   15.40
   1   3   2  755.10   14.90
   1   3   2  789.80   15.70
   1   3   2  808.50   13.30
   2   3   2 8439.10  260.30
  -3  -3  -2  442.30   23.20
  -3  -3  -2  473.90   23.30
  -3  -3  -2  448.20   19.50
   3   3   2  455.90   23.90
   3   3   2  463.10   19.90
  -4  -3  -2  115.20    4.70
  -4  -3  -2  125.20    7.70
  -4  -3  -2  122.80    6.70
   4   3   2  103.40    4.50
   4   3   2  108.30    7.40
  -5  -3  -2   93.70   13.50
  -5  -3  -2  117.60   10.00
   5   3   2  113.90   14.40
   5   3   2  107.20    9.90
  -6  -3  -2  142.00    9.00
  -6  -3  -2  132.30    7.20
  -6  -3  -2  128.40    9.50
   6   3   2  141.20   10.80
  -7  -3  -2  337.90   15.60
  -7  -3  -2  324.20   13.70
  -7  -3  -2  344.30   18.30
   7   3   2  325.70   18.60
  -8  -3  -2    2.50    6.00
  -8  -3  -2    0.10    7.60
  -8  -3  -2    5.80    5.00
  -9  -3  -2  349.00   17.40
  -9  -3  -2  381.20   21.00
  -9  -3  -2  370.50   16.10
 -10  -3  -2    9.60    7.00
 -10  -3  -2   10.40    6.90
 -10  -3  -2    9.20    8.90
 -11  -3  -2   66.00   11.50
 -11  -3  -2   61.50   10.10
 -11  -3  -2   64.20   12.70
 -11  -3  -2   49.10    9.00
 -12  -3  -2   69.00   10.10
 -12  -3  -2   70.70   12.50
 -12  -3  -2   89.20   13.40
 -12  -3  -2   69.70   11.20
 -13  -3  -2   37.70    9.40
 -13  -3  -2   26.50   11.20
 -13  -3  -2   27.20   11.30
 -13  -3  -2   26.30    9.10
 -14   4   2   25.20   10.50
 -14   4   2    4.80    9.70
 -14   4   2    0.10   12.20
 -13   4   2   32.00   14.50
 -13   4   2   27.20   10.60
 -13   4   2   11.00    8.10
 -13   4   2   22.40   10.60
 -12   4   2    2.30    8.40
 -12   4   2    4.60    8.80
 -12   4   2    2.50   10.60
 -11   4   2   64.20   14.20
 -11   4   2   49.90   10.30
 -11   4   2   64.80   10.90
 -10   4   2   47.40    9.10
 -10   4   2   54.90   13.40
 -10   4   2   55.20    9.50
   9  -4  -2  368.30   21.90
  -9   4   2  376.00   20.90
  -9   4   2  357.10   21.40
  -9   4   2  378.80   26.00
   8  -4  -2    0.10    7.10
  -8   4   2    0.30    7.00
  -8   4   2    0.20    9.50
  -8   4   2    0.10    7.00
   7  -4  -2   28.40    6.90
  -7   4   2   46.40    6.90
  -7   4   2   35.40    6.40
  -7   4   2   33.30    7.80
   6  -4  -2  420.40   28.50
  -6   4   2  397.80   28.80
  -6   4   2  438.80   31.30
  -6   4   2  429.40   27.50
   5  -4  -2 1442.50   74.80
  -5   4   2 1495.00   68.50
  -5   4   2 1452.50   69.10
  -5   4   2 1567.50   73.00
   4  -4  -2    0.20    4.70
  -4   4   2    0.70    4.60
  -4   4   2    0.10    4.30
   3  -4  -2   18.10    4.60
   3  -4  -2    7.40    4.30
  -3   4   2   17.30    4.60
  -3   4   2   10.10    4.60
   2  -4  -2  547.30   26.50
   2  -4  -2  541.40   26.80
  -2   4   2  537.50   26.10
  -2   4   2  544.30   25.60
   1  -4  -2  414.50   27.00
   1  -4  -2  423.00   27.40
  -1   4   2  425.20   26.90
  -1   4   2  425.50   27.20
   0  -4  -2  686.30   21.40
   0  -4  -2  738.70   22.50
   0   4   2  752.80   23.70
  -1  -4  -2  131.70   15.30
  -1  -4  -2  121.00   15.90
   1   4   2  147.70   15.80
   1   4   2  145.40   16.80
  -2  -4  -2 1528.60   35.70
  -2  -4  -2 1588.60   36.40
   2   4   2 1583.60   36.80
   2   4   2 1584.60   36.30
   2   4   2 1571.40   32.50
  -3  -4  -2  112.70   14.40
  -3  -4  -2  109.70   14.60
   3   4   2  102.50   14.50
   3   4   2  106.80   10.20
  -4  -4  -2    0.40    5.10
  -4  -4  -2    1.20    4.70
   4   4   2    1.00    1.90
   4   4   2    4.50    5.50
  -5  -4  -2  510.50   21.60
  -5  -4  -2  505.90   20.70
  -5  -4  -2  489.40   15.20
   5   4   2  480.80   21.70
  -6  -4  -2    0.50    5.00
  -6  -4  -2    3.10    2.90
  -6  -4  -2    0.50    4.60
   6   4   2    7.10    5.80
  -7  -4  -2  555.50   23.10
  -7  -4  -2  590.70   25.30
  -7  -4  -2  592.30   19.10
   7   4   2  572.20   26.50
  -8  -4  -2   49.90    8.20
  -8  -4  -2   48.40    5.70
  -8  -4  -2   55.80   10.00
   8   4   2   47.90    9.70
  -9  -4  -2   59.20   10.30
  -9  -4  -2   73.00    9.80
  -9  -4  -2   63.60    7.00
 -10  -4  -2    4.00    7.60
 -10  -4  -2    0.40    5.00
 -10  -4  -2    2.00    6.50
 -11  -4  -2    4.80    9.00
 -11  -4  -2    0.40    5.30
 -11  -4  -2   10.80    8.10
 -12  -4  -2   84.20   13.00
 -12  -4  -2   77.50    9.60
 -12  -4  -2   72.60   13.10
 -13  -4  -2    6.80    7.00
 -13  -4  -2    3.80   10.10
 -13  -4  -2    7.80    8.80
 -14   5   2   18.80   10.40
 -14   5   2    0.50   10.30
 -14   5   2    5.40   14.30
 -13   5   2   30.00    9.80
 -13   5   2   24.40   10.40
 -13   5   2   26.80   13.20
 -13   5   2   36.80   10.90
 -12   5   2   14.30    9.20
 -12   5   2    0.00   12.60
 -12   5   2    0.00    7.60
 -11   5   2  232.70   17.20
 -11   5   2  194.10   20.80
 -11   5   2  255.00   17.50
  10  -5  -2   64.70    9.60
 -10   5   2   64.50    9.70
 -10   5   2   40.70    8.80
 -10   5   2   65.30   12.50
   9  -5  -2  263.60   15.10
  -9   5   2  229.70   13.50
  -9   5   2  243.80   14.10
  -9   5   2  303.50   19.50
   8  -5  -2    7.80    6.30
  -8   5   2    4.50    5.80
  -8   5   2    5.70    6.50
  -8   5   2    5.60    8.20
   7  -5  -2    4.60    7.40
  -7   5   2    6.40    8.80
  -7   5   2    4.90    6.20
  -7   5   2    1.90    6.90
   6  -5  -2  177.80   17.50
  -6   5   2  192.90   20.20
  -6   5   2  190.40   16.60
  -6   5   2  204.60   17.30
   5  -5  -2  246.70   13.60
  -5   5   2  250.50   12.20
  -5   5   2  247.60   12.70
   4  -5  -2  848.10   40.20
   4  -5  -2  845.30   39.60
  -4   5   2  840.80   38.30
  -4   5   2  852.90   38.70
  -4   5   2  868.40   41.40
   3  -5  -2  416.60   18.20
   3  -5  -2  455.00   21.60
  -3   5   2  436.80   17.90
  -3   5   2  419.20   17.50
   2  -5  -2  903.20   33.30
   2  -5  -2  880.60   33.40
  -2   5   2  898.60   32.50
  -2   5   2  844.10   32.50
   1  -5  -2  602.80   20.40
   1  -5  -2  566.90   19.90
  -1   5   2  570.60   19.80
  -1   5   2  546.00   19.10
   0  -5  -2 1689.80   51.20
   0  -5  -2 1671.10   51.70
   0   5   2 1662.80   51.00
   0   5   2 1676.10   51.80
  -1  -5  -2  114.30   10.20
   1   5   2  101.20   11.00
   1   5   2  103.40   11.70
  -2  -5  -2    0.70    6.20
  -2  -5  -2    1.10    4.70
   2   5   2    0.00    5.30
   2   5   2    0.20    7.00
   2   5   2    1.00    3.60
  -3  -5  -2 2456.50   63.10
  -3  -5  -2 2398.50   63.30
   3   5   2 2338.50   57.60
   3   5   2 2369.40   63.60
  -4  -5  -2    1.40    5.80
  -4  -5  -2    0.30    4.70
   4   5   2    2.60    5.20
  -5  -5  -2  114.60   11.90
  -5  -5  -2   99.10   10.90
   5   5   2  104.10   11.20
  -6  -5  -2    1.30    6.50
  -6  -5  -2    1.50    5.70
   6   5   2    1.50    5.30
  -7  -5  -2  699.40   27.60
  -7  -5  -2  644.30   26.00
   7   5   2  627.20   27.90
  -8  -5  -2  179.60   14.70
  -8  -5  -2  172.70   14.10
   8   5   2  177.50   17.30
  -9  -5  -2    7.00    8.50
  -9  -5  -2    1.10    3.20
  -9  -5  -2    0.20    7.00
   9   5   2    3.50    8.80
 -10  -5  -2   25.40    9.20
 -10  -5  -2   32.10    4.60
 -10  -5  -2   16.80    8.00
 -11  -5  -2   62.90   10.60
 -11  -5  -2   64.20    6.10
 -11  -5  -2   68.20   11.80
 -12  -5  -2   16.50    9.20
 -12  -5  -2   26.00    5.40
 -13  -5  -2  103.20   15.40
 -13  -5  -2   97.20    7.90
 -13  -5  -2   95.50    7.30
 -13  -5  -2   99.90   15.00
 -13   6   2    0.60    8.60
 -13   6   2    0.60   12.20
 -12   6   2    2.60    8.70
 -12   6   2    0.20   10.20
 -12   6   2    7.20    8.30
  11  -6  -2  240.50   16.90
 -11   6   2  230.40   17.10
 -11   6   2  233.10   21.70
 -11   6   2  214.90   23.50
  10  -6  -2    3.00    8.20
 -10   6   2   14.70    9.00
 -10   6   2    8.50    8.90
 -10   6   2    7.90   12.80
   9  -6  -2  228.00   17.30
  -9   6   2  215.00   20.90
  -9   6   2  213.70   16.00
  -9   6   2  210.90   16.50
   8  -6  -2   65.10    8.50
  -8   6   2  101.60    8.50
  -8   6   2   59.20    9.70
  -8   6   2   81.20    8.00
   7  -6  -2  441.80   16.90
  -7   6   2  446.80   15.30
  -7   6   2  427.00   19.00
   6  -6  -2   48.40    8.70
  -6   6   2   42.30    7.70
  -6   6   2   21.70    8.30
  -6   6   2   32.10    7.30
   5  -6  -2    4.00    8.40
  -5   6   2    3.80    7.30
  -5   6   2    0.70    8.50
  -5   6   2    2.60    7.20
   4  -6  -2 1863.70   54.80
   4  -6  -2 1868.50   54.70
  -4   6   2 1792.70   52.50
  -4   6   2 1894.00   56.20
  -4   6   2 1846.40   52.80
   3  -6  -2    4.80    5.40
   3  -6  -2    0.90    4.90
  -3   6   2   13.80    4.90
  -3   6   2    9.20    5.20
  -3   6   2    9.70    4.80
   2  -6  -2   13.80    5.70
   2  -6  -2    9.90    5.80
  -2   6   2    3.60    5.20
  -2   6   2    5.50    4.40
  -2   6   2    1.50    4.70
   1  -6  -2   37.30    5.20
   1  -6  -2   54.50    4.70
  -1   6   2   54.50    4.60
  -1   6   2   28.60    4.90
   0  -6  -2  818.60   20.50
   0  -6  -2  781.10   20.50
   0   6   2  808.40   20.10
   0   6   2  741.90   20.40
  -1  -6  -2  193.80   11.80
  -1  -6  -2  171.70   11.60
   1   6   2  132.60   10.10
   1   6   2  166.40   11.90
  -2  -6  -2  284.20    9.20
  -2  -6  -2  293.40    9.60
   2   6   2  307.00    9.50
   2   6   2  285.60    6.40
   2   6   2  332.20   11.00
  -3  -6  -2 2260.60   62.20
  -3  -6  -2 2211.30   65.00
   3   6   2 2201.30   55.80
   3   6   2 2284.40   62.70
   3   6   2 2199.90   55.40
  -4  -6  -2   61.10    8.30
  -4  -6  -2   57.20    8.60
   4   6   2   50.70    8.70
  -5  -6  -2  153.90   14.20
  -5  -6  -2  145.10   14.60
   5   6   2  149.50   15.70
  -6  -6  -2    8.60    7.00
  -6  -6  -2   12.30    6.40
   6   6   2   17.00    7.50
  -7  -6  -2  125.90   14.30
  -7  -6  -2  118.10   12.90
   7   6   2  120.20   16.90
  -8  -6  -2  302.20   19.70
  -8  -6  -2  336.40   19.20
   8   6   2  311.70   21.30
  -9  -6  -2   17.30    7.80
  -9  -6  -2   21.10    9.40
   9   6   2    2.30   10.30
 -10  -6  -2    0.00    7.30
 -10  -6  -2    8.60    7.90
 -11  -6  -2    2.30   10.40
 -12  -6  -2    0.40    9.60
 -13   7   2   11.50   10.10
 -13   7   2   35.40   15.00
  12  -7  -2    0.30    9.10
 -12   7   2    0.30   12.20
 -12   7   2    5.30    8.60
 -12   7   2    3.30    8.50
  11  -7  -2  169.50   21.80
 -11   7   2  160.60   22.50
 -11   7   2  186.30   17.80
 -11   7   2  192.90   17.70
  10  -7  -2    7.10    8.30
 -10   7   2    9.50    8.40
 -10   7   2    5.10   11.90
 -10   7   2   20.10   10.00
   9  -7  -2  296.80   22.00
  -9   7   2  272.60   20.00
  -9   7   2  347.90   27.50
  -9   7   2  325.50   21.00
   8  -7  -2    0.60    8.10
  -8   7   2    4.80    9.60
  -8   7   2    1.50    7.10
  -8   7   2    0.50    7.40
   7  -7  -2   83.40   12.10
  -7   7   2   91.20   13.60
  -7   7   2  103.30   11.20
  -7   7   2  104.90   11.50
   6  -7  -2  148.20   12.50
  -6   7   2  135.00   13.50
  -6   7   2  114.00   10.10
  -6   7   2  130.60    9.90
   5  -7  -2  810.00   25.90
   5  -7  -2  797.40   26.20
  -5   7   2  814.90   27.80
  -5   7   2  751.50   23.80
  -5   7   2  764.20   23.60
   4  -7  -2 2330.30   65.10
   4  -7  -2 2247.60   64.70
  -4   7   2 2341.10   65.80
  -4   7   2 2307.60   62.60
  -4   7   2 2352.60   63.10
   3  -7  -2  106.70   11.20
   3  -7  -2  108.30   11.20
  -3   7   2  122.30   11.00
  -3   7   2  107.80    9.80
  -3   7   2  124.70   10.50
   2  -7  -2  145.50   15.60
   2  -7  -2  146.50   15.20
  -2   7   2  143.90   14.70
  -2   7   2  145.20   14.10
  -2   7   2  144.30   13.80
   1  -7  -2   20.60    6.40
   1  -7  -2   14.30    5.60
  -1   7   2   19.40    5.20
  -1   7   2   31.20    4.20
  -1   7   2   19.40    5.60
   0  -7  -2   69.20    5.90
   0  -7  -2  110.70    6.90
   0   7   2   80.60    4.70
   0   7   2   92.00    7.00
   0   7   2   96.00    6.10
  -1  -7  -2 1929.50   55.40
  -1  -7  -2 1924.60   55.60
   1   7   2 2004.50   57.20
   1   7   2 1936.60   55.00
   1   7   2 1960.60   52.00
  -2  -7  -2    3.90    6.30
  -2  -7  -2    4.40    7.40
   2   7   2    4.30    4.30
   2   7   2    1.50    6.70
   2   7   2    1.00    7.20
  -3  -7  -2  387.60   19.50
  -3  -7  -2  400.50   20.70
   3   7   2  400.30   14.20
   3   7   2  412.40   14.20
   3   7   2  373.80   20.00
  -4  -7  -2    2.20    5.90
  -4  -7  -2   25.50    6.60
   4   7   2    5.00    6.60
  -5  -7  -2  498.30   22.40
  -5  -7  -2  503.40   22.20
   5   7   2  506.50   23.60
  -6  -7  -2   97.50   12.20
  -6  -7  -2  121.00   13.80
   6   7   2   96.80   14.00
  -7  -7  -2   35.60    9.40
   7   7   2   47.50   10.00
  -8  -7  -2   77.90   12.50
  -8  -7  -2   62.30   12.20
   8   7   2   77.70   13.60
  -9  -7  -2   69.30   13.00
  -9  -7  -2   67.90   12.20
 -10  -7  -2   30.30   10.90
 -11  -7  -2   28.40   11.60
 -12  -7  -2    0.50   10.10
 -13   8   2   14.60    9.90
 -13   8   2   27.00   15.40
  12  -8  -2    6.00    9.30
 -12   8   2   12.90    9.50
 -12   8   2    0.60   11.30
  11  -8  -2   78.90   12.50
 -11   8   2   85.90   16.40
 -11   8   2   95.50   12.10
 -11   8   2   57.10   10.90
  10  -8  -2   92.80   14.90
 -10   8   2  108.40   14.80
 -10   8   2  117.60   14.70
   9  -8  -2    1.90    9.60
  -9   8   2   10.60   11.90
  -9   8   2   18.90    9.40
   8  -8  -2   52.20   10.50
  -8   8   2   57.00    9.50
  -8   8   2   60.80   13.40
  -8   8   2   64.50   10.10
   7  -8  -2   66.80   10.50
  -7   8   2   51.70    8.40
  -7   8   2   62.40    9.00
  -7   8   2   41.60   11.50
   6  -8  -2  931.00   38.90
  -6   8   2  946.90   35.90
  -6   8   2  923.80   36.40
  -6   8   2  954.00   40.70
   5  -8  -2  314.80   20.00
   5  -8  -2  324.80   19.90
  -5   8   2  293.50   19.80
  -5   8   2  313.80   17.90
  -5   8   2  302.40   17.50
   4  -8  -2  474.30   22.70
   4  -8  -2  491.10   22.30
  -4   8   2  485.60   20.50
  -4   8   2  474.30   22.00
  -4   8   2  480.80   19.80
   3  -8  -2  140.10   14.10
   3  -8  -2  121.60   13.80
  -3   8   2  120.90   12.30
  -3   8   2  141.00   13.30
  -3   8   2  131.00   12.00
   2  -8  -2  756.70   29.90
   2  -8  -2  739.60   29.50
  -2   8   2  690.40   27.90
  -2   8   2  765.40   29.30
  -2   8   2  724.40   29.00
   1  -8  -2  737.20   30.50
   1  -8  -2  691.90   29.80
  -1   8   2  719.90   28.70
  -1   8   2  715.20   28.90
  -1   8   2  718.80   29.90
   0  -8  -2  429.40   23.30
   0  -8  -2  428.70   23.20
   0   8   2  441.10   21.10
   0   8   2  435.30   22.70
   0   8   2  436.90   24.20
  -1  -8  -2 2363.30   80.60
  -1  -8  -2 2563.90   81.10
   1   8   2 2489.00   82.20
   1   8   2 2432.80   77.10
   1   8   2 2359.60   80.20
  -2  -8  -2   11.50    6.50
  -2  -8  -2    7.90    6.50
   2   8   2   12.50    7.60
   2   8   2    3.10    3.90
   2   8   2    2.90    5.80
  -3  -8  -2   28.80    8.70
  -3  -8  -2   22.60    8.50
   3   8   2   34.30    4.60
   3   8   2   32.50    8.90
   3   8   2   25.80    4.70
  -4  -8  -2   80.50   10.50
  -4  -8  -2   75.20    9.70
   4   8   2   88.60   10.90
  -5  -8  -2  284.70   17.00
  -5  -8  -2  307.80   18.10
   5   8   2  294.40   20.60
  -6  -8  -2  297.80   16.50
  -6  -8  -2  297.30   17.80
   6   8   2  262.00   17.70
  -7  -8  -2    9.70    8.00
  -7  -8  -2    7.90    8.60
   7   8   2   24.50   10.30
  -8  -8  -2   89.90   11.30
  -8  -8  -2   85.80   12.80
  -9  -8  -2    8.60    9.30
 -10  -8  -2   45.70   10.60
 -11  -8  -2  167.30   15.60
 -12  -8  -2   78.40   14.60
  12  -9  -2   44.20   11.80
 -12   9   2   50.10   11.00
 -12   9   2   47.60   16.60
  11  -9  -2   56.70   12.00
 -11   9   2   76.00   11.40
 -11   9   2   53.00   14.30
  10  -9  -2  257.50   19.40
 -10   9   2  219.50   16.40
 -10   9   2  271.20   23.70
 -10   9   2  219.40   16.60
   9  -9  -2   10.80   10.10
  -9   9   2   18.00    8.50
  -9   9   2   26.40   12.50
  -9   9   2   20.50    8.50
   8  -9  -2   75.80   12.20
  -8   9   2  116.50   11.20
  -8   9   2   77.10   13.30
  -8   9   2   96.20   11.00
   7  -9  -2  322.00   23.80
  -7   9   2  334.80   20.50
  -7   9   2  336.40   24.80
  -7   9   2  368.20   21.10
   6  -9  -2 1162.50   46.60
  -6   9   2 1255.20   43.40
  -6   9   2 1205.90   44.00
  -6   9   2 1222.10   48.20
   5  -9  -2    0.50    7.40
   5  -9  -2    5.10    8.60
  -5   9   2    3.60    6.80
  -5   9   2    0.50    6.80
  -5   9   2    7.00    8.30
   4  -9  -2  579.40   25.10
   4  -9  -2  577.90   25.00
  -4   9   2  572.20   22.20
  -4   9   2  544.00   22.00
  -4   9   2  591.50   25.30
   3  -9  -2  445.50   22.60
   3  -9  -2  434.60   23.70
  -3   9   2  459.50   22.50
  -3   9   2  442.20   20.50
  -3   9   2  439.20   20.80
   2  -9  -2  105.10   14.20
   2  -9  -2   90.50   14.80
  -2   9   2  108.80   13.30
  -2   9   2   90.80   15.30
  -2   9   2   97.30   14.80
   1  -9  -2   21.50    7.30
   1  -9  -2   39.20    9.20
  -1   9   2   29.70    7.00
  -1   9   2   26.80    6.90
  -1   9   2   32.60    8.00
   0  -9  -2  507.50   25.30
   0  -9  -2  477.70   24.70
   0   9   2  472.40   23.70
   0   9   2  500.40   22.50
   0   9   2  465.60   24.80
  -1  -9  -2  934.70   32.30
  -1  -9  -2  909.20   31.90
   1   9   2  934.20   32.50
   1   9   2  960.50   31.40
   1   9   2  967.40   28.40
  -2  -9  -2  184.40   15.80
  -2  -9  -2  179.60   16.10
   2   9   2  220.10   18.10
   2   9   2  191.00   12.40
   2   9   2  186.50   15.80
  -3  -9  -2   66.70   10.20
  -3  -9  -2   62.30   10.70
   3   9   2   67.40    6.10
   3   9   2   60.00   10.50
  -4  -9  -2  125.30   15.00
  -4  -9  -2   98.10   13.90
   4   9   2   94.90   14.50
  -5  -9  -2   18.00    8.40
  -5  -9  -2   30.00    9.00
   5   9   2    6.70    7.90
  -6  -9  -2  138.90   15.30
  -6  -9  -2  151.30   14.80
   6   9   2  130.50   15.90
  -7  -9  -2  386.40   21.90
  -8  -9  -2   88.80   13.50
 -10  -9  -2    0.70    8.90
 -11  -9  -2   40.50   13.20
 -12  10   2   10.60   15.50
 -12  10   2    5.70    9.00
  11 -10  -2    2.00    9.70
 -11  10   2    2.00   11.80
 -11  10   2    2.00    7.40
  10 -10  -2   91.10   15.90
 -10  10   2  123.90   14.60
 -10  10   2  118.60   19.20
   9 -10  -2   28.70   10.90
  -9  10   2   33.50    9.20
  -9  10   2    1.00   10.40
  -9  10   2   30.60    9.60
   8 -10  -2    1.50    9.10
  -8  10   2    2.60    9.40
  -8  10   2    2.50    8.70
  -8  10   2    1.50    7.80
   7 -10  -2   55.30   13.40
  -7  10   2   83.10   11.60
  -7  10   2   77.50   14.20
  -7  10   2  115.00   13.70
   6 -10  -2  166.80   19.10
  -6  10   2  156.20   18.30
  -6  10   2  159.40   15.40
  -6  10   2  182.30   16.30
   5 -10  -2    0.00    9.00
   5 -10  -2    8.70   11.00
  -5  10   2   14.70    8.80
  -5  10   2   11.50    7.50
  -5  10   2    0.00    7.80
   4 -10  -2 1286.20   49.10
   4 -10  -2 1293.40   49.80
  -4  10   2 1305.10   46.20
  -4  10   2 1318.30   48.80
  -4  10   2 1287.20   45.70
   3 -10  -2  854.30   39.00
   3 -10  -2  904.30   40.00
  -3  10   2  826.30   37.90
  -3  10   2  847.70   36.40
  -3  10   2  826.20   36.60
   2 -10  -2  200.80   17.20
   2 -10  -2  179.30   16.30
  -2  10   2  188.80   15.50
  -2  10   2  200.70   15.70
  -2  10   2  196.70   14.90
   1 -10  -2 1384.60   51.70
   1 -10  -2 1338.80   50.70
  -1  10   2 1372.30   49.90
  -1  10   2 1418.30   51.00
  -1  10   2 1398.50   49.90
   0 -10  -2   14.10    9.10
   0 -10  -2   10.60    8.40
   0  10   2    5.90    9.40
   0  10   2   10.90    8.00
   0  10   2    4.80    6.30
  -1 -10  -2    8.40    8.80
  -1 -10  -2   26.20    9.10
   1  10   2   12.40    8.40
   1  10   2   20.30    8.60
   1  10   2   23.90    6.80
  -2 -10  -2 1042.20   39.00
  -2 -10  -2 1041.40   39.20
   2  10   2 1045.50   41.00
   2  10   2 1051.20   34.20
   2  10   2 1081.30   39.90
  -3 -10  -2    0.10    7.50
  -3 -10  -2   11.90    8.00
   3  10   2    5.60    4.40
   3  10   2    3.80    7.10
  -4 -10  -2    6.30    7.50
  -4 -10  -2    0.30    6.50
   4  10   2    0.30    6.30
  -5 -10  -2  131.70   13.00
  -5 -10  -2   96.90   11.70
   5  10   2  106.60   14.30
  -6 -10  -2   55.30   12.60
  -7 -10  -2  779.70   32.10
  -9 -10  -2   38.90   11.80
 -10 -10  -2   74.00   13.90
 -12  11   2   23.30   10.50
 -11  11   2   64.90   11.50
 -11  11   2   79.10   19.40
  10 -11  -2  103.00   21.20
 -10  11   2  122.60   14.90
 -10  11   2   96.90   20.10
   9 -11  -2    0.30   10.10
  -9  11   2   11.60   11.30
  -9  11   2   10.60    8.80
   8 -11  -2  147.50   18.80
  -8  11   2  183.80   16.20
  -8  11   2  201.40   22.20
   7 -11  -2    0.40    9.80
  -7  11   2    2.10    8.50
  -7  11   2   26.40   12.20
  -7  11   2    3.20    8.20
   6 -11  -2  215.60   21.40
  -6  11   2  243.00   18.40
  -6  11   2  252.30   21.60
  -6  11   2  243.00   18.10
   5 -11  -2  501.80   31.50
   5 -11  -2  409.00   28.20
  -5  11   2  498.20   25.70
  -5  11   2  457.10   27.90
  -5  11   2  517.10   25.70
   4 -11  -2   23.70   13.00
   4 -11  -2   33.40   11.90
  -4  11   2   26.40    9.60
  -4  11   2   19.80    9.50
  -4  11   2   22.20   11.10
   3 -11  -2  109.70   14.70
   3 -11  -2  105.50   15.00
  -3  11   2  117.40   14.30
  -3  11   2  104.80   12.50
  -3  11   2   99.60   13.40
   2 -11  -2   54.00    9.60
   2 -11  -2   70.10   12.10
  -2  11   2   42.00    8.80
  -2  11   2   55.10   10.90
  -2  11   2   39.60    8.90
   1 -11  -2  574.20   28.80
   1 -11  -2  575.80   28.00
  -1  11   2  557.60   26.40
  -1  11   2  591.50   27.10
  -1  11   2  579.60   28.20
   0 -11  -2  129.10   14.00
   0 -11  -2  129.00   12.80
   0  11   2  132.70   11.80
   0  11   2  153.80   15.00
   0  11   2  125.00   12.60
  -1 -11  -2  178.70   18.50
  -1 -11  -2  162.40   17.10
   1  11   2  149.60   14.70
   1  11   2  159.70   18.20
   1  11   2  143.60   17.00
  -2 -11  -2  703.90   31.80
  -2 -11  -2  652.60   31.80
   2  11   2  657.50   26.30
   2  11   2  630.50   30.90
  -3 -11  -2    2.50    8.40
  -3 -11  -2   12.20    9.70
   3  11   2    1.50    5.00
   3  11   2    2.80    7.80
  -4 -11  -2    3.30    8.90
  -5 -11  -2  524.30   28.70
  -6 -11  -2   40.20   12.00
  -7 -11  -2  266.80   21.30
  -8 -11  -2    3.20    9.50
  -9 -11  -2    0.30    9.60
 -10 -11  -2   41.30   11.90
 -11  12   2    8.50   14.50
 -11  12   2   23.40   11.30
 -10  12   2   13.10   14.80
 -10  12   2    7.20    9.50
  -9  12   2    0.90   12.40
  -9  12   2    6.40    9.90
  -8  12   2   57.00   12.30
  -8  12   2   48.40   15.50
   7 -12  -2    0.50    9.70
  -7  12   2   31.00   21.60
  -7  12   2   20.10    9.20
   6 -12  -2  448.30   28.10
  -6  12   2  500.30   28.90
  -6  12   2  527.30   26.20
   5 -12  -2  451.50   27.80
   5 -12  -2  440.00   26.50
  -5  12   2  451.80   22.90
  -5  12   2  401.10   25.80
   4 -12  -2   19.30   12.00
   4 -12  -2   12.90   10.60
  -4  12   2   30.80   11.40
  -4  12   2   12.60   10.30
  -4  12   2   21.40   10.20
   3 -12  -2  202.80   22.10
   3 -12  -2  154.90   17.30
  -3  12   2  184.90   17.30
  -3  12   2  198.80   17.90
  -3  12   2  188.40   17.80
   2 -12  -2   35.80   10.70
   2 -12  -2   47.10   12.80
  -2  12   2   51.20    9.90
  -2  12   2   65.50   10.80
  -2  12   2   57.80   12.00
   1 -12  -2    5.10    7.70
   1 -12  -2    2.50    9.10
  -1  12   2    1.50    6.90
  -1  12   2    0.10    8.90
  -1  12   2    5.00    7.70
   0 -12  -2  621.40   30.00
   0 -12  -2  638.80   31.60
   0  12   2  646.70   31.90
   0  12   2  650.20   28.00
   0  12   2  731.50   40.90
  -1 -12  -2   87.60   12.20
   1  12   2  126.00   11.30
   1  12   2  120.40   14.20
  -2 -12  -2  209.80   17.20
   2  12   2  211.20   13.00
  -3 -12  -2   38.80   11.40
   3  12   2   25.80    6.60
  -4 -12  -2   20.60    9.80
  -5 -12  -2  749.60   36.90
  -6 -12  -2    9.30   11.10
  -7 -12  -2   16.60   11.50
  -8 -12  -2  135.40   18.40
  -9 -12  -2  126.20   18.40
 -10  13   2   25.20   10.10
 -10  13   2   16.80   15.10
  -9  13   2   15.60   10.30
  -9  13   2   15.60   15.30
  -8  13   2   87.70   19.10
  -8  13   2   78.60   14.10
  -7  13   2  416.70   29.30
  -7  13   2  405.10   24.90
   6 -13  -2   15.00   12.60
  -6  13   2   40.60   10.50
  -6  13   2   35.80   12.30
   5 -13  -2   85.30   16.80
  -5  13   2   96.00   15.20
  -5  13   2  102.90   14.90
   4 -13  -2   29.60   12.70
  -4  13   2   25.10   10.60
  -4  13   2   15.00   10.50
   3 -13  -2   40.40   12.00
  -3  13   2   24.50   10.20
  -3  13   2   23.60    9.90
   2 -13  -2    0.10    9.70
  -2  13   2    0.10    8.30
  -2  13   2    0.10    9.20
   1 -13  -2   62.90   13.90
  -1  13   2   71.80   12.00
  -1  13   2   91.80   13.80
   0 -13  -2  214.60   20.50
   0  13   2  228.10   20.10
   0  13   2  275.50   19.00
  -1 -13  -2  314.00   24.20
   1  13   2  285.10   21.30
  -2 -13  -2   16.30   10.30
   2  13   2    6.30    6.40
  -3 -13  -2    2.00    9.90
   3  13   2    0.40    5.50
  -4 -13  -2    7.90    9.90
  -5 -13  -2  342.10   26.00
  -6 -13  -2   41.50   14.60
  -7 -13  -2   14.60   11.90
  -8 -13  -2  100.30   16.50
  -9  14   2    0.80   14.30
  -9  14   2    0.30   11.80
  -8  14   2   97.80   18.50
  -8  14   2   90.00   14.80
  -7  14   2  122.90   15.70
  -7  14   2  128.60   19.70
   6 -14  -2    0.50   11.30
  -6  14   2    4.20   11.40
  -6  14   2    6.80   10.00
   5 -14  -2   15.50   15.30
  -5  14   2   30.20   11.50
  -5  14   2   42.50   13.70
  -4  14   2  258.80   22.20
  -4  14   2  234.50   20.20
   3 -14  -2    0.10   12.10
  -3  14   2   14.30   10.50
  -3  14   2    0.10    8.90
   2 -14  -2   51.90   14.20
  -2  14   2   69.10   13.40
  -2  14   2   62.80   13.10
   1 -14  -2  139.80   21.60
  -1  14   2  140.20   17.30
  -1  14   2  158.80   17.00
   0  14   2    2.10    8.40
   0  14   2    0.10   11.00
  -1 -14  -2  497.70   29.90
   1  14   2  504.00   24.70
  -2 -14  -2    0.50   10.90
   2  14   2    0.50    6.10
  -3 -14  -2  106.40   14.90
   3  14   2   86.20    9.30
  -4 -14  -2    7.10   11.30
   4  14   2   29.70    5.20
  -5 -14  -2    1.80   10.40
  -6 -14  -2  292.00   25.70
  -7 -14  -2   59.20   15.10
  -8  15   2  117.40   17.40
  -8  15   2  148.10   24.10
  -7  15   2   44.80   12.20
  -7  15   2   76.20   16.50
   6 -15  -2    0.10   11.20
  -6  15   2    7.50   10.30
  -6  15   2    1.10   12.00
   5 -15  -2  166.20   22.90
  -5  15   2  158.00   20.10
  -5  15   2  140.20   16.80
   4 -15  -2  298.80   26.80
  -4  15   2  404.10   27.30
  -4  15   2  347.90   23.70
   3 -15  -2   55.60   15.70
  -3  15   2   69.00   15.30
  -3  15   2   47.60   13.10
   2 -15  -2   48.50   14.20
  -2  15   2   70.80   13.50
  -2  15   2   56.30   13.50
   1 -15  -2  235.40   23.50
  -1  15   2  240.00   20.70
  -1  15   2  217.10   20.80
   0 -15  -2   84.40   16.10
   0  15   2   72.50   13.20
  -1 -15  -2  121.50   16.70
   1  15   2  158.30   14.80
  -2 -15  -2  177.00   20.70
   2  15   2  184.60   16.20
  -3 -15  -2   35.60   14.00
   3  15   2   13.90    7.30
  -4 -15  -2    3.20   11.00
  -5 -15  -2   17.10   11.90
  -6 -15  -2  331.50   27.30
  -7  16   2   52.50   13.20
  -7  16   2   90.00   17.50
  -6  16   2   51.40   12.70
  -6  16   2   35.80   13.40
   5 -16  -2   69.80   17.60
  -5  16   2   73.70   15.60
  -5  16   2   94.20   16.30
   4 -16  -2   93.60   19.80
  -4  16   2   61.60   15.60
  -4  16   2   58.40   14.20
   3 -16  -2   36.40   14.50
  -3  16   2   27.40   12.10
  -3  16   2   42.40   13.80
   2 -16  -2   32.10   14.70
  -2  16   2    0.10    9.20
  -2  16   2    0.10    9.30
   1 -16  -2  236.60   23.50
  -1  16   2  252.20   22.50
  -1  16   2  235.50   20.50
   0 -16  -2   82.00   17.40
   0  16   2   57.60   12.50
  -1 -16  -2   70.40   17.40
   1  16   2   51.40   12.00
  -2 -16  -2  138.50   19.20
   2  16   2  166.50   15.50
  -3 -16  -2    9.70   11.50
   3  16   2    1.50    6.80
  -4 -16  -2  201.10   21.70
  -5 -16  -2    0.20   10.80
   5 -17  -2    0.50   13.60
  -5  17   2    6.60   10.70
  -5  17   2    1.00   10.80
   4 -17  -2   21.40   17.40
  -4  17   2   25.00   11.90
  -4  17   2   21.60   13.20
   3 -17  -2    0.40   12.20
  -3  17   2    7.10   10.30
  -3  17   2    3.70   11.40
   2 -17  -2    0.10   11.60
  -2  17   2    0.10    9.30
  -2  17   2    3.90   10.30
   1 -17  -2   17.80   15.00
  -1  17   2   23.70   10.40
   0 -17  -2  181.70   22.40
   0  17   2  203.70   19.90
  -1 -17  -2    0.30   13.10
   1  17   2    7.50    8.40
  -2 -17  -2   19.40   13.10
   2  17   2   28.70    9.60
  -3 -17  -2    2.60   13.60
   3  17   2    0.50    6.80
   3  18  -3    5.50    9.80
  -3 -18   3   18.20   12.90
   2  18  -3  112.70   17.30
  -2 -18   3  104.10   20.00
   1  18  -3   56.40   13.80
  -1 -18   3   25.10   14.10
   0  18  -3    0.30   10.20
   0 -18   3   15.50   15.80
  -1  18  -3  107.20   18.20
   1 -18   3  117.80   21.20
  -2  18  -3    8.20   12.80
   2 -18   3   29.00   17.20
  -3  18  -3   24.20   13.90
  -4  18  -3   14.20   14.20
   5  17  -3   81.00    8.00
  -5 -17   3  191.50   20.70
  -4 -17   3   43.10   14.70
   3  17  -3   51.90   13.40
  -3 -17   3   63.10   16.00
   2  17  -3   50.30   12.70
  -2 -17   3   51.00   15.30
   1  17  -3  215.40   20.90
  -1 -17   3  202.40   23.10
   0  17  -3   15.80   11.80
   0 -17   3    4.80   13.10
  -1  17  -3   83.30   16.30
   1 -17   3   54.20   17.70
  -2  17  -3   67.50   14.80
   2 -17   3   32.70   15.60
  -3  17  -3   27.70   12.40
  -4  17  -3   95.20   17.30
  -5  17  -3   17.90   12.40
  -6  17  -3  222.70   25.90
  -6 -16   3  261.20   23.20
  -5 -16   3   34.30   13.40
   4  16  -3    0.70    6.00
  -4 -16   3   22.90   12.70
   3  16  -3   32.30   11.00
  -3 -16   3   56.30   14.10
   2  16  -3    4.20    9.80
  -2 -16   3    0.20   12.90
   1  16  -3  439.00   27.50
  -1 -16   3  463.90   31.90
   0  16  -3    1.00   10.20
   0 -16   3   10.10   12.70
  -1  16  -3    1.80   11.20
   1 -16   3    0.80   12.30
  -2  16  -3  146.30   17.40
   2 -16   3  184.10   20.60
  -3  16  -3   51.10   15.40
  -4  16  -3  383.60   30.10
  -5  16  -3   46.50   13.40
  -6  16  -3    2.10   12.60
  -7  16  -3   94.70   19.00
  -8 -15   3   40.50   13.80
  -7 -15   3  306.70   24.40
  -6 -15   3   54.80   12.40
  -5 -15   3   18.10   11.90
   4  15  -3  112.20   12.90
  -3 -15   3    6.50   11.50
   2  15  -3  114.00   14.50
  -2 -15   3  105.10   15.90
   1  15  -3  197.80   19.60
   0  15  -3  217.50   19.90
   0 -15   3  204.50   26.20
  -1  15  -3   47.50   14.80
   1 -15   3   39.40   15.70
  -2  15  -3   63.50   15.20
   2 -15   3   35.20   15.80
  -3  15  -3  217.70   22.70
   3 -15   3  205.20   23.20
  -4  15  -3  296.00   24.00
   4 -15   3  343.80   22.10
  -5  15  -3    5.00   12.20
   5 -15   3    0.00    7.90
  -6  15  -3   66.90   14.60
   6 -15   3    2.20    9.60
  -8  15  -3   93.90   18.10
   8 -15   3    2.70   11.20
  -9  15  -3   92.70   20.20
  -9 -14   3  112.10   16.60
  -8 -14   3  169.50   19.00
  -7 -14   3  137.40   17.40
  -6 -14   3  128.20   18.70
  -5 -14   3   99.80   15.90
   4  14  -3  103.30   11.40
   3  14  -3    0.00    7.60
  -3 -14   3    4.10   10.10
   2  14  -3  460.50   27.00
  -2 -14   3  461.60   23.30
  -2 -14   3  494.30   31.30
   1  14  -3   17.60    9.80
  -1 -14   3   11.20    7.20
  -1 -14   3   14.50   11.00
   0  14  -3  374.60   26.30
   0 -14   3  394.50   29.70
   0 -14   3  418.50   24.30
  -1  14  -3    2.80    8.70
   1 -14   3    0.40    6.70
   1 -14   3    1.20   10.90
   1 -14   3    1.40    6.60
  -2  14  -3  326.70   24.00
   2 -14   3  342.40   26.10
   2 -14   3  295.00   19.80
   2 -14   3  306.40   20.70
  -3  14  -3   76.70   14.80
   3 -14   3   95.80   14.20
  -4  14  -3    6.90   11.50
   4 -14   3    2.70    7.80
  -5  14  -3  293.00   23.90
   5 -14   3  244.90   19.80
  -6  14  -3    9.10   13.30
  -7  14  -3  228.10   23.00
   7 -14   3   70.20   14.70
  -8  14  -3    2.40   14.60
   8 -14   3    0.40   10.40
  -9  14  -3   50.60   15.90
   9 -14   3   24.70   12.20
  -9 -13   3  212.70   18.90
  -7 -13   3  164.10   18.50
  -6 -13   3  550.20   29.20
   5  13  -3  157.90   12.00
  -5 -13   3  222.90   21.10
  -4 -13   3   10.00    9.30
   3  13  -3   14.80    8.20
  -3 -13   3   41.10    6.80
  -3 -13   3   21.60   11.30
   2  13  -3  364.00   21.70
  -2 -13   3  331.10   23.20
  -2 -13   3  377.40   18.70
   1  13  -3   73.50   13.20
   1  13  -3   93.50   12.40
  -1 -13   3   74.00    9.90
  -1 -13   3   49.20   13.20
  -1 -13   3   58.40   10.10
   0  13  -3  405.50   22.50
   0 -13   3  461.30   22.00
   0 -13   3  445.80   20.50
   0 -13   3  529.00   35.40
  -1  13  -3   53.50   12.10
   1 -13   3   78.40   15.00
   1 -13   3   56.00   10.30
   1 -13   3   85.40   12.10
  -2  13  -3   28.30   10.80
   2 -13   3   36.10   14.60
   2 -13   3   24.00   12.40
   2 -13   3   25.20    8.80
  -3  13  -3    9.50   10.50
   3 -13   3    8.30    8.00
   3 -13   3   20.70    8.80
  -4  13  -3   31.50   11.90
   4 -13   3   14.10    8.00
  -5  13  -3  670.50   33.50
   5 -13   3  605.80   30.50
  -6  13  -3    6.00   12.70
   6 -13   3    0.00    8.50
  -7  13  -3    1.60   12.10
  -7  13  -3    3.10    7.50
  -8  13  -3   80.30    9.90
  -8  13  -3   79.00   17.50
   8 -13   3   25.10   10.70
  -9  13  -3    2.40    6.60
  -9  13  -3    0.00   12.30
   9 -13   3    0.00    7.50
 -10  13  -3   46.00   16.00
 -10  13  -3   43.30    8.50
  10 -13   3   22.90    9.40
 -10 -12   3  106.70   16.00
  -9 -12   3   22.30   11.50
  -8 -12   3   92.00   15.10
  -7 -12   3  363.10   22.30
  -6 -12   3  531.70   29.90
   5  12  -3   20.80    5.40
   5  12  -3   11.30    8.70
  -5 -12   3   11.40    9.80
   4  12  -3    4.00    6.00
   4  12  -3   13.80    7.00
  -4 -12   3   18.10    9.70
  -4 -12   3    4.00    4.30
   3  12  -3   44.30    8.60
   3  12  -3   41.00    7.20
  -3 -12   3   45.30    7.70
  -3 -12   3   27.20    9.70
  -3 -12   3   52.40    5.90
   2  12  -3  912.80   34.30
   2  12  -3  943.00   34.10
  -2 -12   3  966.10   31.20
  -2 -12   3  927.80   33.90
  -2 -12   3  981.90   36.30
   1  12  -3   50.50   11.30
  -1 -12   3   45.50   12.60
  -1 -12   3   67.70   10.60
  -1 -12   3   49.60   10.90
   0  12  -3   93.00   14.10
   0  12  -3  100.00   13.10
   0 -12   3  113.20   13.30
   0 -12   3  105.90   13.10
   0 -12   3  133.00   17.50
  -1  12  -3  267.90   18.80
  -1  12  -3  233.70   19.60
   1 -12   3  233.40   17.30
   1 -12   3  239.70   16.80
   1 -12   3  265.30   22.50
  -2  12  -3  110.40   16.10
  -2  12  -3  107.20   13.70
   2 -12   3   88.50   15.10
   2 -12   3  110.60   14.20
   2 -12   3  100.80   13.60
  -3  12  -3  130.10   17.20
  -3  12  -3  100.50   13.50
   3 -12   3  133.10   14.40
   3 -12   3  104.00   13.90
  -4  12  -3   49.00   11.80
   4 -12   3   40.10    9.30
   4 -12   3   26.20    8.60
  -5  12  -3  514.20   30.20
   5 -12   3  430.80   25.80
  -6  12  -3    0.00    6.50
  -6  12  -3    0.00   12.00
   6 -12   3    0.00    6.80
  -7  12  -3  103.90    9.90
   7 -12   3   71.10   11.90
  -8  12  -3  116.90   18.80
  -8  12  -3  127.40   12.50
   8 -12   3   96.40   14.00
  -9  12  -3   25.90    8.40
  -9  12  -3   60.30   17.20
   9 -12   3   11.50    8.80
 -10  12  -3  149.00   23.40
  10 -12   3  180.80   15.30
 -11  12  -3    0.60   12.10
 -11  12  -3    3.60    6.10
 -11 -11   3   13.80   10.90
 -10 -11   3  173.20   16.70
  -9 -11   3   15.70    8.80
   8  11  -3  276.40   26.80
  -8 -11   3  327.00   23.00
   7  11  -3  330.00   21.10
  -7 -11   3  308.30   18.90
   6  11  -3  425.20   25.80
  -6 -11   3  446.40   25.80
   5  11  -3   31.30   11.00
   5  11  -3   53.10    8.60
  -5 -11   3   41.90    6.60
  -5 -11   3   35.10   12.30
   4  11  -3  123.50   14.80
  -4 -11   3  215.50   18.90
  -4 -11   3  178.10   13.20
  -4 -11   3  178.20   18.20
   3  11  -3   22.80    8.60
   3  11  -3   26.40    9.50
  -3 -11   3   23.80    8.60
  -3 -11   3   13.70   10.00
  -3 -11   3   27.90    6.70
   2  11  -3  892.70   34.80
   2  11  -3  941.50   34.30
  -2 -11   3  845.00   30.60
  -2 -11   3  857.60   35.30
   1  11  -3  347.40   18.90
   1  11  -3  355.30   19.20
  -1 -11   3  324.20   17.90
  -1 -11   3  321.50   16.30
  -1 -11   3  348.80   20.90
   0  11  -3  668.90   29.20
   0  11  -3  666.50   28.20
   0 -11   3  704.30   30.40
   0 -11   3  677.50   27.20
   0 -11   3  683.50   27.20
  -1  11  -3  783.50   31.50
  -1  11  -3  759.00   31.80
   1 -11   3  785.40   29.90
   1 -11   3  753.10   30.20
   1 -11   3  751.90   32.80
  -2  11  -3  240.50   18.00
  -2  11  -3  210.80   17.70
   2 -11   3  211.50   18.80
   2 -11   3  185.10   16.10
   2 -11   3  213.10   15.50
  -3  11  -3 1660.80   54.80
  -3  11  -3 1564.00   56.30
   3 -11   3 1567.10   55.00
   3 -11   3 1596.40   53.20
  -4  11  -3   45.00   11.80
  -4  11  -3   39.40    9.20
   4 -11   3   29.90    8.00
   4 -11   3   78.80   11.40
  -5  11  -3   41.20   12.30
  -5  11  -3   36.10   13.50
  -5  11  -3   28.70    9.70
   5 -11   3   26.70    8.40
   5 -11   3   41.20   11.10
  -6  11  -3  197.60   14.10
  -6  11  -3  193.80   20.70
   6 -11   3  158.90   16.50
  -7  11  -3   11.40   12.80
  -7  11  -3    9.50    6.30
   7 -11   3    1.60    8.10
  -8  11  -3   15.80    6.80
  -8  11  -3   34.60   16.50
   8 -11   3    7.50    7.70
  -9  11  -3   22.70   12.30
  -9  11  -3    8.80    6.20
   9 -11   3   26.10    7.30
 -10  11  -3  158.40   12.00
 -10  11  -3  171.10   23.00
  10 -11   3  167.70   13.70
 -11  11  -3   17.10    6.00
 -11  11  -3    8.30   13.20
  11 -11   3   18.50    6.80
 -11 -10   3   10.80   10.00
 -10 -10   3   56.50   11.50
   9  10  -3    0.00    8.20
  -9 -10   3   12.00    9.50
   8  10  -3  362.20   21.10
  -8 -10   3  452.40   21.20
   7  10  -3   22.20    8.50
  -7 -10   3   32.30    9.70
   6  10  -3  261.30   16.30
  -6 -10   3  266.50   16.30
  -6 -10   3  292.90    8.70
   5  10  -3  126.30    7.90
   5  10  -3  124.80   11.00
  -5 -10   3  113.10    6.90
  -5 -10   3  120.80   11.10
  -5 -10   3  111.20   10.70
   4  10  -3  212.60   14.10
   4  10  -3  279.40   16.70
  -4 -10   3  291.60   13.40
  -4 -10   3  260.40   16.30
  -4 -10   3  301.00   18.70
   3  10  -3   85.90   11.10
   3  10  -3   75.10   10.30
  -3 -10   3   79.80   10.80
  -3 -10   3   74.80   11.90
  -3 -10   3   83.80    8.80
   2  10  -3   47.60    8.90
   2  10  -3   42.80    8.10
  -2 -10   3   49.40    9.50
  -2 -10   3   44.80    8.00
  -2 -10   3   52.70    7.80
   1  10  -3 1513.60   47.90
   1  10  -3 1483.10   46.70
  -1 -10   3 1414.70   44.60
  -1 -10   3 1534.50   49.10
  -1 -10   3 1455.10   46.40
   0  10  -3  385.30   17.50
   0  10  -3  376.10   16.60
   0 -10   3  369.80   16.00
   0 -10   3  399.00   18.60
   0 -10   3  378.20   15.60
  -1  10  -3    5.40    6.80
  -1  10  -3    0.20    6.40
   1 -10   3    5.30    6.50
   1 -10   3    0.00    5.60
   1 -10   3    0.10    8.70
  -2  10  -3   93.40   14.10
  -2  10  -3   86.80   13.00
   2 -10   3   88.30   12.10
   2 -10   3  101.80   12.90
   2 -10   3   84.60   15.20
  -3  10  -3  988.10   36.70
  -3  10  -3 1037.80   40.20
   3 -10   3 1037.40   36.10
   3 -10   3 1023.90   38.10
  -4  10  -3    0.70    8.60
  -4  10  -3    0.10    5.50
   4 -10   3    4.80    8.10
   4 -10   3    0.10    5.30
  -5  10  -3  217.20   16.80
  -5  10  -3  200.40   19.40
  -5  10  -3  225.60   13.70
   5 -10   3  166.50   15.00
   5 -10   3  208.00   17.80
  -6  10  -3  752.00   28.00
  -6  10  -3  796.50   38.00
  -6  10  -3  726.80   33.40
   6 -10   3  687.10   31.30
   6 -10   3  782.00   36.80
  -7  10  -3   57.90    8.40
  -7  10  -3   52.10   13.50
   7 -10   3   47.70    9.20
  -8  10  -3  184.60   12.70
  -8  10  -3  220.60   23.60
   8 -10   3  185.60   13.90
  -9  10  -3   26.50    6.10
  -9  10  -3   25.10   12.40
   9 -10   3   17.10    6.10
 -10  10  -3   74.30    7.90
 -10  10  -3   61.20   16.60
  10 -10   3   56.30    8.20
 -11  10  -3   90.90    8.30
 -11  10  -3   91.50   19.70
 -12  10  -3    2.00    4.70
 -12  10  -3    0.30   14.10
 -12  -9   3  260.80   20.30
 -11  -9   3   36.80   10.50
  10   9  -3   26.80    9.70
 -10  -9   3   35.60    9.10
   9   9  -3    6.10    8.80
  -9  -9   3   13.00    9.60
   8   9  -3  289.50   20.00
  -8  -9   3  348.40   20.00
   7   9  -3  156.70   13.70
  -7  -9   3  172.90   13.20
   6   9  -3   50.60   11.80
  -6  -9   3   52.70   11.80
  -6  -9   3   51.80    6.30
   5   9  -3  320.70   12.40
   5   9  -3  299.20   17.10
  -5  -9   3  351.20   17.90
  -5  -9   3  325.90   11.60
   4   9  -3  169.00   15.40
   4   9  -3  145.30   12.70
  -4  -9   3  163.40   16.10
  -4  -9   3  148.70   10.70
   3   9  -3  491.10   20.30
   3   9  -3  501.70   19.90
  -3  -9   3  475.60   20.00
  -3  -9   3  518.50   17.50
  -3  -9   3  548.70   21.90
   2   9  -3  425.40   16.80
   2   9  -3  392.20   16.10
  -2  -9   3  408.00   16.20
  -2  -9   3  415.40   17.20
  -2  -9   3  425.90   14.50
   1   9  -3 3754.20  129.10
   1   9  -3 3807.20  128.70
  -1  -9   3 3713.50  129.70
  -1  -9   3 3871.10  127.10
  -1  -9   3 3770.50  128.20
   0   9  -3    0.10    7.40
   0   9  -3    2.00    6.10
   0  -9   3    0.30    6.00
   0  -9   3    5.80    5.70
   0  -9   3    0.50    8.60
  -1   9  -3 1057.90   42.00
  -1   9  -3 1053.40   41.20
   1  -9   3 1079.30   43.00
   1  -9   3 1016.30   39.20
   1  -9   3 1027.00   40.30
  -2   9  -3    6.80    8.20
  -2   9  -3    0.70    8.20
   2  -9   3    7.20    7.10
   2  -9   3    2.10    7.10
   2  -9   3    5.30    9.80
  -3   9  -3   44.80    8.00
  -3   9  -3   72.20   10.30
   3  -9   3   51.40    7.10
   3  -9   3   71.20    9.50
  -4   9  -3  567.80   27.80
  -4   9  -3  575.80   25.80
  -4   9  -3  582.90   22.10
   4  -9   3  553.20   23.80
   4  -9   3  580.00   26.80
  -5   9  -3  154.50   11.50
  -5   9  -3  157.30   17.10
  -5   9  -3  146.40   14.10
   5  -9   3  168.90   16.60
  -6   9  -3  817.00   32.30
  -6   9  -3  789.10   36.00
  -6   9  -3  758.40   26.10
   6  -9   3  859.60   35.80
   6  -9   3  741.10   29.20
  -7   9  -3  124.60   16.50
  -7   9  -3  117.70   14.00
  -7   9  -3  128.00   10.30
   7  -9   3  132.00   16.60
   7  -9   3  117.80   11.80
  -8   9  -3  119.00    9.90
  -8   9  -3  105.10   18.80
   8  -9   3   98.40   10.70
  -9   9  -3   83.60    8.30
  -9   9  -3   74.30   17.10
   9  -9   3   75.70    9.00
 -10   9  -3    2.40    4.60
 -10   9  -3    0.50    9.80
 -11   9  -3  131.10    9.40
 -11   9  -3  110.60   19.30
 -12   9  -3    4.00    4.50
 -12   9  -3    1.20   14.20
 -12  -8   3  214.20   18.50
  11   8  -3   36.70    9.60
 -11  -8   3   48.00    9.80
  10   8  -3   47.20   11.80
 -10  -8   3   59.30   11.20
   9   8  -3    0.20    7.40
  -9  -8   3    5.20    3.00
  -9  -8   3    4.80    2.90
  -9  -8   3    1.60    7.30
   8   8  -3  192.00   17.10
  -8  -8   3  193.40   15.60
  -8  -8   3  203.60    9.80
  -8  -8   3  203.50    9.50
   7   8  -3  409.10   21.90
  -7  -8   3  427.30   21.20
  -7  -8   3  421.30   15.00
   6   8  -3    7.10    6.80
  -6  -8   3    7.50    7.50
  -6  -8   3    4.20    3.60
   5   8  -3  188.90   16.00
  -5  -8   3  213.10   11.50
  -5  -8   3  217.70   16.30
   4   8  -3   42.50    7.30
   4   8  -3   52.70    6.50
  -4  -8   3   40.40    5.00
  -4  -8   3   31.70    7.20
   3   8  -3 1554.40   53.80
   3   8  -3 1600.00   52.90
  -3  -8   3 1636.20   50.40
  -3  -8   3 1590.80   54.10
   2   8  -3  815.50   40.00
   2   8  -3  769.10   40.20
  -2  -8   3  778.70   40.00
  -2  -8   3  768.90   37.60
  -2  -8   3  771.10   40.60
   1   8  -3 2111.80   55.20
   1   8  -3 2136.80   54.70
  -1  -8   3 2038.40   53.60
  -1  -8   3 2062.30   55.30
  -1  -8   3 2112.10   53.20
   0   8  -3   12.50    5.70
   0   8  -3    4.40    6.80
   0  -8   3    5.60    5.20
   0  -8   3    8.00    5.70
   0  -8   3    9.10    6.50
  -1   8  -3 1548.00   52.00
  -1   8  -3 1610.80   51.70
   1  -8   3 1611.10   56.70
   1  -8   3 1574.00   51.40
   1  -8   3 1567.00   49.60
  -2   8  -3  108.00   14.30
  -2   8  -3  127.50   14.10
   2  -8   3  132.40   13.90
  -3   8  -3  916.60   36.70
  -3   8  -3  924.70   38.70
   3  -8   3  878.20   37.00
   3  -8   3  873.20   34.00
  -4   8  -3 1973.70   57.30
  -4   8  -3 1957.30   61.90
  -4   8  -3 2104.50   65.40
   4  -8   3 1973.50   59.60
   4  -8   3 1978.70   64.10
  -5   8  -3  120.80   13.80
  -5   8  -3  102.10    8.50
  -5   8  -3  122.80   11.80
   5  -8   3  110.40    9.70
   5  -8   3  132.70   13.40
  -6   8  -3    0.90    4.50
  -6   8  -3    7.00    9.40
  -6   8  -3    0.10    6.00
   6  -8   3    0.00    5.10
  -7   8  -3   24.00    5.10
  -7   8  -3   13.60    7.80
  -7   8  -3   31.00   10.80
   7  -8   3    0.40    7.20
   7  -8   3   17.90    6.10
  -8   8  -3    7.60   10.70
  -8   8  -3    3.40    4.80
  -8   8  -3    0.10    8.00
   8  -8   3    0.10    6.00
  -9   8  -3  272.20   22.50
  -9   8  -3  258.10   12.10
   9  -8   3  283.80   16.10
 -10   8  -3   48.10    5.90
 -11   8  -3   74.60    8.10
 -11   8  -3   52.70   15.80
 -12   8  -3   32.70    5.10
 -12   8  -3   16.20   15.50
 -13   8  -3   53.70   17.10
 -13   8  -3   49.70    5.50
 -13  -7   3   42.40   13.00
 -13  -7   3   46.10   10.80
 -13  -7   3   35.20    6.10
 -12  -7   3   13.30    8.10
 -12  -7   3    0.00    4.60
 -12  -7   3    0.20   10.40
  11   7  -3    2.00    7.80
 -11  -7   3    7.40    7.10
 -11  -7   3    2.00    6.00
 -11  -7   3    3.90    4.50
  10   7  -3   20.70    7.70
 -10  -7   3   26.10    5.10
 -10  -7   3   25.10    5.20
 -10  -7   3   32.90    8.10
   9   7  -3   40.20   10.00
  -9  -7   3   49.20    9.50
  -9  -7   3   43.00    6.60
  -9  -7   3   44.80    6.30
   8   7  -3   75.90   10.10
  -8  -7   3   94.40    7.30
  -8  -7   3   85.80    9.50
   7   7  -3  656.80   27.20
  -7  -7   3  651.10   26.20
  -7  -7   3  686.70   22.30
   6   7  -3   73.90    9.40
  -6  -7   3   62.20    8.80
  -6  -7   3   66.60    6.60
   5   7  -3    6.50    6.00
  -5  -7   3    9.30    4.00
  -5  -7   3    7.20    6.00
   4   7  -3   41.70   10.00
   4   7  -3   50.90    8.80
  -4  -7   3   28.10    9.30
  -4  -7   3   31.70    7.40
   3   7  -3 2977.80   80.60
   3   7  -3 3100.70   80.10
  -3  -7   3 3060.10   77.90
  -3  -7   3 3107.80   80.90
   2   7  -3  233.20   10.40
   2   7  -3  245.80   10.50
  -2  -7   3  210.40   11.10
  -2  -7   3  241.60    9.50
   1   7  -3  128.10   14.00
   1   7  -3  126.10   13.80
  -1  -7   3  131.40   13.30
  -1  -7   3  135.60   15.20
  -1  -7   3  132.90   13.00
   0   7  -3  872.70   37.70
   0   7  -3  865.20   37.90
   0  -7   3  832.90   36.60
   0  -7   3  841.10   38.30
   0  -7   3  860.10   38.90
  -1   7  -3  161.00   12.60
  -1   7  -3  141.20   11.30
   1  -7   3  156.60   12.10
   1  -7   3  155.60    9.80
   1  -7   3  167.60   11.50
  -2   7  -3   42.80   10.00
  -2   7  -3   52.50   10.00
   2  -7   3   44.00    7.70
   2  -7   3   37.20    8.70
  -3   7  -3 1728.80   50.00
  -3   7  -3 1816.50   52.60
   3  -7   3 1782.60   51.70
  -4   7  -3 3610.80  109.70
  -4   7  -3 3579.70  102.00
  -4   7  -3 3687.00  107.70
   4  -7   3 3586.00  103.90
   4  -7   3 3649.90  109.40
  -5   7  -3   19.90    5.00
  -5   7  -3   11.00    6.80
  -5   7  -3    9.90    8.50
   5  -7   3   10.40    5.10
   5  -7   3   20.60    8.10
  -6   7  -3  232.90   16.80
  -6   7  -3  213.40    9.20
  -6   7  -3  205.80   15.10
   6  -7   3  219.90   15.70
   6  -7   3  230.70   10.30
  -7   7  -3   20.90    4.70
  -7   7  -3   11.40    9.90
   7  -7   3   17.80    8.80
   7  -7   3   23.70    5.00
  -8   7  -3   16.70   10.10
  -8   7  -3   12.30    4.40
   8  -7   3   10.20    8.80
   8  -7   3   19.10    5.00
  -9   7  -3  252.20   12.00
  -9   7  -3  265.40   24.20
 -10   7  -3  342.30   14.10
 -10   7  -3  330.80   25.90
 -11   7  -3   44.10    5.50
 -11   7  -3   55.10   15.40
 -12   7  -3   14.40   13.00
 -12   7  -3    8.60    4.50
 -13   7  -3    3.60   11.00
 -13   7  -3    0.20    3.90
 -13   7  -3    5.60   12.20
 -13  -6   3    3.10   11.50
 -13  -6   3    7.40    5.90
 -13  -6   3    0.90    8.00
 -13  -6   3    0.30    6.40
 -12  -6   3   24.50   10.50
 -12  -6   3   18.80    5.80
 -12  -6   3   26.50    7.30
 -12  -6   3   25.10    8.10
 -11  -6   3   36.40    7.30
 -11  -6   3   25.10    8.50
 -11  -6   3   39.30   13.20
  10   6  -3    0.00    6.70
 -10  -6   3    8.90    6.80
 -10  -6   3    0.00    4.90
 -10  -6   3    6.40    5.10
   9   6  -3  215.40   15.10
  -9  -6   3  197.50   11.80
  -9  -6   3  203.80   11.70
  -9  -6   3  194.90   13.00
   8   6  -3   79.10   10.10
  -8  -6   3   91.90    8.40
   7   6  -3  163.20   13.50
  -7  -6   3  221.40   13.70
  -7  -6   3  205.40   11.50
   6   6  -3  312.10   15.30
  -6  -6   3  307.70   12.80
  -6  -6   3  314.00   15.20
   5   6  -3  130.90    9.90
  -5  -6   3  128.70    8.20
  -5  -6   3  141.30   10.20
   4   6  -3  391.40   14.90
   4   6  -3  409.90   11.80
  -4  -6   3  425.80   13.60
  -4  -6   3  395.40   11.40
   3   6  -3 2964.50   87.30
   3   6  -3 2948.90   87.90
  -3  -6   3 3047.40   88.00
  -3  -6   3 2863.50   85.70
   2   6  -3  752.90   23.60
   2   6  -3  766.90   23.60
  -2  -6   3  731.90   23.40
  -2  -6   3  705.40   21.80
   1   6  -3 1806.90   29.90
   1   6  -3 1839.50   30.20
  -1  -6   3 1776.40   31.20
  -1  -6   3 1828.20   30.50
   0   6  -3 2831.20   80.30
   0   6  -3 2882.80   80.30
   0  -6   3 2851.50   80.40
   0  -6   3 2875.40   78.60
   0  -6   3 2984.40   79.90
  -1   6  -3 1631.90   43.90
  -1   6  -3 1646.00   44.90
   1  -6   3 1692.10   45.00
   1  -6   3 1703.60   44.40
  -2   6  -3 2489.60   82.60
  -2   6  -3 2419.10   81.00
   2  -6   3 2456.50   81.90
   2  -6   3 2482.40   78.40
  -3   6  -3    2.80    5.70
  -3   6  -3    2.30    5.20
   3  -6   3    0.20    5.00
   3  -6   3    2.90    3.90
  -4   6  -3   32.90    4.90
  -4   6  -3   44.10    9.50
  -4   6  -3   39.00   11.10
   4  -6   3   32.80    8.50
   4  -6   3   40.90    6.00
  -5   6  -3  756.70   24.90
  -5   6  -3  790.70   33.40
   5  -6   3  745.20   32.70
   5  -6   3  782.70   25.90
  -6   6  -3  173.10   15.60
  -6   6  -3  157.90    8.00
   6  -6   3  147.50    8.30
   6  -6   3  126.60   14.00
  -7   6  -3   32.00   10.00
  -7   6  -3   25.60    4.20
   7  -6   3   24.20    4.50
   7  -6   3   24.80    9.00
  -8   6  -3   46.00   13.40
  -8   6  -3   41.00    5.30
   8  -6   3   32.10   10.50
  -9   6  -3  270.90   11.30
  -9   6  -3  327.60   22.40
 -10   6  -3  294.20   25.20
 -10   6  -3  299.50   12.80
 -11   6  -3   22.70    4.70
 -11   6  -3   36.00   12.70
 -12   6  -3    0.00   11.70
 -12   6  -3    5.60    4.40
 -13   6  -3    0.50    4.00
 -13   6  -3   12.80   12.70
 -13   6  -3    0.10   10.70
 -13  -5   3   21.60    8.20
 -13  -5   3   17.30    6.90
 -13  -5   3   21.00    8.70
 -13  -5   3   36.90   13.10
 -12  -5   3    0.10   10.10
 -12  -5   3    8.80    7.00
 -12  -5   3    0.10    6.50
 -12  -5   3    0.10    5.60
 -11  -5   3    0.00    6.50
 -11  -5   3    1.60    5.20
 -11  -5   3    6.40   11.20
 -11  -5   3    1.00    5.90
 -10  -5   3    0.00    9.10
 -10  -5   3   10.70    6.40
 -10  -5   3   10.90    6.70
 -10  -5   3    5.40    5.50
   9   5  -3  212.90   14.60
  -9  -5   3  211.20   13.30
  -9  -5   3  190.30   11.80
  -9  -5   3  184.60   15.10
   8   5  -3  186.80   13.60
  -8  -5   3  216.30   12.80
  -8  -5   3  193.70   11.50
   7   5  -3  783.10   25.40
  -7  -5   3  757.20   25.00
  -7  -5   3  816.50   24.20
  -6  -5   3   17.30    5.10
  -6  -5   3   22.90    5.10
   5   5  -3  613.70   26.50
  -5  -5   3  609.90   26.10
  -5  -5   3  584.70   25.10
   4   5  -3  109.60    6.40
   4   5  -3  111.60    6.90
  -4  -5   3  112.70    6.70
  -4  -5   3   91.00    6.60
   3   5  -3   71.50    6.10
  -3  -5   3   58.40    6.00
  -3  -5   3   71.20    5.80
   2   5  -3 3274.00   96.40
  -2  -5   3 3094.60   95.60
  -2  -5   3 3224.00   95.20
   1   5  -3  350.10   24.10
  -1  -5   3  350.40   23.20
  -1  -5   3  335.90   23.70
   0   5  -3  291.20    8.40
   0   5  -3  290.60    7.40
   0  -5   3  285.30    8.10
  -1   5  -3  345.90   24.60
  -1   5  -3  341.50   25.40
   1  -5   3  340.10   24.90
   1  -5   3  311.90   22.10
  -2   5  -3  903.30   26.40
  -2   5  -3  846.30   20.80
   2  -5   3  871.10   17.20
   2  -5   3  904.60   21.40
  -3   5  -3  595.90   24.60
   3  -5   3  546.30   23.50
   3  -5   3  554.70   19.20
  -4   5  -3 1103.00   32.40
  -4   5  -3 1089.10   39.60
   4  -5   3 1111.20   33.00
   4  -5   3 1111.40   39.60
  -5   5  -3 1097.90   32.30
  -5   5  -3 1085.70   44.60
   5  -5   3 1093.00   41.10
   5  -5   3 1066.50   32.70
  -6   5  -3  138.80   15.10
  -6   5  -3   96.30    6.20
   6  -5   3  106.00    6.60
   6  -5   3   86.20   12.10
  -7   5  -3  200.40   16.40
  -7   5  -3  199.60    8.10
   7  -5   3  196.90   16.70
  -8   5  -3  109.90    6.50
  -8   5  -3  122.00   14.30
   8  -5   3  100.20   12.70
  -9   5  -3   30.60    4.60
  -9   5  -3   28.20   10.20
 -10   5  -3  197.40   17.80
 -10   5  -3  207.80    9.40
 -11   5  -3    2.30    4.40
 -11   5  -3    9.40   11.70
 -11   5  -3    0.20    8.90
 -12   5  -3   29.20    5.30
 -13   5  -3   26.10   12.60
 -13   5  -3   19.20    5.30
 -13   5  -3   11.90   13.20
 -14  -4   3    0.10    7.00
 -14  -4   3    3.30    7.80
 -14  -4   3    9.00    6.90
 -14  -4   3    1.40   11.50
 -13  -4   3  103.90   17.50
 -13  -4   3  130.70   14.80
 -13  -4   3  118.80   13.10
 -13  -4   3   82.40   10.90
 -12  -4   3   29.70   11.30
 -12  -4   3   16.70    8.50
 -12  -4   3   28.70    7.40
 -12  -4   3   39.40    8.40
 -11  -4   3   51.40    8.70
 -11  -4   3   44.50   12.80
 -11  -4   3   54.30    9.30
 -10  -4   3    0.60    7.00
 -10  -4   3    4.90    8.60
 -10  -4   3    0.20    6.10
 -10  -4   3    0.40    5.00
  -9  -4   3  337.80   21.40
  -9  -4   3  325.50   16.00
  -9  -4   3  333.20   15.80
  -9  -4   3  339.20   17.80
   8   4  -3  248.10   13.90
  -8  -4   3  255.40   12.80
  -8  -4   3  256.10   12.40
   7   4  -3    6.90    4.70
  -7  -4   3   19.80    4.70
  -7  -4   3   14.00    4.50
   6   4  -3    2.30    4.00
  -6  -4   3    5.90    4.30
  -6  -4   3   14.00    4.40
   5   4  -3  282.70   11.10
  -5  -4   3  290.80    9.70
  -5  -4   3  268.80    9.30
   4   4  -3  191.80   13.90
  -4  -4   3  205.90   14.00
  -4  -4   3  205.70   14.20
   3   4  -3 2386.60   63.50
   3   4  -3 2384.20   63.00
  -3  -4   3 2343.00   63.00
  -3  -4   3 2362.20   63.30
   2   4  -3 5497.50  150.90
   2   4  -3 5739.90  152.00
  -2  -4   3 5860.10  151.50
  -2  -4   3 5420.30  150.70
   1   4  -3    0.70    4.10
   1   4  -3    0.60    4.70
  -1  -4   3    0.20    4.50
  -1  -4   3    3.80    3.40
   0   4  -3   76.50   15.00
   0   4  -3   75.70   16.30
   0  -4   3   79.00   15.80
  -1   4  -3    8.90    9.10
  -2   4  -3    1.80    5.70
   2  -4   3    1.30    2.90
   2  -4   3    5.30    4.50
  -3   4  -3 1370.80   40.20
   3  -4   3 1353.80   34.20
  -4   4  -3 2447.30   74.90
  -4   4  -3 2457.50   83.00
   4  -4   3 2438.20   75.20
   4  -4   3 2491.00   83.10
  -5   4  -3  360.70   11.50
  -5   4  -3  369.70   19.30
   5  -4   3  335.90   19.20
  -6   4  -3  338.60   11.10
  -6   4  -3  349.00   20.00
   6  -4   3  342.30   19.60
  -7   4  -3  212.20    9.60
  -7   4  -3  206.70   17.60
   7  -4   3  192.80   16.90
  -8   4  -3  523.30   16.70
  -8   4  -3  496.70   26.20
   8  -4   3  491.50   25.50
  -9   4  -3    2.40    4.10
  -9   4  -3    0.00    9.20
 -10   4  -3  146.70   10.30
 -10   4  -3  123.80   17.20
 -10   4  -3  152.90   19.90
 -11   4  -3   13.00    9.50
 -11   4  -3    3.80   10.60
 -11   4  -3    6.70    4.90
 -12   4  -3   25.90   11.90
 -12   4  -3    4.30    5.00
 -12   4  -3    0.30    9.90
 -13   4  -3    0.20   10.70
 -13   4  -3   19.90   11.90
 -13   4  -3    3.80    5.40
 -14  -3   3    0.00    9.30
 -14  -3   3    0.10    7.90
 -14  -3   3    0.00   10.40
 -13  -3   3   71.00   11.90
 -13  -3   3   52.70    9.90
 -13  -3   3   46.90   12.60
 -12  -3   3   24.50   11.80
 -12  -3   3   36.40    8.60
 -12  -3   3   28.20   10.10
 -11  -3   3   40.80    9.20
 -11  -3   3   52.90   11.80
 -11  -3   3   56.60    8.10
 -10  -3   3   87.40    9.40
 -10  -3   3   83.80   13.50
 -10  -3   3   76.70   12.60
  -9  -3   3  387.00   22.60
  -9  -3   3  358.10   16.90
  -9  -3   3  383.20   19.90
  -8  -3   3  942.80   29.10
  -8  -3   3  960.80   35.60
   7   3  -3  186.50   10.30
  -7  -3   3  190.80    9.80
  -7  -3   3  212.80   15.20
   6   3  -3  514.40   18.20
  -6  -3   3  492.70   18.00
  -6  -3   3  534.30   17.30
   5   3  -3   40.70    4.70
  -5  -3   3   41.10    5.20
  -5  -3   3   47.40    4.50
   4   3  -3  229.80    7.70
  -4  -3   3  246.20    9.00
  -4  -3   3  249.70    7.90
   3   3  -3 3821.10  104.90
   3   3  -3 3826.90  106.30
  -3  -3   3 3714.90  104.90
  -3  -3   3 3778.80  106.30
   2   3  -3  666.80   20.30
   2   3  -3  635.70   18.70
  -2  -3   3  659.80   20.00
  -2  -3   3  640.80   18.70
   1   3  -3  179.90    3.90
   1   3  -3  185.40    4.90
  -1  -3   3  203.50    5.30
  -1  -3   3  203.80    4.60
   0   3  -3  389.50   24.90
   0   3  -3  389.70   26.00
   0  -3   3  374.40   25.60
  -1   3  -3    0.30    3.90
   1  -3   3    0.30    3.40
  -2   3  -3 1005.40   37.00
   2  -3   3 1046.00   32.00
  -3   3  -3 3519.40  100.80
   3  -3   3 3643.50  101.20
  -4   3  -3 1485.30   40.00
   4  -3   3 1451.00   40.40
  -5   3  -3    5.40    5.90
  -5   3  -3    2.60    1.70
   5  -3   3    0.20    5.30
  -6   3  -3  178.90   13.30
  -6   3  -3  215.80    6.70
   6  -3   3  218.80   13.00
  -7   3  -3   58.90   11.60
  -7   3  -3   60.60    6.20
   7  -3   3   57.80   11.70
  -8   3  -3  373.10   22.30
  -8   3  -3  396.20   15.50
   8  -3   3  375.50   22.70
  -9   3  -3   71.20   12.90
  -9   3  -3   72.00    7.90
  -9   3  -3   66.20   12.70
 -10   3  -3    5.60    9.10
 -10   3  -3    3.70    9.60
 -10   3  -3    1.30    4.70
 -11   3  -3  124.40   16.10
 -11   3  -3  112.90    9.80
 -11   3  -3  105.60   16.00
 -12   3  -3   31.00   11.20
 -12   3  -3   65.70    8.30
 -12   3  -3   57.50   14.30
 -13   3  -3  199.70   12.50
 -13   3  -3  158.50   18.50
 -13   3  -3  160.90   19.30
 -14  -2   3    4.00    7.90
 -14  -2   3    9.40   11.30
 -14  -2   3    0.40    9.50
 -13  -2   3    9.00    9.60
 -13  -2   3   10.00   11.20
 -13  -2   3    0.00    6.50
 -12  -2   3    0.00    8.50
 -12  -2   3   16.00   10.50
 -12  -2   3    2.30    6.40
 -11  -2   3   79.40   12.30
 -11  -2   3   67.50    9.00
 -11  -2   3   57.00   12.70
 -10  -2   3   38.70   11.50
 -10  -2   3   42.00    8.00
 -10  -2   3   34.90    9.40
  -9  -2   3   43.10    8.20
  -9  -2   3   45.80   11.30
  -9  -2   3   43.80   10.40
  -8  -2   3  590.10   26.30
  -8  -2   3  575.80   20.40
  -7  -2   3  536.30   24.60
  -7  -2   3  579.50   19.80
  -6  -2   3  537.80   23.40
  -6  -2   3  507.00   18.20
   5   2  -3 1338.30   45.30
  -5  -2   3 1317.60   50.00
  -5  -2   3 1380.30   44.80
   4   2  -3 1000.20   35.10
  -4  -2   3  971.50   37.10
  -4  -2   3  953.20   34.70
  -4  -2   3  968.40   39.50
   3   2  -3  346.20    7.50
  -3  -2   3  359.30   10.00
  -3  -2   3  366.60   11.90
  -3  -2   3  372.10    7.80
   2   2  -3 1274.40   41.00
   2   2  -3 1350.30   43.40
  -2  -2   3 1317.10   41.00
  -2  -2   3 1339.20   43.30
  -2  -2   3 1271.20   43.90
   1   2  -3  174.50   20.60
   1   2  -3  184.90   18.70
  -1  -2   3  187.80   20.10
  -1  -2   3  188.30   20.50
   0   2  -3   10.00   11.10
   0  -2   3    8.80    9.60
   0  -2   3    7.60   11.20
  -1   2  -3  239.40   14.80
   1  -2   3  246.10   14.80
   1  -2   3  247.00   11.80
  -2   2  -3 2162.20   77.50
   2  -2   3 2231.80   77.70
  -3   2  -3 3690.10  117.70
   3  -2   3 3591.60  118.30
  -4   2  -3  742.70   18.90
   4  -2   3  746.10   19.10
  -5   2  -3  105.40   12.00
  -5   2  -3  118.40    6.50
   5  -2   3  119.60   11.60
  -6   2  -3  184.20    7.30
  -6   2  -3  166.40   12.70
   6  -2   3  174.30   12.70
  -7   2  -3   59.70    8.60
  -7   2  -3   56.50    4.20
  -7   2  -3   64.10    8.40
   7  -2   3   46.90    6.80
  -8   2  -3  377.50   20.60
  -8   2  -3  366.90   14.20
  -8   2  -3  418.40   21.80
   8  -2   3  339.40   20.20
  -9   2  -3  341.90   23.40
  -9   2  -3  334.90   16.10
  -9   2  -3  345.90   22.60
 -10   2  -3   43.10   12.00
 -10   2  -3   30.70   10.90
 -10   2  -3   33.40    7.10
 -11   2  -3   57.00   12.40
 -11   2  -3   56.70   12.10
 -11   2  -3   61.90    7.90
 -12   2  -3   39.70    8.00
 -12   2  -3   46.00   12.70
 -12   2  -3   39.10   12.40
 -13   2  -3  181.20   19.90
 -13   2  -3  161.10   17.90
 -13   2  -3  187.80   11.80
 -13   2  -3  186.50   13.30
 -14  -1   3    4.40   11.50
 -14  -1   3    0.10    6.70
 -14  -1   3    8.30   11.00
 -13  -1   3    3.10   10.40
 -13  -1   3    0.00    7.10
 -13  -1   3   15.40   10.40
 -12  -1   3    2.10    7.10
 -12  -1   3   15.10   10.70
 -12  -1   3    3.90    9.60
 -11  -1   3   30.40   11.20
 -11  -1   3   20.70    7.60
 -11  -1   3   36.40   11.30
 -10  -1   3  131.60   15.50
 -10  -1   3  148.30   16.10
 -10  -1   3  149.40   12.20
  -9  -1   3  291.20   18.30
  -9  -1   3  260.00   14.00
  -9  -1   3  263.40   17.70
  -8  -1   3  628.40   27.40
  -8  -1   3  650.00   22.40
  -7  -1   3  600.90   24.10
  -7  -1   3  627.30   29.40
  -6  -1   3  234.30   12.60
  -6  -1   3  242.70   17.30
  -5  -1   3 2450.70   71.70
  -5  -1   3 2346.00   76.60
  -4  -1   3  784.70   32.10
  -4  -1   3  752.70   36.90
  -3  -1   3  394.10   28.40
  -3  -1   3  412.50   27.40
  -2  -1   3 3883.00  190.50
   1   1  -3  316.30   21.40
   1   1  -3  318.90   21.80
  -1  -1   3  326.50   21.50
  -1  -1   3  336.30   22.00
   0   1  -3  109.70   15.40
   0  -1   3  116.20   17.00
   0  -1   3  117.00   15.50
  -1   1  -3 4337.90  116.10
  -1   1  -3 4339.70  113.40
   1  -1   3 4474.60  113.50
   1  -1   3 4379.10  116.30
  -2   1  -3   92.20    6.20
  -2   1  -3   80.90    9.40
   2  -1   3   89.50    9.60
   2  -1   3   95.40    6.40
  -3   1  -3  329.00   12.40
  -3   1  -3  295.20   16.30
   3  -1   3  318.40   16.90
  -4   1  -3  830.40   32.80
  -4   1  -3  807.20   33.30
  -4   1  -3  780.30   28.10
   4  -1   3  846.00   33.40
  -5   1  -3  267.10    9.80
  -5   1  -3  285.00   14.30
  -5   1  -3  286.10   15.30
   5  -1   3  274.80   14.50
  -6   1  -3  190.20   12.30
  -6   1  -3  204.00   15.80
  -6   1  -3  213.00    8.80
   6  -1   3  211.00   12.60
  -7   1  -3   28.10    7.90
  -7   1  -3   31.50    5.60
  -7   1  -3   32.60    8.70
   7  -1   3   40.10    8.90
  -8   1  -3   39.90    9.90
  -8   1  -3   56.40    7.40
   8  -1   3   53.00   10.20
  -9   1  -3 1307.30   45.50
  -9   1  -3 1317.60   39.70
  -9   1  -3 1266.90   44.00
 -10   1  -3    0.60    8.00
 -10   1  -3    0.40    5.90
 -10   1  -3    9.40    8.90
 -11   1  -3   26.10   10.20
 -11   1  -3   33.60    7.30
 -11   1  -3   45.50   11.00
 -12   1  -3    0.50    9.00
 -12   1  -3    2.50    5.70
 -12   1  -3   10.00   10.40
 -12   1  -3    7.70    7.20
 -13   1  -3   12.10   11.10
 -13   1  -3   17.20    5.90
 -13   1  -3    0.20    8.90
 -13   1  -3   23.00    8.40
 -14   0   3   33.40   13.80
 -14   0   3   30.70    9.50
 -14   0   3   31.30   12.90
 -13   0   3    8.10   10.90
 -13   0   3    0.30    9.40
 -13   0   3    0.80    7.50
 -12   0   3   19.10    9.60
 -12   0   3   31.80   10.60
 -12   0   3   14.30    7.10
 -11   0   3   36.70   10.30
 -11   0   3   24.10   10.00
 -11   0   3   38.50    8.70
 -10   0   3  128.90   14.30
 -10   0   3  119.80   11.20
 -10   0   3  132.50   15.00
  -9   0   3  507.60   21.60
  -9   0   3  483.90   25.70
  -9   0   3  468.30   26.10
  -8   0   3  384.30   21.10
  -8   0   3  404.50   16.90
  -7   0   3   77.10   10.30
  -7   0   3   65.00    6.70
  -6   0   3  851.50   24.40
  -6   0   3  916.00   20.70
  -5   0   3   51.90    7.30
  -5   0   3   54.30    4.80
   4   0  -3  559.60   21.10
  -4   0   3  563.90   16.50
  -4   0   3  555.50   20.80
   3   0  -3  942.60   61.80
  -3   0   3  953.70   56.60
  -3   0   3  870.40   61.10
   2   0  -3 2796.70   78.90
   2   0  -3 2764.90   82.70
  -2   0   3 2888.80   78.80
  -2   0   3 2881.80   82.80
   1   0  -3  170.70   13.40
   1   0  -3  174.00   13.40
   1   0  -3  182.70   11.50
  -1   0   3  178.70   13.40
  -1   0   3  184.90   11.60
  -1   0   3  181.60   13.60
   0   0  -3 2742.30  126.30
   0   0  -3 2681.10  125.90
   0   0  -3 2729.70  127.10
   0   0   3 2676.20  126.00
   0   0   3 2726.90  127.30
   0   0   3 2695.60  126.20
   1   0   3 7311.80  167.10
   1   0   3 7060.60  166.40
  -2   0  -3  698.30   17.40
  -2   0  -3  683.10   17.20
  -2   0  -3  666.80   14.90
   2   0   3  694.00   17.40
   2   0   3  705.20   15.50
  -3   0  -3 1148.80   38.70
  -3   0  -3 1150.50   35.40
  -3   0  -3 1196.70   38.00
   3   0   3 1206.90   38.40
  -4   0  -3  711.60   25.90
  -4   0  -3  747.70   25.00
  -4   0  -3  730.10   22.30
   4   0   3  719.40   25.20
  -5   0  -3   61.90    6.70
  -5   0  -3   52.50    7.10
  -5   0  -3   63.50    5.40
   5   0   3   57.00    6.90
  -6   0  -3   31.90    6.50
  -6   0  -3   36.00    4.60
   6   0   3   41.40    7.00
  -7   0  -3  843.80   30.50
  -7   0  -3  833.70   28.10
  -7   0  -3  839.10   26.80
   7   0   3  814.00   29.00
  -8   0  -3    9.60    7.30
  -8   0  -3   19.40    5.90
  -8   0  -3   25.30    7.30
   8   0   3   11.70    6.50
  -9   0  -3  583.10   24.60
  -9   0  -3  568.00   22.00
  -9   0  -3  613.60   27.20
 -10   0  -3   35.70    9.10
 -10   0  -3   37.50    7.00
 -10   0  -3   36.50   10.40
 -10   0  -3   37.10    8.20
 -11   0  -3   84.40    9.60
 -11   0  -3   79.50   13.60
 -11   0  -3   88.30   11.00
 -11   0  -3   81.10   12.90
 -12   0  -3  115.70   15.80
 -12   0  -3   94.50   13.20
 -12   0  -3   90.50    9.60
 -12   0  -3   82.20   11.00
 -13   0  -3   23.10   10.50
 -13   0  -3   16.60    8.70
 -13   0  -3    0.00    9.90
 -13   0  -3    0.00    5.60
 -14   1   3   82.90   23.80
 -14   1   3  111.20   16.00
 -14   1   3   70.70   11.00
 -13   1   3    1.50    7.90
 -13   1   3   13.60   11.50
 -13   1   3   24.60   11.70
 -12   1   3   18.00   10.40
 -12   1   3   25.40    9.10
 -12   1   3   26.60   12.40
 -11   1   3   27.90    7.80
 -11   1   3   24.30   10.80
 -11   1   3   44.50   10.80
 -10   1   3  149.60   12.10
 -10   1   3  137.90   15.70
 -10   1   3  145.80   14.40
  -9   1   3  476.60   24.40
  -9   1   3  463.90   22.50
  -9   1   3  481.70   19.70
  -8   1   3   18.20    5.70
  -8   1   3   10.60    7.60
  -7   1   3   23.80    6.60
  -7   1   3   16.00    4.40
   6  -1  -3  172.90   16.60
  -6   1   3  168.10   15.80
  -5   1   3    5.10    4.60
   4  -1  -3 9697.10  196.70
  -4   1   3 9476.30  196.10
  -4   1   3 9783.30  192.20
  -3   1   3 3315.10  118.10
  -3   1   3 3381.70  114.50
   2  -1  -3    2.60    3.30
   2  -1  -3    2.90    1.90
  -2   1   3    3.50    3.20
  -2   1   3    1.30    1.50
   1  -1  -3  339.50    4.80
   1  -1  -3  331.20    3.50
  -1   1   3  332.50    4.80
  -1   1   3  323.10    3.40
  -1   1   3  317.70    4.50
   0  -1  -3    4.80    3.90
   0  -1  -3    5.60    4.20
   0  -1  -3    5.70    4.20
   0   1   3    6.90    4.40
   0   1   3    5.20    4.30
   0   1   3    5.30    4.20
  -1  -1  -3  707.40   27.50
  -1  -1  -3  697.20   27.20
  -1  -1  -3  686.90   27.80
   1   1   3  712.40   28.10
   1   1   3  724.20   27.60
   1   1   3  674.30   27.90
  -2  -1  -3  647.80   30.40
  -2  -1  -3  652.50   29.30
  -2  -1  -3  657.10   28.90
   2   1   3  636.50   30.00
   2   1   3  643.80   29.20
  -3  -1  -3 1126.40   32.40
  -3  -1  -3 1107.80   31.60
  -3  -1  -3 1116.40   33.80
   3   1   3 1162.50   32.90
   3   1   3 1176.90   34.50
  -4  -1  -3   42.60    4.60
  -4  -1  -3   33.50    5.40
  -4  -1  -3   46.30    4.40
   4   1   3   54.20    6.10
   4   1   3   51.60    5.10
  -5  -1  -3  180.50   10.70
  -5  -1  -3  173.00   11.90
  -5  -1  -3  152.60    9.30
   5   1   3  164.30   10.70
  -6  -1  -3   43.20    6.20
  -6  -1  -3   55.00    7.80
  -6  -1  -3   51.50    5.30
   6   1   3   47.30    6.20
  -7  -1  -3 1519.10   47.80
  -7  -1  -3 1512.60   49.70
  -7  -1  -3 1571.90   52.50
   7   1   3 1526.50   51.10
  -8  -1  -3  175.00   10.60
  -8  -1  -3  194.20   15.70
  -8  -1  -3  196.50   13.20
  -9  -1  -3   74.30   10.20
  -9  -1  -3   66.30    8.20
  -9  -1  -3   74.30   12.50
 -10  -1  -3  301.60   18.90
 -10  -1  -3  348.10   22.50
 -10  -1  -3  308.10   18.30
 -10  -1  -3  304.10   16.30
 -11  -1  -3   26.20    7.10
 -11  -1  -3   39.00    9.70
 -11  -1  -3   26.90   11.20
 -11  -1  -3   13.50    7.80
 -12  -1  -3    0.80    9.30
 -12  -1  -3    5.90    8.40
 -12  -1  -3    1.50    8.10
 -12  -1  -3    0.70    5.90
 -13  -1  -3   56.30   11.20
 -13  -1  -3   33.20   11.20
 -13  -1  -3   40.10    9.00
 -13  -1  -3   45.80   13.50
 -14   2   3   62.20   13.90
 -14   2   3   48.00   15.20
 -14   2   3   33.50    9.80
 -13   2   3   17.90    9.20
 -13   2   3    4.30   11.30
 -13   2   3   11.40   11.00
 -12   2   3   24.60    8.10
 -12   2   3   28.70   10.70
 -12   2   3   37.70   12.60
 -11   2   3  131.10   12.20
 -11   2   3  157.10   17.70
 -11   2   3  136.30   14.90
 -10   2   3  152.20   13.70
 -10   2   3  172.90   17.80
 -10   2   3  165.70   16.00
  -9   2   3  180.50   12.80
  -9   2   3  191.40   15.30
  -9   2   3  188.90   16.30
   8  -2  -3  232.10   17.70
  -8   2   3  271.50   20.80
  -8   2   3  256.60   18.10
   7  -2  -3   38.10    9.90
  -7   2   3   41.40    9.20
   6  -2  -3   18.30    7.30
  -6   2   3   20.30    7.90
  -6   2   3   33.30    6.20
   5  -2  -3   80.40   14.10
  -5   2   3   83.10   11.30
  -5   2   3   86.40   14.60
   4  -2  -3 2868.10   88.00
  -4   2   3 2828.00   87.40
  -4   2   3 2802.60   84.10
   3  -2  -3  310.10    8.30
   3  -2  -3  328.20    6.40
  -3   2   3  362.80    9.20
  -3   2   3  318.00    6.10
   2  -2  -3   80.10   23.70
   2  -2  -3   66.70   21.30
  -2   2   3   68.40   20.80
  -2   2   3   69.60   23.10
   1  -2  -3  738.30   23.90
   1  -2  -3  736.70   22.30
  -1   2   3  714.10   22.10
  -1   2   3  756.90   23.90
   0  -2  -3   27.80    7.90
   0  -2  -3   27.50    7.40
   0   2   3   23.60    7.10
   0   2   3   21.70    7.70
   0   2   3   26.00    7.50
  -1  -2  -3 1330.50   29.60
  -1  -2  -3 1279.20   28.40
  -1  -2  -3 1311.50   29.60
   1   2   3 1344.50   30.00
   1   2   3 1356.80   29.90
   1   2   3 1334.60   29.10
  -2  -2  -3 1945.40   36.10
  -2  -2  -3 1890.30   33.90
  -2  -2  -3 1871.30   35.00
   2   2   3 1893.10   36.10
   2   2   3 1871.20   35.50
   2   2   3 1893.30   34.80
  -3  -2  -3  654.40   27.70
  -3  -2  -3  659.80   26.20
  -3  -2  -3  675.60   25.30
   3   2   3  715.30   27.00
   3   2   3  645.00   25.80
   3   2   3  627.10   28.20
  -4  -2  -3   12.40    4.20
  -4  -2  -3    5.60    5.10
   4   2   3   14.60    5.60
   4   2   3   14.80    4.00
  -5  -2  -3   79.70   10.10
  -5  -2  -3   71.40    8.40
  -5  -2  -3   78.40    8.20
   5   2   3   82.70    8.30
   5   2   3   77.90   10.30
  -6  -2  -3   25.70    6.30
  -6  -2  -3   28.80    5.10
  -6  -2  -3   22.70    4.80
   6   2   3   16.90    5.80
   6   2   3   18.90    4.50
  -7  -2  -3 1217.80   39.00
  -7  -2  -3 1207.30   38.90
  -7  -2  -3 1269.60   42.90
   7   2   3 1245.30   39.80
  -8  -2  -3  318.00   18.30
  -8  -2  -3  297.30   15.20
  -8  -2  -3  285.40   14.30
  -9  -2  -3  154.20   12.90
  -9  -2  -3  169.00   12.00
  -9  -2  -3  179.20   15.60
 -10  -2  -3  573.60   23.90
 -10  -2  -3  574.10   28.10
 -10  -2  -3  546.90   22.80
 -11  -2  -3  127.00   13.20
 -11  -2  -3  132.50   15.70
 -11  -2  -3  120.70   14.30
 -11  -2  -3  144.70   18.00
 -12  -2  -3  389.20   19.50
 -12  -2  -3  394.80   22.50
 -12  -2  -3  467.40   42.40
 -12  -2  -3  397.40   21.30
 -13  -2  -3   11.50    9.30
 -13  -2  -3    8.70    9.40
 -13  -2  -3    2.20    7.10
 -13  -2  -3   11.80   11.60
 -14   3   3   26.20   13.80
 -14   3   3    0.80   10.40
 -14   3   3   17.00    8.60
 -14   3   3    8.00    8.20
 -13   3   3    8.60    8.10
 -13   3   3   39.30   10.10
 -13   3   3   21.40   14.70
 -13   3   3   21.10   10.00
 -12   3   3   39.90    9.10
 -12   3   3   60.20   12.80
 -12   3   3   70.30   11.10
 -12   3   3   52.30    9.80
 -11   3   3  250.80   23.30
 -11   3   3  242.20   16.20
 -11   3   3  257.10   18.90
 -11   3   3  262.70   17.00
 -10   3   3   38.00   13.00
 -10   3   3   27.80    8.00
 -10   3   3   25.50    9.40
   9  -3  -3    3.40    6.80
  -9   3   3    0.30    7.40
  -9   3   3    0.80    8.40
  -9   3   3    0.40    6.00
   8  -3  -3 1022.50   31.70
  -8   3   3 1092.60   35.30
  -8   3   3 1034.70   28.20
  -8   3   3 1060.50   31.20
   7  -3  -3  463.00   22.00
  -7   3   3  477.50   18.80
  -7   3   3  481.50   21.60
   6  -3  -3 4180.40  144.10
  -6   3   3 4461.80  142.80
  -6   3   3 4321.10  143.30
   5  -3  -3 1553.30   33.20
  -5   3   3 1603.90   32.60
  -5   3   3 1620.20   30.10
   4  -3  -3 1654.20   53.60
   4  -3  -3 1644.80   56.30
  -4   3   3 1626.90   55.00
  -4   3   3 1719.80   52.90
   3  -3  -3  257.90   22.20
   3  -3  -3  276.40   20.70
  -3   3   3  273.70   21.80
  -3   3   3  264.70   19.90
   2  -3  -3  201.70    8.00
   2  -3  -3  234.30    7.70
  -2   3   3  202.30    6.50
  -2   3   3  198.90    7.70
   1  -3  -3  113.90    8.10
  -1   3   3  113.10    8.80
  -1   3   3  118.80    7.50
   0  -3  -3   11.00    3.60
   0   3   3   12.50    3.50
   0   3   3   11.00    3.80
  -1  -3  -3 3114.00   91.70
   1   3   3 3069.00   90.30
   1   3   3 3046.80   91.90
   1   3   3 3130.20   92.60
  -2  -3  -3   47.40    4.60
  -2  -3  -3   41.70    2.90
  -2  -3  -3   54.50    4.40
   2   3   3   38.80    4.30
   2   3   3   48.00    3.50
   2   3   3   60.30    4.90
  -3  -3  -3  829.10   26.40
  -3  -3  -3  797.40   25.50
  -3  -3  -3  812.10   22.80
   3   3   3  795.00   26.00
   3   3   3  806.40   26.70
   3   3   3  812.40   23.80
  -4  -3  -3    9.30    5.50
  -4  -3  -3    8.20    5.10
  -4  -3  -3   12.30    3.40
   4   3   3   12.70    3.50
   4   3   3   14.70    4.90
  -5  -3  -3  473.80   20.30
  -5  -3  -3  476.60   23.20
   5   3   3  465.70   20.70
   5   3   3  460.80   25.00
  -6  -3  -3    1.20    6.30
  -6  -3  -3   14.20    5.30
  -6  -3  -3    5.20    4.20
   6   3   3   17.40    4.20
   6   3   3    1.20    5.60
  -7  -3  -3   47.10    8.50
  -7  -3  -3   37.70    5.80
  -7  -3  -3   42.30    6.80
   7   3   3   49.40    8.70
  -8  -3  -3 1019.20   37.00
  -8  -3  -3 1078.20   35.50
  -8  -3  -3 1039.00   40.20
  -9  -3  -3   50.00    7.50
  -9  -3  -3   53.50    8.60
  -9  -3  -3   62.70   11.60
 -10  -3  -3  364.00   22.60
 -10  -3  -3  375.10   18.50
 -10  -3  -3  372.20   19.40
 -11  -3  -3   92.90   14.30
 -11  -3  -3   76.00    9.60
 -11  -3  -3   77.00   10.50
 -12  -3  -3  144.40   15.80
 -12  -3  -3  177.70   18.10
 -12  -3  -3  152.20   14.30
 -12  -3  -3  175.00   15.80
 -13  -3  -3    0.40    7.70
 -13  -3  -3    2.90   10.60
 -13  -3  -3    0.30    6.70
 -13  -3  -3    0.30    8.20
 -14   4   3    4.40   10.10
 -14   4   3   10.20    9.00
 -14   4   3   10.20   14.20
 -14   4   3   22.40    9.60
 -13   4   3    6.20    8.00
 -13   4   3    0.40   12.00
 -13   4   3    0.90    8.80
 -13   4   3    0.00    8.20
 -12   4   3   18.30    9.40
 -12   4   3    5.70    7.90
 -12   4   3    0.00    7.00
 -12   4   3    1.80    9.90
 -11   4   3   46.80   11.20
 -11   4   3   62.50   10.50
 -11   4   3   48.50   14.30
  10  -4  -3  132.90   13.10
 -10   4   3  171.30   17.60
 -10   4   3  127.30   12.30
 -10   4   3  147.10   11.40
   9  -4  -3    0.40    7.90
  -9   4   3    3.30   11.00
  -9   4   3    5.70    7.50
  -9   4   3    7.10    9.00
   8  -4  -3  416.40   23.40
  -8   4   3  445.40   27.50
  -8   4   3  406.80   22.50
  -8   4   3  438.50   20.50
   7  -4  -3   17.10   10.40
  -7   4   3   35.50   14.50
  -7   4   3   26.10   13.10
  -7   4   3   25.20   10.00
   6  -4  -3 1288.70   30.10
  -6   4   3 1286.00   29.00
  -6   4   3 1267.60   26.80
   5  -4  -3 1454.90   48.00
  -5   4   3 1416.70   46.40
  -5   4   3 1437.30   44.50
   4  -4  -3    2.50    6.90
   4  -4  -3    1.90    5.80
  -4   4   3    5.40    6.80
   3  -4  -3 1338.20   26.70
  -3   4   3 1330.70   27.20
   2  -4  -3  611.30   18.10
   2  -4  -3  599.20   17.20
  -2   4   3  582.10   17.30
   1  -4  -3  132.10    8.40
   1  -4  -3  161.30    8.10
  -1   4   3  154.50    8.60
  -1   4   3  149.90    7.20
   0  -4  -3   77.30   11.30
   0  -4  -3   88.90   10.80
   0   4   3   91.80   10.80
  -1  -4  -3 1168.10   42.50
  -1  -4  -3 1236.70   42.20
   1   4   3 1266.20   43.50
   1   4   3 1258.20   40.40
   1   4   3 1269.90   42.60
  -2  -4  -3 2106.50   42.60
  -2  -4  -3 2171.00   42.60
   2   4   3 2154.70   43.20
   2   4   3 2121.00   43.50
   2   4   3 2121.70   40.00
  -3  -4  -3  767.90   32.30
  -3  -4  -3  736.50   32.20
   3   4   3  753.00   32.90
   3   4   3  759.40   29.10
   3   4   3  763.60   33.00
  -4  -4  -3   13.80    6.50
  -4  -4  -3   14.30    3.50
  -4  -4  -3   10.60    6.10
   4   4   3    8.80    6.70
   4   4   3   14.70    4.10
  -5  -4  -3  798.90   26.50
  -5  -4  -3  813.30   25.50
  -5  -4  -3  782.40   20.80
   5   4   3  822.40   28.10
   5   4   3  787.20   21.40
  -6  -4  -3   12.80    6.00
  -6  -4  -3    0.20    3.20
  -6  -4  -3    3.10    6.70
   6   4   3    3.90    3.20
   6   4   3    0.90    6.10
  -7  -4  -3  383.00   20.10
  -7  -4  -3  388.30   14.40
  -7  -4  -3  391.20   18.40
   7   4   3  401.00   21.20
  -8  -4  -3 1013.20   36.30
  -8  -4  -3 1033.90   31.90
  -8  -4  -3 1052.20   38.90
   8   4   3  989.20   39.80
  -9  -4  -3    2.00    8.10
  -9  -4  -3    7.80    5.00
  -9  -4  -3   12.30    6.20
 -10  -4  -3   93.80   13.90
 -10  -4  -3  104.80   12.00
 -10  -4  -3  112.20   10.00
 -11  -4  -3    0.20    7.50
 -11  -4  -3    3.00    5.90
 -11  -4  -3    3.10    7.50
 -12  -4  -3   42.20    8.10
 -12  -4  -3   33.30    9.30
 -12  -4  -3   46.10   12.20
 -13  -4  -3   15.10   11.20
 -13  -4  -3   24.30    6.90
 -13  -4  -3   19.70   10.40
 -14   5   3    0.40   13.30
 -14   5   3   10.60    9.20
 -14   5   3   13.70   10.30
 -14   5   3   12.80    9.80
 -13   5   3   21.30   12.40
 -13   5   3   11.90    9.60
 -13   5   3   15.30    9.50
 -13   5   3    4.60    7.70
 -12   5   3   13.20    7.80
 -12   5   3   25.80   14.80
 -12   5   3   23.10   10.10
  11  -5  -3    0.40    8.20
 -11   5   3    1.40    7.20
 -11   5   3    8.50   11.00
 -11   5   3    2.80    8.20
  10  -5  -3  585.20   30.90
 -10   5   3  625.40   30.40
 -10   5   3  579.00   27.80
 -10   5   3  685.00   37.50
   9  -5  -3  120.80   12.30
  -9   5   3  112.60   10.00
  -9   5   3  107.50   13.90
  -9   5   3  124.30   11.50
   8  -5  -3   30.20    7.30
  -8   5   3   10.50    7.00
  -8   5   3   26.00    8.50
  -8   5   3   18.90    5.50
   7  -5  -3    1.50    7.60
  -7   5   3    1.20    6.80
  -7   5   3    0.70   10.00
  -7   5   3    1.20    7.60
   6  -5  -3   81.80   13.00
  -6   5   3  116.60   13.10
  -6   5   3   91.70   10.50
   5  -5  -3  728.60   22.20
  -5   5   3  738.90   21.00
   4  -5  -3  115.20   11.00
   4  -5  -3  107.80   11.90
  -4   5   3   91.80   10.70
  -4   5   3  106.20    9.70
   3  -5  -3 1622.40   56.00
   3  -5  -3 1678.50   55.40
  -3   5   3 1605.40   54.80
  -3   5   3 1676.80   54.00
   2  -5  -3  288.90   17.50
   2  -5  -3  339.70   17.90
  -2   5   3  302.80   17.10
  -2   5   3  299.10   16.00
   1  -5  -3   89.90   11.40
   1  -5  -3   87.10   11.30
  -1   5   3   97.00   10.80
  -1   5   3   92.30   11.40
   0  -5  -3  355.90   18.40
   0  -5  -3  345.50   17.70
   0   5   3  340.40   18.20
   0   5   3  294.60   16.70
  -1  -5  -3 2109.20   60.40
  -1  -5  -3 1991.90   60.90
   1   5   3 2073.20   61.70
   1   5   3 1997.80   60.30
  -2  -5  -3 1560.90   53.90
  -2  -5  -3 1499.40   53.10
   2   5   3 1602.60   50.30
   2   5   3 1534.60   53.90
   2   5   3 1699.70   55.80
  -3  -5  -3  213.40   13.20
  -3  -5  -3  226.80   13.50
   3   5   3  208.50   10.20
   3   5   3  210.40   14.00
   3   5   3  205.60   13.40
  -4  -5  -3 1023.30   33.40
  -4  -5  -3  991.40   33.50
   4   5   3  952.90   33.90
   4   5   3  954.50   27.30
  -5  -5  -3   13.10    6.30
  -5  -5  -3   15.70    6.60
   5   5   3   12.00    2.30
   5   5   3   11.50    6.50
  -6  -5  -3  626.50   24.50
  -6  -5  -3  566.20   22.60
   6   5   3  602.10   24.80
  -7  -5  -3  328.80   18.10
  -7  -5  -3  359.00   20.20
   7   5   3  322.30   30.70
  -8  -5  -3  329.10    9.90
  -8  -5  -3  328.20   16.90
  -8  -5  -3  368.80   19.70
   8   5   3  346.10   20.60
  -9  -5  -3  134.80    7.30
  -9  -5  -3  163.30   16.20
  -9  -5  -3  121.60   12.30
 -10  -5  -3   36.50    4.90
 -10  -5  -3   25.20   10.60
 -10  -5  -3   23.90    8.80
 -11  -5  -3   21.70    4.60
 -11  -5  -3   15.70    8.60
 -11  -5  -3   34.80   14.30
 -12  -5  -3   44.50    5.30
 -12  -5  -3   46.90   12.40
 -13   6   3   23.00   13.20
 -13   6   3   10.90    8.50
 -13   6   3    0.50    9.00
 -12   6   3   51.70   17.40
 -12   6   3   36.70   12.00
 -12   6   3   29.10   10.60
  11  -6  -3   20.70    8.80
 -11   6   3   27.50    9.40
 -11   6   3   23.30   16.20
 -11   6   3   49.60    9.20
  10  -6  -3  304.60   20.00
 -10   6   3  298.80   19.30
 -10   6   3  266.60   16.60
 -10   6   3  302.60   23.20
   9  -6  -3    6.10    8.70
  -9   6   3    5.50   10.50
  -9   6   3    0.30    7.10
  -9   6   3    3.10    8.60
   8  -6  -3   38.20   13.20
  -8   6   3   43.00   11.30
  -8   6   3   30.50   13.90
  -8   6   3   38.70   12.40
   7  -6  -3  400.30   21.30
  -7   6   3  442.80   24.50
  -7   6   3  461.20   20.90
  -7   6   3  446.70   19.20
   6  -6  -3   65.30    8.10
  -6   6   3   98.60    9.00
  -6   6   3   96.60    7.60
  -6   6   3   89.20    9.50
   5  -6  -3 2061.50   69.60
   5  -6  -3 2065.10   68.80
  -5   6   3 2041.30   66.20
  -5   6   3 2112.30   68.00
   4  -6  -3  308.80   17.60
   4  -6  -3  294.00   18.20
  -4   6   3  301.80   15.90
  -4   6   3  301.80   17.00
   3  -6  -3  422.70   18.90
   3  -6  -3  425.70   19.30
  -3   6   3  398.60   18.00
  -3   6   3  402.60   17.00
   2  -6  -3   59.50    6.40
   2  -6  -3   62.60    6.80
  -2   6   3   70.00    5.90
  -2   6   3   61.10    5.70
   1  -6  -3   12.10    6.70
   1  -6  -3   11.90    6.20
  -1   6   3   10.10    5.20
  -1   6   3    9.90    6.20
   0  -6  -3  946.80   34.30
   0  -6  -3  942.10   33.50
   0   6   3  988.20   33.50
   0   6   3  995.60   34.80
  -1  -6  -3  543.80   17.60
  -1  -6  -3  529.80   17.90
   1   6   3  545.30   19.10
   1   6   3  538.40   17.40
  -2  -6  -3 1175.00   48.30
  -2  -6  -3 1212.30   51.20
   2   6   3 1145.50   43.50
   2   6   3 1142.40   47.90
   2   6   3 1184.80   49.60
  -3  -6  -3 1257.40   44.30
  -3  -6  -3 1292.40   44.10
   3   6   3 1236.60   44.90
   3   6   3 1229.20   39.50
  -4  -6  -3 1182.40   42.00
  -4  -6  -3 1235.20   41.90
   4   6   3 1168.80   43.00
   4   6   3 1156.70   34.50
  -5  -6  -3  412.40   19.60
  -5  -6  -3  448.20   20.30
   5   6   3  433.20   21.20
  -6  -6  -3 1185.90   40.40
  -6  -6  -3 1177.30   40.80
   6   6   3 1123.90   42.00
  -7  -6  -3  125.90   13.80
  -7  -6  -3  130.70   13.10
   7   6   3  129.00   14.20
  -8  -6  -3    5.80    7.70
  -8  -6  -3    0.30    7.90
   8   6   3    0.80    7.40
  -9  -6  -3    5.30    9.30
  -9  -6  -3    9.50    7.50
 -10  -6  -3   61.80   11.10
 -10  -6  -3   65.90   12.60
 -11  -6  -3    0.40    9.80
 -12  -6  -3  115.50   15.20
 -13   7   3   40.20   16.70
 -13   7   3   37.90   12.00
  12  -7  -3  245.70   19.50
 -12   7   3  225.50   16.20
 -12   7   3  279.10   19.20
 -12   7   3  271.30   25.50
  11  -7  -3  120.40   16.70
 -11   7   3  149.10   16.30
 -11   7   3  150.10   21.60
 -11   7   3  126.80   14.80
  10  -7  -3   10.30    8.90
 -10   7   3   14.40   11.00
 -10   7   3    0.80    6.70
 -10   7   3    6.70    7.80
   9  -7  -3    9.70    7.90
  -9   7   3   48.20   11.00
  -9   7   3   44.10    8.60
  -9   7   3   31.20    6.80
   8  -7  -3   88.70   14.30
  -8   7   3  109.90   17.10
  -8   7   3  122.70   14.50
  -8   7   3  104.60   12.50
   7  -7  -3   18.60    9.70
  -7   7   3   20.00    8.40
  -7   7   3   26.60    9.30
  -7   7   3   15.60   10.10
   6  -7  -3    9.20   10.00
  -6   7   3   38.20   13.00
  -6   7   3   27.40    9.90
  -6   7   3   24.20    9.90
   5  -7  -3 1111.10   44.70
   5  -7  -3 1101.40   43.80
  -5   7   3 1143.50   41.90
  -5   7   3 1192.50   46.20
  -5   7   3 1123.90   41.30
   4  -7  -3   13.10    7.90
   4  -7  -3   22.90    8.10
  -4   7   3    3.50    6.40
  -4   7   3   16.60    5.90
  -4   7   3   10.60    6.20
   3  -7  -3  368.20   23.20
   3  -7  -3  320.70   21.70
  -3   7   3  367.20   20.90
  -3   7   3  357.10   21.70
   2  -7  -3   10.00    7.70
   2  -7  -3   10.70    7.90
  -2   7   3    4.30    6.60
   1  -7  -3  592.30   19.50
   1  -7  -3  600.90   19.20
  -1   7   3  596.60   18.00
   0  -7  -3  730.10   28.50
   0   7   3  784.80   29.50
   0   7   3  744.60   27.30
  -1  -7  -3   95.20    7.90
  -1  -7  -3   82.80    8.00
   1   7   3  101.00    8.60
   1   7   3  107.90    9.30
  -2  -7  -3 1824.70   48.30
  -2  -7  -3 1928.40   47.70
   2   7   3 1840.50   48.20
   2   7   3 1848.50   43.10
   2   7   3 1947.00   49.90
  -3  -7  -3  613.20   25.70
  -3  -7  -3  576.80   25.20
   3   7   3  591.20   27.10
   3   7   3  565.70   20.00
   3   7   3  581.30   19.30
   3   7   3  595.60   25.80
  -4  -7  -3   14.10    7.20
  -4  -7  -3    6.50    7.20
   4   7   3    9.60    7.20
  -5  -7  -3  517.40   22.20
  -5  -7  -3  512.00   22.00
   5   7   3  540.80   23.70
  -6  -7  -3  997.00   38.40
  -6  -7  -3  893.30   37.30
   6   7   3  922.30   39.40
  -7  -7  -3  127.40   13.30
  -7  -7  -3  103.00   13.20
   7   7   3  109.50   14.20
  -8  -7  -3  605.00   26.70
  -8  -7  -3  566.60   25.80
  -9  -7  -3  513.10   25.70
  -9  -7  -3  575.20   27.00
 -10  -7  -3  159.40   18.10
 -11  -7  -3  164.30   17.30
 -12  -7  -3   84.80   15.90
 -13   8   3    0.10    9.20
 -13   8   3    6.40   12.90
 -12   8   3  110.90   21.70
 -12   8   3   87.30   14.10
  11  -8  -3    1.10    8.80
 -11   8   3    1.40    9.10
 -11   8   3    0.30    7.50
 -11   8   3    1.10   11.40
  10  -8  -3   22.40   10.20
 -10   8   3   31.00   11.90
 -10   8   3   32.20    8.70
 -10   8   3   47.00   10.10
  -9   8   3  325.50   26.10
  -9   8   3  284.70   18.90
  -9   8   3  306.00   19.90
   8  -8  -3  133.90   16.90
  -8   8   3  118.90   13.60
  -8   8   3  125.00   18.30
  -8   8   3  149.50   15.50
   7  -8  -3  294.60   20.00
  -7   8   3  310.90   21.00
  -7   8   3  255.50   16.20
  -7   8   3  279.40   17.10
   6  -8  -3  124.90   14.80
  -6   8   3  120.70   15.30
  -6   8   3  142.20   13.40
  -6   8   3  157.90   14.60
   5  -8  -3   22.40    9.40
   5  -8  -3   21.70    9.00
  -5   8   3   27.10    9.20
  -5   8   3   29.60    7.50
  -5   8   3   21.50    8.40
   4  -8  -3  290.80   19.60
   4  -8  -3  253.80   18.10
  -4   8   3  264.80   16.90
  -4   8   3  289.30   16.40
  -4   8   3  277.90   18.70
   3  -8  -3   23.80    9.30
   3  -8  -3   48.70   10.30
  -3   8   3   34.70    8.10
  -3   8   3   27.60    8.30
  -3   8   3   25.60    7.60
   2  -8  -3  752.60   30.20
   2  -8  -3  748.80   29.80
  -2   8   3  768.20   28.80
  -2   8   3  809.70   30.00
  -2   8   3  758.70   28.10
   1  -8  -3   10.40    9.40
   1  -8  -3    8.80    9.00
  -1   8   3    5.80    8.20
  -1   8   3    8.90    7.80
  -1   8   3   18.60    9.10
   0  -8  -3 1351.20   39.90
   0  -8  -3 1289.50   39.80
   0   8   3 1346.00   37.40
   0   8   3 1376.00   40.60
   0   8   3 1282.50   38.80
  -1  -8  -3  218.90   16.10
  -1  -8  -3  203.00   15.70
   1   8   3  192.10   12.70
   1   8   3  207.30   16.80
   1   8   3  207.30   15.40
  -2  -8  -3 1068.30   38.20
  -2  -8  -3 1146.20   38.40
   2   8   3 1114.20   38.60
   2   8   3 1106.40   33.20
   2   8   3 1099.60   39.60
  -3  -8  -3   33.80    7.20
  -3  -8  -3   37.30    7.30
   3   8   3   37.70    7.40
   3   8   3   45.30    4.40
   3   8   3   34.30    4.20
   3   8   3   26.20    7.90
  -4  -8  -3  467.20   24.70
  -4  -8  -3  446.20   25.20
   4   8   3  501.50   28.50
  -5  -8  -3   55.60   13.20
   5   8   3   44.20   12.40
  -6  -8  -3   35.10    9.70
  -6  -8  -3   25.30    8.70
   6   8   3   22.90    8.30
  -7  -8  -3  302.60   19.70
  -7  -8  -3  291.40   20.00
  -8  -8  -3  181.20   16.20
 -10  -8  -3  108.20   16.00
 -11  -8  -3  210.40   21.20
 -12   9   3   19.30   15.70
 -12   9   3   14.70   10.40
 -11   9   3   54.40   12.80
 -11   9   3   69.10   18.80
  10  -9  -3    0.10    8.80
 -10   9   3    2.30    7.30
 -10   9   3    6.00   12.80
 -10   9   3    0.10    7.70
   9  -9  -3  136.90   19.40
  -9   9   3  142.20   15.70
  -9   9   3  116.10   22.10
  -9   9   3  140.00   16.50
   8  -9  -3   17.80    9.40
  -8   9   3   57.60   13.80
  -8   9   3   68.30   10.70
   7  -9  -3  118.00   15.40
  -7   9   3  131.40   13.40
  -7   9   3  126.60   12.30
  -7   9   3  138.10   17.00
   6  -9  -3   20.20    9.80
  -6   9   3   33.90   11.00
  -6   9   3   26.50    8.50
  -6   9   3   23.90    8.80
   5  -9  -3   57.60   12.00
   5  -9  -3   61.30   12.40
  -5   9   3   40.00    9.60
  -5   9   3   72.40   10.70
  -5   9   3   44.80   11.20
   4  -9  -3  749.50   32.80
   4  -9  -3  741.00   32.90
  -4   9   3  696.70   28.90
  -4   9   3  737.00   29.80
  -4   9   3  702.80   31.40
   3  -9  -3    1.00    8.30
   3  -9  -3    0.50    8.50
  -3   9   3    9.10    7.00
  -3   9   3    0.10    8.00
  -3   9   3    9.10    5.30
   2  -9  -3   11.50    7.90
   2  -9  -3   13.10    9.40
  -2   9   3   12.70    7.70
  -2   9   3    3.40    6.50
  -2   9   3    8.90    7.70
   1  -9  -3   28.70    9.90
   1  -9  -3   12.10    9.10
  -1   9   3   18.80    9.60
  -1   9   3    6.10    6.80
  -1   9   3   14.30    7.40
   0  -9  -3 1287.50   49.90
   0  -9  -3 1325.90   49.80
   0   9   3 1286.80   49.10
   0   9   3 1361.40   47.00
   0   9   3 1298.40   50.20
  -1  -9  -3  302.90   15.50
  -1  -9  -3  292.00   15.20
   1   9   3  284.60   16.10
   1   9   3  266.20   12.40
   1   9   3  280.70   14.40
  -2  -9  -3  117.10   13.70
  -2  -9  -3  107.80   13.50
   2   9   3  110.20    9.60
   2   9   3  117.30   14.40
   2   9   3   90.00   12.40
  -3  -9  -3    1.20    7.80
   3   9   3    3.90    7.70
   3   9   3    0.00    3.60
   3   9   3    5.90    4.00
  -4  -9  -3  708.50   29.50
  -4  -9  -3  710.00   29.70
   4   9   3  716.20   31.40
  -5  -9  -3   22.50    9.10
  -5  -9  -3    2.50    8.30
   5   9   3   20.60    8.00
  -6  -9  -3  568.70   29.70
  -6  -9  -3  605.60   31.10
  -7  -9  -3  523.80   28.40
  -8  -9  -3   43.20   13.40
  -9  -9  -3   39.30   12.10
 -10  -9  -3    8.70   10.10
 -11  -9  -3   23.10   11.70
 -12  10   3   49.00   16.80
 -12  10   3   65.50   13.70
 -11  10   3  180.10   16.80
 -11  10   3  193.20   22.40
 -10  10   3   23.50    9.20
 -10  10   3    6.80   12.50
   9 -10  -3    1.70   10.80
  -9  10   3    1.70    7.60
  -9  10   3    1.70    7.90
  -9  10   3    1.70    9.60
   8 -10  -3    0.30    9.30
  -8  10   3   11.80    9.00
  -8  10   3    4.70    9.70
  -8  10   3    1.60    7.60
   7 -10  -3    0.00    9.60
  -7  10   3    0.00   10.80
  -7  10   3    0.00    8.20
  -7  10   3    7.40    8.30
   6 -10  -3   63.70   13.00
   6 -10  -3   61.70   13.10
  -6  10   3   58.80   10.50
  -6  10   3   59.00   10.90
  -6  10   3   42.50   11.60
   5 -10  -3   30.80   10.40
  -5  10   3   56.20   10.80
  -5  10   3   38.80   10.30
  -5  10   3   54.60   11.80
   4 -10  -3  543.90   30.00
   4 -10  -3  553.80   25.70
  -4  10   3  537.10   22.30
  -4  10   3  602.00   24.50
  -4  10   3  532.80   25.10
   3 -10  -3   86.30   12.50
   3 -10  -3   84.40   13.20
  -3  10   3   86.70   12.00
  -3  10   3   65.60    9.40
  -3  10   3   68.70   11.00
   2 -10  -3   33.80    9.80
   2 -10  -3    2.90    6.80
  -2  10   3    2.90    7.50
  -2  10   3    2.90    6.10
  -2  10   3   15.10    7.30
   1 -10  -3   17.90   10.70
   1 -10  -3    8.80   10.50
  -1  10   3   14.30    8.90
  -1  10   3   10.20    8.40
  -1  10   3   11.00    9.80
   0 -10  -3 1056.40   43.20
   0 -10  -3 1030.10   48.20
   0  10   3 1086.10   43.80
   0  10   3 1059.20   39.90
  -1 -10  -3  144.60   15.80
  -1 -10  -3  140.40   15.90
   1  10   3  131.30   14.10
   1  10   3  155.40   17.20
   1  10   3  155.00   12.50
  -2 -10  -3   84.40   11.20
  -2 -10  -3   65.70   10.30
   2  10   3   73.30   12.30
   2  10   3   75.50   10.60
   2  10   3   83.30    8.10
  -3 -10  -3  107.10   14.80
  -3 -10  -3  138.40   16.20
   3  10   3  130.10   16.80
   3  10   3  129.40   10.30
   3  10   3  143.40   10.80
  -4 -10  -3   13.50    9.30
  -4 -10  -3   50.40    9.00
   4  10   3   41.00   10.60
  -5 -10  -3  389.30   21.70
  -6 -10  -3  528.80   26.60
  -7 -10  -3   85.40   15.30
  -8 -10  -3   19.90    9.90
  -9 -10  -3  185.70   21.60
 -10 -10  -3    2.50   10.40
 -11  11   3  132.80   20.30
 -11  11   3  159.50   16.80
 -10  11   3   28.50   10.70
 -10  11   3   32.40   16.20
  -9  11   3    9.30    9.60
  -9  11   3   24.30   13.00
   8 -11  -3   22.50   12.60
  -8  11   3   52.80   11.20
  -8  11   3   31.90   12.10
   7 -11  -3   79.80   15.00
  -7  11   3   69.30   11.90
  -7  11   3   65.00   12.00
  -7  11   3   56.90   13.90
   6 -11  -3  423.50   27.90
   6 -11  -3  443.10   29.40
  -6  11   3  476.30   28.50
  -6  11   3  450.40   23.80
  -6  11   3  479.80   23.90
   5 -11  -3   22.00   12.00
   5 -11  -3   11.90   12.70
  -5  11   3    7.60    9.10
  -5  11   3   16.30    9.20
  -5  11   3    7.80    8.80
   4 -11  -3   81.90   15.60
   4 -11  -3   66.50   13.70
  -4  11   3   74.40   12.30
  -4  11   3   90.00   12.90
  -4  11   3   79.60   13.10
   3 -11  -3   31.20   10.60
   3 -11  -3   20.90    9.20
  -3  11   3   12.90    7.50
  -3  11   3   18.50    8.50
  -3  11   3   15.10    8.60
   2 -11  -3   12.20    9.80
   2 -11  -3   14.10    9.50
  -2  11   3   17.30    9.40
  -2  11   3   15.20    7.70
  -2  11   3   17.10    9.00
   1 -11  -3  176.40   18.40
   1 -11  -3  194.90   19.00
  -1  11   3  196.30   16.20
  -1  11   3  197.60   17.50
  -1  11   3  205.90   19.40
   0 -11  -3  270.30   20.10
   0 -11  -3  284.50   20.50
   0  11   3  243.10   17.80
   0  11   3  254.50   19.60
   0  11   3  247.20   16.80
  -1 -11  -3  128.10   13.80
  -1 -11  -3  110.90   14.00
   1  11   3  130.10   13.90
   1  11   3  102.80   13.70
   1  11   3  124.50   11.40
  -2 -11  -3  369.50   24.70
  -2 -11  -3  355.20   24.30
   2  11   3  331.60   19.10
   2  11   3  331.30   26.30
   2  11   3  328.10   26.70
  -3 -11  -3  402.10   24.20
   3  11   3  374.50   16.10
   3  11   3  409.60   15.60
  -4 -11  -3  278.70   20.00
  -5 -11  -3  670.90   32.00
  -7 -11  -3   50.60   12.80
  -8 -11  -3   83.60   15.20
  -9 -11  -3   89.70   15.30
 -11  12   3    1.30   15.10
 -10  12   3    0.20   10.90
 -10  12   3   21.50   10.40
  -9  12   3    5.30   10.00
  -9  12   3    3.50   12.20
  -8  12   3   10.50   10.00
  -8  12   3    0.00   10.30
  -7  12   3   65.60   12.50
  -7  12   3   66.10   14.40
   6 -12  -3  338.50   29.60
  -6  12   3  358.80   24.60
  -6  12   3  387.00   27.00
   5 -12  -3   97.20   18.30
  -5  12   3   64.90   14.00
  -5  12   3   70.00   13.50
   4 -12  -3   86.80   16.70
  -4  12   3   68.50   13.60
  -4  12   3   65.40   14.00
   3 -12  -3   11.90   10.50
  -3  12   3    0.60    8.70
  -3  12   3    0.80    8.50
   2 -12  -3   76.90   13.10
  -2  12   3   76.50   11.30
  -2  12   3   65.10   12.50
   1 -12  -3   93.70   14.30
  -1  12   3  101.30   12.50
  -1  12   3  105.90   15.00
   0 -12  -3   24.80   11.50
   0  12   3   30.20    9.00
   0  12   3   33.30   12.80
  -1 -12  -3  287.10   21.10
   1  12   3  222.30   20.10
   1  12   3  303.30   17.30
  -2 -12  -3  164.70   17.80
   2  12   3  146.80   12.70
  -3 -12  -3   42.30   11.80
   3  12   3   50.80    9.00
   3  12   3   46.80    6.40
  -4 -12  -3  500.70   25.00
   4  12   3  454.80   13.40
   4  12   3  348.90   12.60
  -5 -12  -3  259.50   23.00
  -6 -12  -3  109.90   16.00
  -7 -12  -3  411.40   27.60
  -8 -12  -3  140.60   16.80
  -9 -12  -3    1.20   11.20
 -10  13   3   66.40   17.60
 -10  13   3   54.40   12.90
  -9  13   3   11.60   13.90
  -8  13   3   45.60   16.00
  -8  13   3   53.10   12.40
  -7  13   3    7.50   10.60
  -7  13   3    2.30   10.70
   6 -13  -3   89.20   18.30
  -6  13   3  110.60   15.00
   5 -13  -3   93.80   17.20
  -5  13   3  132.20   16.20
  -5  13   3  114.20   15.80
   4 -13  -3   70.70   14.50
  -4  13   3  125.30   15.30
  -4  13   3   84.00   13.30
   3 -13  -3    0.20    9.70
  -3  13   3    7.70    9.50
  -3  13   3    6.50    8.90
   2 -13  -3   29.00   12.40
  -2  13   3   39.30   11.80
  -2  13   3   24.50    9.80
   1 -13  -3    0.90    9.90
  -1  13   3    0.50    8.70
  -1  13   3    0.50    6.90
   0 -13  -3  640.30   31.40
   0  13   3  668.50   27.80
   0  13   3  652.30   32.00
  -1 -13  -3  508.20   27.40
   1  13   3  491.80   28.30
   1  13   3  577.10   27.00
  -2 -13  -3    6.20   12.20
   2  13   3   13.40    6.60
  -3 -13  -3  128.30   16.60
   3  13   3  161.40   10.50
   3  13   3  139.20   11.20
  -4 -13  -3  116.90   16.40
   4  13   3   85.10    7.00
  -5 -13  -3    1.90    9.60
  -6 -13  -3   55.60   12.90
  -7 -13  -3  321.60   26.10
  -8 -13  -3   18.80   13.30
  -9  14   3   21.10   12.70
  -9  14   3    0.00   10.50
  -8  14   3   17.10   10.80
  -8  14   3    0.30   12.80
  -7  14   3   55.20   13.10
  -7  14   3   47.80   12.80
   6 -14  -3    0.10   13.40
  -6  14   3   15.30   12.00
  -6  14   3    5.30   10.00
   5 -14  -3   87.90   17.70
   4 -14  -3    0.10   10.20
  -4  14   3    0.10    9.60
   3 -14  -3   53.20   16.70
  -3  14   3   43.70   12.30
   2 -14  -3  118.50   20.30
  -2  14   3  118.50   15.60
   1 -14  -3   46.60   14.30
  -1  14   3   50.80   11.30
  -1  14   3   58.10   14.50
   0 -14  -3  311.00   24.40
   0  14   3  296.50   20.50
   0  14   3  293.10   24.30
  -1 -14  -3  204.70   23.70
   1  14   3  192.40   16.70
   1  14   3  187.80   21.80
  -2 -14  -3   50.10   14.70
   2  14   3   58.80   10.20
  -3 -14  -3  561.80   30.80
   3  14   3  552.60   22.20
   3  14   3  556.20   21.40
  -4 -14  -3   38.40   12.60
  -5 -14  -3  360.50   28.10
  -6 -14  -3  156.80   18.80
  -7 -14  -3  108.00   17.10
  -8  15   3    3.80   14.20
  -8  15   3   18.10   10.90
  -7  15   3   19.60   12.00
  -7  15   3   36.10   15.70
   6 -15  -3   12.40   13.60
  -6  15   3   14.80   10.00
  -6  15   3    1.30   11.00
   5 -15  -3   53.30   16.60
  -5  15   3   74.50   15.20
  -5  15   3   65.50   15.90
   4 -15  -3    6.20   13.00
  -4  15   3    9.80   10.20
  -4  15   3    0.00   10.50
   3 -15  -3   96.60   18.60
  -3  15   3  115.10   16.60
  -3  15   3  107.00   15.60
   2 -15  -3  416.00   30.60
  -2  15   3  456.80   28.40
  -2  15   3  414.80   25.90
   1 -15  -3   69.40   16.60
  -1  15   3   53.30   13.70
  -1  15   3   64.70   13.40
   0 -15  -3  136.60   18.90
   0  15   3  113.00   14.60
   0  15   3  143.20   19.70
  -1 -15  -3   85.50   16.10
   1  15   3   67.40   11.10
  -2 -15  -3   31.20   12.90
  -3 -15  -3   41.40   13.00
   3  15   3   55.50    8.30
  -4 -15  -3    3.30   13.00
  -5 -15  -3  318.40   25.80
  -6 -15  -3   91.70   20.20
   6 -16  -3    0.90   14.00
  -6  16   3   11.00   13.40
  -6  16   3   12.30   11.80
   5 -16  -3    0.40   11.70
  -5  16   3   22.00   12.00
  -5  16   3   42.30   13.10
   4 -16  -3    0.10   12.00
  -4  16   3   20.30   12.90
  -4  16   3    5.90   10.40
   3 -16  -3   20.50   14.00
  -3  16   3   32.90   13.40
  -3  16   3   37.20   12.80
   2 -16  -3  335.70   29.60
  -2  16   3  263.90   22.70
  -2  16   3  268.70   23.80
   1 -16  -3   69.80   17.00
  -1  16   3   46.40   13.90
  -1  16   3   50.80   12.10
   0 -16  -3   19.80   13.40
   0  16   3   16.50    9.90
  -1 -16  -3  231.80   24.70
   1  16   3  226.40   18.50
  -2 -16  -3  166.90   23.00
   2  16   3  192.00   16.10
  -3 -16  -3  122.50   18.90
   3  16   3  159.60   11.50
   3  16   3  112.50   11.70
  -4 -16  -3   60.40   17.80
   4 -17  -3   23.10   14.90
  -4  17   3    0.10   10.30
  -4  17   3    8.80   11.80
   3 -17  -3   14.70   15.80
  -3  17   3   27.10   12.30
  -3  17   3    0.00   10.70
   2 -17  -3   13.40   14.10
  -2  17   3    0.00    8.40
  -2  17   3    4.90   11.50
   1 -17  -3   96.10   20.40
  -1  17   3   92.50   15.70
  -1  17   3   83.20   17.50
   0 -17  -3   20.20   15.90
   0  17   3   46.50   12.10
  -1 -17  -3  153.20   21.30
   1  17   3  136.40   16.30
  -2 -17  -3   62.90   16.90
   2  17   3   77.60   11.70
   3  18  -4    3.80   10.60
  -3 -18   4    7.70   14.90
   2  18  -4  102.60   17.90
  -2 -18   4  122.50   19.50
   1  18  -4   65.70   16.40
  -1 -18   4   53.00   16.80
   0  18  -4   14.00   12.30
   0 -18   4   17.70   15.90
  -1  18  -4    2.00   14.10
   1 -18   4    1.30   14.20
  -2  18  -4    0.00   10.60
  -3  18  -4   17.80   14.30
  -4  18  -4   24.40   14.90
  -5 -17   4  111.20   18.50
   4  17  -4    0.10    7.00
  -4 -17   4    3.40   12.10
   3  17  -4    0.30    9.20
  -3 -17   4    4.90   13.50
   2  17  -4  194.10   21.20
  -2 -17   4  213.60   23.10
   1  17  -4  148.70   17.60
  -1 -17   4  123.80   18.90
   0  17  -4    0.20   11.10
   0 -17   4    0.20   12.70
  -1  17  -4  186.50   22.00
   1 -17   4  176.90   23.40
  -2  17  -4  316.50   32.70
   2 -17   4  248.70   27.90
  -3  17  -4  295.50   26.90
  -4  17  -4   13.80   11.70
  -5  17  -4   80.30   16.60
  -6  17  -4    4.20   13.10
  -6 -16   4   47.80   13.70
  -5 -16   4  141.40   17.30
   4  16  -4    0.20   11.50
  -4 -16   4   46.50   14.90
   3  16  -4    1.00    8.70
  -3 -16   4   18.90   11.40
   2  16  -4   28.70   11.20
  -2 -16   4   39.00   14.30
   1  16  -4    4.80   10.20
  -1 -16   4   11.50    8.20
  -1 -16   4    0.70   12.80
   0  16  -4   25.90   11.60
   0 -16   4   12.80   12.00
   0 -16   4   28.20    9.40
  -1  16  -4  346.30   26.70
   1 -16   4  378.30   29.50
  -2  16  -4  261.00   24.50
   2 -16   4  321.70   27.40
  -3  16  -4  173.30   25.50
  -4  16  -4   31.90   16.20
  -5  16  -4   26.00   13.00
  -6  16  -4  141.80   17.90
   6 -16   4   18.70   11.30
  -7  16  -4   69.70   19.70
  -8 -15   4   19.60   11.30
  -7 -15   4   26.80   12.90
  -6 -15   4  106.10   16.10
  -5 -15   4  112.60   17.80
   4  15  -4    3.00    6.70
  -4 -15   4   40.20   12.60
   3  15  -4    0.00    7.90
  -3 -15   4    0.00   12.20
  -3 -15   4    1.80    6.20
   2  15  -4    0.00   10.30
  -2 -15   4    5.60    7.40
   1  15  -4  392.80   24.20
  -1 -15   4  353.40   20.20
   0  15  -4  483.70   26.90
   0 -15   4  469.30   23.40
  -1  15  -4    0.70   10.10
   1 -15   4    8.50   13.60
   1 -15   4   12.30    8.30
  -2  15  -4  203.40   20.60
   2 -15   4  145.60   21.00
  -3  15  -4  109.40   18.30
   3 -15   4  146.70   16.60
  -4  15  -4    6.20   14.30
   4 -15   4    5.10    8.40
  -5  15  -4    0.00   11.80
   5 -15   4    0.00    8.00
  -6  15  -4  281.60   28.90
  -7  15  -4   63.60   18.80
  -8  15  -4   14.80   13.90
  -9 -14   4    4.40   10.80
  -8 -14   4   60.70   13.60
  -7 -14   4   30.40   10.70
  -6 -14   4   30.20   12.10
   5  14  -4    7.10    4.70
  -5 -14   4    0.40   10.00
   4  14  -4    0.00    5.70
  -4 -14   4    0.00    9.90
  -4 -14   4   10.00    5.60
  -3 -14   4    4.80    5.80
  -3 -14   4    4.80   11.70
   2  14  -4   12.50    9.40
  -2 -14   4    6.10    6.70
  -2 -14   4   30.20   13.00
   1  14  -4  526.40   26.70
  -1 -14   4  600.40   30.50
  -1 -14   4  547.00   24.30
   0  14  -4   93.90   16.50
   0 -14   4  107.30   19.40
   0 -14   4  105.80   15.00
   0 -14   4  110.10   17.50
  -1  14  -4    0.20   10.40
   1 -14   4    6.10    7.90
   1 -14   4   13.80   11.40
   1 -14   4    0.20    7.40
  -2  14  -4  180.50   19.20
   2 -14   4  168.20   16.70
   2 -14   4  161.50   20.40
   2 -14   4  194.80   17.00
  -3  14  -4   29.80   11.40
   3 -14   4   47.20   10.90
  -4  14  -4  305.60   26.20
   5 -14   4   10.90    8.60
  -6  14  -4   84.80   19.00
  -7  14  -4    2.60   14.20
  -8  14  -4    9.00   13.00
   8 -14   4    0.00    7.70
  -9  14  -4   28.10   14.60
   9 -14   4   21.20   10.90
  -9 -13   4    0.70   11.10
  -8 -13   4   85.00   14.40
  -7 -13   4   37.00   11.40
  -6 -13   4    6.00    4.60
  -6 -13   4    7.00    9.90
  -5 -13   4  104.10   14.80
  -5 -13   4  127.00   10.30
  -4 -13   4  198.80   17.10
  -4 -13   4  206.20   11.80
   3  13  -4   30.40   12.70
   3  13  -4   48.90   12.20
  -3 -13   4   58.20   14.00
  -3 -13   4   47.00    9.50
   2  13  -4    0.10    7.60
   2  13  -4    6.10    8.30
  -2 -13   4    9.60    9.80
  -2 -13   4   19.90    7.30
   1  13  -4  375.50   26.40
   1  13  -4  358.80   26.60
  -1 -13   4  370.40   24.00
  -1 -13   4  372.50   25.50
  -1 -13   4  410.20   28.40
   0  13  -4  187.60   18.30
   0  13  -4  189.20   19.20
   0 -13   4  153.30   14.80
   0 -13   4  177.90   18.50
   0 -13   4  210.90   16.00
  -1  13  -4    0.90    8.30
   1 -13   4    0.00    6.00
   1 -13   4    0.90    7.00
   1 -13   4   11.10   11.20
  -2  13  -4   70.00   14.30
   2 -13   4   63.50   11.30
   2 -13   4   70.40   12.10
   2 -13   4   30.90   14.20
  -3  13  -4   44.30   13.80
   3 -13   4   31.40   10.60
   3 -13   4   43.80   10.30
  -4  13  -4  357.50   28.70
   4 -13   4  379.30   23.80
  -5  13  -4    5.50   10.70
   5 -13   4    0.30    6.50
  -6  13  -4   58.30   25.30
   6 -13   4   34.80    9.60
  -7  13  -4   11.30   11.70
  -8  13  -4    4.00   14.10
   8 -13   4    0.40    7.30
  -9  13  -4   10.70   12.20
   9 -13   4    4.30    8.40
 -10  13  -4   15.10   14.60
  10 -13   4    2.60    6.80
 -10 -12   4    4.00    9.80
  -9 -12   4   18.10   10.30
  -8 -12   4   37.50   11.00
  -7 -12   4    1.60    9.30
   6  12  -4    0.20    8.50
  -6 -12   4    4.60    3.80
  -6 -12   4    0.20    9.00
   5  12  -4  127.60   11.10
   5  12  -4  163.20   15.60
  -5 -12   4  144.60    9.60
  -5 -12   4  172.10   15.70
   4  12  -4  578.50   30.00
   4  12  -4  447.90   26.80
  -4 -12   4  564.30   23.90
  -4 -12   4  649.80   30.60
   3  12  -4  599.90   30.20
   3  12  -4  584.00   29.70
  -3 -12   4  593.50   29.40
  -3 -12   4  564.90   25.40
  -3 -12   4  600.60   30.80
   2  12  -4  649.60   30.30
   2  12  -4  639.90   30.10
  -2 -12   4  695.10   32.60
  -2 -12   4  617.20   26.40
  -2 -12   4  609.40   28.50
   1  12  -4  860.50   35.50
   1  12  -4  803.40   35.20
  -1 -12   4  847.10   32.90
  -1 -12   4  838.60   33.90
  -1 -12   4  835.70   37.60
   0  12  -4 1428.80   51.30
   0  12  -4 1572.20   51.60
   0 -12   4 1406.90   48.70
   0 -12   4 1438.70   48.70
   0 -12   4 1465.50   52.60
  -1  12  -4  304.90   20.60
  -1  12  -4  269.00   22.20
   1 -12   4  291.00   20.00
   1 -12   4  309.40   24.90
   1 -12   4  299.60   19.70
  -2  12  -4   80.70   12.10
  -2  12  -4   63.80   12.40
   2 -12   4   67.40   11.10
   2 -12   4   98.70   11.70
  -3  12  -4    3.00    8.70
  -3  12  -4    0.10    9.80
   3 -12   4    0.10    6.70
   3 -12   4    0.70    7.60
  -4  12  -4  193.10   18.30
   4 -12   4  257.60   18.90
   4 -12   4  185.20   14.20
  -5  12  -4   97.40   16.90
   5 -12   4   55.80   11.10
  -6  12  -4  122.20   17.70
   6 -12   4   51.70   10.20
  -7  12  -4    4.90   13.20
   7 -12   4    0.00    8.50
  -8  12  -4   14.70   13.50
   8 -12   4    0.30    6.70
  -9  12  -4   14.60   11.90
   9 -12   4    0.10    5.80
 -10  12  -4    7.40   14.90
  10 -12   4   12.00    6.40
 -11  12  -4   99.80   19.30
 -11 -11   4    3.70    9.90
 -10 -11   4    2.10    9.60
  -9 -11   4    7.60    9.00
   8  11  -4   10.60    9.10
  -8 -11   4   20.50    9.70
   7  11  -4  109.10   14.80
  -7 -11   4  142.70   15.10
  -7 -11   4  138.70    7.30
   6  11  -4  199.00   17.50
  -6 -11   4  203.30   10.80
  -6 -11   4  187.40   17.60
   5  11  -4   17.70    5.50
  -5 -11   4    0.30    8.40
  -5 -11   4   10.40    4.40
   4  11  -4    1.60    6.40
   4  11  -4    1.60    5.80
  -4 -11   4    0.10    8.70
  -4 -11   4    1.60    6.80
  -4 -11   4    1.60    4.70
   3  11  -4    3.90    6.40
   3  11  -4    6.80    7.20
  -3 -11   4    6.80    6.80
  -3 -11   4    4.80    4.80
  -3 -11   4    6.80    7.40
   2  11  -4   56.10    8.90
   2  11  -4   54.90    9.80
  -2 -11   4   34.90    6.90
  -2 -11   4   48.80    8.60
  -2 -11   4   46.50    9.90
   1  11  -4   26.20   11.10
   1  11  -4   24.90    8.10
  -1 -11   4   32.60    7.70
  -1 -11   4   30.00    8.50
  -1 -11   4   19.40    9.50
   0  11  -4  804.90   32.40
   0  11  -4  789.00   32.80
   0 -11   4  864.30   34.40
   0 -11   4  812.50   30.80
   0 -11   4  756.30   29.70
  -1  11  -4  173.70   17.40
  -1  11  -4  164.20   16.30
   1 -11   4  157.30   13.50
   1 -11   4  170.70   16.90
   1 -11   4  140.20   12.60
  -2  11  -4  498.40   22.20
  -2  11  -4  511.70   24.30
   2 -11   4  533.60   20.80
   2 -11   4  484.60   21.80
  -3  11  -4   49.50   11.70
  -3  11  -4   38.20   13.10
   3 -11   4   48.30   14.40
   3 -11   4   43.50   10.30
  -4  11  -4   49.80   13.00
  -4  11  -4   46.60   10.90
   4 -11   4   43.90   10.00
   4 -11   4   56.80   12.00
  -5  11  -4   89.40   13.60
  -5  11  -4  100.50   12.00
   5 -11   4  108.70   12.60
   5 -11   4   72.60    9.70
  -6  11  -4   80.10   16.60
   6 -11   4   39.90   10.10
  -7  11  -4   39.20   13.50
   7 -11   4   19.40    7.70
  -8  11  -4   12.00   12.20
   8 -11   4    2.20    6.50
  -9  11  -4    3.50   12.00
 -10  11  -4   69.80   16.80
  10 -11   4   79.30    8.50
 -11  11  -4  176.60   22.70
 -11 -10   4    0.20    8.20
  10  10  -4   37.00   11.10
 -10 -10   4   62.20   11.00
   9  10  -4   91.80   15.40
  -9 -10   4   61.00   12.70
   8  10  -4   35.70    9.40
  -8 -10   4   35.90    3.60
  -8 -10   4   33.90    8.70
   7  10  -4  173.90   17.80
  -7 -10   4  172.60   17.00
  -7 -10   4  175.50   10.20
   6  10  -4  396.40   19.70
  -6 -10   4  403.20   19.80
  -6 -10   4  391.50   13.40
   5  10  -4   82.20   10.40
   5  10  -4   76.40    8.10
  -5 -10   4   63.60    9.70
  -5 -10   4   80.20    8.10
   4  10  -4  126.90   15.00
   4  10  -4  102.40   13.50
  -4 -10   4  133.00   15.60
  -4 -10   4  130.50   11.10
   3  10  -4  863.60   31.80
   3  10  -4  830.50   31.60
  -3 -10   4  873.60   32.10
  -3 -10   4  904.20   31.00
  -3 -10   4  829.30   31.10
   2  10  -4  483.30   24.10
   2  10  -4  506.70   24.40
  -2 -10   4  492.20   24.30
  -2 -10   4  518.90   23.70
  -2 -10   4  481.70   21.10
   1  10  -4   61.00    7.70
   1  10  -4   50.50    8.50
  -1 -10   4   62.60    7.70
  -1 -10   4   57.40    6.70
  -1 -10   4   65.10    9.10
   0  10  -4   68.10   11.70
   0 -10   4   65.80   10.70
   0 -10   4   46.70   10.10
   0 -10   4   45.80   11.80
  -1  10  -4   51.00   12.30
  -1  10  -4   44.80   12.90
   1 -10   4   48.80   11.20
   1 -10   4   43.30   13.30
   1 -10   4   50.70   10.00
  -2  10  -4   71.40   14.40
  -2  10  -4   65.20   12.50
   2 -10   4   66.60   11.30
   2 -10   4   66.60   12.80
  -3  10  -4   31.60   11.20
  -3  10  -4   49.00   10.60
   3 -10   4   37.40   10.10
   3 -10   4   57.10   10.10
  -4  10  -4   30.80   12.20
  -4  10  -4   35.00   10.60
   4 -10   4   40.60    9.70
  -5  10  -4  149.80   18.50
  -5  10  -4  111.30   14.10
   5 -10   4  135.90   16.30
   5 -10   4  125.10   12.60
  -6  10  -4    5.20    8.50
  -6  10  -4    9.60   10.30
   6 -10   4    0.00    8.60
  -7  10  -4   36.30   13.50
   7 -10   4   32.30    8.40
  -8  10  -4  254.50   23.30
   8 -10   4  223.00   13.40
  -9  10  -4  146.00   21.30
   9 -10   4  174.50   15.20
 -10  10  -4    7.80   12.60
 -11  10  -4   13.50   13.90
 -12  10  -4    3.60   13.80
 -12  -9   4   20.00    9.60
 -12  -9   4   28.40   12.70
  11   9  -4    1.50    8.70
 -11  -9   4   11.00    8.60
  10   9  -4  172.70   19.00
 -10  -9   4  224.60   10.40
 -10  -9   4  213.40   19.20
   9   9  -4  243.70   17.40
  -9  -9   4  249.40   10.40
  -9  -9   4  240.00    9.80
  -9  -9   4  262.80   17.60
   8   9  -4    1.20    7.20
  -8  -9   4   28.90    8.40
  -8  -9   4   22.70    4.30
   7   9  -4    1.30    7.40
  -7  -9   4    2.90    4.40
  -7  -9   4    7.90    8.00
   6   9  -4   25.30    8.10
  -6  -9   4   38.00    8.70
  -6  -9   4   48.00    5.80
   5   9  -4  168.00   12.60
   5   9  -4  176.60   15.40
  -5  -9   4  138.80   15.00
   4   9  -4   49.40    9.10
   4   9  -4   58.60   10.30
  -4  -9   4   52.70    7.50
  -4  -9   4   48.80   10.10
   3   9  -4  390.40   19.70
   3   9  -4  432.70   20.10
  -3  -9   4  375.00   16.80
  -3  -9   4  372.90   20.20
   2   9  -4 1386.70   37.70
   2   9  -4 1362.10   37.20
  -2  -9   4 1395.90   37.90
  -2  -9   4 1354.50   34.80
   1   9  -4  144.60   14.70
   1   9  -4  142.50   15.50
  -1  -9   4  146.50   16.80
  -1  -9   4  143.10   13.80
  -1  -9   4  166.70   14.10
   0   9  -4   23.90    8.30
   0   9  -4   11.50    8.60
   0  -9   4    9.80    6.80
   0  -9   4    6.00    6.30
   0  -9   4    6.30    8.00
  -1   9  -4   63.40    6.20
   1  -9   4   73.30    5.90
   1  -9   4   97.10    8.60
   1  -9   4   63.10    4.90
  -2   9  -4   40.10    8.10
  -2   9  -4    9.10    7.70
   2  -9   4   11.50    7.00
   2  -9   4   14.00    5.70
  -3   9  -4  289.70   18.90
  -3   9  -4  299.90   20.40
   3  -9   4  290.80   19.30
   3  -9   4  289.30   16.30
  -4   9  -4  232.80   15.70
  -4   9  -4  230.70   18.40
   4  -9   4  235.50   14.00
   4  -9   4  272.80   17.80
  -5   9  -4   14.00    9.50
  -5   9  -4   24.00   10.20
   5  -9   4   20.00    9.30
   5  -9   4   15.40    6.70
  -6   9  -4   30.80   10.80
  -6   9  -4   32.00    9.30
   6  -9   4   31.80    6.60
   6  -9   4   28.40    9.40
  -7   9  -4   40.80   10.40
  -7   9  -4   35.50   13.30
  -8   9  -4  319.00   26.40
   8  -9   4  318.90   14.20
  -9   9  -4  311.10   25.20
   9  -9   4  297.20   12.60
 -10   9  -4    5.80   12.70
 -11   9  -4   77.70   17.20
 -12   9  -4  112.40   19.30
 -12  -8   4   50.60    6.60
 -12  -8   4   62.90   11.10
 -12  -8   4   56.20   14.10
 -12  -8   4   58.80    6.70
  11   8  -4    9.60    9.00
 -11  -8   4   11.80    6.20
 -11  -8   4    8.40    8.50
 -11  -8   4    5.30    5.20
  10   8  -4  279.50   18.50
 -10  -8   4  364.50   18.60
 -10  -8   4  334.10   14.10
 -10  -8   4  321.70   13.50
   9   8  -4  129.00   12.90
  -9  -8   4  119.00   11.30
  -9  -8   4  124.50    8.60
   8   8  -4   59.80   10.90
  -8  -8   4   70.50    8.60
  -8  -8   4   75.50   11.10
   7   8  -4   64.40    9.60
  -7  -8   4   63.80    9.40
  -7  -8   4   56.50    6.70
   6   8  -4  470.10   21.20
  -6  -8   4  453.10   20.90
  -6  -8   4  470.20   17.10
   5   8  -4 1458.90   37.90
   5   8  -4 1486.60   40.70
  -5  -8   4 1474.90   40.10
   4   8  -4  627.20   25.20
   4   8  -4  633.90   24.70
  -4  -8   4  658.50   25.40
  -4  -8   4  647.00   22.80
   3   8  -4    1.40    5.50
   3   8  -4    5.40    5.40
  -3  -8   4    0.20    5.70
  -3  -8   4    2.40    4.50
   2   8  -4  731.00   32.40
   2   8  -4  706.00   31.60
  -2  -8   4  741.80   30.20
  -2  -8   4  687.80   31.70
   1   8  -4   68.00   11.70
   1   8  -4   57.00   10.00
  -1  -8   4   63.80    9.80
  -1  -8   4   65.90   11.20
   0   8  -4   77.30   13.50
   0   8  -4   73.10   15.00
   0  -8   4   71.40   15.10
   0  -8   4   90.70   12.90
   0  -8   4   77.30   13.40
  -1   8  -4    0.20    6.20
  -1   8  -4    9.10    6.70
   1  -8   4    1.80    4.70
   1  -8   4    0.70    5.40
  -2   8  -4  528.00   29.80
  -2   8  -4  558.80   25.30
   2  -8   4  595.10   22.90
   2  -8   4  559.00   26.00
  -3   8  -4  529.30   21.20
  -3   8  -4  557.00   24.30
   3  -8   4  568.60   19.10
   3  -8   4  537.80   22.20
  -4   8  -4   18.70    8.50
  -4   8  -4   12.60    8.60
   4  -8   4   18.30    8.80
  -5   8  -4  108.40   12.30
  -5   8  -4   87.60   12.10
   5  -8   4   94.50   11.80
   5  -8   4  107.20    8.80
  -6   8  -4   90.70   14.00
  -6   8  -4   94.20   14.40
   6  -8   4  102.10    8.40
   6  -8   4  125.30   14.40
  -7   8  -4   33.80   12.20
  -7   8  -4   25.00    9.00
   7  -8   4   26.60    4.90
   7  -8   4   26.30    9.50
  -8   8  -4   20.90   12.20
  -8   8  -4    9.90    3.80
   8  -8   4   20.80    4.40
  -9   8  -4   17.60   11.50
  -9   8  -4   25.00    4.00
 -10   8  -4   34.80   16.30
 -11   8  -4   93.30   17.60
 -12   8  -4   70.70   16.40
 -13  -7   4   35.70    7.60
 -13  -7   4   32.90    7.40
 -13  -7   4   34.40    9.60
 -13  -7   4   18.20   11.90
 -12  -7   4   37.60    6.80
 -12  -7   4   41.20    8.90
 -12  -7   4   41.50   11.30
  11   7  -4    0.30    6.90
 -11  -7   4    4.40   10.70
 -11  -7   4    9.60    8.20
 -11  -7   4    2.00    5.50
 -11  -7   4    0.10    6.50
  10   7  -4  112.80   12.20
 -10  -7   4   91.90   10.20
 -10  -7   4  115.80    9.80
 -10  -7   4  115.00    9.60
   9   7  -4    2.90    6.70
  -9  -7   4    0.30    6.50
  -9  -7   4    0.30    5.10
   8   7  -4   21.80    7.00
  -8  -7   4    8.30    5.60
  -8  -7   4   24.40    7.20
   7   7  -4    0.30    5.10
  -7  -7   4    0.30    5.80
   6   7  -4  191.40   12.40
  -6  -7   4  158.50   11.90
  -6  -7   4  193.50   12.40
   5   7  -4 1915.90   54.70
  -5  -7   4 1784.60   54.30
  -5  -7   4 1890.50   53.90
   4   7  -4 1672.30   54.60
   4   7  -4 1624.30   54.70
  -4  -7   4 1631.00   54.60
   3   7  -4  317.90   13.60
   3   7  -4  282.30   13.70
  -3  -7   4  283.30   13.50
  -3  -7   4  295.90   12.30
   2   7  -4    9.00    7.00
   2   7  -4   11.40    6.90
  -2  -7   4   12.40    6.10
  -2  -7   4    1.40    5.80
   1   7  -4 1035.20   33.70
   1   7  -4 1067.90   35.00
  -1  -7   4 1066.30   34.30
  -1  -7   4 1029.60   33.20
   0   7  -4 1043.00   28.40
   0   7  -4 1034.00   26.90
   0  -7   4  996.80   27.50
   0  -7   4  966.10   26.40
  -1   7  -4  278.70   11.80
  -1   7  -4  275.40   11.20
   1  -7   4  286.50    9.10
   1  -7   4  263.50   11.10
  -2   7  -4  371.70   17.90
  -2   7  -4  315.80   18.80
   2  -7   4  348.10   16.60
   2  -7   4  346.10   18.10
  -3   7  -4  424.90   22.00
  -3   7  -4  377.60   19.80
   3  -7   4  434.10   17.20
   3  -7   4  409.30   21.00
  -4   7  -4   23.30    8.20
  -4   7  -4   49.80    9.40
   4  -7   4   41.10    6.00
   4  -7   4   38.70    8.70
  -5   7  -4  137.20   11.60
  -5   7  -4  133.10   12.80
   5  -7   4  137.50    7.90
   5  -7   4  160.40   13.30
  -6   7  -4   59.30   11.00
   6  -7   4   43.30   10.20
   6  -7   4   55.00    4.90
  -7   7  -4   49.20   12.30
   7  -7   4   42.30   11.80
   7  -7   4   42.20    5.10
  -8   7  -4   10.80    2.90
  -8   7  -4   18.70   10.30
   8  -7   4   16.70    9.00
  -9   7  -4   81.20    4.60
  -9   7  -4   96.40   14.50
 -10   7  -4  168.70   21.00
 -11   7  -4   50.90   13.80
 -12   7  -4    5.90   12.70
 -13   7  -4    0.00   10.60
 -13   7  -4   11.90   13.60
 -13  -6   4   20.50    7.80
 -13  -6   4   25.10   11.10
 -13  -6   4   23.40    7.30
 -12  -6   4   43.80    8.00
 -12  -6   4   43.30   13.80
 -12  -6   4   35.10    9.20
 -12  -6   4   51.50    9.30
 -11  -6   4   26.20    7.70
 -11  -6   4   16.50    6.60
 -11  -6   4   12.40   11.60
 -11  -6   4   15.10    7.30
  10   6  -4   14.60    7.00
 -10  -6   4   16.70    6.30
 -10  -6   4   18.70    6.20
 -10  -6   4   12.40   10.80
 -10  -6   4   18.90    6.50
   9   6  -4  177.30   13.90
   8   6  -4  318.40   15.90
  -8  -6   4  314.60   14.30
  -8  -6   4  323.00   15.30
   7   6  -4  136.30   11.60
  -7  -6   4  131.20   10.60
  -7  -6   4  130.80   11.20
   6   6  -4    5.10    5.30
  -6  -6   4    3.90    5.20
   5   6  -4  466.00   26.90
  -5  -6   4  458.00   26.40
   4   6  -4  574.20   15.30
   4   6  -4  593.30   15.50
  -4  -6   4  581.70   15.70
  -4  -6   4  562.30   16.70
   3   6  -4    5.60    4.80
   3   6  -4   11.60    5.60
  -3  -6   4    5.80    4.70
   2   6  -4    2.50    8.30
   2   6  -4    2.60    7.60
  -2  -6   4    3.00    7.90
  -2  -6   4    3.70    7.30
   1   6  -4  385.40   24.00
   1   6  -4  363.20   22.30
  -1  -6   4  384.90   23.10
  -1  -6   4  370.30   22.60
   0   6  -4  784.50   32.60
   0  -6   4  732.20   31.20
   0  -6   4  766.10   31.80
  -1   6  -4  145.80    9.80
  -1   6  -4  144.00    8.30
   1  -6   4  164.80    8.90
   1  -6   4  151.60    6.90
  -2   6  -4 1163.20   38.00
  -2   6  -4 1156.10   36.60
   2  -6   4 1186.00   33.00
   2  -6   4 1148.30   37.10
  -3   6  -4   83.70    9.70
  -3   6  -4   95.20   10.50
   3  -6   4   86.70    6.70
   3  -6   4   92.40   10.00
  -4   6  -4  780.30   27.50
   4  -6   4  763.90   26.90
   4  -6   4  770.00   20.60
  -5   6  -4   10.30    8.20
   5  -6   4   14.00    3.60
   5  -6   4   13.90    8.70
  -6   6  -4  145.10   15.20
   6  -6   4  160.80   15.90
   6  -6   4  144.80    6.40
  -7   6  -4    2.30    8.60
   7  -6   4   17.40    8.80
  -8   6  -4    1.80    9.30
   8  -6   4    0.10    8.60
  -9   6  -4  264.00   22.20
   9  -6   4  259.00   21.20
 -10   6  -4  256.40   22.00
 -11   6  -4   18.10   11.90
 -12   6  -4    8.30   11.50
 -12   6  -4    0.20   12.80
 -13   6  -4    5.30   13.10
 -13   6  -4   22.40   13.00
 -13  -5   4   17.70    7.10
 -13  -5   4    7.00   10.40
 -13  -5   4   16.90    8.10
 -13  -5   4   10.20    8.30
 -12  -5   4    5.50   12.90
 -12  -5   4    2.30    7.10
 -12  -5   4    0.00    5.70
 -12  -5   4    0.00    6.90
 -11  -5   4   46.40    8.50
 -11  -5   4   34.80   12.90
 -11  -5   4   49.40    8.40
 -11  -5   4   54.40   11.40
 -10  -5   4    0.00    9.00
 -10  -5   4    0.00    5.60
 -10  -5   4    3.10    6.40
   9   5  -4  102.80   10.70
  -9  -5   4   94.30   10.00
  -9  -5   4   93.70   15.50
  -9  -5   4  110.40   10.30
   8   5  -4  587.80   25.00
  -8  -5   4  561.90   23.40
   7   5  -4  600.90   23.50
  -7  -5   4  617.60   22.90
  -7  -5   4  618.40   22.20
   6   5  -4  189.80    9.70
  -6  -5   4  185.00   10.10
  -6  -5   4  179.60    9.50
   5   5  -4  473.60   22.50
  -5  -5   4  464.80   22.20
   4   5  -4  542.10   14.20
   4   5  -4  515.00   14.90
  -4  -5   4  508.70   14.20
  -4  -5   4  536.10   13.60
   3   5  -4  954.50   27.30
   3   5  -4  934.00   25.90
  -3  -5   4  946.30   26.50
  -3  -5   4  915.50   25.80
   2   5  -4  193.00    6.40
   2   5  -4  193.70    7.40
  -2  -5   4  190.40    6.20
   1   5  -4  296.60   11.00
   1   5  -4  322.50   11.20
  -1  -5   4  306.40   10.30
  -1  -5   4  310.30   10.20
   0   5  -4  639.20   20.00
   0   5  -4  612.30   18.10
   0  -5   4  615.30   18.80
  -1   5  -4  265.60   14.10
  -1   5  -4  279.50   13.00
   1  -5   4  268.60   13.50
  -2   5  -4 1932.30   57.40
   2  -5   4 1824.60   51.30
   2  -5   4 1830.90   56.50
  -3   5  -4   31.00    8.20
   3  -5   4   52.40    8.90
   3  -5   4   45.90    5.20
  -4   5  -4   50.50    9.50
   4  -5   4   53.00    4.40
   4  -5   4   71.20   10.10
  -5   5  -4  558.60   26.40
   5  -5   4  543.10   25.70
  -6   5  -4 1751.00   54.60
   6  -5   4 1697.60   54.90
  -7   5  -4  584.50   31.90
   7  -5   4  570.20   32.00
  -8   5  -4  125.90   14.40
  -9   5  -4  210.80   21.80
   9  -5   4  171.10   19.00
 -10   5  -4    0.00    8.40
 -11   5  -4    0.00    9.10
 -11   5  -4    0.00   11.10
 -12   5  -4    1.20   12.10
 -12   5  -4    0.00   10.30
 -13   5  -4   29.60   13.30
 -13   5  -4   20.80   13.20
 -14  -4   4    7.40    7.40
 -14  -4   4    0.00    7.90
 -14  -4   4    0.00    9.80
 -14  -4   4    0.00    8.40
 -13  -4   4   18.60    9.70
 -13  -4   4   12.30   11.70
 -13  -4   4   13.80    7.30
 -13  -4   4   18.50    7.40
 -12  -4   4   28.40    7.50
 -12  -4   4   25.60    7.90
 -12  -4   4   16.00   11.00
 -12  -4   4   52.50   10.70
 -11  -4   4  239.00   21.60
 -11  -4   4  240.60   17.20
 -11  -4   4  213.20   14.80
 -11  -4   4  240.20   14.00
 -10  -4   4   47.40    7.60
 -10  -4   4   37.00   11.70
 -10  -4   4   31.60    6.70
  -9  -4   4   12.70    9.80
  -9  -4   4    0.30    4.80
  -9  -4   4    0.30    5.30
   8   4  -4   28.10    5.70
  -8  -4   4   39.60   11.10
  -8  -4   4   27.90    5.70
  -8  -4   4   18.20    6.00
   7   4  -4    8.10    4.40
  -7  -4   4    9.80    4.00
  -7  -4   4    2.20    8.00
  -7  -4   4   20.20    6.10
   6   4  -4    1.70    3.90
  -6  -4   4    9.80    3.60
  -6  -4   4    2.40    4.60
   5   4  -4  372.60   17.30
  -5  -4   4  403.20   17.30
  -5  -4   4  377.70   18.90
   4   4  -4 1584.40   45.90
  -4  -4   4 1591.80   46.00
  -4  -4   4 1535.30   49.90
   3   4  -4 1944.50   56.80
   3   4  -4 1980.00   58.90
  -3  -4   4 1903.30   56.70
  -3  -4   4 1974.40   58.50
   2   4  -4  139.70    7.70
   2   4  -4  131.80    9.20
  -2  -4   4  152.50    7.50
  -2  -4   4  152.70    9.10
   1   4  -4  427.40   10.60
   1   4  -4  447.10   12.90
  -1  -4   4  473.60   14.10
   0   4  -4  583.30   28.10
   0   4  -4  585.90   26.30
   0  -4   4  563.70   27.40
  -1   4  -4  373.50   17.60
   1  -4   4  361.40   17.00
  -2   4  -4  251.60   17.60
   2  -4   4  251.20   17.30
  -3   4  -4  251.70   12.20
   3  -4   4  234.70   11.50
   3  -4   4  240.40    6.10
  -4   4  -4  227.10   13.50
   4  -4   4  203.40   13.30
  -5   4  -4  421.00   21.40
   5  -4   4  441.80   21.80
  -6   4  -4 1175.60   47.10
   6  -4   4 1061.70   46.50
  -7   4  -4  792.30   31.20
   7  -4   4  768.90   31.50
  -8   4  -4  602.60   28.10
   8  -4   4  575.90   27.40
  -9   4  -4    0.30    8.50
  -9   4  -4    0.10    2.70
   9  -4   4    0.20    9.40
 -10   4  -4  131.80    7.10
 -10   4  -4  153.60   17.40
 -10   4  -4  177.30   18.90
 -10   4  -4  148.20    7.30
 -11   4  -4  119.50   16.40
 -11   4  -4   85.20    6.20
 -11   4  -4   97.40    6.50
 -11   4  -4   77.00   14.90
 -12   4  -4   65.50   14.40
 -12   4  -4   77.60   15.40
 -12   4  -4   55.40    6.00
 -12   4  -4   33.70    4.80
 -13   4  -4    0.10   10.30
 -13   4  -4    3.70    3.30
 -13   4  -4    0.10   11.50
 -13   4  -4    6.00    3.50
 -14  -3   4    4.30    7.50
 -14  -3   4    0.00   11.20
 -14  -3   4    7.40    8.30
 -14  -3   4    6.00    9.40
 -13  -3   4   14.10   12.90
 -13  -3   4    0.20    7.10
 -13  -3   4    0.00    7.70
 -13  -3   4    0.90    6.80
 -12  -3   4   61.00   11.30
 -12  -3   4   75.50   15.00
 -12  -3   4   82.50    9.20
 -11  -3   4  429.50   26.30
 -11  -3   4  354.70   22.10
 -11  -3   4  383.70   17.80
 -10  -3   4  258.10   20.20
 -10  -3   4  221.50   12.40
  -9  -3   4   59.00   10.90
  -9  -3   4   61.20    6.80
  -8  -3   4    4.00    5.10
  -8  -3   4    0.20    7.50
  -8  -3   4   12.00    4.30
  -7  -3   4  461.20   21.00
  -7  -3   4  463.90   16.40
  -7  -3   4  469.70   14.00
   6   3  -4  796.70   25.80
  -6  -3   4  806.90   25.10
  -6  -3   4  757.10   27.60
  -6  -3   4  833.90   32.00
   5   3  -4   34.80    6.40
  -5  -3   4   35.30    6.20
  -5  -3   4   21.70    9.90
  -5  -3   4   36.10    8.50
   4   3  -4  477.60   17.60
  -4  -3   4  488.50   17.80
  -4  -3   4  505.30   22.80
   3   3  -4  345.80    9.50
   3   3  -4  347.80   12.00
  -3  -3   4  352.90    9.70
  -3  -3   4  359.60   12.30
   2   3  -4    5.40    2.70
   2   3  -4    3.00    4.60
  -2  -3   4    2.30    3.00
  -2  -3   4    1.80    4.50
   1   3  -4   81.50    5.10
   1   3  -4   76.50    3.30
  -1  -3   4   84.30    4.30
   0   3  -4   40.30    5.40
   0  -3   4   69.30    4.40
  -1   3  -4  165.40   10.40
   1  -3   4  174.50    7.10
   1  -3   4  187.10   10.30
  -2   3  -4   74.30    5.90
   2  -3   4   85.40    2.60
   2  -3   4   79.20    5.40
  -3   3  -4  358.70   25.50
   3  -3   4  370.50   28.00
  -4   3  -4  953.90   38.30
   4  -3   4 1013.00   38.40
  -5   3  -4   74.40    8.70
   5  -3   4   51.90    7.10
   6  -3   4   67.30   10.40
  -7   3  -4   95.70    4.20
  -7   3  -4  106.10   11.60
  -7   3  -4  106.20    4.30
   7  -3   4  114.60   12.20
  -8   3  -4    3.40    7.40
  -8   3  -4    0.70    2.60
  -8   3  -4    0.40    2.70
  -8   3  -4    0.80    7.50
   8  -3   4    3.40    8.00
  -9   3  -4    6.30    9.00
  -9   3  -4    6.10    3.50
  -9   3  -4    0.10    7.40
  -9   3  -4    0.70    3.20
   9  -3   4    0.10    7.90
 -10   3  -4  282.70   20.90
 -10   3  -4  231.40   10.40
 -10   3  -4  264.00   20.30
 -10   3  -4  259.90   11.10
 -11   3  -4  214.90   20.00
 -11   3  -4  205.50    9.90
 -11   3  -4  219.80   19.30
 -11   3  -4  225.80   10.70
 -12   3  -4  133.60    9.80
 -12   3  -4  128.30   18.50
 -12   3  -4  144.80   19.20
 -13   3  -4   20.70   12.60
 -13   3  -4   22.80   13.40
 -13   3  -4   15.90    5.30
 -14  -2   4   26.40   10.90
 -14  -2   4   49.90   14.90
 -14  -2   4   28.20    8.50
 -13  -2   4   49.80   13.20
 -13  -2   4   64.60    9.80
 -13  -2   4   77.40   14.10
 -12  -2   4    0.10    8.80
 -12  -2   4    3.40    5.90
 -12  -2   4   15.30   11.30
 -11  -2   4    0.10    7.90
 -11  -2   4   14.00    6.00
 -11  -2   4   14.60    9.80
 -10  -2   4   11.30    9.40
 -10  -2   4   12.00    5.80
  -9  -2   4   12.90    8.00
  -9  -2   4    2.20    4.30
  -8  -2   4   12.10    4.80
  -8  -2   4   14.70    8.80
  -7  -2   4  471.20   15.30
  -7  -2   4  469.60   21.70
  -6  -2   4 1247.60   39.40
  -6  -2   4 1283.80   32.60
  -5  -2   4 1439.60   33.50
  -5  -2   4 1346.80   30.50
  -5  -2   4 1368.40   26.70
   4   2  -4  162.00    3.80
  -4  -2   4  159.90    4.00
  -4  -2   4  164.40    7.20
  -4  -2   4  163.20    7.90
   3   2  -4   47.60    1.90
  -3  -2   4   45.90    2.10
  -3  -2   4   43.00    4.60
  -3  -2   4   52.50    4.40
   2   2  -4    3.10    3.40
   2   2  -4    2.90    5.40
  -2  -2   4    4.30    6.10
  -2  -2   4    2.90    5.60
   1   2  -4  152.90   10.80
  -1  -2   4  160.40   10.10
  -1  -2   4  155.20   10.70
   0   2  -4   15.20    8.50
   0   2  -4   18.80    6.30
   0  -2   4   17.60    8.20
   0  -2   4   18.40    6.40
  -1   2  -4   43.70    4.30
  -1   2  -4   47.30    6.80
   1  -2   4   37.70    6.40
   1  -2   4   41.90    4.40
  -2   2  -4    6.50    8.30
  -2   2  -4    5.90    4.10
   2  -2   4    8.60    8.20
   2  -2   4    7.80    4.20
  -3   2  -4 1050.20   38.60
   3  -2   4 1008.50   38.60
  -4   2  -4 1245.50   44.40
  -5   2  -4  954.50   36.70
  -5   2  -4  994.00   28.90
   5  -2   4  971.40   37.30
  -6   2  -4  709.60   28.00
  -6   2  -4  785.50   37.20
  -6   2  -4  698.50   27.80
  -6   2  -4  726.90   35.80
   6  -2   4  705.20   36.20
  -7   2  -4   16.30    7.30
  -7   2  -4   29.20    3.50
  -7   2  -4   39.90    8.70
  -7   2  -4   25.70    3.50
   7  -2   4   10.50    7.10
  -8   2  -4  551.70   26.30
  -8   2  -4  519.70   24.50
  -8   2  -4  546.60   17.20
  -8   2  -4  509.60   16.50
   8  -2   4  525.50   25.40
  -9   2  -4  105.50    8.00
  -9   2  -4  141.50   15.90
  -9   2  -4  105.60    8.80
  -9   2  -4  126.00   15.60
   9  -2   4  115.30   15.00
 -10   2  -4   31.90    5.70
 -10   2  -4   38.30   11.10
 -10   2  -4   37.60   10.70
 -11   2  -4   95.80   16.40
 -11   2  -4   77.30    9.40
 -11   2  -4   79.60   14.90
 -11   2  -4   74.50    8.30
 -12   2  -4   33.90   12.80
 -12   2  -4   40.70    7.10
 -12   2  -4   51.40    9.60
 -12   2  -4   51.00   12.80
 -13   2  -4    0.10    5.70
 -13   2  -4    0.00    8.00
 -13   2  -4    0.00    9.10
 -13   2  -4    0.00   10.40
 -14  -1   4   68.10   15.60
 -14  -1   4   49.90    9.20
 -14  -1   4   52.80   13.50
 -13  -1   4   97.80   10.80
 -13  -1   4  105.60   16.70
 -13  -1   4   70.30   14.40
 -12  -1   4    0.00    9.60
 -12  -1   4   17.60   10.50
 -12  -1   4    0.00    6.90
 -11  -1   4   45.20   11.90
 -11  -1   4   42.40    7.50
 -11  -1   4   31.00   10.60
 -10  -1   4  296.90   20.60
 -10  -1   4  238.20   18.00
 -10  -1   4  239.90   13.00
  -9  -1   4  358.60   15.80
  -9  -1   4  406.70   23.60
  -8  -1   4  195.70   11.20
  -8  -1   4  188.50   17.70
  -7  -1   4   82.40    5.80
  -7  -1   4   94.20   10.40
  -6  -1   4  105.90    4.60
  -6  -1   4   93.10    7.90
  -5  -1   4  171.30    4.20
  -5  -1   4  154.80    9.00
  -4  -1   4   44.10    3.50
  -4  -1   4   34.50    4.40
   3   1  -4    8.10   10.90
  -3  -1   4    9.00   11.50
   2   1  -4  316.10   21.50
   2   1  -4  328.70   25.70
   2   1  -4  329.90   25.50
  -2  -1   4  332.30   25.50
  -2  -1   4  314.20   25.60
   1   1  -4  420.40   31.90
   1   1  -4  429.80   32.80
  -1  -1   4  419.40   32.70
  -1  -1   4  435.50   31.90
   0   1  -4  216.60   24.50
   0   1  -4  212.70   26.10
   0  -1   4  242.10   26.70
   0  -1   4  240.10   24.60
  -1   1  -4    3.00    2.80
  -1   1  -4    3.00    4.40
   1  -1   4    3.10    2.80
   1  -1   4    3.90    4.20
  -2   1  -4   43.20    4.80
  -2   1  -4   37.60    7.80
   2  -1   4   44.90    8.80
   2  -1   4   37.60    5.10
  -3   1  -4  214.00   10.20
  -3   1  -4  224.20    9.90
  -3   1  -4  224.70    5.80
   3  -1   4  230.20   10.20
   3  -1   4  226.50    6.10
  -4   1  -4    0.10    2.10
  -4   1  -4    0.30    4.90
  -4   1  -4    1.10    5.30
   4  -1   4    0.00    4.40
  -5   1  -4  166.70    9.70
  -5   1  -4  151.70    5.30
  -5   1  -4  184.80   11.00
   5  -1   4  145.50    9.70
  -6   1  -4    8.90    4.30
  -6   1  -4   16.30    8.70
  -6   1  -4    7.10    7.40
   6  -1   4    7.10    7.90
  -7   1  -4  108.60    7.50
  -7   1  -4  110.40    6.70
  -7   1  -4  104.30   11.40
  -7   1  -4  130.70   11.50
   7  -1   4  109.60   11.30
  -8   1  -4 1034.10   33.80
  -8   1  -4 1010.30   39.40
  -8   1  -4  937.80   32.50
  -8   1  -4  975.10   41.10
   8  -1   4  962.70   40.10
  -9   1  -4  264.60   13.10
  -9   1  -4  205.00   17.70
  -9   1  -4  223.00   11.20
  -9   1  -4  259.20   17.70
   9  -1   4  218.90   17.00
 -10   1  -4   38.20   10.30
 -10   1  -4   23.60   11.20
 -10   1  -4   24.80    6.30
 -10   1  -4   34.40    6.10
 -11   1  -4    1.30    9.60
 -11   1  -4    0.00    5.50
 -11   1  -4   11.40    9.70
 -11   1  -4    0.00    4.50
 -12   1  -4   11.00    6.50
 -12   1  -4    0.20   10.10
 -12   1  -4   10.30   10.90
 -12   1  -4    6.00    5.40
 -13   1  -4   51.30   14.30
 -13   1  -4   44.20   12.20
 -13   1  -4   61.50    7.60
 -13   1  -4   71.50    9.00
 -14   0   4   11.40    8.00
 -14   0   4   17.20   11.80
 -14   0   4   10.20   11.50
 -13   0   4    8.90   10.80
 -13   0   4    1.30   10.50
 -13   0   4   12.00    7.20
 -12   0   4   84.20   14.60
 -12   0   4   73.90   14.00
 -11   0   4   89.80    9.30
 -11   0   4   76.10   13.70
 -11   0   4   70.40   13.90
 -10   0   4  105.70   14.10
 -10   0   4  125.10   14.70
 -10   0   4  130.80   10.60
  -9   0   4  322.60   19.00
  -9   0   4  323.70   13.80
  -8   0   4  246.40   11.00
  -8   0   4  239.20   15.70
  -7   0   4  117.00   13.50
  -7   0   4  114.60    8.80
   6   0  -4  991.10   36.60
  -6   0   4  951.30   35.90
  -6   0   4  965.80   30.00
   5   0  -4 1346.60   46.60
  -5   0   4 1397.00   40.50
  -5   0   4 1377.20   46.60
  -5   0   4 1428.90   40.40
   4   0  -4  554.70   32.30
  -4   0   4  570.60   29.50
   3   0  -4   97.50    9.10
  -3   0   4   82.20    8.80
   2   0  -4  125.40    9.30
   2   0  -4  121.70   13.60
  -2   0   4  116.30   13.00
  -2   0   4  119.60   13.00
  -2   0   4  113.30    9.40
   1   0  -4   37.30    4.70
   1   0  -4   33.50    6.20
   1   0  -4   39.30    6.60
  -1   0   4   45.60    6.40
  -1   0   4   34.00    6.40
  -1   0   4   34.20    4.60
   0   0  -4  137.50    5.70
   0   0  -4  155.30    6.50
   0   0  -4  136.50    5.40
   0   0   4  136.90    6.60
   0   0   4  139.50    5.80
   0   0   4  137.90    5.10
  -1   0  -4  117.50    3.80
  -1   0  -4  112.00    4.80
  -1   0  -4  129.30    5.10
   1   0   4   98.90    3.60
   1   0   4   98.00    4.80
  -2   0  -4   58.70    4.90
  -2   0  -4   69.00    3.70
  -2   0  -4   53.10    5.00
   2   0   4   56.20    5.10
   2   0   4   66.70    4.30
  -3   0  -4  114.60    8.10
  -3   0  -4   99.70    7.10
  -3   0  -4   97.80    5.00
   3   0   4   97.00    7.40
   3   0   4   92.50    5.50
  -4   0  -4  939.40   30.90
  -4   0  -4  964.50   32.00
  -4   0  -4 1011.80   27.80
   4   0   4  980.90   31.50
  -5   0  -4  308.80   17.80
  -5   0  -4  323.10   13.60
  -5   0  -4  348.60   17.20
   5   0   4  320.80   17.30
  -6   0  -4  396.80   15.50
  -6   0  -4  401.90   19.40
  -6   0  -4  395.20   20.50
   6   0   4  369.60   19.60
  -7   0  -4    6.70    8.00
  -7   0  -4    6.10    7.00
  -7   0  -4    3.50    7.30
   7   0   4   15.00    7.90
  -8   0  -4  245.20   19.20
  -8   0  -4  259.90   17.40
  -8   0  -4  261.30   13.20
   8   0   4  273.70   18.10
  -9   0  -4    0.20    5.60
  -9   0  -4    2.00    7.20
  -9   0  -4    8.80    8.50
  -9   0  -4    2.10    5.30
   9   0   4    8.80    7.00
 -10   0  -4    0.70    8.80
 -10   0  -4   10.00    8.20
 -10   0  -4    8.60    5.30
 -10   0  -4    8.90    6.30
 -11   0  -4   12.30   10.90
 -11   0  -4   14.30    6.00
 -11   0  -4   33.90    8.30
 -11   0  -4   26.30    9.90
 -12   0  -4   36.60   11.50
 -12   0  -4   38.50    7.20
 -12   0  -4   31.30   10.40
 -12   0  -4   35.30    9.80
 -13   0  -4   32.60    8.80
 -13   0  -4   25.50    7.40
 -13   0  -4   55.70   14.00
 -13   0  -4   33.20   12.20
 -14   1   4   12.40   21.10
 -14   1   4    0.00    7.40
 -14   1   4    7.00   11.60
 -13   1   4   98.30   17.10
 -13   1   4   85.40   14.40
 -13   1   4  120.50   12.00
 -12   1   4  400.00   27.70
 -12   1   4  461.90   23.40
 -12   1   4  447.30   26.70
 -11   1   4    0.20    5.40
 -11   1   4    1.50    9.60
 -11   1   4    6.50    9.60
 -10   1   4   15.80   10.20
 -10   1   4   19.20    6.40
 -10   1   4    9.80    9.60
  -9   1   4   95.50   13.70
  -9   1   4  101.50   10.10
  -8   1   4   34.30    5.50
  -8   1   4   29.40    8.00
   7  -1  -4  280.10   18.30
  -7   1   4  253.00   13.40
  -7   1   4  277.30   18.20
  -7   1   4  258.50   13.40
   6  -1  -4   38.70    8.80
  -6   1   4   34.20    5.00
  -6   1   4   29.20    8.50
   5  -1  -4   90.40   16.00
  -5   1   4   94.90   11.20
  -5   1   4   86.00   16.00
  -4   1   4   20.30    2.70
  -4   1   4   14.80    5.10
   3  -1  -4  324.40   13.90
   3  -1  -4  332.20   10.20
  -3   1   4  330.80    9.50
   2  -1  -4  421.90   11.70
   2  -1  -4  384.30    6.70
  -2   1   4  386.50    6.60
  -2   1   4  384.20    9.50
   1  -1  -4   91.80    7.70
   1  -1  -4   96.40    9.60
  -1   1   4   97.40    9.50
  -1   1   4   85.40    9.80
  -1   1   4   94.30    8.00
   0  -1  -4   45.90    5.50
   0  -1  -4   38.40    5.00
   0  -1  -4   42.90    4.90
   0   1   4   44.90    5.30
   0   1   4   44.30    5.70
   0   1   4   33.20    4.30
  -1  -1  -4    5.00    7.10
  -1  -1  -4    4.30    6.70
  -1  -1  -4    3.80    6.30
   1   1   4    4.90    6.70
   1   1   4    3.90    6.60
   1   1   4    4.00    7.60
  -2  -1  -4    7.20    3.90
  -2  -1  -4    6.50    4.30
  -2  -1  -4    7.70    4.80
   2   1   4   10.50    5.50
   2   1   4   11.80    5.10
   2   1   4   13.40    4.70
  -3  -1  -4   99.50    6.30
  -3  -1  -4   78.60    5.70
  -3  -1  -4   84.60    4.80
   3   1   4   81.30    6.10
   3   1   4   81.90    5.20
   3   1   4   80.90    6.20
  -4  -1  -4 2384.90   63.40
  -4  -1  -4 2320.30   61.20
  -4  -1  -4 2343.70   59.80
   4   1   4 2359.40   62.20
   4   1   4 2312.10   63.50
  -5  -1  -4 1732.60   60.00
  -5  -1  -4 1659.40   58.00
   5   1   4 1728.10   60.70
  -6  -1  -4 1097.10   32.90
  -6  -1  -4 1013.10   27.80
  -6  -1  -4 1012.90   29.70
   6   1   4 1006.60   30.30
  -7  -1  -4    2.30    5.90
  -7  -1  -4    4.50    7.00
  -7  -1  -4    4.60    4.80
   7   1   4    1.00    5.60
  -8  -1  -4    0.20    4.60
  -8  -1  -4    5.90    6.60
  -8  -1  -4    0.80    8.30
   8   1   4    8.40    6.80
  -9  -1  -4   85.90   11.00
  -9  -1  -4   98.50   13.50
  -9  -1  -4   91.20    9.30
 -10  -1  -4   49.00    7.80
 -10  -1  -4   50.40    9.00
 -10  -1  -4   69.40   11.60
 -10  -1  -4   46.30    6.70
 -11  -1  -4   10.00    5.70
 -11  -1  -4   19.40   10.70
 -11  -1  -4   18.90    9.00
 -11  -1  -4    9.90    8.30
 -12  -1  -4   23.10    7.60
 -12  -1  -4   23.20    8.60
 -12  -1  -4   11.20    9.00
 -12  -1  -4    9.20   11.00
 -13  -1  -4   13.50    9.90
 -13  -1  -4   21.00    8.40
 -13  -1  -4   11.40    7.20
 -13  -1  -4    6.70    9.90
 -14   2   4    0.00   10.40
 -14   2   4    0.00    7.40
 -14   2   4    0.00    7.40
 -14   2   4   13.90   12.30
 -13   2   4  180.80   14.60
 -13   2   4  181.10   15.40
 -13   2   4  219.60   20.40
 -13   2   4  164.10   21.10
 -12   2   4  302.90   18.00
 -12   2   4  277.10   17.30
 -12   2   4  338.30   23.40
 -12   2   4  304.70   25.60
 -11   2   4   73.30   13.50
 -11   2   4   64.70    9.50
 -11   2   4   60.30   13.80
 -11   2   4   58.60    9.10
 -10   2   4   46.70    7.50
 -10   2   4   51.60    7.80
 -10   2   4   41.10   11.30
 -10   2   4   52.50    9.80
  -9   2   4    0.10    5.30
  -9   2   4    0.10    7.80
  -9   2   4    1.20    5.10
   8  -2  -4  147.10   15.20
  -8   2   4  172.40   15.70
  -8   2   4  139.50   10.70
   7  -2  -4  160.00   12.90
  -7   2   4  170.20    8.70
  -7   2   4  173.50   13.30
   6  -2  -4  603.40   32.20
  -6   2   4  624.30   31.50
  -6   2   4  636.30   27.00
   5  -2  -4  246.90   12.00
  -5   2   4  249.30   11.10
  -5   2   4  253.40    7.80
   4  -2  -4    3.60    8.10
   4  -2  -4    1.70    4.90
  -4   2   4    1.80    7.40
  -4   2   4    1.70    4.70
   3  -2  -4  186.90    3.10
   3  -2  -4  218.00    4.30
  -3   2   4  185.10    2.50
  -3   2   4  173.70    4.60
   2  -2  -4  804.20   27.80
   2  -2  -4  834.40   25.30
  -2   2   4  864.90   28.00
  -2   2   4  832.30   24.90
   1  -2  -4   50.60    8.90
   1  -2  -4   48.40    6.10
  -1   2   4   48.90    6.20
  -1   2   4   45.20    7.60
  -1   2   4   48.10    8.40
   0  -2  -4   53.10    3.10
   0  -2  -4   31.90    4.40
   0   2   4   29.20    3.70
   0   2   4   37.00    3.30
   0   2   4   41.50    3.80
  -1  -2  -4   71.30    4.90
  -1  -2  -4   72.60    4.50
  -1  -2  -4   71.50    4.70
   1   2   4   75.40    5.00
   1   2   4   85.70    5.50
   1   2   4   71.30    4.80
  -2  -2  -4  889.80   22.50
  -2  -2  -4  871.80   20.90
  -2  -2  -4  919.80   21.80
   2   2   4  943.30   22.80
   2   2   4  867.00   22.70
   2   2   4  880.20   22.30
  -3  -2  -4  408.00   10.70
  -3  -2  -4  413.80   12.30
   3   2   4  397.60   11.40
   3   2   4  371.40   12.10
   3   2   4  387.90   11.50
  -4  -2  -4   25.10    4.80
  -4  -2  -4   12.20    4.10
  -4  -2  -4    7.60    4.40
   4   2   4   34.10    4.80
   4   2   4    9.20    4.30
  -5  -2  -4  154.60   11.50
  -5  -2  -4  168.00    9.30
  -5  -2  -4  134.20    8.60
   5   2   4  146.70    9.20
   5   2   4  136.90   10.80
  -6  -2  -4  212.40   14.80
  -6  -2  -4  236.90   13.90
  -6  -2  -4  219.60   16.00
   6   2   4  208.40   13.60
   6   2   4  239.40   16.90
  -7  -2  -4   37.60    6.60
  -7  -2  -4   27.10    6.60
  -7  -2  -4   32.50    8.50
   7   2   4   31.90    6.80
  -8  -2  -4   24.70    7.50
  -8  -2  -4   41.50    7.60
  -8  -2  -4   30.10    9.50
   8   2   4   42.30    7.70
  -9  -2  -4  229.70   17.50
  -9  -2  -4  206.00   14.40
  -9  -2  -4  216.30   13.70
 -10  -2  -4   66.00    9.60
 -10  -2  -4   47.60   11.80
 -10  -2  -4   60.30    8.80
 -11  -2  -4   22.30   12.20
 -11  -2  -4   57.90   10.70
 -11  -2  -4   33.20    8.60
 -11  -2  -4   38.50    9.40
 -12  -2  -4   70.70   14.50
 -12  -2  -4   55.50    9.00
 -12  -2  -4   74.90   11.30
 -12  -2  -4   53.30   10.40
 -13  -2  -4   18.30   11.70
 -13  -2  -4    2.60    8.00
 -13  -2  -4   12.20    7.60
 -13  -2  -4    4.90    9.00
 -14   3   4   34.70   13.40
 -14   3   4   46.00   13.00
 -14   3   4   51.80   10.10
 -14   3   4   64.20   10.50
 -13   3   4   30.20    9.30
 -13   3   4   21.90   12.10
 -13   3   4   36.40   14.70
 -13   3   4   37.30   10.20
 -12   3   4    8.60   10.00
 -12   3   4    0.50    7.40
 -12   3   4    9.80    7.00
 -12   3   4    9.70   10.20
 -11   3   4    2.50    6.40
 -11   3   4    1.70    8.30
 -11   3   4    0.10    9.40
 -11   3   4    5.30    7.80
 -10   3   4    0.00    8.90
 -10   3   4    7.00    8.50
 -10   3   4    0.00    5.30
   9  -3  -4   14.90    9.60
  -9   3   4   16.40    9.60
  -9   3   4   10.00    9.90
  -9   3   4    9.70    6.50
   8  -3  -4  799.40   31.90
  -8   3   4  769.00   26.10
  -8   3   4  787.50   30.90
   7  -3  -4 1515.80   44.60
  -7   3   4 1566.40   39.40
  -7   3   4 1582.40   44.00
   6  -3  -4   84.40   14.70
  -6   3   4   72.90   10.10
  -6   3   4   83.10   13.40
   5  -3  -4  109.30    9.40
  -5   3   4   98.90    9.10
  -5   3   4   89.90    6.60
   4  -3  -4   50.70    6.60
   4  -3  -4   42.50    7.80
  -4   3   4   48.70    5.60
  -4   3   4   36.00    7.00
   3  -3  -4  549.20   30.80
   3  -3  -4  538.60   28.40
  -3   3   4  564.30   30.30
  -3   3   4  579.50   27.40
   2  -3  -4  160.20    7.80
   2  -3  -4  142.80    9.10
  -2   3   4  152.60    9.10
  -2   3   4  146.70    7.20
   1  -3  -4  736.20   21.80
   1  -3  -4  722.40   20.00
  -1   3   4  724.80   20.00
  -1   3   4  740.60   21.50
   0  -3  -4   51.00    4.80
   0  -3  -4   49.60    5.60
   0   3   4   45.70    5.00
   0   3   4   42.90    5.20
   0   3   4   46.60    6.10
  -1  -3  -4   53.50    7.60
  -1  -3  -4   66.50    8.70
   1   3   4   59.30    8.40
   1   3   4   53.20    7.20
   1   3   4   65.50    8.20
  -2  -3  -4 3406.20   95.90
  -2  -3  -4 3527.50   95.80
  -2  -3  -4 3458.50   93.50
   2   3   4 3520.20   95.10
   2   3   4 3588.60   97.00
   2   3   4 3459.30   96.60
  -3  -3  -4 1882.80   49.10
  -3  -3  -4 1938.80   48.20
  -3  -3  -4 1818.20   45.60
   3   3   4 1822.00   49.50
   3   3   4 1902.30   49.20
   3   3   4 1881.30   47.70
  -4  -3  -4 1147.00   31.10
  -4  -3  -4 1113.30   35.70
  -4  -3  -4 1178.10   38.40
   4   3   4 1215.30   32.70
   4   3   4 1188.00   36.00
  -5  -3  -4  102.40    9.50
  -5  -3  -4   77.00   10.10
  -5  -3  -4   94.70    8.20
   5   3   4   93.00   11.00
   5   3   4   97.40    8.60
  -6  -3  -4   71.10    7.70
  -6  -3  -4   74.40    6.70
  -6  -3  -4   76.40    9.70
   6   3   4   67.80    6.50
   6   3   4   71.40    9.30
  -7  -3  -4  547.20   19.00
  -7  -3  -4  554.70   20.70
  -7  -3  -4  536.80   23.20
   7   3   4  598.70   26.70
   7   3   4  520.00   23.70
  -8  -3  -4   85.10   10.30
  -8  -3  -4  111.70   14.00
  -8  -3  -4  104.00   10.50
  -9  -3  -4   41.10    9.70
  -9  -3  -4   30.10    7.10
  -9  -3  -4   50.50    8.40
 -10  -3  -4  126.00   13.30
 -10  -3  -4  129.10   12.90
 -10  -3  -4  176.50   18.80
 -11  -3  -4    9.70   20.70
 -11  -3  -4    2.40    6.70
 -11  -3  -4   10.40    7.40
 -12  -3  -4    9.50    8.90
 -12  -3  -4    0.40   10.60
 -13  -3  -4   13.50    8.10
 -13  -3  -4   15.40   12.40
 -13  -3  -4    4.70    8.00
 -13  -3  -4   19.80    8.20
 -14   4   4   50.90   13.50
 -14   4   4   58.20   11.10
 -14   4   4   46.90    9.20
 -14   4   4   68.30   17.00
 -13   4   4    0.20    7.40
 -13   4   4    0.20    9.60
 -13   4   4    0.20    7.60
 -13   4   4    0.20   12.40
 -12   4   4  145.10   17.00
 -12   4   4  125.70   13.00
 -12   4   4  137.90   14.30
 -11   4   4   75.80   13.60
 -11   4   4   69.60   10.20
 -11   4   4   67.10   16.20
 -10   4   4   23.80    9.10
 -10   4   4   39.40   11.00
 -10   4   4   33.40    7.40
   9  -4  -4   15.20    8.10
  -9   4   4   13.90    5.90
  -9   4   4    1.00    6.90
  -9   4   4    3.10    8.20
   8  -4  -4  672.50   25.80
  -8   4   4  668.40   20.80
  -8   4   4  701.20   25.20
   7  -4  -4   79.80   14.30
  -7   4   4   93.00   15.00
  -7   4   4  104.00   11.50
   6  -4  -4   55.00    9.60
  -6   4   4   70.30    7.70
  -6   4   4   47.60    9.20
   5  -4  -4   44.70   12.50
  -5   4   4   52.00    9.40
  -5   4   4   52.40   12.30
   4  -4  -4  221.80    9.70
   4  -4  -4  242.50   12.00
  -4   4   4  214.10   11.20
  -4   4   4  233.20    9.90
   3  -4  -4  496.30   26.00
   3  -4  -4  493.90   24.20
  -3   4   4  516.30   24.90
  -3   4   4  520.60   25.40
   2  -4  -4    8.20    5.70
   2  -4  -4    2.60    4.80
  -2   4   4    1.70    3.90
  -2   4   4    3.40    5.30
   1  -4  -4 2960.00  100.70
   1  -4  -4 3089.70   99.10
  -1   4   4 2966.40  100.20
  -1   4   4 3110.70   98.90
   0  -4  -4  949.50   23.40
   0  -4  -4  955.10   25.00
   0   4   4  946.70   23.50
   0   4   4  950.60   24.60
  -1  -4  -4  149.50    7.50
  -1  -4  -4  136.70    6.60
   1   4   4  160.90    6.50
   1   4   4  173.60    8.50
   1   4   4  126.70    6.40
  -2  -4  -4  491.30   18.20
  -2  -4  -4  538.60   18.80
   2   4   4  510.10   18.80
   2   4   4  500.60   19.70
   2   4   4  513.30   17.00
  -3  -4  -4  160.80   12.00
  -3  -4  -4  156.70   11.80
   3   4   4  172.70   13.20
   3   4   4  158.80   13.20
   3   4   4  156.40   10.40
  -4  -4  -4  189.50   14.80
  -4  -4  -4  192.90   15.90
  -4  -4  -4  163.60   10.90
   4   4   4  181.70   12.70
   4   4   4  165.90   16.00
  -5  -4  -4   40.90    6.80
  -5  -4  -4   20.60    6.40
  -5  -4  -4   34.40    4.20
   5   4   4   44.30    4.80
   5   4   4   23.30    6.90
  -6  -4  -4  210.70   16.20
  -6  -4  -4  188.60   14.40
  -6  -4  -4  199.20   11.10
   6   4   4  217.80   16.90
   6   4   4  212.10   11.60
  -7  -4  -4  505.40   24.80
  -7  -4  -4  451.80   21.90
  -7  -4  -4  443.70   18.00
   7   4   4  464.00   18.60
   7   4   4  471.70   26.10
  -8  -4  -4   20.90    7.50
  -8  -4  -4   21.70    5.80
  -8  -4  -4   23.80    9.80
   8   4   4   10.90    8.40
  -9  -4  -4   31.10    8.10
  -9  -4  -4   43.90    6.60
  -9  -4  -4   39.50   10.40
 -10  -4  -4    0.00    7.10
 -10  -4  -4    4.90    5.30
 -10  -4  -4    5.30   10.10
 -11  -4  -4    6.30    7.10
 -11  -4  -4    9.10    5.70
 -11  -4  -4   14.10   10.30
 -12  -4  -4    3.30    7.40
 -12  -4  -4    0.70   10.30
 -12  -4  -4    5.80    6.50
 -14   5   4    2.00    7.60
 -14   5   4    0.20    8.00
 -14   5   4   20.80   13.70
 -14   5   4    8.00   14.70
 -13   5   4   14.70   12.50
 -13   5   4   10.20    8.40
 -13   5   4    0.20    7.70
 -13   5   4    0.20   10.00
 -12   5   4  124.40   14.90
 -12   5   4  128.30   19.70
 -12   5   4  143.10   13.70
  11  -5  -4   90.90   13.00
 -11   5   4  115.00   17.10
 -11   5   4  119.10   14.00
 -11   5   4  116.30   11.30
  10  -5  -4  136.90   17.00
 -10   5   4  150.70   13.30
 -10   5   4  146.40   20.60
 -10   5   4  166.20   17.00
   9  -5  -4  144.80   17.00
  -9   5   4  121.40   18.70
  -9   5   4  140.40   15.20
  -9   5   4  133.70   13.00
   8  -5  -4  141.10   18.00
  -8   5   4  163.80   14.40
  -8   5   4  171.70   17.70
  -8   5   4  180.90   20.50
   7  -5  -4    0.60    6.80
  -7   5   4    2.30    5.70
  -7   5   4    1.90    8.00
   6  -5  -4  323.10   22.80
  -6   5   4  297.40   18.50
  -6   5   4  300.00   20.80
   5  -5  -4  173.20    9.80
   5  -5  -4  195.90   11.60
  -5   5   4  183.10   13.00
  -5   5   4  207.90   11.10
   4  -5  -4    2.90    6.20
   4  -5  -4    1.10    6.80
  -4   5   4    5.10    5.50
  -4   5   4    3.50    6.00
   3  -5  -4  737.00   20.20
   3  -5  -4  685.30   18.60
  -3   5   4  698.70   18.90
  -3   5   4  706.70   17.30
   2  -5  -4   88.00    9.80
   2  -5  -4   88.60   10.10
  -2   5   4   81.40    9.70
  -2   5   4   74.50    9.20
   1  -5  -4 2180.90   62.20
   1  -5  -4 2252.80   61.00
  -1   5   4 2163.50   61.70
  -1   5   4 2168.50   60.20
   0  -5  -4  971.00   35.60
   0  -5  -4  974.90   37.00
   0   5   4 1045.40   37.40
   0   5   4  972.80   35.70
  -1  -5  -4   68.10   12.40
  -1  -5  -4   61.20   12.80
   1   5   4   76.50   11.30
   1   5   4   83.80   13.00
   1   5   4   69.90   14.30
  -2  -5  -4  370.90   15.30
  -2  -5  -4  347.80   15.20
   2   5   4  342.20   15.30
   2   5   4  369.20   13.40
   2   5   4  357.30   16.40
  -3  -5  -4 1598.00   46.90
  -3  -5  -4 1572.80   46.90
   3   5   4 1504.30   47.30
   3   5   4 1549.00   48.10
   3   5   4 1512.10   43.90
  -4  -5  -4 1417.50   47.80
  -4  -5  -4 1409.10   48.20
   4   5   4 1374.50   49.20
   4   5   4 1410.70   44.00
  -5  -5  -4  222.90   14.90
  -5  -5  -4  254.50   16.50
   5   5   4  217.00   11.00
   5   5   4  213.70   16.50
  -6  -5  -4   16.50    3.00
  -6  -5  -4   23.30    7.30
  -6  -5  -4    5.50    7.90
   6   5   4   14.20    8.10
   6   5   4   17.90    3.60
  -7  -5  -4  382.20   21.90
  -7  -5  -4  321.40   19.70
  -7  -5  -4  329.60   13.20
   7   5   4  354.30   22.70
  -8  -5  -4    0.30    3.20
  -8  -5  -4    6.50    8.00
  -8  -5  -4    1.50    6.70
   8   5   4    0.90    7.90
  -9  -5  -4  184.60   17.10
  -9  -5  -4  195.50   15.70
  -9  -5  -4  167.60    8.60
 -10  -5  -4    8.70    8.20
 -10  -5  -4    3.60    9.10
 -10  -5  -4    0.40    3.40
 -11  -5  -4    0.90    3.70
 -11  -5  -4    2.40    7.60
 -11  -5  -4    0.50   10.10
 -12  -5  -4    0.10    9.70
 -12  -5  -4    5.40    3.50
 -13   6   4   71.90   18.20
 -13   6   4   37.80   11.80
 -13   6   4   42.40    9.10
 -12   6   4   10.60    7.30
 -12   6   4    4.30    9.90
 -12   6   4    6.10   12.10
  11  -6  -4    0.10    8.80
 -11   6   4    0.00    8.90
 -11   6   4    0.60   11.80
 -11   6   4    3.40    7.30
  10  -6  -4    6.70    8.80
 -10   6   4    1.20    8.00
 -10   6   4    8.40   12.10
 -10   6   4    1.20    6.60
   9  -6  -4   19.80   13.50
  -9   6   4   18.70   11.40
  -9   6   4   12.50    8.40
  -9   6   4    8.30   11.50
   8  -6  -4   10.20    8.80
  -8   6   4    6.40    7.00
  -8   6   4    8.50    6.40
  -8   6   4    3.40    8.90
   7  -6  -4  292.20   21.00
  -7   6   4  267.00   18.90
  -7   6   4  262.30   16.20
  -7   6   4  280.80   21.50
   6  -6  -4    9.60    9.50
  -6   6   4    5.00    6.20
  -6   6   4    2.50    7.90
   5  -6  -4   82.40   10.40
   5  -6  -4   67.40   10.50
  -5   6   4   65.60    8.00
  -5   6   4   73.50    9.30
   4  -6  -4  359.20   21.30
   4  -6  -4  372.30   20.30
  -4   6   4  380.10   20.10
  -4   6   4  350.90   17.90
   3  -6  -4 1231.80   39.20
   3  -6  -4 1265.90   40.70
  -3   6   4 1187.60   37.00
   2  -6  -4   23.90    7.10
   2  -6  -4   33.60    7.20
  -2   6   4   29.70    7.20
  -2   6   4   24.30    6.00
   1  -6  -4  144.00    9.30
   1  -6  -4  160.30    9.40
  -1   6   4  166.30    9.80
  -1   6   4  152.40    8.60
   0  -6  -4   10.60    4.80
   0  -6  -4   10.60    5.00
   0   6   4   10.60    4.20
   0   6   4   10.60    5.40
  -1  -6  -4  327.20   19.20
   1   6   4  319.00   18.50
   1   6   4  331.40   22.70
   1   6   4  339.90   17.20
  -2  -6  -4  275.70   15.00
  -2  -6  -4  300.40   16.00
   2   6   4  293.60   15.80
   2   6   4  304.80   13.00
   2   6   4  295.80   19.10
  -3  -6  -4 2368.40   68.70
  -3  -6  -4 2434.50   68.70
   3   6   4 2363.70   69.60
   3   6   4 2268.80   64.50
   3   6   4 2348.00   70.30
  -4  -6  -4 3046.00   92.00
  -4  -6  -4 3080.20   92.10
   4   6   4 2876.40   86.60
   4   6   4 3084.20   93.90
  -5  -6  -4  275.60   15.40
  -5  -6  -4  297.10   14.80
   5   6   4  288.90    9.00
   5   6   4  284.10   16.30
  -6  -6  -4    8.30    7.10
  -6  -6  -4    0.10    6.80
   6   6   4   11.40    7.50
  -7  -6  -4   47.00   10.60
  -7  -6  -4   33.90   10.30
   7   6   4   45.10   12.60
  -8  -6  -4    5.50    8.30
  -9  -6  -4    9.40    8.20
  -9  -6  -4   10.50    8.30
 -10  -6  -4   46.90   10.60
 -10  -6  -4   58.50   11.90
 -11  -6  -4   45.90   13.00
 -12  -6  -4   56.30   14.10
 -13   7   4   57.90   17.00
 -13   7   4   52.30   12.40
 -13   7   4   23.40    9.30
 -12   7   4   36.70    8.90
 -12   7   4   29.30   10.80
 -12   7   4   25.10   14.00
  11  -7  -4   95.50   15.40
 -11   7   4   84.10   15.30
 -11   7   4  116.50   11.80
 -11   7   4   93.00   12.50
  10  -7  -4    0.60    9.10
 -10   7   4    2.50    9.30
 -10   7   4    3.60   11.30
 -10   7   4    0.30    6.70
   9  -7  -4   47.00   11.20
  -9   7   4   72.60   11.30
  -9   7   4   69.10    9.00
  -9   7   4   69.90   14.60
   8  -7  -4   71.80   11.60
  -8   7   4   92.20   13.10
  -8   7   4   72.60    9.10
  -8   7   4   79.80   10.80
   7  -7  -4  190.30   15.60
  -7   7   4  192.20   12.20
  -7   7   4  214.60   13.90
  -7   7   4  210.30   16.90
   6  -7  -4   33.60   10.80
  -6   7   4   36.50    8.90
  -6   7   4   43.10   11.80
  -6   7   4   47.30   10.10
   5  -7  -4  159.30   14.70
   5  -7  -4  155.10   15.70
  -5   7   4  141.10   11.80
  -5   7   4  166.50   13.50
   4  -7  -4  441.30   19.10
   4  -7  -4  458.90   19.60
  -4   7   4  444.80   18.60
  -4   7   4  454.40   16.90
   3  -7  -4 1145.10   44.20
   3  -7  -4 1161.40   46.10
  -3   7   4 1142.70   42.20
  -3   7   4 1124.00   43.70
   2  -7  -4  171.30   15.50
   2  -7  -4  173.90   15.40
  -2   7   4  180.20   14.10
  -2   7   4  189.50   15.20
   1  -7  -4  242.90   13.40
   1  -7  -4  272.80   14.90
  -1   7   4  254.20   12.60
  -1   7   4  259.20   11.80
   0  -7  -4  634.30   32.20
   0  -7  -4  707.30   31.90
   0   7   4  680.90   31.30
   0   7   4  677.10   32.80
  -1  -7  -4 1234.70   48.80
  -1  -7  -4 1254.90   48.00
   1   7   4 1201.30   48.00
   1   7   4 1302.60   50.10
  -2  -7  -4  158.70   13.90
  -2  -7  -4  172.90   14.70
   2   7   4  152.30   15.10
   2   7   4  157.90   10.40
   2   7   4  154.80   13.60
  -3  -7  -4  218.50   16.20
  -3  -7  -4  209.20   15.30
   3   7   4  221.10   12.10
   3   7   4  227.80   17.30
   3   7   4  191.70   15.20
  -4  -7  -4  445.90   18.70
  -4  -7  -4  465.80   19.70
   4   7   4  384.90   18.90
   4   7   4  358.20   13.20
  -5  -7  -4    4.10    7.20
  -5  -7  -4    0.20    6.30
   5   7   4    0.20    7.90
  -6  -7  -4  165.60   15.40
  -6  -7  -4  163.50   14.60
   6   7   4  170.00   17.40
  -7  -7  -4   10.20    8.30
  -7  -7  -4    8.70    8.40
  -8  -7  -4  283.20   19.20
  -8  -7  -4  369.50   22.60
  -9  -7  -4  205.00   29.90
 -10  -7  -4    0.90    8.90
 -11  -7  -4   10.60   11.20
 -13   8   4    1.50   10.70
 -13   8   4    9.90   10.80
 -12   8   4    5.70   10.30
 -12   8   4   30.90   16.50
 -12   8   4    1.60    8.50
 -11   8   4   15.30   12.50
 -11   8   4    4.60    7.70
 -11   8   4   12.00   10.10
  10  -8  -4    0.90    9.50
 -10   8   4    9.10   10.80
 -10   8   4    5.20    8.00
 -10   8   4   13.50    8.90
   9  -8  -4   46.50   12.00
  -9   8   4   37.00   11.90
  -9   8   4   76.50   10.80
  -9   8   4   85.10   12.70
   8  -8  -4   12.60    8.90
  -8   8   4   14.60    6.90
  -8   8   4    9.60    8.90
  -8   8   4   16.30   10.10
   7  -8  -4   92.50   17.00
  -7   8   4  116.60   14.00
  -7   8   4  131.30   13.10
  -7   8   4  132.90   17.20
   6  -8  -4   21.80    9.00
   6  -8  -4    4.60    9.30
  -6   8   4   19.90    7.60
  -6   8   4   18.40    9.60
  -6   8   4   12.70    8.40
   5  -8  -4   15.90    9.20
   5  -8  -4    0.20    5.90
  -5   8   4    0.20    6.90
  -5   8   4    0.20    6.30
  -5   8   4   14.70    7.60
   4  -8  -4   46.20   11.50
   4  -8  -4   45.80   12.10
  -4   8   4   38.90    8.90
  -4   8   4   47.50   10.90
   3  -8  -4   27.70    7.80
   3  -8  -4   32.50    8.40
  -3   8   4   37.30    7.40
  -3   8   4   37.60    8.10
   2  -8  -4   20.20   10.60
   2  -8  -4   28.90   11.90
  -2   8   4   25.10    9.30
  -2   8   4   22.50   11.10
   1  -8  -4   11.70    7.10
   1  -8  -4    7.50    6.70
  -1   8   4    5.00    6.40
  -1   8   4    4.60    7.10
   0  -8  -4  186.10   14.90
   0  -8  -4  165.00   14.60
   0   8   4  170.80   14.40
   0   8   4  161.30   12.50
  -1  -8  -4  391.60   17.90
  -1  -8  -4  418.50   19.60
   1   8   4  345.40   17.10
   1   8   4  402.10   19.50
  -2  -8  -4  851.80   31.00
  -2  -8  -4  821.70   30.10
   2   8   4  876.00   27.20
   2   8   4  892.50   32.80
   2   8   4  841.10   31.20
  -3  -8  -4    1.70    6.60
  -3  -8  -4    1.70    7.20
   3   8   4    7.30    8.60
   3   8   4    1.70    7.20
   3   8   4    4.20    4.30
  -4  -8  -4   24.90    8.60
  -4  -8  -4   46.50    9.60
   4   8   4   30.40    3.90
   4   8   4   19.80    4.70
   4   8   4   17.90    8.40
  -5  -8  -4  178.40   15.80
  -5  -8  -4  167.80   16.20
   5   8   4  148.70   16.30
  -6  -8  -4    1.00    7.20
  -6  -8  -4    1.00    7.80
  -7  -8  -4   29.20    9.10
  -7  -8  -4   33.90    8.60
  -8  -8  -4  135.70   16.00
  -9  -8  -4    8.00   10.00
 -10  -8  -4    1.80    9.80
 -11  -8  -4   73.10   15.00
 -12   9   4   19.90   10.70
 -12   9   4    6.10   11.90
 -11   9   4   22.80   16.00
 -11   9   4    4.10    9.20
 -11   9   4    8.60    9.20
 -10   9   4    4.60   13.20
 -10   9   4    0.30    7.60
 -10   9   4    5.50    9.90
   9  -9  -4  181.90   20.40
  -9   9   4  148.50   15.50
  -9   9   4  187.60   17.90
  -9   9   4  166.80   22.30
   8  -9  -4    7.10    9.70
  -8   9   4   38.90   12.30
  -8   9   4   31.20    9.90
  -8   9   4   24.20    8.40
   7  -9  -4  192.50   19.70
  -7   9   4  167.50   14.80
  -7   9   4  173.20   15.30
  -7   9   4  196.90   19.40
   6  -9  -4  164.00   19.00
   6  -9  -4  155.60   17.60
  -6   9   4  148.90   13.60
  -6   9   4  158.90   16.60
  -6   9   4  166.90   18.20
   5  -9  -4  374.80   21.60
  -5   9   4  404.50   21.30
  -5   9   4  385.10   19.30
  -5   9   4  362.80   21.80
   4  -9  -4  145.00   14.00
   4  -9  -4  126.80   14.00
  -4   9   4  163.70   12.60
  -4   9   4  145.30   14.20
  -4   9   4  148.90   12.70
   3  -9  -4  177.80   16.40
   3  -9  -4  166.70   16.40
  -3   9   4  163.70   15.10
  -3   9   4  204.30   15.30
  -3   9   4  173.10   15.90
   2  -9  -4  298.00   19.10
   2  -9  -4  300.00   18.80
  -2   9   4  317.00   18.10
  -2   9   4  289.00   18.20
  -2   9   4  283.10   17.20
   1  -9  -4  178.10   14.00
   1  -9  -4  179.60   13.30
  -1   9   4  164.40   14.00
  -1   9   4  165.80   12.20
   0  -9  -4    0.70    6.90
   0  -9  -4    4.70    8.40
   0   9   4    0.70    7.60
   0   9   4    0.70    5.80
  -1  -9  -4    4.40    7.70
  -1  -9  -4    0.50    7.20
   1   9   4    0.70    4.70
   1   9   4    1.20    6.90
   1   9   4    1.20    7.20
  -2  -9  -4  453.30   23.80
  -2  -9  -4  458.60   28.80
   2   9   4  422.10   23.40
   2   9   4  433.60   25.30
   2   9   4  473.00   19.60
   2   9   4  442.80   19.30
  -3  -9  -4    5.60    8.50
  -3  -9  -4   13.80    9.40
   3   9   4    0.00    8.10
   3   9   4    5.30    5.00
   3   9   4    4.80    4.80
   3   9   4    5.80    9.20
  -4  -9  -4    2.80    8.10
  -4  -9  -4   11.80    7.60
   4   9   4    2.80    8.20
   4   9   4    2.80    3.50
   4   9   4    6.20    3.10
  -5  -9  -4  232.20   16.40
  -5  -9  -4  256.60   17.30
  -6  -9  -4   49.10   11.10
  -7  -9  -4   15.80   10.00
  -8  -9  -4  246.90   20.50
  -9  -9  -4   30.30   10.80
 -10  -9  -4    9.60   11.70
 -12  10   4   40.40   13.90
 -12  10   4   24.90   15.10
 -11  10   4    7.80   10.30
 -11  10   4    9.90   14.50
 -10  10   4    1.00   13.10
 -10  10   4   12.80   10.20
  -9  10   4  178.80   17.80
  -9  10   4  169.80   21.40
  -9  10   4  188.20   16.10
  -8  10   4   13.20    9.70
  -8  10   4   14.20    8.60
   7 -10  -4   28.40   11.50
  -7  10   4   23.50    8.80
  -7  10   4   23.60   11.90
  -7  10   4   20.20    9.40
   6 -10  -4   24.60   10.30
   6 -10  -4   31.90   10.70
  -6  10   4   14.20    9.50
  -6  10   4   22.90    9.60
  -6  10   4    1.80    7.10
   5 -10  -4   34.30   11.70
   5 -10  -4    3.80    8.70
  -5  10   4    3.70    9.20
  -5  10   4   27.80    9.90
   4 -10  -4   11.30   11.00
   4 -10  -4   17.50    9.60
  -4  10   4    7.90    8.90
  -4  10   4   11.90   10.00
  -4  10   4    5.70    9.80
   3 -10  -4  577.70   26.50
   3 -10  -4  540.90   26.10
  -3  10   4  576.20   25.20
  -3  10   4  548.60   24.90
  -3  10   4  573.00   27.20
   2 -10  -4  701.20   29.10
   2 -10  -4  733.80   30.10
  -2  10   4  763.50   28.00
  -2  10   4  755.00   29.60
   1 -10  -4  309.10   18.90
   1 -10  -4  315.20   20.50
  -1  10   4  303.40   18.30
  -1  10   4  321.80   20.60
  -1  10   4  334.50   17.70
   0 -10  -4  269.00   18.70
   0 -10  -4  256.90   18.20
   0  10   4  285.50   17.60
   0  10   4  281.50   19.10
   0  10   4  265.40   16.20
  -1 -10  -4  205.20   17.90
  -1 -10  -4  165.40   16.00
   1  10   4  205.70   19.20
   1  10   4  179.60   15.40
   1  10   4  201.00   13.30
  -2 -10  -4   58.80   10.30
  -2 -10  -4   72.80   11.50
   2  10   4   65.50    7.40
   2  10   4   78.20   10.80
   2  10   4   64.10   11.40
   2  10   4   62.90    7.60
  -3 -10  -4  149.80   15.10
  -3 -10  -4  185.70   16.10
   3  10   4  162.20   18.10
   3  10   4  170.00   18.40
   3  10   4  168.80   10.30
   3  10   4  167.40   12.50
  -4 -10  -4    0.20    8.00
   4  10   4    0.20    3.10
   4  10   4    4.50    3.50
  -5 -10  -4   21.40   10.30
  -6 -10  -4    1.70    8.50
  -7 -10  -4   15.60   10.60
  -8 -10  -4   57.10   13.60
  -9 -10  -4    7.00   10.90
 -10 -10  -4    0.90   11.30
 -11  11   4    1.00   13.20
 -11  11   4    1.00    9.00
 -10  11   4   43.90   12.40
 -10  11   4   74.50   17.10
  -9  11   4   75.60   16.40
  -9  11   4   84.60   13.10
  -8  11   4   27.50   11.00
  -8  11   4   26.60   12.20
  -7  11   4    6.60   10.50
  -7  11   4    0.10    7.70
  -7  11   4    1.20    9.20
   6 -11  -4    0.10   10.90
  -6  11   4   16.70    8.80
  -6  11   4   15.60   10.30
  -6  11   4   24.30   10.70
   5 -11  -4  116.30   16.40
   5 -11  -4  140.70   17.50
  -5  11   4  161.20   15.00
  -5  11   4  129.20   14.20
  -5  11   4  132.90   15.90
   4 -11  -4  298.10   22.30
   4 -11  -4  278.30   22.50
  -4  11   4  247.10   19.60
  -4  11   4  258.20   17.90
  -4  11   4  284.70   22.30
   3 -11  -4    3.40    9.50
   3 -11  -4    0.10   10.60
  -3  11   4    2.90    8.50
  -3  11   4    7.00    8.00
  -3  11   4   10.90    9.30
   2 -11  -4  116.10   14.90
   2 -11  -4  117.10   15.90
  -2  11   4  117.90   13.60
  -2  11   4  104.90   14.30
  -2  11   4  135.00   15.10
   1 -11  -4    0.40    8.90
   1 -11  -4   20.60    9.10
  -1  11   4   19.20    7.70
  -1  11   4   17.10    8.00
  -1  11   4    2.00    9.10
   0 -11  -4  135.00   14.90
   0 -11  -4  148.50   16.00
   0  11   4  139.00   13.00
   0  11   4  130.90   15.00
   0  11   4  134.30   14.30
  -1 -11  -4  224.50   17.00
   1  11   4  237.90   18.70
   1  11   4  236.90   14.10
  -2 -11  -4  345.50   22.00
   2  11   4  355.70   23.50
   2  11   4  343.70   16.90
  -3 -11  -4  422.50   26.20
   3  11   4  461.00   20.90
   3  11   4  448.80   19.30
  -4 -11  -4    0.80    9.60
   4  11   4    0.80    3.10
   4  11   4    0.80    3.30
  -6 -11  -4    9.60    9.70
  -7 -11  -4    0.50    8.90
  -8 -11  -4    2.30   10.10
  -9 -11  -4   10.30   10.20
 -10  12   4   54.10   11.90
 -10  12   4   35.70   16.30
  -9  12   4    0.00   12.00
  -8  12   4  153.50   16.60
  -8  12   4  124.10   18.50
  -7  12   4    0.20   11.90
  -7  12   4   11.60    9.30
   6 -12  -4   54.30   14.90
  -6  12   4   68.10   12.00
  -6  12   4   29.70   12.50
   5 -12  -4  454.60   29.90
  -5  12   4  410.60   27.70
  -5  12   4  444.80   26.20
   4 -12  -4  304.80   26.00
  -4  12   4  348.90   24.50
  -4  12   4  348.30   24.20
   3 -12  -4   54.10   13.50
  -3  12   4   43.80   12.00
  -3  12   4   31.40   11.00
   2 -12  -4   47.20   12.00
  -2  12   4   70.70   12.00
  -2  12   4   91.80   14.40
   1 -12  -4  304.40   22.40
  -1  12   4  283.70   19.40
  -1  12   4  326.60   22.50
   0 -12  -4    6.40   11.00
   0  12   4    7.30    7.90
   0  12   4    0.60    9.00
  -1 -12  -4   35.10   11.50
   1  12   4   40.20   12.80
   1  12   4   43.40    9.00
  -2 -12  -4  176.50   19.90
   2  12   4  162.30   13.60
   2  12   4  172.50   19.20
  -3 -12  -4  109.20   15.90
   3  12   4   98.40   10.10
   3  12   4  122.00   10.60
  -4 -12  -4   34.40   10.50
   4  12   4   30.50    4.40
   4  12   4   43.30    4.90
  -5 -12  -4    1.60   10.60
  -6 -12  -4    5.40   10.20
  -7 -12  -4   23.30   12.60
  -8 -12  -4    0.70   10.90
 -10  13   4   14.50   11.80
 -10  13   4    1.10   13.20
  -9  13   4   89.90   14.50
  -9  13   4   43.30   14.60
  -8  13   4  111.90   14.40
  -8  13   4  122.10   18.70
  -7  13   4   18.50   12.00
  -7  13   4   12.10   11.60
   6 -13  -4    5.60   12.30
  -6  13   4   18.10   11.90
  -6  13   4   24.90   13.70
   5 -13  -4   24.30   14.40
  -5  13   4   26.10   11.00
  -5  13   4   19.10   11.50
   4 -13  -4    6.40   11.30
  -4  13   4    0.00    8.10
  -4  13   4    4.40    9.20
   3 -13  -4   90.90   16.90
  -3  13   4   56.20   13.60
  -3  13   4  112.00   15.90
   2 -13  -4   47.20   12.80
  -2  13   4   72.50   13.30
  -2  13   4   56.30   11.80
   1 -13  -4  337.50   24.50
  -1  13   4  336.40   21.80
  -1  13   4  310.10   23.50
   0 -13  -4  261.30   22.20
   0  13   4  258.90   18.00
   0  13   4  215.90   23.20
   1  13   4  103.20   25.00
   1  13   4   95.10   11.40
  -2 -13  -4    6.60    9.90
   2  13   4    8.90   11.10
   2  13   4   10.70    6.80
  -3 -13  -4   12.40   12.40
   3  13   4    9.10    6.40
   3  13   4   24.00    6.50
  -4 -13  -4   66.50   15.00
   4  13   4   47.50    5.60
   4  13   4   77.20    6.60
  -5 -13  -4    0.40   11.20
  -6 -13  -4   32.50   13.80
  -7 -13  -4   24.10   11.80
  -9  14   4   60.80   13.90
  -9  14   4   46.40   16.20
  -8  14   4   74.70   18.40
  -8  14   4   72.10   14.60
  -7  14   4   27.50   14.00
  -7  14   4    9.20   11.30
   6 -14  -4   15.10   15.20
  -6  14   4   25.00   12.70
  -6  14   4   28.70   12.50
   5 -14  -4   57.80   16.90
  -5  14   4   51.00   13.10
  -5  14   4   54.30   13.80
   4 -14  -4  260.10   24.00
  -4  14   4  247.90   21.80
  -4  14   4  271.70   22.50
   3 -14  -4  534.40   32.90
  -3  14   4  519.10   31.20
  -3  14   4  564.00   30.60
   2 -14  -4   16.60   13.20
  -2  14   4   11.00    9.40
  -2  14   4    0.00    9.60
   1 -14  -4    3.90   12.10
  -1  14   4    0.00    8.10
  -1  14   4    0.00   11.10
   0 -14  -4   14.30   11.20
   0  14   4   10.10    8.00
   0  14   4   17.20   10.20
  -1 -14  -4    2.20   11.20
   1  14   4   10.90    7.90
   1  14   4   26.90   11.80
  -2 -14  -4   48.20   13.80
   2  14   4   63.70    9.60
  -3 -14  -4   40.70   12.40
   3  14   4   27.90    6.90
  -4 -14  -4   98.90   16.60
  -5 -14  -4   13.60   13.10
  -6 -14  -4   45.90   13.70
  -7  15   4   16.70   11.50
  -7  15   4    5.10   11.60
   6 -15  -4    0.00   12.90
  -6  15   4    0.00   11.90
  -6  15   4    9.50   11.50
   5 -15  -4    0.20   12.30
  -5  15   4   16.00   11.70
  -5  15   4   13.70   10.70
   4 -15  -4  306.50   26.90
  -4  15   4  270.70   27.30
  -4  15   4  301.00   23.90
   3 -15  -4  412.70   31.60
  -3  15   4  418.70   27.10
  -3  15   4  482.00   28.70
   2 -15  -4   31.00   14.40
  -2  15   4   16.80   11.30
  -2  15   4   23.60   10.60
   1 -15  -4    0.00   10.00
  -1  15   4    0.00    9.40
  -1  15   4    0.00    7.80
   0 -15  -4    0.00   12.80
   0  15   4   13.50    9.20
   0  15   4    1.10   10.20
  -1 -15  -4   17.40   11.60
   1  15   4   43.30   13.30
   1  15   4   32.60    9.60
  -2 -15  -4   63.70   15.00
   2  15   4  110.60   13.60
   2  15   4  121.40   11.10
  -3 -15  -4    1.20   11.20
   3  15   4   35.90    7.60
   3  15   4    0.30    5.80
  -4 -15  -4   43.90   14.30
  -5 -15  -4    0.00   11.30
   6 -16  -4   58.10   19.80
  -6  16   4   56.80   15.20
  -6  16   4   34.90   14.20
   5 -16  -4   48.60   17.50
  -5  16   4   49.10   14.20
  -5  16   4   66.20   15.60
   4 -16  -4   44.30   14.80
  -4  16   4   64.60   15.80
  -4  16   4   53.80   13.70
   3 -16  -4   37.80   15.10
  -3  16   4   22.60   12.00
   2 -16  -4    1.90   12.30
  -2  16   4    0.10   11.30
  -2  16   4    0.10   10.60
   1 -16  -4   35.00   14.10
  -1  16   4   24.60   13.00
  -1  16   4   28.40   11.50
   0 -16  -4    0.10   12.60
   0  16   4    0.10    8.70
   0  16   4   11.30   11.00
  -1 -16  -4  131.20   20.00
   1  16   4  115.70   14.60
  -2 -16  -4   31.10   15.30
   2  16   4   55.30   10.60
   2  16   4   59.80   10.10
  -3 -16  -4   27.50   12.90
   3  16   4   28.10    8.00
   3  16   4   33.90    7.30
   3 -17  -4    3.40   13.20
  -3  17   4    7.10   12.60
  -3  17   4   24.80   12.50
   2 -17  -4   26.40   14.00
  -2  17   4   61.80   15.80
  -2  17   4   47.90   14.10
   1 -17  -4    3.50   15.20
  -1  17   4    5.40   10.80
  -1  17   4    0.50   11.70
   0 -17  -4   18.00   15.50
   0  17   4   12.60    9.80
   3  18  -5  327.90   25.10
  -3 -18   5  343.10   27.20
   2  18  -5    8.70   11.30
  -2 -18   5    0.10   11.70
   1  18  -5   13.20   12.20
  -1 -18   5   17.20   14.30
   0  18  -5   14.50   12.00
   0 -18   5    0.30   14.90
  -1  18  -5    6.10   12.00
   1 -18   5   12.70   12.80
  -2  18  -5   97.00   18.10
  -3  18  -5    0.10   12.30
  -4  18  -5    4.20   13.00
   5  17  -5   73.00   11.20
  -5 -17   5  139.10   18.40
   4  17  -5   12.00    9.80
  -4 -17   5   67.80   15.10
   3  17  -5   38.10   13.30
  -3 -17   5   56.00   14.90
   2  17  -5   46.00   13.20
  -2 -17   5   29.00   13.60
  -2 -17   5   25.50    8.40
   1  17  -5   61.80   14.70
  -1 -17   5   41.40   11.00
  -1 -17   5   35.80   15.30
   0  17  -5    5.10   11.10
   0 -17   5    3.30   12.80
  -1  17  -5   96.00   17.10
   1 -17   5   89.40   19.20
  -2  17  -5  146.30   22.30
  -3  17  -5    3.10   13.20
  -4  17  -5   91.40   20.90
  -5  17  -5   35.80   17.80
  -6  17  -5   21.40   15.10
   6  16  -5  139.60   10.20
  -6 -16   5   95.70   16.50
  -4 -16   5   24.70    7.40
  -4 -16   5   39.00   13.20
   3  16  -5   56.20   13.20
  -3 -16   5   46.00   14.00
  -3 -16   5   59.90   10.30
   2  16  -5  389.40   26.30
  -2 -16   5  453.90   28.70
   1  16  -5    2.60   11.00
  -1 -16   5    0.60   10.10
  -1 -16   5    3.20    7.90
   0  16  -5    0.40   10.40
   0 -16   5    0.40   11.00
   0 -16   5    0.40    8.00
  -1  16  -5  156.60   22.10
   1 -16   5  107.60   21.40
  -2  16  -5   10.80   12.80
  -3  16  -5  328.00   29.10
  -4  16  -5  161.40   21.40
  -5  16  -5   29.90   15.40
   5 -16   5    8.90   10.60
  -6  16  -5    2.50   12.00
  -7  16  -5    3.90   13.70
  -8 -15   5   18.00   12.80
  -7 -15   5    0.00   11.00
   6  15  -5  124.10   10.30
  -6 -15   5  107.30   17.30
  -5 -15   5  144.60   18.80
  -5 -15   5  101.80   10.90
  -4 -15   5  158.10   13.30
   3  15  -5  111.30   15.60
  -3 -15   5  133.20   12.30
   2  15  -5  323.60   25.30
  -2 -15   5  361.40   30.80
  -2 -15   5  267.00   19.70
   1  15  -5   33.40   12.80
  -1 -15   5   45.40   16.70
  -1 -15   5   63.00   11.30
   0  15  -5   92.30   14.70
   0 -15   5   79.70   11.70
  -1  15  -5  169.20   19.90
   1 -15   5  221.00   21.30
   1 -15   5  210.30   23.20
  -2  15  -5   40.50   13.70
   2 -15   5   37.20    9.70
  -3  15  -5  366.90   28.80
   3 -15   5  347.20   21.80
  -4  15  -5   31.00   14.50
   4 -15   5    8.20    8.60
  -5  15  -5    0.20   12.10
   5 -15   5    0.20    8.40
  -6  15  -5    2.80   13.60
   6 -15   5    2.80    7.50
  -7  15  -5    4.10   12.90
  -8  15  -5  290.60   28.40
   8 -15   5  153.70   18.20
  -9 -14   5  197.60   18.80
  -8 -14   5    2.80   10.80
  -7 -14   5  308.30   22.40
  -6 -14   5    1.00    4.70
  -6 -14   5    1.00   10.50
   5  14  -5    0.40    5.30
  -5 -14   5   11.00   10.10
  -5 -14   5   10.40    6.00
  -4 -14   5  386.10   26.80
  -4 -14   5  362.90   19.50
   3  14  -5  265.40   21.10
  -3 -14   5  310.10   22.70
  -3 -14   5  281.30   17.30
   2  14  -5  214.90   19.90
  -2 -14   5  215.60   21.50
  -2 -14   5  214.90   16.10
   1  14  -5   57.00   11.70
  -1 -14   5   71.70   12.70
  -1 -14   5   50.70    8.20
   0  14  -5   29.40   11.70
   0 -14   5   42.70    9.90
   0 -14   5   26.00    8.70
   0 -14   5   48.90   13.50
  -1  14  -5  254.80   21.70
   1 -14   5  303.20   24.70
   1 -14   5  263.10   17.50
   1 -14   5  228.50   18.00
  -2  14  -5   10.90   11.30
   2 -14   5    7.20   11.20
   2 -14   5   11.10    7.90
  -3  14  -5   45.80   13.80
   3 -14   5   61.40   12.40
  -4  14  -5  109.60   18.00
   4 -14   5   71.90   12.10
  -5  14  -5   34.00   13.40
   5 -14   5    5.90    7.30
  -6  14  -5  102.50   19.90
  -7  14  -5   18.30   15.50
  -8  14  -5  124.30   21.90
   8 -14   5  100.30   15.20
  -9  14  -5   44.70   14.70
   9 -14   5    2.70    7.40
  -9 -13   5    7.90   10.30
  -8 -13   5    0.20    9.00
  -7 -13   5  379.40   23.30
  -7 -13   5  363.10   14.40
  -6 -13   5   31.90    6.30
  -6 -13   5   27.40   11.30
  -5 -13   5  358.50   24.10
  -5 -13   5  338.90   17.10
   4  13  -5  566.60   28.30
  -4 -13   5  642.80   28.80
  -4 -13   5  622.30   23.00
   3  13  -5   45.40   12.40
   3  13  -5   62.50   12.70
  -3 -13   5   62.60    9.90
  -3 -13   5   59.00   14.40
   2  13  -5   35.50   13.60
   2  13  -5   13.40   12.80
  -2 -13   5   24.50   10.80
  -2 -13   5   36.20   14.20
   1  13  -5  613.30   30.90
   1  13  -5  627.60   32.60
  -1 -13   5  638.40   29.40
  -1 -13   5  702.30   35.00
  -1 -13   5  585.60   29.00
   0  13  -5  129.30   16.00
   0  13  -5  141.50   22.90
   0 -13   5  123.50   13.80
   0 -13   5  111.60   16.10
   0 -13   5  127.10   13.90
  -1  13  -5  148.20   19.20
   1 -13   5  125.80   18.80
   1 -13   5  159.50   16.70
  -2  13  -5  140.40   17.50
   2 -13   5  131.20   15.60
   2 -13   5  128.00   14.00
  -3  13  -5   20.90   12.20
   3 -13   5   18.40    7.80
   3 -13   5   10.00    9.70
  -4  13  -5  208.00   22.00
   4 -13   5  197.10   16.30
  -5  13  -5   67.00   16.50
   5 -13   5   30.20    9.40
   6 -13   5  128.40   15.00
  -7  13  -5   51.80   15.90
   7 -13   5   11.20    8.90
  -8  13  -5    2.00   12.20
   8 -13   5    0.00    6.60
  -9  13  -5   64.00   16.60
   9 -13   5   65.90    9.10
 -10  13  -5    6.70   14.20
  10 -13   5   15.20    6.00
 -10 -12   5   38.40   11.20
  -9 -12   5  122.60   14.90
  -8 -12   5   89.70   15.10
  -8 -12   5   70.90    6.80
   7  12  -5   20.40   10.00
  -7 -12   5   12.50    9.60
   6  12  -5   64.70   11.90
   6  12  -5   83.60    7.90
  -6 -12   5   61.70    6.50
  -6 -12   5   56.30   11.00
   5  12  -5  216.10   17.50
  -5 -12   5  221.60   11.90
  -5 -12   5  212.20   16.50
   4  12  -5  126.70   14.10
   4  12  -5   81.50   11.30
  -4 -12   5  121.70   10.40
  -4 -12   5  124.10   14.30
   3  12  -5  119.10   13.40
   3  12  -5  119.30   12.00
  -3 -12   5  134.80   13.60
  -3 -12   5  124.00   10.20
  -3 -12   5  150.60   13.40
   2  12  -5  414.60   21.90
   2  12  -5  413.70   19.70
  -2 -12   5  409.80   22.20
  -2 -12   5  422.40   18.30
  -2 -12   5  423.60   20.10
   1  12  -5   22.60   10.30
   1  12  -5   46.40   11.00
  -1 -12   5   29.80    8.10
  -1 -12   5   17.00    7.60
  -1 -12   5   45.00   12.70
   0  12  -5   70.00   11.60
   0  12  -5   53.60    9.80
   0 -12   5   62.70   10.10
   0 -12   5   58.50   10.40
   0 -12   5   78.30   14.20
  -1  12  -5  132.60   16.20
  -1  12  -5  111.40   15.60
   1 -12   5  130.20   15.20
   1 -12   5  122.00   17.30
   1 -12   5  146.00   14.60
  -2  12  -5  450.60   25.00
  -2  12  -5  502.50   28.10
   2 -12   5  460.70   25.40
   2 -12   5  498.60   23.50
  -3  12  -5    1.50   10.10
   3 -12   5    0.10    7.40
   3 -12   5   12.20    7.40
  -4  12  -5   62.60   15.90
   4 -12   5   49.90   10.00
  -5  12  -5    0.10   10.50
   5 -12   5    6.10    6.40
  -6  12  -5   96.20   17.50
   6 -12   5   40.10    9.70
  -7  12  -5   21.80   12.80
   7 -12   5    0.30    6.10
  -8  12  -5   67.70   16.90
   8 -12   5   69.60   11.10
  -9  12  -5  290.10   26.60
   9 -12   5  282.10   14.50
 -10  12  -5   71.60   19.50
  10 -12   5   79.90    7.90
 -11 -11   5   14.40    9.70
 -10 -11   5   55.30   12.30
   9  11  -5  282.40   22.40
  -9 -11   5  307.60   11.50
  -9 -11   5  318.80   21.70
   8  11  -5  130.10   14.80
  -8 -11   5  158.50   15.20
  -8 -11   5  140.90    8.40
   7  11  -5   26.70    8.20
  -7 -11   5   53.70   10.20
   6  11  -5  194.50   14.60
   6  11  -5  158.50   20.60
  -6 -11   5  182.40   18.00
  -6 -11   5  181.80   12.70
   5  11  -5  150.60   13.90
   5  11  -5  185.80   16.40
  -5 -11   5  178.90   11.80
  -5 -11   5  181.90   16.50
   4  11  -5  155.50   13.30
   4  11  -5  160.40   13.10
  -4 -11   5  176.20   14.10
  -4 -11   5  177.60   11.10
   3  11  -5    8.30    6.90
   3  11  -5    0.10    7.80
  -3 -11   5    0.10    7.80
  -3 -11   5    7.00    7.20
  -3 -11   5   11.00    5.80
   2  11  -5  181.50   16.20
   2  11  -5  180.50   14.20
  -2 -11   5  193.60   15.80
  -2 -11   5  180.10   14.70
  -2 -11   5  162.80   12.40
   1  11  -5  112.00   12.90
   1  11  -5  161.20   13.80
  -1 -11   5  148.80   11.90
  -1 -11   5  145.70   13.90
  -1 -11   5  160.30   12.40
   0  11  -5   80.00   15.00
   0  11  -5   80.80   13.30
   0 -11   5   70.40   14.30
   0 -11   5  102.40   13.30
   0 -11   5  109.70   13.80
  -1  11  -5    0.20    8.30
   1 -11   5   12.20    7.50
   1 -11   5   19.20    7.10
  -2  11  -5  942.30   39.50
  -2  11  -5  832.60   35.70
   2 -11   5  863.30   36.70
   2 -11   5  942.20   34.30
  -3  11  -5   32.20    9.80
  -3  11  -5   23.70   10.40
   3 -11   5   23.90    7.10
   3 -11   5   22.50    8.80
  -4  11  -5  114.70   16.10
  -4  11  -5  103.10   13.00
   4 -11   5  118.50   11.90
   4 -11   5  122.40   15.10
  -5  11  -5  217.50   20.50
   5 -11   5  150.30   14.20
  -6  11  -5   15.40   11.30
   6 -11   5    7.40    6.60
  -7  11  -5  390.30   27.40
   7 -11   5  356.80   18.50
  -8  11  -5    0.90   10.80
   8 -11   5   15.00    5.40
  -9  11  -5  160.30   22.40
   9 -11   5  200.30   10.50
 -10  11  -5   39.80   14.80
 -11  11  -5   19.60   14.40
  11  10  -5   53.80   12.20
 -11 -10   5   62.30   11.60
  10  10  -5  103.90   13.80
 -10 -10   5  120.90   13.00
 -10 -10   5  111.50    7.20
 -10 -10   5  116.30    6.80
   9  10  -5  192.40   21.50
  -9 -10   5  175.80   10.20
  -9 -10   5  203.80   17.40
   8  10  -5   66.90   10.90
  -8 -10   5   86.20   11.00
   7  10  -5  159.40   17.60
  -7 -10   5  148.10   11.80
  -7 -10   5  141.10   16.90
   6  10  -5  141.90   15.10
  -6 -10   5  146.70   11.20
  -6 -10   5  150.40   15.80
   5  10  -5  366.50   21.60
   5  10  -5  420.30   23.60
  -5 -10   5  457.00   23.50
   4  10  -5 1422.40   53.60
   4  10  -5 1523.20   53.80
  -4 -10   5 1492.60   49.50
  -4 -10   5 1530.30   53.20
   3  10  -5  133.00   13.80
   3  10  -5  122.60   14.80
  -3 -10   5  142.80   12.80
  -3 -10   5  136.60   16.10
   2  10  -5  281.00   20.00
   2  10  -5  314.00   18.90
  -2 -10   5  290.80   19.60
  -2 -10   5  295.40   16.60
   1  10  -5    0.30   10.10
   1  10  -5    0.30    7.30
  -1 -10   5    0.30    7.10
  -1 -10   5    0.40    6.70
  -1 -10   5    2.00    8.90
   0  10  -5  957.60   37.50
   0  10  -5  906.10   35.30
   0 -10   5  910.20   33.30
   0 -10   5  957.40   37.80
   0 -10   5  922.50   34.90
  -1  10  -5   31.40   12.30
  -1  10  -5   30.30   10.70
   1 -10   5   18.20    9.90
   1 -10   5   28.60    9.60
  -2  10  -5  513.00   24.90
  -2  10  -5  490.50   22.00
   2 -10   5  504.50   19.80
   2 -10   5  481.10   22.50
  -3  10  -5   13.70    9.40
   3 -10   5    8.30    5.40
   3 -10   5    0.90    6.40
  -4  10  -5  211.90   19.60
  -4  10  -5  235.60   17.80
   4 -10   5  201.30   13.80
   4 -10   5  223.00   18.40
  -5  10  -5   80.30   11.70
  -5  10  -5   81.20   14.20
   5 -10   5   80.90   13.20
   5 -10   5   72.70    9.70
  -6  10  -5  115.70   17.50
   6 -10   5  111.30   11.30
  -7  10  -5  786.30   37.80
  -8  10  -5   36.70   15.10
   8 -10   5   53.20    5.80
  -9  10  -5    0.40   10.70
 -10  10  -5   27.50   14.50
 -11  10  -5   16.20   12.40
  12   9  -5    0.30    8.70
 -12  -9   5    8.70    8.50
 -12  -9   5    0.10    4.20
 -12  -9   5    3.50    4.20
 -12  -9   5    5.50   12.60
  11   9  -5  369.80   23.10
 -11  -9   5  415.40   16.30
 -11  -9   5  434.70   22.10
  10   9  -5  191.90   17.70
 -10  -9   5  229.20   17.40
   9   9  -5    5.00    7.70
  -9  -9   5    6.10    7.60
  -9  -9   5   12.00    4.80
   8   9  -5    4.00    6.20
  -8  -9   5    4.00    6.80
  -8  -9   5   24.90    5.10
   7   9  -5    5.50    6.90
  -7  -9   5    0.50    7.20
  -7  -9   5    7.60    5.10
   6   9  -5  133.90   14.10
  -6  -9   5  120.70   14.00
  -6  -9   5  131.40   11.50
   5   9  -5  782.80   27.10
   5   9  -5  807.00   28.20
  -5  -9   5  810.30   27.60
  -5  -9   5  779.70   25.00
   4   9  -5  765.90   31.70
   4   9  -5  784.20   32.50
  -4  -9   5  880.30   32.50
  -4  -9   5  790.60   31.80
   3   9  -5    5.50    8.40
   3   9  -5    4.20    7.20
  -3  -9   5    2.90    6.10
  -3  -9   5    5.30    7.60
   2   9  -5    0.20    6.10
   2   9  -5    0.20    5.60
  -2  -9   5    0.20    6.80
  -2  -9   5    3.50    5.40
   1   9  -5    0.20    6.40
   1   9  -5    0.70    8.10
  -1  -9   5    2.70    6.80
  -1  -9   5    0.60    7.60
   0   9  -5 1745.30   48.80
   0   9  -5 1742.80   42.40
   0  -9   5 1770.60   44.10
   0  -9   5 1696.70   39.70
   0  -9   5 1688.80   41.60
  -1   9  -5    0.90    7.10
  -1   9  -5   17.90    6.70
   1  -9   5    0.90    5.60
   1  -9   5   20.70    5.50
  -2   9  -5    0.10    8.00
  -2   9  -5    0.70    7.60
   2  -9   5    1.60    4.70
   2  -9   5    5.10    6.10
  -3   9  -5   69.00   10.30
  -3   9  -5   38.00   10.40
   3  -9   5   46.20    9.10
   3  -9   5   58.30    8.80
  -4   9  -5  293.80   21.90
  -4   9  -5  298.20   19.90
   4  -9   5  312.80   16.40
   4  -9   5  310.40   21.00
  -5   9  -5  143.40   16.80
  -5   9  -5  136.40   14.20
   5  -9   5  129.60   14.90
  -6   9  -5    8.30    8.30
  -6   9  -5    7.80    9.90
   6  -9   5    1.90    4.40
   6  -9   5    0.90    7.80
  -7   9  -5  486.50   30.50
   7  -9   5  446.70   16.90
  -8   9  -5   27.60   12.90
   8  -9   5   30.50    4.30
  -9   9  -5  115.10   21.00
 -10   9  -5   65.20   14.80
 -11   9  -5   33.80   16.50
 -12   9  -5  141.30   21.90
 -12  -8   5    6.90   12.00
 -12  -8   5   15.40    6.90
 -12  -8   5   14.70    9.00
  11   8  -5  448.20   24.60
 -11  -8   5  458.90   20.40
 -11  -8   5  464.80   23.00
 -11  -8   5  417.00   29.50
  10   8  -5   81.70   11.90
 -10  -8   5   86.60   11.80
   9   8  -5    1.80    6.10
  -9  -8   5    1.80    6.30
  -9  -8   5    2.10    5.60
   8   8  -5  130.40   12.90
  -8  -8   5  138.90   11.00
  -8  -8   5  163.40   13.60
   7   8  -5    1.70    5.90
  -7  -8   5    1.70    5.40
   6   8  -5 1876.50   58.70
  -6  -8   5 1879.90   56.00
  -6  -8   5 1846.50   57.60
   5   8  -5  809.50   31.90
   5   8  -5  777.70   31.40
  -5  -8   5  806.00   31.20
  -5  -8   5  778.20   29.70
   4   8  -5  967.20   36.20
   4   8  -5  941.10   35.20
  -4  -8   5  968.70   33.70
  -4  -8   5  948.30   34.90
   3   8  -5   78.30   12.80
   3   8  -5   66.20   14.20
  -3  -8   5   51.50   12.80
  -3  -8   5   70.20   12.30
   2   8  -5   74.80   10.20
   2   8  -5   74.80   11.80
  -2  -8   5   81.70   10.90
  -2  -8   5   88.10   10.30
   1   8  -5  309.50   11.90
   1   8  -5  324.80   14.40
  -1  -8   5  312.90   12.30
  -1  -8   5  299.70   12.80
   0   8  -5 1595.20   56.20
   0   8  -5 1613.20   54.20
   0  -8   5 1652.00   54.90
  -1   8  -5  143.70   12.90
  -1   8  -5  158.00   25.90
   1  -8   5  151.10   10.30
   1  -8   5  118.90   11.90
  -2   8  -5  273.90   16.60
  -2   8  -5  273.70   18.80
   2  -8   5  268.20   13.90
   2  -8   5  243.10   16.50
  -3   8  -5 1486.60   46.30
  -3   8  -5 1518.30   49.20
   3  -8   5 1447.30   47.40
   3  -8   5 1478.20   42.10
  -4   8  -5  262.70   19.90
  -4   8  -5  264.70   18.40
   4  -8   5  253.10   18.80
   4  -8   5  225.60   13.20
  -5   8  -5 1260.20   49.50
  -5   8  -5 1207.30   46.70
   5  -8   5 1163.50   40.00
   5  -8   5 1214.30   48.50
  -6   8  -5  153.80   17.60
  -6   8  -5  108.40   14.00
   6  -8   5  126.30   15.00
   6  -8   5  121.20    7.90
   7  -8   5    0.10    9.40
   7  -8   5    1.00    2.70
  -8   8  -5   94.40   16.20
  -9   8  -5   22.70   11.80
 -10   8  -5    2.70   11.70
 -11   8  -5    5.30   12.40
 -12   8  -5   10.80   12.90
 -13  -7   5  205.00   15.20
 -13  -7   5  246.40   25.20
 -13  -7   5  254.20   17.70
 -12  -7   5   60.00    9.60
 -12  -7   5   33.50   14.20
 -12  -7   5   51.30    8.70
 -12  -7   5   46.90    7.80
 -11  -7   5   88.70   10.70
 -11  -7   5   79.80   10.50
 -11  -7   5   73.60    9.50
 -11  -7   5   54.20   14.10
  10   7  -5   58.40   10.80
 -10  -7   5   50.80    9.20
 -10  -7   5   56.00   15.80
 -10  -7   5   55.00    9.80
   9   7  -5   85.00   10.30
  -9  -7   5   92.20    9.60
   8   7  -5   45.40    8.60
  -8  -7   5   44.30    8.50
   7   7  -5   77.30   10.20
  -7  -7   5   81.80    9.80
  -7  -7   5   88.20   10.20
   6   7  -5 1449.90   46.00
  -6  -7   5 1491.20   45.20
  -6  -7   5 1459.60   45.60
   5   7  -5   15.10    5.90
   5   7  -5   11.90    5.50
  -5  -7   5   13.80    6.00
  -5  -7   5   15.40    5.70
   4   7  -5  917.40   29.60
   4   7  -5  892.40   28.10
  -4  -7   5  902.00   28.00
  -4  -7   5  917.60   28.00
   3   7  -5  125.80    8.90
   3   7  -5  124.40    9.90
  -3  -7   5  109.60    8.60
  -3  -7   5  108.70    8.30
   2   7  -5  517.90   24.80
   2   7  -5  531.60   23.00
  -2  -7   5  564.00   26.40
  -2  -7   5  518.70   23.30
   1   7  -5  421.50   22.60
   1   7  -5  439.20   25.10
  -1  -7   5  450.70   23.60
  -1  -7   5  443.20   23.90
   0   7  -5   18.30   13.00
   0   7  -5   16.10   10.70
   0  -7   5   17.40   10.70
  -1   7  -5  781.10   29.50
  -1   7  -5  779.70   27.20
   1  -7   5  814.10   28.30
  -2   7  -5  441.60   20.70
   2  -7   5  479.70   22.40
  -3   7  -5  490.50   24.70
  -3   7  -5  444.70   22.00
   3  -7   5  482.20   18.20
   3  -7   5  493.10   23.40
  -4   7  -5  189.40   18.00
   4  -7   5  153.90   16.00
   4  -7   5  160.60   11.10
  -5   7  -5  621.20   30.20
   5  -7   5  649.80   30.30
   5  -7   5  628.10   20.40
  -6   7  -5   12.30    9.90
   6  -7   5   18.00   15.60
  -7   7  -5   84.00   15.20
   7  -7   5   92.80   14.50
  -8   7  -5  403.50   26.90
   8  -7   5  456.30   28.50
  -9   7  -5    3.80   10.30
 -10   7  -5    3.60   10.80
 -11   7  -5   99.90   17.60
 -12   7  -5    7.70   13.50
 -13  -6   5  146.20   14.10
 -13  -6   5  156.60   13.70
 -13  -6   5  191.10   14.80
 -13  -6   5  110.10   17.80
 -12  -6   5    3.40    7.10
 -12  -6   5    1.10   11.10
 -12  -6   5    1.20    6.40
 -12  -6   5   11.30    7.30
 -11  -6   5    3.50    6.30
 -11  -6   5    3.90    6.70
  10   6  -5  434.10   19.90
 -10  -6   5  439.50   19.70
 -10  -6   5  472.00   28.40
 -10  -6   5  471.30   19.70
   9   6  -5  168.30   13.00
  -9  -6   5  171.30   18.00
  -9  -6   5  180.10   12.90
  -9  -6   5  210.00   12.70
   8   6  -5  126.10   10.50
  -8  -6   5  129.10   11.40
  -8  -6   5  130.90   10.30
   7   6  -5  122.40   12.40
  -7  -6   5  136.10   13.00
  -7  -6   5  116.70   10.20
   6   6  -5  749.10   21.40
  -6  -6   5  789.00   21.80
  -6  -6   5  787.80   22.60
   5   6  -5  970.80   29.60
  -5  -6   5 1006.20   30.70
  -5  -6   5  972.60   29.60
   4   6  -5  486.10   17.20
   4   6  -5  512.20   19.00
  -4  -6   5  457.80   16.90
  -4  -6   5  495.40   18.20
   3   6  -5   97.00    6.90
   3   6  -5  101.70    6.00
  -3  -6   5   99.00    6.30
  -3  -6   5  109.20    6.20
   2   6  -5  512.10   22.50
   2   6  -5  559.00   25.00
  -2  -6   5  488.90   22.50
  -2  -6   5  540.20   22.70
   1   6  -5  208.10    9.00
   1   6  -5  211.30   11.70
  -1  -6   5  203.60   11.70
   0   6  -5 2875.30  104.50
   0   6  -5 2824.10  102.00
   0  -6   5 2881.80  103.40
  -1   6  -5 9080.40  253.50
  -1   6  -5 9221.30  255.60
   1  -6   5 9118.00  254.70
  -2   6  -5  188.00   13.90
  -2   6  -5  181.20   15.20
   2  -6   5  179.50   10.10
   2  -6   5  173.10   14.10
  -3   6  -5  139.60   11.80
   3  -6   5  155.20    5.80
   3  -6   5  111.10    7.90
  -4   6  -5  208.80   17.20
   4  -6   5  177.30    9.40
   4  -6   5  219.90   16.80
  -5   6  -5  242.60   19.40
   5  -6   5  214.00   18.20
  -6   6  -5 1201.90   43.60
   6  -6   5 1174.40   42.80
  -7   6  -5  128.10   15.30
   7  -6   5  148.10   16.30
  -8   6  -5  429.40   26.00
   8  -6   5  396.20   23.90
  -9   6  -5    9.90   11.50
 -10   6  -5   72.70   16.10
 -12   6  -5    3.90   11.90
 -12   6  -5    1.40   10.80
 -13   6  -5    7.80   11.30
 -13   6  -5    5.30   14.90
 -13  -5   5    6.50   10.60
 -13  -5   5    7.20    7.40
 -13  -5   5    0.00    6.50
 -13  -5   5    0.00    7.30
 -12  -5   5  150.80   12.10
 -12  -5   5  150.40   14.50
 -12  -5   5  140.30   18.50
 -12  -5   5  151.90   13.50
 -11  -5   5   60.40   15.10
 -11  -5   5   67.20   10.10
 -11  -5   5   59.40    8.60
 -10  -5   5  132.80   16.20
 -10  -5   5  137.10   10.50
 -10  -5   5  132.30   11.90
   9   5  -5   82.40    9.50
  -9  -5   5   88.30    9.20
  -9  -5   5   55.40   12.80
  -9  -5   5   44.10    8.70
   8   5  -5  223.60   12.40
  -8  -5   5  216.40   11.90
  -8  -5   5  218.60   13.80
  -8  -5   5  207.30   19.10
   7   5  -5   22.00    5.60
  -7  -5   5   26.40    9.60
  -7  -5   5   23.30    7.00
  -7  -5   5   29.00    5.90
  -6  -5   5  346.60   18.90
   5   5  -5 2062.40   61.40
  -5  -5   5 2050.00   63.50
  -5  -5   5 2058.70   61.40
   4   5  -5  306.10   10.80
   4   5  -5  288.60    8.70
  -4  -5   5  300.30    9.10
  -4  -5   5  290.60   10.60
   3   5  -5  955.10   41.70
   3   5  -5  900.50   39.00
  -3  -5   5  908.80   40.70
  -3  -5   5  924.70   38.70
   2   5  -5  602.10   29.90
   2   5  -5  559.30   29.10
  -2  -5   5  571.30   27.00
  -2  -5   5  548.00   28.30
   1   5  -5 1776.00   69.40
   1   5  -5 1760.80   72.00
  -1  -5   5 1742.30   70.80
   0   5  -5  230.50   10.70
   0   5  -5  244.60   12.30
  -1   5  -5 1546.70   43.90
   1  -5   5 1540.50   43.30
  -2   5  -5    1.30    9.20
   2  -5   5    0.20    7.70
  -3   5  -5  637.80   29.20
   3  -5   5  568.10   28.20
   3  -5   5  599.10   21.40
  -4   5  -5  304.00   18.20
   4  -5   5  284.20   17.70
  -5   5  -5 1572.50   49.90
   5  -5   5 1541.30   49.70
  -6   5  -5 3575.80  102.40
   6  -5   5 3675.60  103.20
  -7   5  -5   92.80   14.10
   7  -5   5  114.00   14.70
  -8   5  -5   68.10   11.20
   8  -5   5   51.30   10.40
  -9   5  -5   20.10   10.50
   9  -5   5    5.40    9.40
 -10   5  -5   34.40   12.90
 -11   5  -5  198.50   21.70
 -11   5  -5  242.90   24.40
 -12   5  -5    4.00   11.40
 -12   5  -5    4.80   13.00
 -13   5  -5    2.10   11.70
 -13   5  -5    3.60   12.90
 -13  -4   5   43.10   13.50
 -13  -4   5   33.20    7.80
 -13  -4   5   20.40   12.30
 -13  -4   5   45.90   11.10
 -12  -4   5  238.80   17.10
 -12  -4   5  255.40   19.40
 -11  -4   5   64.70   15.30
 -11  -4   5   71.30   10.40
 -11  -4   5   64.50    8.20
 -10  -4   5   15.20    5.70
 -10  -4   5   33.00   10.50
 -10  -4   5   14.90    6.80
  -9  -4   5  295.40   22.30
  -9  -4   5  309.20   16.30
  -9  -4   5  284.50   12.90
  -8  -4   5  236.20   20.60
  -8  -4   5  251.60   15.60
  -8  -4   5  235.00   12.30
   7   4  -5   65.60    7.80
  -7  -4   5   72.00    9.80
  -7  -4   5   64.00    7.60
  -7  -4   5   61.50   13.00
   6   4  -5  252.40   10.40
  -6  -4   5  233.40   13.10
  -6  -4   5  265.50   16.50
  -6  -4   5  240.10   10.40
   5   4  -5 1237.90   37.30
  -5  -4   5 1296.90   44.50
  -5  -4   5 1254.00   37.50
  -5  -4   5 1254.90   40.90
   4   4  -5 1559.00   49.40
   4   4  -5 1633.70   53.30
  -4  -4   5 1521.60   52.60
  -4  -4   5 1556.10   49.50
   3   4  -5   22.30    4.70
   3   4  -5   26.70    3.90
  -3  -4   5   34.90    5.50
  -3  -4   5   23.40    3.80
   2   4  -5  966.50   37.70
   2   4  -5 1026.00   34.70
  -2  -4   5  969.00   36.90
   1   4  -5 1532.50   39.40
   1   4  -5 1502.40   36.50
  -1  -4   5 1560.60   39.10
   0   4  -5  583.40   24.90
   0  -4   5  586.70   24.40
  -1   4  -5    3.20    6.40
   1  -4   5    0.50    3.20
  -2   4  -5 1508.70   45.90
   2  -4   5 1541.50   39.90
   2  -4   5 1526.70   45.70
  -3   4  -5   68.10   10.20
   3  -4   5   81.20   10.10
   3  -4   5   68.40    3.90
   3  -4   5   71.40    3.90
  -4   4  -5  439.60   26.00
   4  -4   5  413.30   25.00
  -5   4  -5  469.00   18.70
   5  -4   5  439.70   17.80
  -6   4  -5 1958.50   67.20
   6  -4   5 1990.10   68.20
  -7   4  -5  149.60   13.80
   7  -4   5  191.70   15.80
  -8   4  -5  127.20   12.50
   8  -4   5  163.30   15.10
  -9   4  -5    0.10    9.10
  -9   4  -5    0.10    8.60
   9  -4   5    1.50    8.80
 -10   4  -5   73.30   15.40
 -10   4  -5   88.00   15.60
  10  -4   5  114.50   17.10
 -11   4  -5  104.80   15.80
 -11   4  -5   96.90   18.60
 -12   4  -5   45.30   14.60
 -12   4  -5   20.60   13.10
 -13   4  -5    7.50   12.00
 -13   4  -5    5.10   12.70
 -14  -3   5   28.30   11.50
 -14  -3   5   15.00   11.50
 -14  -3   5   26.80    8.00
 -13  -3   5   12.90    6.70
 -13  -3   5    5.80   10.80
 -13  -3   5   17.50   10.50
 -13  -3   5    2.60    7.70
 -12  -3   5  169.50   17.80
 -12  -3   5  183.30   12.20
 -12  -3   5  187.10   20.70
 -11  -3   5    5.80    6.80
 -11  -3   5    5.40   10.70
 -11  -3   5    3.20    5.40
 -10  -3   5   54.70    6.90
 -10  -3   5   54.90   12.60
 -10  -3   5   55.40    9.20
  -9  -3   5  250.30   19.10
  -9  -3   5  238.70   11.50
  -9  -3   5  245.90   15.30
  -8  -3   5  363.30   20.40
  -8  -3   5  341.40   11.50
  -8  -3   5  311.70   15.40
  -7  -3   5  503.10   20.60
  -7  -3   5  519.90   24.50
  -7  -3   5  501.20   16.40
   6   3  -5   35.70    5.60
  -6  -3   5   42.50    8.60
  -6  -3   5   43.60    5.70
  -6  -3   5   47.20   11.60
   5   3  -5 1047.90   27.30
  -5  -3   5 1014.80   27.30
  -5  -3   5 1086.40   34.70
  -5  -3   5 1109.40   41.10
   4   3  -5  397.80   12.20
  -4  -3   5  393.40   16.60
  -4  -3   5  382.30   12.40
  -4  -3   5  402.80   18.40
   3   3  -5  516.70   18.60
   3   3  -5  547.00   22.40
  -3  -3   5  501.70   22.60
  -3  -3   5  560.90   22.60
   2   3  -5   16.70    6.70
   2   3  -5   15.00    4.70
  -2  -3   5   18.90    6.00
  -2  -3   5   24.20    5.70
   1   3  -5   90.20    7.30
  -1  -3   5  103.50    7.40
  -1  -3   5   85.90    6.00
   0   3  -5  447.50    9.90
   0  -3   5  448.90    9.60
   0  -3   5  470.40    7.50
  -1   3  -5  730.50   19.60
   1  -3   5  714.70   19.70
   1  -3   5  702.20   15.40
  -2   3  -5 1552.10   31.20
   2  -3   5 1536.50   25.30
  -3   3  -5  792.90   25.80
   3  -3   5  784.80   25.80
  -4   3  -5 3229.90   93.50
   4  -3   5 3097.70   93.50
  -5   3  -5   66.50   13.50
   5  -3   5   60.70   12.70
  -6   3  -5  224.70   17.20
   6  -3   5  225.70   16.90
  -7   3  -5  955.40   41.60
   7  -3   5  943.70   41.90
  -8   3  -5   32.20   10.70
  -8   3  -5   32.20   11.20
   8  -3   5   44.50   11.30
  -9   3  -5   26.90    9.30
  -9   3  -5   25.70   10.00
   9  -3   5   14.20   16.50
 -10   3  -5   80.70   14.60
 -10   3  -5   68.40   14.10
  10  -3   5   61.10   13.30
 -11   3  -5   32.70   21.10
 -11   3  -5    0.00   10.30
 -12   3  -5  102.90   17.00
 -12   3  -5  160.70   20.30
 -13   3  -5   26.90   15.50
 -13   3  -5   15.30   11.90
 -14  -2   5   98.90   10.20
 -14  -2   5   91.20   15.30
 -14  -2   5  119.20   17.80
 -13  -2   5    3.70    8.80
 -13  -2   5    8.10   11.10
 -12  -2   5   66.10   13.40
 -12  -2   5   80.10    8.70
 -12  -2   5   58.90   14.10
 -11  -2   5  219.20   21.50
 -11  -2   5  240.90   12.50
 -10  -2   5   24.40    5.60
 -10  -2   5   29.60   10.50
  -9  -2   5   66.60    7.50
  -9  -2   5   78.40   14.80
  -8  -2   5  340.20   11.90
  -8  -2   5  340.90   20.90
  -7  -2   5 1058.00   35.80
  -7  -2   5 1049.70   30.30
  -7  -2   5 1032.40   39.10
  -6  -2   5  754.60   21.40
  -6  -2   5  756.10   24.50
  -6  -2   5  725.00   15.90
  -5  -2   5  459.40   15.70
  -5  -2   5  420.00   13.70
  -5  -2   5  453.20    8.40
  -4  -2   5  742.70   16.80
  -4  -2   5  727.60   15.30
   3   2  -5 1629.60   36.50
   3   2  -5 1559.40   31.30
  -3  -2   5 1550.00   36.70
  -3  -2   5 1575.60   36.00
   2   2  -5  174.00   16.00
   2   2  -5  176.40   16.40
  -2  -2   5  182.50   16.60
  -2  -2   5  178.60   16.50
   1   2  -5  561.20   18.50
   1   2  -5  548.80   16.80
  -1  -2   5  579.90   18.90
  -1  -2   5  551.70   17.20
   0   2  -5 4036.10  176.40
   0   2  -5 4054.30  179.30
   0  -2   5 4141.00  179.50
   0  -2   5 3996.10  176.40
  -1   2  -5  177.90   10.30
  -1   2  -5  167.30    6.80
   1  -2   5  190.90   10.50
   1  -2   5  184.20    7.10
  -2   2  -5   78.50    4.60
  -2   2  -5   72.90    7.90
   2  -2   5  105.90    9.60
   2  -2   5   78.90    4.90
  -3   2  -5    1.40    5.70
  -3   2  -5    1.10    1.80
   3  -2   5    3.70    5.90
   3  -2   5    1.10    2.10
  -4   2  -5 1649.70   43.00
   4  -2   5 1602.50   43.10
  -5   2  -5  111.00   13.30
  -5   2  -5  145.60   14.60
   5  -2   5  123.30   13.10
  -6   2  -5  189.90   16.20
  -6   2  -5  202.90   17.00
   6  -2   5  208.90   17.30
  -7   2  -5  221.10   17.00
  -7   2  -5  232.00    8.40
  -7   2  -5  252.90   16.50
  -7   2  -5  234.10    8.10
   7  -2   5  204.70   16.70
  -8   2  -5   41.10    5.00
  -8   2  -5   33.60   11.00
  -8   2  -5   43.00    5.40
  -8   2  -5   36.00   12.30
   8  -2   5   42.60   11.50
  -9   2  -5   11.90    9.60
  -9   2  -5   12.50    3.60
  -9   2  -5   11.30    3.80
  -9   2  -5   19.30   11.40
   9  -2   5    0.00    8.10
 -10   2  -5  188.40    8.50
 -10   2  -5  203.10   19.40
 -10   2  -5  192.40   17.70
 -10   2  -5  196.60    9.40
  10  -2   5  185.60   17.70
 -11   2  -5    0.10    3.60
 -11   2  -5   21.20   10.70
 -11   2  -5   15.00   18.20
 -11   2  -5    3.60    4.20
 -12   2  -5  121.40   16.20
 -12   2  -5   95.60    8.50
 -12   2  -5  104.00    8.10
 -12   2  -5   92.60   15.40
 -13   2  -5    1.90    4.10
 -13   2  -5    0.10    9.90
 -13   2  -5    0.80   11.50
 -14  -1   5   55.50    9.30
 -14  -1   5   87.60   16.00
 -14  -1   5   96.10   17.10
 -13  -1   5    0.20    5.40
 -13  -1   5    7.00   10.50
 -12  -1   5   36.50    6.60
 -12  -1   5   29.00   11.10
 -12  -1   5   51.10   12.30
 -11  -1   5  343.40   24.70
 -11  -1   5  316.50   15.10
 -10  -1   5    0.20    9.60
 -10  -1   5    0.70    4.30
  -9  -1   5   27.30    9.80
  -9  -1   5   18.00    4.00
  -8  -1   5   25.40    9.90
  -8  -1   5   28.40    3.90
  -7  -1   5 1284.90   39.60
  -7  -1   5 1302.40   48.70
  -6  -1   5 1423.90   34.10
  -6  -1   5 1500.50   43.70
   5   1  -5    5.40    6.80
  -5  -1   5    4.90    5.60
  -5  -1   5    6.70    7.30
   4   1  -5 1057.60   28.80
  -4  -1   5 1131.60   29.60
   3   1  -5 1768.00   43.10
  -3  -1   5 1684.70   41.70
  -3  -1   5 1718.10   42.40
   2   1  -5    3.10    6.90
   2   1  -5    4.20    6.90
   2   1  -5    3.90    4.00
  -2  -1   5    4.50    6.80
  -2  -1   5    1.90    7.30
   1   1  -5 3751.50   80.90
   1   1  -5 3755.80   83.20
   1   1  -5 3679.20   84.10
  -1  -1   5 3785.00   84.40
  -1  -1   5 3786.60   83.20
   0   1  -5 5041.10  117.00
   0   1  -5 4792.70  114.60
   0   1  -5 4950.80  114.50
   0  -1   5 5038.60  114.80
   0  -1   5 4981.70  117.20
  -1   1  -5   33.20    8.00
  -1   1  -5   40.10    7.70
  -1   1  -5   40.90    5.90
   1  -1   5   33.70    6.10
   1  -1   5   44.40    9.00
  -2   1  -5  577.00   13.10
  -2   1  -5  540.10   13.90
  -2   1  -5  577.00   10.20
   2  -1   5  594.50   14.70
   2  -1   5  580.20   10.50
  -3   1  -5  464.80   18.90
  -3   1  -5  467.50   23.60
  -3   1  -5  461.20   23.60
   3  -1   5  476.90   24.20
   3  -1   5  471.20   19.70
  -4   1  -5   15.70    6.30
  -4   1  -5   21.30    6.60
  -4   1  -5   17.60    2.60
   4  -1   5    7.80    5.40
  -5   1  -5 2479.60   62.20
  -5   1  -5 2460.70   61.20
  -5   1  -5 2443.00   54.60
   5  -1   5 2474.70   62.20
  -6   1  -5  532.60   23.80
  -6   1  -5  486.70   22.30
  -6   1  -5  516.90   16.10
   6  -1   5  489.90   23.10
  -7   1  -5    6.20    3.80
  -7   1  -5    7.70    8.20
   7  -1   5    1.60    7.40
  -8   1  -5   75.10   11.80
  -8   1  -5   73.10   10.60
  -8   1  -5   64.90    5.70
  -8   1  -5   66.40    6.30
   8  -1   5   72.10   11.20
  -9   1  -5    0.80    4.20
  -9   1  -5    0.40    4.50
  -9   1  -5    0.40    7.90
  -9   1  -5    2.50    9.60
   9  -1   5    0.40    7.60
 -10   1  -5  272.30   14.20
 -10   1  -5  304.60   21.00
 -10   1  -5  340.30   15.20
 -10   1  -5  309.00   22.40
  10  -1   5  291.90   20.80
 -11   1  -5   13.70    9.80
 -11   1  -5   11.70    4.50
 -11   1  -5   13.50    5.40
 -12   1  -5   24.60   11.50
 -12   1  -5   17.70    6.40
 -12   1  -5   15.80   11.10
 -13   1  -5    0.00   10.00
 -13   1  -5   17.20   11.70
 -13   1  -5    8.60    5.70
 -14   0   5    0.10    6.60
 -14   0   5    2.20    6.60
 -14   0   5    6.40   11.30
 -14   0   5    0.10   12.90
 -13   0   5  145.10   11.90
 -13   0   5  128.20   17.20
 -13   0   5  123.40   17.30
 -12   0   5   10.40   10.30
 -12   0   5   16.50    6.10
 -12   0   5   13.60   10.80
 -11   0   5  229.50   12.40
 -11   0   5  253.10   21.00
 -11   0   5  227.30   20.30
 -10   0   5   77.50    7.40
 -10   0   5   77.50   13.80
  -9   0   5   57.90   12.90
  -9   0   5   48.80    6.20
  -8   0   5  158.90   15.50
  -8   0   5  158.40    8.90
  -7   0   5  415.50   15.20
  -7   0   5  432.40   23.40
  -7   0   5  428.40   15.00
   6   0  -5  828.70   28.40
  -6   0   5  800.60   31.60
  -6   0   5  842.90   20.30
  -6   0   5  820.50   20.30
   5   0  -5  936.20   37.20
  -5   0   5  902.70   36.70
   4   0  -5   29.50    6.50
  -4   0   5   29.40    7.30
   3   0  -5    0.40    9.10
   3   0  -5    0.40    3.70
  -3   0   5    0.40    7.70
  -3   0   5    0.20    7.90
   2   0  -5  310.70   10.60
   2   0  -5  309.20   14.20
  -2   0   5  320.90   10.80
  -2   0   5  310.90   14.20
  -2   0   5  311.80   14.60
   1   0  -5 3632.10  131.10
   1   0  -5 3571.60  128.10
  -1   0   5 3661.90  130.50
  -1   0   5 3458.60  131.10
  -1   0   5 3587.60  128.30
   0   0  -5 1797.80   61.30
   0   0  -5 1782.00   60.00
   0   0  -5 1816.00   59.50
   0   0   5 1904.10   62.50
   0   0   5 1904.60   60.30
   0   0   5 1814.20   59.80
  -1   0  -5   14.50    4.50
  -1   0  -5    8.10    3.50
  -1   0  -5    9.20    4.00
   1   0   5    4.70    3.80
   1   0   5    5.30    5.50
  -2   0  -5 2059.50   88.00
  -2   0  -5 2115.20   85.40
  -2   0  -5 2023.60   88.20
   2   0   5 2168.40   86.10
   2   0   5 2199.50   89.70
  -3   0  -5 1049.10   33.60
  -3   0  -5 1045.40   37.40
  -3   0  -5 1053.00   37.10
   3   0   5 1079.30   34.80
   3   0   5 1112.40   38.40
  -4   0  -5   29.70    5.00
  -4   0  -5   59.40    3.30
  -4   0  -5   54.10    5.20
   4   0   5   63.30    5.80
  -5   0  -5  578.70   20.70
  -5   0  -5  592.70   26.70
  -5   0  -5  581.80   25.00
   5   0   5  587.10   25.60
  -6   0  -5 1239.70   33.00
  -6   0  -5 1351.80   40.50
  -6   0  -5 1245.10   37.80
   6   0   5 1235.40   38.70
  -7   0  -5   23.10    5.30
  -7   0  -5   19.10    8.30
  -7   0  -5   18.70    9.10
   7   0   5   26.20    8.20
  -8   0  -5   41.10   10.10
  -8   0  -5   42.50    6.10
  -8   0  -5   36.20   10.60
   8   0   5   49.00    9.70
  -9   0  -5   33.50    6.60
  -9   0  -5   40.00    6.40
  -9   0  -5   38.40    9.60
  -9   0  -5   32.60   11.40
   9   0   5   35.40    8.80
 -10   0  -5  144.20   12.20
 -10   0  -5  165.30   17.00
 -10   0  -5  148.60   13.80
 -10   0  -5  130.20   16.60
  10   0   5  136.30   15.40
 -11   0  -5   60.20    8.70
 -11   0  -5   51.20    7.30
 -11   0  -5   41.80   11.20
 -12   0  -5    5.30   10.80
 -12   0  -5    9.60    5.40
 -12   0  -5   14.50    6.90
 -12   0  -5    0.10    8.90
 -13   0  -5   64.90   14.00
 -13   0  -5   38.90    7.30
 -13   0  -5   41.20    8.50
 -13   0  -5   29.50   12.10
 -14   1   5    0.10    6.40
 -14   1   5    0.10   11.30
 -14   1   5    0.10   11.70
 -14   1   5    6.80    7.00
 -13   1   5  276.70   23.90
 -13   1   5  277.70   21.30
 -13   1   5  253.20   15.00
 -13   1   5  271.90   16.60
 -12   1   5   10.30   10.30
 -12   1   5    0.00   10.30
 -12   1   5    4.50    5.70
 -12   1   5    4.80    5.80
 -11   1   5  229.30   20.00
 -11   1   5  187.10   12.20
 -11   1   5  205.40   20.40
 -11   1   5  205.20   12.80
 -10   1   5    7.70    5.40
 -10   1   5   17.90    5.30
 -10   1   5    9.60    8.90
  -9   1   5  235.10   18.00
  -9   1   5  277.50   11.40
  -9   1   5  252.40   15.40
   8  -1  -5  468.00   23.10
  -8   1   5  472.30   15.70
  -8   1   5  466.60   15.40
  -8   1   5  487.90   22.60
   7  -1  -5   70.50    9.80
  -7   1   5   81.00    6.00
  -7   1   5   64.70   10.60
  -7   1   5   81.40    6.00
   6  -1  -5   69.50    7.40
  -6   1   5   81.30    7.70
  -6   1   5  104.90    3.70
   5  -1  -5 4041.80  125.30
  -5   1   5 4051.50  124.70
  -5   1   5 3963.50  117.20
   4  -1  -5 1253.60   47.80
   4  -1  -5 1175.80   53.80
  -4   1   5 1267.50   54.00
  -4   1   5 1233.50   47.20
   3  -1  -5 1992.20   61.20
   3  -1  -5 1983.00   55.70
  -3   1   5 1978.50   60.20
  -3   1   5 1995.50   55.10
   2  -1  -5 1257.50   40.20
   2  -1  -5 1264.40   44.20
  -2   1   5 1265.20   43.80
  -2   1   5 1287.00   40.40
  -2   1   5 1309.70   44.10
   1  -1  -5  633.20   13.70
   1  -1  -5  661.80   11.80
  -1   1   5  651.00   13.70
  -1   1   5  617.60   13.90
  -1   1   5  640.50   11.90
   0  -1  -5  188.70   14.70
   0  -1  -5  188.50   13.80
   0   1   5  190.30   15.60
   0   1   5  175.10   14.10
   0   1   5  197.40   13.80
  -1  -1  -5  502.50   26.50
  -1  -1  -5  476.60   26.70
  -1  -1  -5  497.40   25.90
   1   1   5  510.40   26.90
   1   1   5  534.90   26.50
  -2  -1  -5  409.40   19.70
  -2  -1  -5  402.10   21.20
  -2  -1  -5  399.10   21.40
   2   1   5  399.90   22.10
   2   1   5  394.40   20.50
  -3  -1  -5    1.30    5.20
  -3  -1  -5    6.00    4.10
  -3  -1  -5    0.60    4.70
   3   1   5    2.20    5.30
   3   1   5    6.30    4.90
   3   1   5    0.70    5.40
  -4  -1  -5 2038.20   58.30
  -4  -1  -5 2016.50   60.50
  -4  -1  -5 1962.50   61.90
   4   1   5 2057.50   59.30
   4   1   5 1998.20   61.70
  -5  -1  -5  557.30   25.80
  -5  -1  -5  610.30   24.60
   5   1   5  594.40   25.20
  -6  -1  -5  354.00   16.90
  -6  -1  -5  346.40   18.40
  -6  -1  -5  313.30   13.80
   6   1   5  305.40   16.90
  -7  -1  -5  214.20   14.40
  -7  -1  -5  213.60   11.40
  -7  -1  -5  248.40   17.70
   7   1   5  217.50   14.30
  -8  -1  -5  253.80   19.20
  -8  -1  -5  247.10   15.90
  -8  -1  -5  263.10   18.10
   8   1   5  208.60   15.20
  -9  -1  -5   46.20    7.00
  -9  -1  -5   51.70   10.50
  -9  -1  -5   38.70    8.60
   9   1   5   52.40    9.20
 -10  -1  -5    8.10    9.50
 -10  -1  -5    9.80    6.10
 -10  -1  -5   11.20    8.40
 -11  -1  -5  161.60   13.80
 -11  -1  -5  126.40   12.00
 -11  -1  -5  156.20   16.40
 -11  -1  -5  140.80   17.60
 -12  -1  -5   42.60    7.30
 -12  -1  -5   41.90   10.60
 -12  -1  -5   50.60    8.90
 -12  -1  -5   52.10   13.50
 -13  -1  -5    6.40    6.70
 -13  -1  -5   32.70   13.40
 -13  -1  -5   30.20    8.70
 -13  -1  -5    4.60    9.70
 -14   2   5    7.30    6.90
 -14   2   5    2.50   10.80
 -14   2   5    0.10   11.70
 -14   2   5    5.00    6.70
 -13   2   5  133.60   16.70
 -13   2   5   99.50   17.00
 -13   2   5  124.80   11.00
 -13   2   5  105.10   16.20
 -12   2   5   42.30    7.70
 -12   2   5   45.60   13.00
 -12   2   5   45.80   13.20
 -12   2   5   42.70    8.00
 -11   2   5   30.20    6.70
 -11   2   5   12.70    9.90
 -11   2   5   35.50   13.00
 -11   2   5   26.10    6.80
 -10   2   5   45.10   12.00
 -10   2   5   44.60    7.30
 -10   2   5   40.20    7.30
   9  -2  -5   38.40   10.60
  -9   2   5   32.90   10.40
  -9   2   5   47.10    7.40
  -9   2   5   36.00    6.80
   8  -2  -5  683.80   30.80
  -8   2   5  681.80   30.70
  -8   2   5  681.70   23.70
   7  -2  -5 2216.90   64.90
  -7   2   5 2288.50   57.10
  -7   2   5 2311.80   64.10
   6  -2  -5 1613.50   58.30
  -6   2   5 1638.20   57.60
  -6   2   5 1589.10   50.80
   5  -2  -5  413.40   22.50
  -5   2   5  419.70   16.40
  -5   2   5  421.70   21.90
   4  -2  -5    0.10    8.90
   4  -2  -5    0.50    5.90
  -4   2   5    2.40    7.60
  -4   2   5    1.50    4.80
   3  -2  -5  834.30   32.20
   3  -2  -5  830.50   28.40
  -3   2   5  857.50   31.80
  -3   2   5  869.70   27.60
   2  -2  -5  113.70    8.20
   2  -2  -5  103.60   17.90
  -2   2   5  109.40   10.40
  -2   2   5  108.80    8.20
  -2   2   5  120.30   11.00
   1  -2  -5  665.10   17.80
   1  -2  -5  686.00   15.60
  -1   2   5  708.00   17.60
  -1   2   5  696.90   17.60
  -1   2   5  659.50   15.60
   0  -2  -5 1205.30   33.30
   0  -2  -5 1183.70   34.20
   0   2   5 1173.70   34.10
   0   2   5 1183.30   34.30
   0   2   5 1196.60   33.50
  -1  -2  -5  601.70   16.60
  -1  -2  -5  595.90   16.30
  -1  -2  -5  569.00   15.90
   1   2   5  589.60   16.80
   1   2   5  582.40   16.60
  -2  -2  -5   54.60    4.70
  -2  -2  -5   62.30    4.30
  -2  -2  -5   58.70    4.10
   2   2   5   72.60    4.40
   2   2   5   56.10    5.30
  -3  -2  -5 1398.30   49.00
  -3  -2  -5 1418.80   49.10
  -3  -2  -5 1407.20   51.10
   3   2   5 1395.20   50.50
   3   2   5 1399.80   51.90
  -4  -2  -5  908.40   29.20
  -4  -2  -5  937.50   29.00
  -4  -2  -5  904.80   31.50
   4   2   5  923.40   30.30
   4   2   5  886.70   32.20
   4   2   5  898.90   31.30
  -5  -2  -5   45.40    8.20
  -5  -2  -5   54.00    8.10
  -5  -2  -5   45.90    9.80
   5   2   5   40.90    8.60
   5   2   5   54.80   10.60
  -6  -2  -5  104.30   12.50
  -6  -2  -5  106.70   11.50
  -6  -2  -5   93.20   10.40
   6   2   5  106.30   11.20
  -7  -2  -5  329.70   15.80
  -7  -2  -5  333.20   17.00
  -7  -2  -5  345.00   20.90
   7   2   5  346.30   17.90
  -8  -2  -5  183.30   16.50
  -8  -2  -5  164.40   12.60
  -8  -2  -5  192.20   11.80
   8   2   5  180.20   13.40
  -9  -2  -5    0.00    6.60
  -9  -2  -5    0.00    8.90
  -9  -2  -5    2.90    6.10
   9   2   5    8.40    6.30
 -10  -2  -5  122.80   16.30
 -10  -2  -5  124.00   12.10
 -11  -2  -5   95.10   11.90
 -11  -2  -5   97.30   15.30
 -11  -2  -5   77.90    9.30
 -12  -2  -5   77.10   11.80
 -12  -2  -5   82.60   15.60
 -12  -2  -5   50.00    8.60
 -12  -2  -5   71.90   11.30
 -13  -2  -5   19.60    7.80
 -14   3   5    1.00   10.60
 -14   3   5    1.00   10.80
 -14   3   5   13.00    7.60
 -14   3   5    1.00    6.70
 -13   3   5   18.60    7.40
 -13   3   5    9.00   12.70
 -13   3   5   13.20    7.40
 -13   3   5   17.70   11.70
 -12   3   5  245.00   24.90
 -12   3   5  255.20   21.80
 -12   3   5  230.00   15.60
 -12   3   5  209.60   14.50
 -11   3   5   41.30    7.50
 -11   3   5   13.00   12.00
 -11   3   5   44.50    7.30
 -11   3   5   30.20   11.00
  10  -3  -5   45.40   12.70
 -10   3   5   53.30    8.20
 -10   3   5   53.90   12.80
   9  -3  -5   14.00    9.00
  -9   3   5   12.60    8.60
  -9   3   5    0.10    4.70
   8  -3  -5  437.30   25.50
  -8   3   5  459.40   19.00
  -8   3   5  496.40   25.70
   7  -3  -5 1904.20   68.30
  -7   3   5 1883.60   66.50
  -7   3   5 1832.40   60.50
   6  -3  -5  845.50   31.80
  -6   3   5  879.10   25.50
  -6   3   5  846.00   30.90
   5  -3  -5    8.40    6.10
  -5   3   5   11.80    3.80
  -5   3   5   10.10    7.60
   4  -3  -5  284.70   22.70
   4  -3  -5  295.90   26.40
  -4   3   5  306.60   21.40
  -4   3   5  304.20   25.60
   3  -3  -5  127.80   10.10
   3  -3  -5  129.20   12.40
  -3   3   5  132.40    9.10
  -3   3   5  111.50   11.80
   2  -3  -5 1315.70   39.40
   2  -3  -5 1262.80   42.00
  -2   3   5 1327.80   41.80
  -2   3   5 1283.70   38.70
   1  -3  -5 1434.00   57.90
   1  -3  -5 1478.50   55.70
  -1   3   5 1452.00   55.70
  -1   3   5 1456.90   57.30
  -1   3   5 1415.00   57.60
   0  -3  -5  733.70   22.60
   0   3   5  748.60   23.80
   0   3   5  722.50   22.60
   0   3   5  717.50   23.10
  -1  -3  -5  520.40   24.60
  -1  -3  -5  515.70   21.80
   1   3   5  538.20   22.50
   1   3   5  539.30   22.70
   1   3   5  573.90   24.60
  -2  -3  -5 1124.80   35.90
  -2  -3  -5 1194.40   38.30
  -2  -3  -5 1113.30   39.60
   2   3   5 1168.60   40.70
   2   3   5 1238.40   39.00
   2   3   5 1220.30   39.00
  -3  -3  -5 1483.70   44.70
  -3  -3  -5 1520.00   43.70
  -3  -3  -5 1475.00   40.30
   3   3   5 1506.60   44.10
   3   3   5 1510.20   43.60
   3   3   5 1468.10   42.80
  -4  -3  -5  912.90   28.30
  -4  -3  -5  888.60   31.70
  -4  -3  -5  920.50   30.00
   4   3   5  878.60   32.20
   4   3   5  954.50   31.60
   4   3   5  919.70   30.80
  -5  -3  -5  409.40   19.80
  -5  -3  -5  408.60   16.40
  -5  -3  -5  407.10   17.60
   5   3   5  435.10   21.00
  -6  -3  -5    0.90    5.40
  -6  -3  -5    0.90    4.80
  -6  -3  -5    2.70    7.00
   6   3   5    0.30    5.30
   6   3   5    0.90    6.80
  -7  -3  -5  178.80   12.30
  -7  -3  -5  172.00   16.00
  -7  -3  -5  186.20   13.60
   7   3   5  157.70   16.00
   7   3   5  179.80   12.90
  -8  -3  -5   49.20   11.30
  -8  -3  -5   38.70    7.30
  -8  -3  -5   41.30    8.00
   8   3   5   34.30   10.50
  -9  -3  -5  480.90   20.00
  -9  -3  -5  464.30   20.60
  -9  -3  -5  521.60   25.80
 -10  -3  -5   50.50   12.80
 -10  -3  -5   36.90    8.20
 -10  -3  -5   40.20    8.70
 -11  -3  -5  124.70   11.80
 -11  -3  -5   96.70   15.70
 -11  -3  -5  118.00   11.50
 -12  -3  -5    6.70   11.20
 -12  -3  -5    8.40    8.80
 -12  -3  -5    2.60   10.80
 -12  -3  -5    5.90    8.20
 -14   4   5    0.10    7.30
 -14   4   5   22.90   10.90
 -14   4   5    0.10    7.20
 -14   4   5    8.80   11.70
 -13   4   5    0.30    6.00
 -13   4   5    3.20    7.20
 -13   4   5    2.90   10.00
 -13   4   5    0.30   10.50
 -12   4   5  170.00   13.50
 -12   4   5  189.90   18.40
 -12   4   5  149.40   12.30
 -12   4   5  163.80   20.80
  11  -4  -5   10.60    9.80
 -11   4   5   43.10   11.10
 -11   4   5   21.80   11.20
 -11   4   5   28.70    6.70
  10  -4  -5   16.30    9.00
 -10   4   5   28.90   12.10
 -10   4   5   16.30    6.00
 -10   4   5   18.70    9.20
  -9   4   5  368.50   22.90
  -9   4   5  390.10   18.40
   8  -4  -5  333.00   18.40
  -8   4   5  364.80   14.00
  -8   4   5  363.80   17.90
   7  -4  -5 1426.30   48.30
  -7   4   5 1473.60   41.50
  -7   4   5 1489.20   47.00
   6  -4  -5  139.50   11.70
  -6   4   5  159.80   12.40
  -6   4   5  146.80    8.70
   5  -4  -5  119.10   12.90
   5  -4  -5  137.00   11.30
  -5   4   5  144.70   12.90
  -5   4   5  141.40    9.80
   4  -4  -5  699.10   22.80
   4  -4  -5  673.40   25.10
  -4   4   5  687.90   20.70
  -4   4   5  677.60   24.20
   3  -4  -5    0.40    5.20
   3  -4  -5    5.40    4.90
  -3   4   5    1.80    5.20
  -3   4   5    4.40    3.90
   2  -4  -5 4648.40  117.10
   2  -4  -5 4719.70  114.60
  -2   4   5 4752.20  116.50
  -2   4   5 4815.00  114.00
   1  -4  -5 1879.70   58.70
   1  -4  -5 1921.50   56.60
  -1   4   5 1893.20   56.50
  -1   4   5 1842.60   58.10
   0  -4  -5  324.70   13.00
   0  -4  -5  309.40   13.70
   0   4   5  303.00   13.80
   0   4   5  317.60   12.80
   0   4   5  319.10   13.20
  -1  -4  -5  418.00   17.70
  -1  -4  -5  365.00   16.30
   1   4   5  387.20   16.80
   1   4   5  427.00   16.40
   1   4   5  424.80   18.10
  -2  -4  -5  432.40   13.90
  -2  -4  -5  464.30   14.10
   2   4   5  474.70   15.40
   2   4   5  446.60   14.60
  -3  -4  -5   19.60    5.60
  -3  -4  -5   30.50    6.10
   3   4   5   19.00    6.60
   3   4   5   32.00    6.30
   3   4   5   20.30    5.80
  -4  -4  -5 1179.10   37.70
  -4  -4  -5 1110.30   36.20
  -4  -4  -5 1155.10   33.00
   4   4   5 1095.10   35.60
   4   4   5 1160.20   38.70
   4   4   5 1189.30   38.50
  -5  -4  -5  796.30   26.20
  -5  -4  -5  835.60   30.00
  -5  -4  -5  810.50   31.60
   5   4   5  801.60   28.30
   5   4   5  834.40   32.90
  -6  -4  -5   70.30   12.90
  -6  -4  -5   67.90    8.70
  -6  -4  -5   83.40   11.60
   6   4   5   73.20    9.60
  -7  -4  -5  160.70   16.30
  -7  -4  -5  161.70   11.10
  -7  -4  -5  186.10   14.70
   7   4   5  202.80   17.90
  -8  -4  -5   46.10   10.40
  -8  -4  -5   49.30    8.80
  -8  -4  -5   53.70    6.60
   8   4   5   36.80    6.20
  -9  -4  -5  158.30   17.50
  -9  -4  -5  171.40   11.30
  -9  -4  -5  141.90   13.20
 -10  -4  -5   23.90    6.40
 -10  -4  -5   19.80    8.00
 -10  -4  -5   26.80   10.70
 -11  -4  -5    9.50    6.20
 -11  -4  -5   11.30   11.50
 -11  -4  -5   16.90    8.10
 -12  -4  -5   35.90    9.30
 -12  -4  -5   42.20    7.70
 -12  -4  -5   30.40   11.90
 -13   5   5    0.00   10.50
 -13   5   5    0.20    6.60
 -13   5   5    7.60    7.60
 -13   5   5   16.80   13.90
 -12   5   5   35.60   12.20
 -12   5   5   42.80    9.40
 -12   5   5   36.70   16.00
 -11   5   5   97.10   10.80
 -11   5   5   94.50   14.50
  10  -5  -5   76.30   13.00
 -10   5   5   83.70   12.00
 -10   5   5   75.80   15.40
 -10   5   5   76.90    9.20
   9  -5  -5  271.70   17.20
  -9   5   5  248.20   12.70
  -9   5   5  220.60   16.50
   8  -5  -5  166.30   18.40
  -8   5   5  186.00   13.30
  -8   5   5  193.10   17.90
   7  -5  -5  140.60   13.30
  -7   5   5  173.50   10.10
  -7   5   5  155.70   12.80
   6  -5  -5  188.50   13.00
  -6   5   5  234.60   13.30
  -6   5   5  200.00   11.40
   5  -5  -5   15.90    6.60
   5  -5  -5    7.50    6.80
  -5   5   5   18.40    6.40
  -5   5   5   23.30    7.50
   4  -5  -5    7.40    9.40
   4  -5  -5   12.60    9.10
  -4   5   5    6.60    7.90
  -4   5   5    8.40    8.90
   3  -5  -5  234.70   14.30
   3  -5  -5  217.20   14.80
  -3   5   5  258.70   17.30
  -3   5   5  239.00   14.00
   2  -5  -5 2074.00   69.60
   2  -5  -5 1977.90   66.80
  -2   5   5 1983.60   68.00
  -2   5   5 1983.20   65.80
   1  -5  -5  124.90    7.30
   1  -5  -5  132.00    8.20
  -1   5   5  144.40    7.50
  -1   5   5  135.20    8.00
   0  -5  -5  421.10   24.40
   0  -5  -5  434.40   23.40
   0   5   5  431.20   22.90
   0   5   5  436.20   23.50
   0   5   5  443.90   24.70
  -1  -5  -5  467.70   20.60
  -1  -5  -5  476.10   20.00
   1   5   5  539.40   20.90
   1   5   5  535.10   22.60
   1   5   5  481.30   19.20
  -2  -5  -5  131.30   12.00
  -2  -5  -5  126.40   12.00
   2   5   5  137.20   14.20
   2   5   5  128.00   12.30
  -3  -5  -5 1505.80   47.90
  -3  -5  -5 1460.00   47.30
   3   5   5 1483.80   46.00
   3   5   5 1492.00   48.90
   3   5   5 1488.40   54.40
  -4  -5  -5  419.90   19.50
  -4  -5  -5  459.00   20.40
   4   5   5  447.30   20.90
   4   5   5  450.50   18.20
   4   5   5  485.80   22.20
  -5  -5  -5 1356.00   46.40
  -5  -5  -5 1366.50   45.00
   5   5   5 1274.10   47.80
   5   5   5 1270.00   41.50
  -6  -5  -5    5.70    6.90
  -6  -5  -5    0.90    7.20
  -6  -5  -5    5.20    3.60
   6   5   5    0.20    8.50
   6   5   5    2.30    4.40
  -7  -5  -5  274.50   18.10
  -7  -5  -5  314.60   21.60
  -7  -5  -5  290.00   12.80
   7   5   5  287.80   21.50
   7   5   5  297.70   14.00
  -8  -5  -5  210.90   15.10
  -8  -5  -5  182.70    9.50
  -8  -5  -5  188.60   17.20
  -9  -5  -5  149.30   16.90
  -9  -5  -5  124.20   15.90
  -9  -5  -5  129.80    8.60
 -10  -5  -5   39.90    5.10
 -10  -5  -5   52.40    9.70
 -10  -5  -5   43.40   11.70
 -11  -5  -5   40.80   12.70
 -11  -5  -5   33.50    9.20
 -11  -5  -5   27.30    4.70
 -12  -5  -5  237.80    9.40
 -12  -5  -5  286.60   23.80
 -13   6   5   47.00    9.00
 -13   6   5   84.50   16.90
 -12   6   5   31.70   13.30
 -12   6   5   19.50    7.30
 -12   6   5    2.60   10.60
 -11   6   5   10.00    7.50
 -11   6   5    0.50    9.30
 -11   6   5   10.70   10.30
  10  -6  -5   24.30   11.60
 -10   6   5   38.30   15.60
 -10   6   5   42.70   12.80
 -10   6   5   30.00    8.80
   9  -6  -5  177.20   18.40
  -9   6   5  194.30   17.10
  -9   6   5  166.90   20.30
  -9   6   5  190.80   14.00
   8  -6  -5    0.40   11.00
  -8   6   5    9.50    6.00
  -8   6   5   33.50    9.70
   7  -6  -5   10.10    7.60
  -7   6   5   10.10    5.70
  -7   6   5    1.20    7.40
   6  -6  -5 1384.20   50.90
   6  -6  -5 1340.80   48.10
  -6   6   5 1375.30   48.70
  -6   6   5 1328.30   44.80
   5  -6  -5  215.00   16.20
   5  -6  -5  190.80   14.50
  -5   6   5  218.10   16.10
  -5   6   5  210.70   12.50
   4  -6  -5 1162.40   36.90
   4  -6  -5 1259.90   39.50
  -4   6   5 1281.40   38.00
  -4   6   5 1213.20   34.50
   3  -6  -5  809.40   30.10
   3  -6  -5  749.10   31.50
  -3   6   5  771.10   30.30
  -3   6   5  791.80   28.30
   2  -6  -5  353.20   20.00
   2  -6  -5  347.50   17.90
  -2   6   5  331.80   19.10
  -2   6   5  350.70   17.10
   1  -6  -5  895.70   29.20
   1  -6  -5  848.80   30.10
  -1   6   5  841.80   28.00
  -1   6   5  858.30   30.10
   0  -6  -5  196.90   11.70
   0   6   5  193.90   10.60
   0   6   5  200.00   12.00
  -1  -6  -5  221.60   16.80
  -1  -6  -5  202.00   17.20
   1   6   5  215.50   15.50
   1   6   5  240.00   18.90
   1   6   5  253.00   17.60
  -2  -6  -5   50.70    8.60
  -2  -6  -5   41.80    7.80
   2   6   5   51.30    9.40
   2   6   5   44.10    8.30
   2   6   5   48.00    7.10
  -3  -6  -5 2166.50   66.10
  -3  -6  -5 2084.00   65.80
   3   6   5 2219.20   68.90
   3   6   5 2168.20   67.50
   3   6   5 2072.50   63.30
  -4  -6  -5   88.50   10.70
  -4  -6  -5   73.60   10.00
   4   6   5   66.40   10.60
   4   6   5   57.90    7.70
   4   6   5   78.70   11.40
  -5  -6  -5 1595.80   47.30
  -5  -6  -5 1577.30   47.90
   5   6   5 1564.50   41.80
   5   6   5 1534.90   49.30
  -6  -6  -5  352.50   17.90
  -6  -6  -5  324.40   19.10
   6   6   5  293.50   11.10
   6   6   5  270.60   18.00
  -7  -6  -5   24.90    8.90
  -7  -6  -5   40.10    9.40
  -8  -6  -5   39.90   10.90
  -8  -6  -5   49.50   10.40
  -9  -6  -5   35.30    9.80
  -9  -6  -5   15.60   10.80
 -10  -6  -5  223.60   18.00
 -10  -6  -5  265.30   21.10
 -11  -6  -5    6.30    9.80
 -13   7   5   82.80   17.80
 -13   7   5   71.00   10.90
 -13   7   5   69.30   14.20
 -12   7   5    0.90    7.50
 -12   7   5   11.00   10.30
 -12   7   5   13.20   12.60
 -11   7   5   47.60   12.80
 -11   7   5   45.00   15.20
 -11   7   5   40.80    9.80
 -10   7   5  197.70   17.20
 -10   7   5  190.20   14.00
 -10   7   5  184.20   20.00
   9  -7  -5    3.60    9.60
  -9   7   5   13.70   11.30
  -9   7   5   14.70    7.60
  -9   7   5   21.10   10.20
   8  -7  -5  211.60   21.60
  -8   7   5  202.70   18.30
  -8   7   5  260.60   23.30
  -8   7   5  211.00   15.80
  -7   7   5   33.80   10.20
  -7   7   5   25.20    7.20
   6  -7  -5  301.40   20.30
  -6   7   5  344.20   19.20
  -6   7   5  372.40   17.20
   5  -7  -5   22.30    8.60
   5  -7  -5   12.00    8.60
  -5   7   5   43.20    7.00
  -5   7   5   31.60    8.20
   4  -7  -5  599.70   28.70
   4  -7  -5  654.00   28.40
  -4   7   5  638.50   26.40
  -4   7   5  628.30   24.00
   3  -7  -5  148.00   13.60
  -3   7   5  141.80   11.30
  -3   7   5  146.70   13.00
   2  -7  -5   98.40    9.10
   2  -7  -5  104.40    8.50
  -2   7   5  116.40    8.20
  -2   7   5  109.40    8.90
   1  -7  -5 2030.80   59.20
   1  -7  -5 1920.60   60.30
  -1   7   5 1992.80   58.40
  -1   7   5 2080.00   60.70
   0  -7  -5   48.10    8.00
   0  -7  -5   43.20    7.50
   0   7   5   42.60    7.10
   0   7   5   45.20    8.50
  -1  -7  -5    2.90    6.30
  -1  -7  -5    0.20    5.90
   1   7   5   11.80    6.40
   1   7   5    9.00    7.70
  -2  -7  -5   71.10   10.40
  -2  -7  -5   70.60   10.20
   2   7   5   69.70   10.30
   2   7   5   61.90    7.80
   2   7   5   39.80   10.70
  -3  -7  -5 1103.80   39.50
  -3  -7  -5 1086.70   38.90
   3   7   5 1087.60   40.20
   3   7   5 1075.00   36.30
   3   7   5 1156.90   42.60
  -4  -7  -5 1034.10   32.20
  -4  -7  -5  969.10   31.80
   4   7   5 1011.50   34.90
   4   7   5  803.50   27.20
   4   7   5  992.80   33.60
  -5  -7  -5  962.00   39.20
  -5  -7  -5 1009.90   39.70
   5   7   5  997.80   41.40
   5   7   5  999.90   32.40
  -6  -7  -5  108.50   13.50
  -6  -7  -5  132.20   14.10
  -7  -7  -5  140.10   14.40
  -7  -7  -5  158.80   14.80
  -8  -7  -5   22.40    9.90
  -8  -7  -5   37.40    9.90
  -9  -7  -5  260.60   21.80
 -10  -7  -5  440.60   28.80
 -11  -7  -5    0.10   10.70
 -12   8   5    0.60   13.50
 -12   8   5    8.90   20.40
 -12   8   5    7.60    7.80
 -11   8   5   39.20   10.50
 -11   8   5   35.80   13.40
 -11   8   5   41.80   11.40
 -10   8   5   34.70   11.20
 -10   8   5   18.80   11.50
 -10   8   5   23.20    8.30
  -9   8   5   12.00   13.80
  -9   8   5    7.10   10.00
  -9   8   5   17.30    8.60
   8  -8  -5  666.70   33.10
  -8   8   5  594.30   25.40
  -8   8   5  660.60   28.50
  -8   8   5  685.60   34.00
   7  -8  -5  119.20   15.30
  -7   8   5   58.70   11.90
  -7   8   5  107.70   13.10
  -7   8   5   90.50   10.10
   6  -8  -5    4.50    8.80
   6  -8  -5   16.40   10.00
  -6   8   5   17.00    7.30
  -6   8   5   13.40    8.50
   5  -8  -5  252.30   24.00
   5  -8  -5  229.70   19.90
  -5   8   5  222.50   19.30
  -5   8   5  238.40   16.60
   4  -8  -5   44.00   10.40
   4  -8  -5   78.50   13.20
  -4   8   5   81.00   10.90
  -4   8   5   63.10   10.90
   3  -8  -5  373.40   17.90
   3  -8  -5  366.20   18.80
  -3   8   5  375.60   18.70
  -3   8   5  360.90   16.20
   2  -8  -5  136.20   13.70
   2  -8  -5  104.80   14.00
  -2   8   5  125.60   13.90
  -2   8   5  106.40   12.00
   1  -8  -5 1657.30   54.30
   1  -8  -5 1634.10   56.10
  -1   8   5 1621.00   54.80
  -1   8   5 1575.50   53.10
   0  -8  -5    0.70    7.30
   0  -8  -5    0.40    6.80
   0   8   5    0.40    6.90
   0   8   5    3.70    7.70
  -1  -8  -5  282.60   19.80
  -1  -8  -5  289.70   19.40
   1   8   5  293.70   19.40
   1   8   5  281.30   21.10
   1   8   5  287.40   16.90
  -2  -8  -5    0.10    6.80
  -2  -8  -5    2.80    6.70
   2   8   5    0.10    7.80
   2   8   5    9.20    5.30
   2   8   5    2.30    7.40
  -3  -8  -5 1389.80   46.80
  -3  -8  -5 1482.20   52.70
   3   8   5 1320.40   49.40
   3   8   5 1327.10   47.60
  -4  -8  -5  966.10   40.60
  -4  -8  -5  948.90   40.50
   4   8   5  893.10   41.50
   4   8   5 1020.10   45.10
  -5  -8  -5  251.30   17.00
  -5  -8  -5  231.20   16.20
   5   8   5  211.30    8.80
  -6  -8  -5  332.10   22.90
  -6  -8  -5  290.80   21.40
  -7  -8  -5   79.00   12.80
  -8  -8  -5  170.40   17.50
  -9  -8  -5  216.60   20.60
 -10  -8  -5  250.60   20.50
 -12   9   5   37.70   13.20
 -12   9   5   41.80   15.20
 -12   9   5   38.60   10.10
 -11   9   5    5.30   12.40
 -11   9   5    0.10    7.80
 -11   9   5    0.10   10.00
 -10   9   5  116.90   15.10
 -10   9   5   76.80   11.20
 -10   9   5   95.70   18.10
  -9   9   5   56.70   12.50
  -9   9   5   47.10   11.60
  -9   9   5   18.10   13.70
  -8   9   5  369.10   20.70
  -8   9   5  362.40   22.50
  -8   9   5  401.90   28.50
   7  -9  -5   68.40   14.00
  -7   9   5   46.20   11.10
  -7   9   5   56.50   14.90
  -7   9   5   57.90   10.40
   6  -9  -5  406.30   26.70
   6  -9  -5  414.60   27.50
  -6   9   5  464.30   24.40
  -6   9   5  452.60   22.20
  -6   9   5  488.70   27.80
   5  -9  -5  582.50   31.50
   5  -9  -5  559.10   31.00
  -5   9   5  603.60   29.80
  -5   9   5  601.10   27.00
   4  -9  -5  122.40   15.90
   4  -9  -5   84.60   14.30
  -4   9   5  109.50   11.50
  -4   9   5  105.40   14.10
   3  -9  -5 1895.20   65.00
   3  -9  -5 1868.60   66.60
  -3   9   5 1773.00   61.70
  -3   9   5 1904.80   64.40
   2  -9  -5   86.40   14.60
   2  -9  -5   95.20   14.00
  -2   9   5   98.50   12.50
  -2   9   5  110.20   14.80
   1  -9  -5  426.30   22.50
   1  -9  -5  390.80   21.60
  -1   9   5  404.50   20.00
  -1   9   5  463.00   23.80
   0  -9  -5   51.30   11.40
   0  -9  -5   81.70   12.00
   0   9   5   64.10   11.70
   0   9   5   62.80   12.30
  -1  -9  -5  243.50   16.20
  -1  -9  -5  258.50   16.70
   1   9   5  287.70   13.70
   1   9   5  264.40   16.80
   1   9   5  299.50   18.40
  -2  -9  -5   13.80    9.00
  -2  -9  -5   10.90    8.70
   2   9   5    6.60   10.70
   2   9   5   21.00   10.50
   2   9   5    5.10    8.60
  -3  -9  -5  858.00   35.20
  -3  -9  -5  869.50   34.80
   3   9   5  909.40   38.90
   3   9   5  781.50   35.00
   3   9   5  914.30   30.90
  -4  -9  -5  167.60   17.10
  -4  -9  -5  171.10   18.80
   4   9   5  179.50   10.90
  -5  -9  -5  348.30   25.00
  -5  -9  -5  378.20   24.00
  -6  -9  -5   29.80   10.30
  -7  -9  -5  275.10   19.70
  -8  -9  -5  561.40   30.00
  -9  -9  -5    7.40   11.10
 -10  -9  -5   23.10   11.20
 -11  10   5   42.30   12.00
 -11  10   5   68.90   16.80
 -10  10   5  281.70   26.90
 -10  10   5  289.10   19.60
 -10  10   5  289.30   22.40
  -9  10   5   67.90   13.30
  -9  10   5   57.10   15.40
  -9  10   5   42.10   10.30
  -8  10   5   52.20    9.70
  -8  10   5   50.30   11.00
  -8  10   5   48.50   12.90
  -7  10   5   76.30   14.70
  -7  10   5  132.60   12.50
  -7  10   5   94.00   13.30
   6 -10  -5    0.20    9.90
  -6  10   5    4.00    7.40
  -6  10   5    8.90   10.10
  -6  10   5    0.20   10.00
   5 -10  -5   49.80   14.40
   5 -10  -5   20.20   11.10
  -5  10   5   28.40   10.00
  -5  10   5   34.40   12.30
  -5  10   5   35.00   13.00
   4 -10  -5    1.00    8.50
   4 -10  -5   11.30    9.10
  -4  10   5   10.10    8.30
  -4  10   5   13.10    7.00
  -4  10   5   23.50    9.70
   3 -10  -5 1036.10   42.60
   3 -10  -5  899.30   41.80
  -3  10   5  993.70   40.70
  -3  10   5  967.00   38.80
  -3  10   5 1024.10   40.90
   2 -10  -5   74.00   12.00
   2 -10  -5   56.40   10.80
  -2  10   5   55.90    9.30
  -2  10   5   71.50   11.40
   1 -10  -5   16.10    8.50
   1 -10  -5   23.20   10.30
  -1  10   5   21.10    8.90
  -1  10   5    3.20    8.40
   0 -10  -5  171.40   16.80
   0 -10  -5  176.70   17.00
   0  10   5  163.20   15.80
   0  10   5  162.40   17.30
  -1 -10  -5  240.10   17.70
  -1 -10  -5  259.30   18.10
   1  10   5  279.90   17.70
   1  10   5  273.00   14.90
   1  10   5  267.60   20.70
  -2 -10  -5   48.10   11.00
  -2 -10  -5   38.30    9.80
   2  10   5   60.40   13.50
   2  10   5   51.00    7.60
   2  10   5   41.20    7.30
  -3 -10  -5  143.70   15.80
   3  10   5  138.10   18.40
   3  10   5  143.10   10.80
   3  10   5  156.00   11.80
  -4 -10  -5  394.70   22.50
   4  10   5  386.00   14.20
  -5 -10  -5  117.70   15.70
  -6 -10  -5  117.10   16.60
  -7 -10  -5   33.60   11.60
  -8 -10  -5  188.20   19.90
  -9 -10  -5    4.90   10.80
 -11  11   5   13.30   13.00
 -11  11   5   21.10   11.50
 -10  11   5  154.00   22.50
 -10  11   5  129.30   17.40
  -9  11   5    0.00   11.70
  -8  11   5    8.50   11.30
  -8  11   5   10.60    9.00
   7 -11  -5  368.70   28.50
  -7  11   5  411.90   22.60
  -7  11   5  335.30   30.70
  -7  11   5  389.60   25.10
   6 -11  -5   35.40   13.50
  -6  11   5   34.40   12.20
  -6  11   5   32.40   12.10
  -6  11   5   37.90    9.70
   5 -11  -5  339.20   24.40
  -5  11   5  357.60   21.50
  -5  11   5  353.00   24.10
  -5  11   5  339.60   19.60
   4 -11  -5   82.30   15.80
  -4  11   5   67.20   14.00
  -4  11   5  116.30   16.00
  -4  11   5  100.90   13.40
   3 -11  -5  147.70   17.50
  -3  11   5  142.80   16.70
  -3  11   5  138.20   14.40
  -3  11   5  128.50   15.50
   2 -11  -5  350.20   24.50
  -2  11   5  373.40   23.40
  -2  11   5  384.80   24.80
  -2  11   5  352.20   21.90
   1 -11  -5   13.50   10.80
  -1  11   5   11.80    9.80
  -1  11   5    9.50    9.40
  -1  11   5   10.00    7.90
   0 -11  -5  437.70   27.20
   0  11   5  395.20   22.70
   0  11   5  405.90   26.30
  -1 -11  -5  149.90   16.80
   1  11   5  158.70   18.20
   1  11   5  173.80   13.60
  -2 -11  -5  259.30   19.90
   2  11   5  227.50   14.30
   2  11   5  233.80   14.60
   2  11   5  224.50   20.10
  -3 -11  -5  440.10   26.40
   3  11   5  447.90   19.50
   3  11   5  428.30   18.30
   3  11   5  380.50   27.70
   4  11   5  137.60    8.50
  -5 -11  -5    1.90   10.60
  -6 -11  -5  636.20   32.80
  -7 -11  -5    0.10    9.10
  -8 -11  -5    0.80   10.00
  -9 -11  -5   38.80   13.20
 -10  12   5    6.20   11.60
 -10  12   5    0.00   13.40
  -9  12   5  179.70   23.60
  -9  12   5  217.70   21.10
  -8  12   5    3.90   13.80
  -8  12   5    0.00   10.30
   7 -12  -5  134.90   21.00
  -7  12   5  107.30   18.10
  -7  12   5  143.90   29.60
   6 -12  -5    9.90   12.50
  -6  12   5    1.50    8.90
   5 -12  -5  142.90   20.00
  -5  12   5  145.00   18.10
  -5  12   5  140.00   16.70
   4 -12  -5   70.70   16.10
  -4  12   5   50.00   12.30
  -4  12   5   46.10   13.60
   3 -12  -5   19.40   12.00
  -3  12   5    7.20    9.10
  -3  12   5    0.30    7.40
   2 -12  -5  299.00   24.00
  -2  12   5  313.50   22.20
  -2  12   5  276.70   20.10
   1 -12  -5   19.80   10.90
  -1  12   5   13.10   11.70
  -1  12   5   13.00    8.90
   0 -12  -5  230.70   21.80
   0  12   5  202.50   15.90
   0  12   5  249.00   22.20
  -1 -12  -5   28.50   12.00
   1  12   5   39.00   11.90
   1  12   5   29.20    8.20
  -2 -12  -5  381.70   27.80
   2  12   5  366.70   26.70
   2  12   5  387.40   18.40
   2  12   5  392.30   18.20
  -3 -12  -5  490.00   28.70
   3  12   5  482.00   19.60
   3  12   5  492.80   22.00
  -4 -12  -5   17.90   11.40
   4  12   5    8.20    4.80
  -5 -12  -5    6.60   10.80
  -6 -12  -5  332.40   24.00
  -7 -12  -5    5.50   12.40
  -8 -12  -5  154.60   20.00
  -9  13   5  322.60   30.90
  -9  13   5  308.30   25.30
  -8  13   5    0.90   11.40
  -8  13   5    4.70   10.50
  -7  13   5    0.70    9.40
  -7  13   5    0.70   12.00
   6 -13  -5   77.00   18.10
  -6  13   5   55.10   13.70
  -6  13   5   57.70   14.00
   5 -13  -5    5.10   11.50
  -5  13   5    0.10    9.90
  -5  13   5    0.10   10.90
   4 -13  -5  495.50   29.90
  -4  13   5  506.30   29.00
  -4  13   5  471.30   28.20
   3 -13  -5    2.40   10.50
  -3  13   5    3.00    9.30
  -3  13   5    6.30    8.60
   2 -13  -5  176.20   18.90
  -2  13   5  200.20   20.90
  -2  13   5  178.30   17.50
   1 -13  -5   16.00   12.40
  -1  13   5   12.30    8.20
  -1  13   5   10.30   11.10
   0 -13  -5    0.30   11.60
   0  13   5    2.60   10.60
   0  13   5    6.00    8.00
  -1 -13  -5  275.00   23.70
   1  13   5  276.90   22.80
   1  13   5  221.90   16.90
  -2 -13  -5  448.60   30.30
   2  13   5  400.00   21.60
   2  13   5  399.40   21.30
   2  13   5  423.70   29.20
  -3 -13  -5  184.90   20.80
   3  13   5  231.60   14.10
  -4 -13  -5  133.30   16.30
   4  13   5   92.40    7.20
  -5 -13  -5   84.80   15.70
  -6 -13  -5    0.50    8.80
  -7 -13  -5   71.70   15.90
  -8  14   5    8.30   12.50
  -8  14   5    6.80   10.90
   7 -14  -5    2.80   14.20
  -7  14   5    0.00   10.00
  -7  14   5   19.30   13.20
   6 -14  -5    0.10   13.10
  -6  14   5   36.40   12.60
  -6  14   5   22.00   11.50
   5 -14  -5    1.90   12.90
  -5  14   5   24.10   11.70
  -5  14   5   38.00   12.50
   4 -14  -5  221.40   23.40
  -4  14   5  258.00   22.00
  -4  14   5  311.30   24.30
   3 -14  -5   30.90   12.20
  -3  14   5   28.50   11.30
  -3  14   5   19.70   12.60
   2 -14  -5  255.60   23.20
  -2  14   5  265.00   21.10
  -2  14   5  237.50   21.60
   1 -14  -5   28.40   12.30
  -1  14   5    0.00    8.70
  -1  14   5   10.00   11.90
   0 -14  -5   24.90   13.00
   0  14   5   15.00   12.40
   0  14   5   21.90    9.90
  -1 -14  -5  520.70   32.10
   1  14   5  537.00   25.80
   1  14   5  528.10   31.60
  -2 -14  -5  207.60   21.00
   2  14   5  252.70   15.80
   2  14   5  173.40   21.80
  -3 -14  -5   78.60   17.20
   3  14   5  110.30   11.50
   3  14   5   86.20   10.50
  -4 -14  -5  268.70   25.20
   4  14   5  196.00   10.50
  -5 -14  -5   51.30   14.30
  -6 -14  -5  130.20   18.60
   7 -15  -5    1.30   13.40
  -7  15   5   15.40   13.70
  -7  15   5   16.00   11.60
   6 -15  -5    0.30   13.60
  -6  15   5    0.30   11.20
  -6  15   5   22.60   13.50
   5 -15  -5   17.60   15.10
  -5  15   5   46.00   14.10
  -5  15   5   25.90   11.50
   4 -15  -5  121.80   21.10
  -4  15   5  114.90   17.40
  -4  15   5   92.70   15.90
   3 -15  -5   24.40   13.30
  -3  15   5   15.70   13.30
  -3  15   5   19.50   10.40
   2 -15  -5   55.60   15.30
  -2  15   5   65.60   16.20
  -2  15   5   65.20   13.60
   1 -15  -5    1.80   11.90
  -1  15   5    0.40   10.40
  -1  15   5   22.10   11.00
   0 -15  -5  121.10   17.80
   0  15   5  135.20   17.80
   0  15   5  124.30   14.00
  -1 -15  -5  119.80   19.20
   1  15   5  108.80   14.00
   1  15   5  108.60   18.00
  -2 -15  -5   27.50   13.60
   2  15   5   23.40    8.30
   2  15   5   58.70   10.00
  -3 -15  -5  218.10   22.50
   3  15   5  192.60   13.20
   3  15   5  188.90   13.30
  -4 -15  -5  143.20   19.70
   5 -16  -5    0.00   13.70
  -5  16   5   14.70   12.60
  -5  16   5   20.00   12.90
   4 -16  -5   18.80   13.70
  -4  16   5    3.50   12.80
  -4  16   5   39.50   13.20
   3 -16  -5   95.40   18.10
  -3  16   5   89.50   17.00
  -3  16   5   65.80   15.10
   2 -16  -5    0.40   13.80
  -2  16   5   11.80   12.50
  -2  16   5   16.10   10.60
   1 -16  -5    1.20   12.50
  -1  16   5    0.40   10.30
  -1  16   5    9.80    9.50
   0 -16  -5   35.10   15.70
   0  16   5   23.80   10.10
   0  16   5   29.00   12.20
  -1 -16  -5   15.30   13.20
   1  16   5   29.90    9.10
  -2 -16  -5  323.60   28.70
   2  16   5  322.80   18.90
   2  16   5  299.60   18.50
   3  18  -6   54.00   14.20
  -3 -18   6   48.80   16.20
   2  18  -6  128.70   20.20
  -2 -18   6  123.80   21.10
   1  18  -6   13.50   13.20
  -1 -18   6    0.00   13.90
   0  18  -6   11.50   14.30
   0 -18   6   25.30   15.10
  -1  18  -6   20.20   13.50
  -2  18  -6    0.60   11.20
  -3  18  -6   76.90   17.60
  -5 -17   6   16.40   13.00
  -5 -17   6    1.70    6.70
  -4 -17   6  120.30   13.60
  -4 -17   6  111.30   18.30
   3  17  -6  216.50   22.20
  -3 -17   6  218.80   17.60
  -3 -17   6  283.80   27.10
   2  17  -6   13.20   12.00
  -2 -17   6    0.00   12.60
  -2 -17   6   13.90    8.60
   1  17  -6   18.80   13.20
  -1 -17   6   13.90   14.40
   0  17  -6   93.20   19.30
   0 -17   6  109.50   21.10
  -1  17  -6    6.10   14.30
  -2  17  -6  325.00   27.60
  -3  17  -6  312.50   27.70
  -4  17  -6    5.70   12.50
  -5  17  -6    8.50   15.20
   6  16  -6   10.60    5.50
  -6 -16   6   45.60   13.40
  -6 -16   6   38.10    6.70
  -5 -16   6   40.90   14.70
  -5 -16   6   40.30    8.80
   4  16  -6    6.90    9.50
  -4 -16   6   72.00   10.70
   3  16  -6  358.80   25.50
  -3 -16   6  407.60   26.70
  -3 -16   6  353.00   20.00
   2  16  -6    7.80   12.10
  -2 -16   6   11.10    8.50
  -2 -16   6   10.30   12.60
   1  16  -6  146.00   19.00
  -1 -16   6  127.80   14.80
  -1 -16   6  129.20   18.90
   0  16  -6    0.00   11.20
   0 -16   6    0.10   12.30
  -1  16  -6    6.80   13.40
  -2  16  -6 1202.00   53.00
  -3  16  -6  190.40   25.20
  -4  16  -6   86.60   17.40
   4 -16   6   73.10   12.60
  -5  16  -6  136.30   20.20
   5 -16   6  110.80   15.20
  -6  16  -6   35.60   18.30
  -7  16  -6  178.10   23.70
  -8 -15   6   15.50   12.00
  -7 -15   6    1.70   11.00
  -7 -15   6    0.00    4.20
  -6 -15   6   66.80    8.00
  -6 -15   6   61.30   12.30
   4  15  -6   17.00   10.10
  -4 -15   6   38.10    8.40
  -4 -15   6   31.70   12.80
   3  15  -6  102.10   17.00
  -3 -15   6  114.00   18.80
  -3 -15   6  136.70   14.00
   2  15  -6  133.90   18.10
  -2 -15   6  128.70   17.70
   1  15  -6   36.20   12.50
  -1 -15   6    0.80   11.60
  -1 -15   6   41.90    9.60
   0  15  -6   28.20   13.10
   0 -15   6   27.40   10.10
  -1  15  -6  393.50   28.30
  -2  15  -6  487.30   34.00
   2 -15   6  503.90   28.40
  -3  15  -6    2.20   11.90
   3 -15   6    6.30    7.90
  -4  15  -6    9.30   13.60
   4 -15   6    1.30    7.70
  -5  15  -6   13.80   15.30
   5 -15   6    0.10    7.00
  -6  15  -6    0.90   12.00
  -7  15  -6  280.00   31.10
  -8  15  -6  173.10   22.90
   8 -15   6  120.80   14.60
  -9 -14   6    9.50   10.70
  -8 -14   6   17.50    4.60
  -8 -14   6   24.70   12.40
  -7 -14   6   41.70   12.60
   6  14  -6    9.00    6.30
  -6 -14   6   34.30   11.80
  -6 -14   6   26.10    7.20
  -5 -14   6  345.50   24.30
  -5 -14   6  341.00   18.10
   4  14  -6    0.00    6.10
  -4 -14   6    9.60    6.90
  -4 -14   6    6.10   11.10
   3  14  -6  398.50   26.90
  -3 -14   6  359.00   21.40
  -3 -14   6  404.20   27.60
   2  14  -6   13.60    9.50
  -2 -14   6   23.10   12.10
  -2 -14   6   13.30    7.20
   1  14  -6    0.00    8.50
  -1 -14   6   10.50   11.30
   0  14  -6  514.00   32.00
   0 -14   6  553.10   32.60
   0 -14   6  556.00   27.90
   0 -14   6  557.00   28.70
  -1  14  -6  296.50   23.50
   1 -14   6  330.60   20.50
   1 -14   6  313.40   18.60
  -2  14  -6    0.00   11.50
   2 -14   6    0.00    7.20
  -3  14  -6  762.60   38.00
   3 -14   6  699.90   29.90
  -4  14  -6  166.10   22.50
   4 -14   6  191.00   16.80
  -5  14  -6  267.90   24.80
   5 -14   6  162.50   16.00
  -6  14  -6  101.20   17.80
  -7  14  -6  120.90   19.60
   7 -14   6   19.70    9.80
  -8  14  -6    1.50   15.20
  -9  14  -6   82.20   20.20
  -9 -13   6   37.90   11.80
  -8 -13   6   27.10   11.60
  -7 -13   6    9.60   10.30
   6  13  -6   39.10    8.40
  -6 -13   6   36.40   12.10
  -6 -13   6   51.30    8.30
   5  13  -6  160.10   18.10
  -5 -13   6  138.40   12.90
  -5 -13   6  136.20   17.00
   4  13  -6   48.00   11.50
   4  13  -6   46.10   10.80
  -4 -13   6   42.20   11.60
  -4 -13   6   59.30    9.40
   3  13  -6  104.70   15.20
   3  13  -6  102.70   16.50
  -3 -13   6   98.60   13.50
  -3 -13   6  104.70   16.90
   2  13  -6    6.50    7.40
   2  13  -6    0.00    9.60
  -2 -13   6    5.80    7.00
  -2 -13   6    0.00    8.70
   1  13  -6 1132.10   41.50
   1  13  -6 1137.90   44.20
  -1 -13   6 1059.80   39.10
  -1 -13   6 1106.60   39.90
  -1 -13   6 1110.40   43.50
   0  13  -6  286.60   21.30
   0 -13   6  270.10   21.70
   0 -13   6  289.50   17.00
  -1  13  -6   54.40   12.90
   1 -13   6   53.70   10.70
   1 -13   6   65.70   10.40
  -2  13  -6   57.10   13.90
   2 -13   6   46.10   12.20
   2 -13   6   61.80   10.50
  -3  13  -6  590.10   33.50
   3 -13   6  601.10   26.90
  -4  13  -6   17.80   13.50
   4 -13   6   19.40    7.20
  -5  13  -6  153.80   21.70
   5 -13   6   65.60   11.10
  -6  13  -6    6.00   13.10
  -7  13  -6  127.00   21.00
   7 -13   6   70.00   11.60
  -8  13  -6   22.00   14.90
  -9  13  -6  131.00   23.50
 -10  13  -6    4.50   14.50
 -10 -12   6   17.50   10.40
   9  12  -6  150.40   20.00
  -9 -12   6  153.10    9.20
  -9 -12   6  172.30   16.20
   8  12  -6   16.90    9.70
  -8 -12   6   31.70   10.30
  -8 -12   6   31.50    5.80
   7  12  -6   96.20   13.70
  -7 -12   6  115.80   13.70
  -7 -12   6  110.20    9.70
   6  12  -6   21.30    6.90
   6  12  -6   13.70    8.60
  -6 -12   6   21.50    6.30
  -6 -12   6   20.60   10.00
   5  12  -6    0.10    5.30
   5  12  -6    7.30    7.70
  -5 -12   6   13.10   10.10
  -5 -12   6    1.30    5.30
   4  12  -6  842.20   37.70
  -4 -12   6  822.90   33.50
  -4 -12   6  888.30   37.80
   3  12  -6  762.10   32.20
   3  12  -6  734.60   30.50
  -3 -12   6  741.80   27.70
  -3 -12   6  732.80   29.10
  -3 -12   6  721.50   31.20
   2  12  -6   57.90   11.00
   2  12  -6   51.00   12.30
  -2 -12   6   51.60   11.50
  -2 -12   6   66.80    9.80
  -2 -12   6   57.10    9.50
   1  12  -6  948.40   42.00
   1  12  -6  897.00   39.10
  -1 -12   6  929.50   38.20
  -1 -12   6  961.30   42.10
  -1 -12   6  921.00   38.10
   0  12  -6    0.00   10.00
   0  12  -6   12.50    7.80
   0 -12   6    0.00    6.00
   0 -12   6    0.00    6.20
  -1  12  -6 1499.10   56.50
  -1  12  -6 1557.50   54.70
   1 -12   6 1518.20   51.30
  -2  12  -6  287.30   18.90
  -2  12  -6  277.30   21.90
   2 -12   6  347.80   18.10
   2 -12   6  330.60   20.80
  -3  12  -6   36.00   13.40
   3 -12   6   28.30    9.70
   3 -12   6   41.40    8.60
  -4  12  -6  280.70   25.40
   4 -12   6  289.30   19.10
  -5  12  -6   12.70   11.40
   5 -12   6    0.50    5.60
  -6  12  -6  102.80   22.80
   6 -12   6   45.50   10.40
  -7  12  -6   69.00   15.90
   7 -12   6   43.10    9.80
  -8  12  -6  182.90   22.60
  -9  12  -6   55.80   15.30
   9 -12   6   31.20    3.90
 -10  12  -6    9.10   14.60
  11  11  -6   44.20   14.20
 -11 -11   6   77.30   12.60
  10  11  -6   65.70   12.90
 -10 -11   6   67.10   11.30
   9  11  -6  195.80   19.00
  -9 -11   6  209.80   18.00
  -9 -11   6  198.40   11.40
   8  11  -6   37.10   10.90
  -8 -11   6   43.50    8.60
  -8 -11   6   35.40    9.70
   7  11  -6    1.40    7.10
  -7 -11   6    0.50    7.40
  -7 -11   6    6.50    5.10
   6  11  -6  302.00   20.50
   6  11  -6  291.70   18.30
  -6 -11   6  304.30   16.10
  -6 -11   6  273.00   19.70
   5  11  -6   80.20    9.70
   5  11  -6  126.80   11.60
  -5 -11   6  121.40   11.90
  -5 -11   6  107.90    8.70
   4  11  -6    3.80    7.80
   4  11  -6    9.70    8.10
  -4 -11   6    6.50    9.20
  -4 -11   6   11.60    6.80
   3  11  -6  625.80   34.30
   3  11  -6  595.90   27.50
  -3 -11   6  584.30   24.80
  -3 -11   6  610.90   28.30
   2  11  -6    1.00    8.90
   2  11  -6    1.00    6.20
  -2 -11   6    1.00    6.20
  -2 -11   6    1.00    8.60
  -2 -11   6    1.00    6.80
   1  11  -6   13.70    9.00
   1  11  -6    8.90   10.10
  -1 -11   6    7.20    7.90
  -1 -11   6    6.20    9.40
  -1 -11   6   10.40    8.10
   0  11  -6   35.70    9.70
   0  11  -6   32.40   11.00
   0 -11   6   26.50    8.00
   0 -11   6   27.50    8.00
  -1  11  -6 2272.20   73.90
  -1  11  -6 2351.40   77.40
   1 -11   6 2241.90   70.70
   1 -11   6 2305.00   74.70
  -2  11  -6   78.10   14.80
  -2  11  -6   81.10   13.00
   2 -11   6   88.30   11.50
   2 -11   6   80.70   15.60
  -3  11  -6   13.00    9.70
  -3  11  -6   11.60   12.70
   3 -11   6    8.30   10.00
   3 -11   6    7.80    7.00
  -4  11  -6  550.00   29.90
  -4  11  -6  551.70   29.90
   4 -11   6  531.10   27.20
   4 -11   6  487.30   21.90
  -5  11  -6   60.10   16.50
  -6  11  -6  204.80   22.30
   6 -11   6  130.70   13.20
  -8  11  -6  245.30   24.50
   8 -11   6  219.60   10.20
  -9  11  -6   12.30   13.40
 -10  11  -6    0.00   13.70
 -11  11  -6   36.70   17.00
  11  10  -6  118.80   16.80
 -11 -10   6  135.00   10.30
 -11 -10   6  126.20   10.90
 -11 -10   6  173.40   16.90
 -11 -10   6  150.80   21.30
 -10 -10   6  148.90   15.20
 -10 -10   6  139.90   10.60
   9  10  -6  125.50   14.90
  -9 -10   6  148.40   15.20
   8  10  -6    2.30    6.90
  -8 -10   6   16.90    5.80
  -8 -10   6   19.30    7.70
   7  10  -6    5.50    7.60
  -7 -10   6    0.20    7.40
  -7 -10   6    0.20    5.50
   6  10  -6  593.40   24.40
   6  10  -6  546.90   25.10
  -6 -10   6  579.50   22.40
  -6 -10   6  590.00   25.40
   5  10  -6   46.90   12.00
   5  10  -6   54.60   12.60
  -5 -10   6   46.90   12.20
  -5 -10   6   49.40   10.20
   4  10  -6  168.20   13.80
   4  10  -6  151.40   14.70
  -4 -10   6  206.00   16.10
  -4 -10   6  193.50   13.00
   3  10  -6 1500.60   52.50
   3  10  -6 1487.70   50.50
  -3 -10   6 1530.40   50.70
  -3 -10   6 1537.90   48.60
   2  10  -6  164.30   17.60
   2  10  -6  193.80   15.40
  -2 -10   6  172.50   14.70
  -2 -10   6  185.00   16.40
   1  10  -6 1062.20   44.30
   1  10  -6 1091.90   46.80
  -1 -10   6 1009.30   42.90
  -1 -10   6 1053.30   45.10
   0  10  -6  243.70   17.90
   0  10  -6  264.80   20.70
   0 -10   6  237.20   18.50
   0 -10   6  241.90   16.50
  -1  10  -6 1040.80   39.40
  -1  10  -6  997.60   35.70
   1 -10   6 1070.80   33.50
   1 -10   6 1015.50   36.30
  -2  10  -6  260.60   18.00
  -2  10  -6  236.00   15.70
   2 -10   6  255.60   12.90
   2 -10   6  237.40   15.20
  -3  10  -6    8.40   10.10
  -3  10  -6   21.40    9.00
   3 -10   6   26.30   12.00
   3 -10   6   28.70    7.20
  -4  10  -6   13.10    8.80
  -4  10  -6    3.50   10.00
   4 -10   6    6.10    8.10
  -5  10  -6    6.60   10.70
  -5  10  -6    6.20    8.50
   5 -10   6    0.00    7.30
   5 -10   6    0.00    4.40
  -6  10  -6  143.40   19.30
   6 -10   6  111.80   10.00
  -7  10  -6    2.00   11.50
   7 -10   6    1.00    3.90
  -8  10  -6  177.20   20.70
  -9  10  -6   19.80   13.00
 -10  10  -6   35.80   15.60
 -11  10  -6   21.80   15.80
 -12  -9   6    7.80   12.40
 -12  -9   6   15.00    6.60
 -12  -9   6   14.60    9.30
 -12  -9   6   23.40    7.00
  11   9  -6  157.20   15.10
 -11  -9   6  105.40   17.30
 -11  -9   6  139.90   11.00
 -11  -9   6  148.60   13.50
  10   9  -6  236.90   18.20
 -10  -9   6  280.20   15.40
 -10  -9   6  296.60   18.50
   9   9  -6   72.80    9.50
  -9  -9   6   72.70    9.60
  -9  -9   6   64.50    7.20
   8   9  -6  160.40   13.90
  -8  -9   6  137.40   12.20
  -8  -9   6  152.60   14.20
   7   9  -6    1.20    5.80
  -7  -9   6    0.20    6.90
  -7  -9   6    1.10    5.80
   6   9  -6    5.80    7.10
  -6  -9   6   10.10    6.30
  -6  -9   6   10.70    7.30
   5   9  -6  334.40   19.50
   5   9  -6  327.30   18.80
  -5  -9   6  356.40   17.70
  -5  -9   6  359.80   19.00
   4   9  -6  160.40   14.70
   4   9  -6  169.80   13.10
  -4  -9   6  172.90   15.70
  -4  -9   6  194.80   12.90
   3   9  -6  401.60   23.00
   3   9  -6  420.00   21.40
  -3  -9   6  441.20   20.50
  -3  -9   6  451.60   22.30
   2   9  -6   58.10   12.00
   2   9  -6   55.30   10.30
  -2  -9   6   40.20    8.70
  -2  -9   6   50.30   10.90
   1   9  -6 1477.30   61.30
   1   9  -6 1540.00   54.40
  -1  -9   6 1445.80   53.80
  -1  -9   6 1502.20   55.30
   0   9  -6  120.70   15.40
   0   9  -6  109.50   12.80
   0  -9   6  102.60   13.00
  -1   9  -6   12.00    7.40
  -1   9  -6   19.10   10.50
   1  -9   6    6.30    5.50
   1  -9   6    5.10    6.90
  -2   9  -6 1809.30   67.30
  -2   9  -6 1772.60   63.90
   2  -9   6 1768.60   59.40
   2  -9   6 1761.60   64.70
  -3   9  -6   64.80   12.50
  -3   9  -6   84.20   11.40
   3  -9   6   72.30    8.00
   3  -9   6   75.60   11.90
  -4   9  -6  111.10   14.60
  -4   9  -6  125.20   13.70
   4  -9   6   93.10    8.60
   4  -9   6  118.90   14.40
  -5   9  -6   66.60   10.90
  -5   9  -6   70.00   13.00
   5  -9   6   55.90   11.40
   5  -9   6   41.20    6.60
  -6   9  -6  229.70   21.90
  -6   9  -6  287.90   23.70
   6  -9   6  243.60   12.10
   6  -9   6  234.40   21.00
  -7   9  -6    8.60   12.30
  -8   9  -6   26.40   12.80
  -9   9  -6    0.00   12.60
 -10   9  -6  260.60   26.40
 -11   9  -6    0.50   12.50
 -12  -8   6   44.00   11.60
 -12  -8   6   27.70    8.90
 -12  -8   6   26.40   14.80
 -12  -8   6   48.40    8.50
  11   8  -6   76.90   11.40
 -11  -8   6  109.50   11.60
 -11  -8   6  107.90   16.40
 -11  -8   6  113.40   11.00
  10   8  -6  217.70   14.20
 -10  -8   6  199.30   13.10
 -10  -8   6  194.50   19.70
 -10  -8   6  178.90   13.80
   9   8  -6    0.40    5.60
  -9  -8   6    1.60    6.50
  -9  -8   6   11.00    6.40
   8   8  -6   90.90   11.00
  -8  -8   6  114.90   12.00
  -8  -8   6   95.80   10.80
   7   8  -6  129.40   12.10
  -7  -8   6  120.30   12.30
  -7  -8   6  141.50   12.20
   6   8  -6    8.00    5.70
  -6  -8   6   14.00    6.70
  -6  -8   6    6.00    6.70
   5   8  -6 3608.50  105.80
   5   8  -6 3536.90  104.20
  -5  -8   6 3575.60  103.40
  -5  -8   6 3532.50  103.40
   4   8  -6  653.40   30.00
   4   8  -6  651.50   27.80
  -4  -8   6  643.70   27.30
  -4  -8   6  635.10   27.00
   3   8  -6   14.90    7.50
   3   8  -6    4.50    7.90
  -3  -8   6   10.80    7.20
  -3  -8   6    8.50    7.00
   2   8  -6  326.00   15.70
   2   8  -6  359.40   13.80
  -2  -8   6  347.90   14.00
  -2  -8   6  331.70   13.30
   1   8  -6  855.30   27.40
   1   8  -6  936.90   31.00
  -1  -8   6  928.70   28.40
   0   8  -6  219.90   20.30
   0   8  -6  209.70   15.20
   0  -8   6  210.70   15.30
  -1   8  -6   17.70    9.00
  -1   8  -6   24.60    8.10
   1  -8   6   34.50    9.40
  -2   8  -6 1319.80   47.40
  -2   8  -6 1270.00   44.40
   2  -8   6 1316.30   40.00
   2  -8   6 1269.10   45.10
  -3   8  -6  341.70   19.20
  -3   8  -6  272.50   15.60
   3  -8   6  299.60   16.70
  -4   8  -6  214.90   18.40
  -4   8  -6  212.50   16.80
   4  -8   6  183.30   10.80
   4  -8   6  197.10   16.10
  -5   8  -6   34.60   10.90
   5  -8   6   41.50    9.60
   5  -8   6   32.10    4.90
  -6   8  -6  392.80   25.90
   6  -8   6  362.00   25.00
  -7   8  -6   64.40   14.40
  -8   8  -6   66.50   15.50
  -9   8  -6   10.20   12.50
 -10   8  -6  111.00   17.00
 -11   8  -6    3.10   12.80
 -12   8  -6   49.60   16.20
 -13  -7   6   31.20    9.30
 -13  -7   6   39.00   13.20
 -13  -7   6   28.30    8.50
 -13  -7   6   26.90    8.20
 -12  -7   6   72.10   10.70
 -12  -7   6   71.80   10.00
 -12  -7   6   65.50   15.30
 -12  -7   6   77.40   10.20
 -11  -7   6    4.50    7.30
 -11  -7   6    1.60   10.10
 -11  -7   6    0.40    6.90
  10   7  -6  115.20   11.90
 -10  -7   6  117.00   11.90
 -10  -7   6  115.60   28.70
 -10  -7   6  113.50   12.40
   9   7  -6   60.70    9.00
  -9  -7   6   67.70    9.30
  -9  -7   6   64.20    8.60
  -9  -7   6   61.70   14.10
   8   7  -6   18.20    7.00
  -8  -7   6   13.80    6.60
  -8  -7   6   23.40    7.70
   7   7  -6  134.20   11.30
  -7  -7   6  143.90   12.20
  -7  -7   6  135.50   12.70
   6   7  -6    9.80    5.30
  -6  -7   6   28.70    7.30
  -6  -7   6    7.50    5.80
   5   7  -6 3962.40  114.60
   5   7  -6 3848.60  113.50
  -5  -7   6 3810.20  111.80
  -5  -7   6 3719.80  110.30
   4   7  -6   28.10    7.80
   4   7  -6   23.70    7.70
  -4  -7   6   20.20    6.70
  -4  -7   6   26.60    6.60
   3   7  -6  345.00   10.90
   3   7  -6  320.00   13.10
  -3  -7   6  322.30   11.00
  -3  -7   6  308.20   11.40
   2   7  -6  753.90   32.40
   2   7  -6  792.80   35.60
  -2  -7   6  771.10   32.70
  -2  -7   6  732.80   33.10
   1   7  -6    3.70    7.20
   1   7  -6   14.20    6.90
  -1  -7   6    9.60    7.60
   0   7  -6 2233.00   74.50
   0   7  -6 2195.90   71.40
   0  -7   6 2100.10   72.40
  -1   7  -6  305.40   18.00
  -1   7  -6  301.70   23.70
   1  -7   6  320.60   19.30
  -2   7  -6   42.10    6.30
  -2   7  -6   47.10    8.10
   2  -7   6   43.90    6.70
  -3   7  -6    0.20    7.90
   3  -7   6    0.20    3.40
   3  -7   6    0.20    6.50
  -4   7  -6  106.60   12.90
   4  -7   6   90.50    6.70
   4  -7   6   99.20   11.50
  -5   7  -6   26.40   10.20
   5  -7   6   32.40    9.70
  -6   7  -6   80.30   14.50
   6  -7   6   93.20   13.90
  -7   7  -6  691.20   32.20
   7  -7   6  643.40   31.80
  -8   7  -6   91.10   16.40
  -9   7  -6   27.80   12.70
 -10   7  -6   47.70   23.20
 -11   7  -6  233.20   24.30
 -12   7  -6    6.80   13.30
 -12   7  -6    0.10   13.10
 -13  -6   6    0.60    7.70
 -13  -6   6   12.00    8.70
 -13  -6   6    0.50    6.90
 -13  -6   6   27.80   14.20
 -12  -6   6   93.30   13.80
 -12  -6   6  104.40   18.90
 -12  -6   6  100.50   13.00
 -12  -6   6  105.30   16.60
 -11  -6   6  102.60   12.30
 -11  -6   6   87.10    9.80
 -11  -6   6   89.00   17.50
 -10  -6   6   19.80   11.40
 -10  -6   6   17.20    7.50
 -10  -6   6    7.80    6.00
   9   6  -6    8.90    5.30
  -9  -6   6    0.20    9.80
  -9  -6   6    5.00    5.50
  -9  -6   6    0.20    6.50
   8   6  -6   26.40    6.40
  -8  -6   6   39.70   11.50
  -8  -6   6   31.30    6.70
  -8  -6   6   36.90    8.30
   7   6  -6  733.00   27.30
  -7  -6   6  748.20   29.80
  -7  -6   6  725.90   27.10
  -7  -6   6  736.80   35.10
   6   6  -6    1.00    4.20
  -6  -6   6    1.00    5.80
  -6  -6   6    1.00    4.50
   5   6  -6  958.70   32.10
   5   6  -6  929.00   29.00
  -5  -6   6  933.00   28.90
  -5  -6   6  933.90   31.30
   4   6  -6 1519.60   53.00
   4   6  -6 1348.50   49.20
  -4  -6   6 1454.70   51.60
  -4  -6   6 1443.10   49.00
   3   6  -6    1.60    4.80
   3   6  -6    0.90    6.30
  -3  -6   6    0.10    5.50
  -3  -6   6    0.60    6.50
   2   6  -6    8.40    7.00
   2   6  -6   12.80    5.10
  -2  -6   6   16.20    5.90
   1   6  -6  323.70   13.10
  -1  -6   6  303.20   10.70
   0   6  -6 5766.30  131.20
   0   6  -6 5783.30  134.00
   0  -6   6 5664.20  132.80
  -1   6  -6   33.60    9.90
  -1   6  -6   15.20   10.00
   1  -6   6   16.70    8.90
  -2   6  -6   81.40   12.50
   2  -6   6   94.80   10.40
  -3   6  -6  116.80   12.70
   3  -6   6  141.80    7.40
   3  -6   6  126.30   12.90
  -4   6  -6    2.90    7.50
   4  -6   6    2.30    7.40
   4  -6   6    2.90    2.50
   4  -6   6    0.70    2.20
  -5   6  -6  659.60   32.40
   5  -6   6  661.70   31.40
  -6   6  -6    4.00   10.30
   6  -6   6   10.00    8.10
  -7   6  -6 1135.40   47.20
   7  -6   6 1053.60   45.70
  -8   6  -6   72.00   14.70
   8  -6   6   64.10   12.50
  -9   6  -6   10.80   12.10
 -10   6  -6   68.60   14.60
 -11   6  -6   78.00   17.40
 -11   6  -6  115.30   17.90
 -12   6  -6   46.80   16.10
 -12   6  -6   34.10   14.60
 -13  -5   6    0.80   10.40
 -13  -5   6   10.50    8.70
 -13  -5   6    0.10    7.90
 -12  -5   6   40.30    7.50
 -12  -5   6   36.10   14.00
 -12  -5   6   30.70   10.00
 -12  -5   6   60.20   10.20
 -11  -5   6  209.50   16.50
 -11  -5   6  208.10   13.20
 -11  -5   6  266.90   28.10
 -10  -5   6   35.60   12.90
 -10  -5   6   41.70    6.70
 -10  -5   6   35.30    8.60
  -9  -5   6   97.20    9.20
  -9  -5   6   89.90   11.20
  -9  -5   6   81.90   14.50
  -8  -5   6    4.60    6.70
  -8  -5   6    0.20    4.60
  -8  -5   6    7.60    8.60
   7   5  -6  936.80   25.00
  -7  -5   6  907.50   28.80
  -7  -5   6  920.50   33.80
  -7  -5   6  920.20   24.90
   6   5  -6    2.90    3.60
  -6  -5   6    3.10    4.10
  -6  -5   6    0.40    6.70
  -6  -5   6    0.00    5.70
   5   5  -6   10.40    4.90
  -5  -5   6   14.70    5.60
  -5  -5   6    8.90    7.30
  -5  -5   6   15.30    8.80
   4   5  -6 3123.80   84.20
   4   5  -6 3124.50   80.20
  -4  -5   6 3095.10   83.30
  -4  -5   6 3206.40   80.00
   3   5  -6   38.60    5.00
   3   5  -6   49.60    4.20
  -3  -5   6   44.30    5.50
   2   5  -6  952.20   31.30
  -2  -5   6  882.80   29.60
   1   5  -6  836.30   40.50
   1   5  -6  814.40   37.20
  -1  -5   6  811.20   39.70
   0   5  -6  590.90   35.10
   0   5  -6  592.60   33.00
   0  -5   6  543.70   34.00
  -1   5  -6  494.50   17.50
   1  -5   6  509.50   13.50
   1  -5   6  493.40   16.90
  -2   5  -6   21.60    6.80
   2  -5   6   26.20    3.90
   2  -5   6   24.40    6.70
  -3   5  -6   57.60   10.20
   3  -5   6   60.50    9.50
   3  -5   6   58.60    4.70
   3  -5   6   53.50    4.30
  -4   5  -6    4.10    7.10
   4  -5   6    4.10    6.00
  -5   5  -6 1711.70   59.90
   5  -5   6 1624.40   59.70
  -6   5  -6  380.60   23.90
   6  -5   6  405.90   24.60
  -7   5  -6 1220.20   47.20
   7  -5   6 1187.80   63.10
  -8   5  -6    7.70   10.50
   8  -5   6    8.90    8.70
  -9   5  -6    0.00    9.30
   9  -5   6    0.00    9.30
 -10   5  -6  136.70   21.40
 -10   5  -6  122.30   18.20
 -11   5  -6    0.30   11.40
 -11   5  -6   10.00   11.30
 -12   5  -6   52.30   13.70
 -12   5  -6   50.80   14.60
 -13  -4   6    0.00    5.40
 -13  -4   6    3.50    9.10
 -13  -4   6    0.00    7.30
 -13  -4   6    0.00   10.70
 -12  -4   6    0.30    5.10
 -12  -4   6    8.90   11.80
 -11  -4   6  208.30   11.50
 -11  -4   6  215.10   16.30
 -11  -4   6  207.00   21.70
 -10  -4   6    1.30    6.90
 -10  -4   6    7.80    4.70
 -10  -4   6    0.00   10.10
  -9  -4   6    0.50    6.80
  -9  -4   6    1.50    4.30
  -9  -4   6    0.90    8.30
  -8  -4   6  116.20    9.10
  -8  -4   6  118.30   13.60
  -8  -4   6  115.60   16.90
   7   4  -6  368.00   15.00
  -7  -4   6  392.60   23.60
  -7  -4   6  372.90   20.00
  -7  -4   6  353.30   14.90
   6   4  -6  255.90    8.70
  -6  -4   6  276.30   13.50
  -6  -4   6  261.00    9.00
  -6  -4   6  302.00   17.20
   5   4  -6  117.90    5.60
  -5  -4   6  128.00    6.10
  -5  -4   6  153.60   10.40
  -5  -4   6  142.90   11.20
   4   4  -6 1336.60   37.50
   4   4  -6 1363.00   42.30
  -4  -4   6 1341.40   42.10
  -4  -4   6 1399.30   44.00
   3   4  -6   19.30    9.60
   3   4  -6   15.30    6.30
  -3  -4   6   12.20    8.70
  -3  -4   6    9.60    7.90
   2   4  -6 5592.60  157.80
   2   4  -6 5523.40  153.40
  -2  -4   6 5606.30  156.50
  -2  -4   6 5470.20  157.00
   1   4  -6 1285.40   41.50
  -1  -4   6 1285.80   41.10
  -1  -4   6 1299.60   39.30
   0   4  -6  118.30   10.80
   0  -4   6   93.70    9.50
   0  -4   6  115.40    7.90
  -1   4  -6  939.90   44.70
   1  -4   6  880.40   44.00
   1  -4   6  925.50   39.70
  -2   4  -6   74.10   10.70
   2  -4   6   72.10    6.10
   2  -4   6   64.60    9.80
  -3   4  -6  292.20   16.00
   3  -4   6  301.50   15.60
   3  -4   6  296.60    7.90
  -4   4  -6    0.10    7.80
   4  -4   6    0.60    6.70
  -5   4  -6 1191.80   40.70
   5  -4   6 1218.70   41.00
  -6   4  -6 1235.20   46.10
   6  -4   6 1222.80   46.80
  -7   4  -6  327.80   20.50
   7  -4   6  307.10   19.70
  -8   4  -6   12.20    9.10
   8  -4   6    3.00    8.70
  -9   4  -6  111.50   17.20
  -9   4  -6  105.10   16.90
   9  -4   6  120.20   18.20
 -10   4  -6    5.50   11.10
 -10   4  -6    8.20    9.60
 -11   4  -6  291.10   24.10
 -11   4  -6  347.70   25.20
 -12   4  -6  211.40   25.30
 -12   4  -6  206.10   22.90
 -14  -3   6    2.20    5.40
 -14  -3   6    0.00   11.40
 -14  -3   6   13.40   10.70
 -13  -3   6   24.40    9.00
 -13  -3   6   19.20   11.60
 -13  -3   6   20.50    5.60
 -13  -3   6   25.30   11.00
 -12  -3   6   68.90   10.90
 -12  -3   6   52.50    6.90
 -12  -3   6   45.80   15.50
 -11  -3   6   79.70   15.00
 -11  -3   6   93.70   12.40
 -11  -3   6   76.70    8.20
 -10  -3   6   34.90    9.10
 -10  -3   6   37.30    5.30
 -10  -3   6   49.60   13.10
  -9  -3   6   54.80    7.50
  -9  -3   6   46.00   14.40
  -9  -3   6   63.20   12.40
  -8  -3   6  175.70   15.20
  -8  -3   6  191.20   12.90
  -8  -3   6  179.00    7.50
  -7  -3   6    0.50    5.20
  -7  -3   6    4.30    7.10
  -7  -3   6    6.60    2.70
  -6  -3   6 2173.90   65.90
  -6  -3   6 2195.80   76.00
  -6  -3   6 2182.70   72.80
   5   3  -6  121.00    6.20
  -5  -3   6  141.80   14.40
  -5  -3   6  138.00   12.20
   4   3  -6   26.20    3.00
  -4  -3   6   19.00    6.50
  -4  -3   6   26.80    6.80
   3   3  -6  155.80    7.40
   3   3  -6  163.50    4.50
  -3  -3   6  158.60    7.60
  -3  -3   6  151.90    7.20
   2   3  -6 2920.10   89.40
   2   3  -6 2921.00   85.10
  -2  -3   6 2919.80   88.40
  -2  -3   6 2918.30   89.90
   1   3  -6  560.20   24.90
  -1  -3   6  541.90   22.90
  -1  -3   6  635.70   28.80
   0   3  -6  631.90   24.40
   0  -3   6  616.90   21.20
   0  -3   6  608.10   24.10
  -1   3  -6 1099.20   42.90
   1  -3   6 1048.40   42.50
   1  -3   6 1051.50   37.90
  -2   3  -6  107.50    8.10
   2  -3   6  120.90    5.00
   2  -3   6   92.20    7.10
  -3   3  -6  397.00   20.30
   3  -3   6  368.40   19.80
   3  -3   6  377.90   13.00
  -4   3  -6  341.80   13.30
   4  -3   6  285.00   12.10
  -5   3  -6  787.90   30.90
   5  -3   6  853.90   32.50
  -6   3  -6  978.40   33.90
   6  -3   6  960.00   34.30
  -7   3  -6    0.00    8.10
  -7   3  -6    1.50    9.20
   7  -3   6    0.00    7.00
  -8   3  -6   31.30    9.60
  -8   3  -6   20.30   10.80
   8  -3   6   36.20    9.80
  -9   3  -6   22.80   11.60
  -9   3  -6   18.30    9.90
   9  -3   6   13.50    9.70
 -10   3  -6    0.20    9.40
 -10   3  -6    8.60   10.60
  10  -3   6    0.40    9.40
 -11   3  -6  532.70   29.60
 -11   3  -6  564.40   32.30
 -12   3  -6  116.30   18.60
 -12   3  -6  131.70   19.40
 -13   3  -6    1.30   12.80
 -13   3  -6    2.60   11.50
 -14  -2   6    0.00    5.10
 -14  -2   6    0.00   10.30
 -14  -2   6    0.00   11.50
 -13  -2   6  134.80   10.50
 -13  -2   6  117.60   16.40
 -13  -2   6  140.90   19.30
 -12  -2   6   13.70   12.40
 -12  -2   6    7.10    4.80
 -12  -2   6    8.90    8.50
 -11  -2   6   31.40   10.70
 -11  -2   6   32.10    5.10
 -11  -2   6   19.50    8.30
 -10  -2   6  156.10    7.40
 -10  -2   6  152.30   14.80
 -10  -2   6  149.30   12.20
  -9  -2   6   18.70    9.80
  -9  -2   6   13.40    7.60
  -9  -2   6   22.50    3.70
  -8  -2   6    0.40    6.10
  -8  -2   6    0.40    7.80
  -8  -2   6    0.80    2.40
  -7  -2   6   43.80   11.80
  -7  -2   6   52.00   10.60
  -6  -2   6 2555.10   83.10
  -6  -2   6 2508.40   85.60
  -5  -2   6  377.30   25.40
  -5  -2   6  377.50   23.50
  -4  -2   6 2628.40   83.40
  -4  -2   6 2676.00   84.80
   3   2  -6   49.70   18.20
   3   2  -6   58.50   13.10
   3   2  -6   58.20   18.60
  -3  -2   6   61.00   18.50
  -3  -2   6   61.10   18.40
   2   2  -6   48.10    4.50
   2   2  -6   55.50    5.90
  -2  -2   6   42.90    5.90
  -2  -2   6   48.50    5.20
   1   2  -6 3669.80   82.00
   1   2  -6 3535.30   79.70
  -1  -2   6 3631.40   79.90
   0   2  -6   63.30   16.30
   0   2  -6   65.10   13.90
   0  -2   6   77.80   14.30
  -1   2  -6  155.70   10.20
  -1   2  -6  174.00    7.30
   1  -2   6  187.70   11.00
   1  -2   6  162.30    7.40
  -2   2  -6 2269.10   67.60
  -2   2  -6 2237.50   72.90
   2  -2   6 2298.90   67.70
   2  -2   6 2175.00   73.30
  -3   2  -6   31.60    9.20
  -3   2  -6   26.60    4.80
   3  -2   6   32.20    9.10
   3  -2   6   34.00    5.50
  -4   2  -6 1392.20   44.10
  -4   2  -6 1392.30   44.30
  -4   2  -6 1339.20   36.10
   4  -2   6 1428.30   45.20
  -5   2  -6   26.40    9.40
  -5   2  -6   17.20    8.70
   5  -2   6   15.10    9.10
  -6   2  -6   48.10   10.10
  -6   2  -6   50.80   10.30
   6  -2   6   57.30   10.40
  -7   2  -6 1056.50   37.00
  -7   2  -6 1085.80   38.90
   7  -2   6 1058.70   38.30
  -8   2  -6  229.80   19.20
  -8   2  -6  262.90   19.50
   8  -2   6  264.70   19.50
  -9   2  -6  219.10   20.30
  -9   2  -6  244.30   20.60
   9  -2   6  216.30   20.20
 -10   2  -6   41.10   12.20
 -10   2  -6   46.00   12.80
  10  -2   6   37.80   11.20
 -11   2  -6  194.10   22.30
 -11   2  -6  214.60   21.00
  11  -2   6  175.50   20.30
 -12   2  -6    5.20   11.50
 -12   2  -6    2.10   11.20
 -13   2  -6   24.00   13.00
 -13   2  -6   49.70   13.10
 -14  -1   6    9.40   12.50
 -14  -1   6   13.80    6.30
 -14  -1   6    0.00    4.90
 -13  -1   6  103.50    9.10
 -13  -1   6   97.60   16.50
 -13  -1   6  100.00   16.20
 -12  -1   6    1.50    9.80
 -12  -1   6    0.20    4.20
 -12  -1   6    0.20   10.00
 -11  -1   6    0.80   10.70
 -11  -1   6    0.30    3.80
 -10  -1   6  283.00   21.00
 -10  -1   6  257.80   10.80
  -9  -1   6  114.60    6.40
  -9  -1   6  127.60    7.30
  -9  -1   6  113.90   14.90
  -8  -1   6  739.30   28.30
  -8  -1   6  684.90   16.90
  -8  -1   6  694.10   17.20
  -7  -1   6   39.10    9.10
  -7  -1   6   33.60    6.30
  -6  -1   6  471.50   23.60
  -6  -1   6  408.00   21.00
   5   1  -6  640.20   25.00
  -5  -1   6  619.80   23.40
   4   1  -6  971.60   44.50
  -4  -1   6  990.80   43.40
  -4  -1   6  931.40   44.00
   3   1  -6   53.70    3.10
   3   1  -6   53.60    6.70
  -3  -1   6   54.40    7.00
  -3  -1   6   82.40    8.00
   2   1  -6  572.30   25.20
   2   1  -6  612.90   26.00
   2   1  -6  628.80   21.70
  -2  -1   6  618.30   25.60
  -2  -1   6  616.50   26.50
   1   1  -6 3435.30   99.20
   1   1  -6 3489.90  101.60
   1   1  -6 3669.20  103.40
  -1  -1   6 3424.40  106.40
  -1  -1   6 3517.40  101.50
   0   1  -6  133.30    5.50
   0   1  -6  152.40    7.50
   0   1  -6  140.20    6.20
   0  -1   6  135.80    7.50
   0  -1   6  141.50    6.30
  -1   1  -6    2.40    5.50
  -1   1  -6    1.40    3.70
  -1   1  -6    0.30    4.00
   1  -1   6    2.50    6.50
   1  -1   6    4.20    4.10
  -2   1  -6  495.60   17.60
  -2   1  -6  530.70   15.00
  -2   1  -6  539.80   18.80
   2  -1   6  563.00   20.50
   2  -1   6  534.00   15.40
  -3   1  -6 1370.60   42.90
  -3   1  -6 1398.90   48.40
  -3   1  -6 1315.60   47.60
   3  -1   6 1391.00   44.00
   3  -1   6 1360.00   49.10
  -4   1  -6 1121.00   50.00
  -4   1  -6 1163.50   50.50
  -4   1  -6 1159.80   43.90
   4  -1   6 1208.80   51.40
   4  -1   6 1181.20   44.70
  -5   1  -6  352.30   20.10
  -5   1  -6  340.80   13.20
  -5   1  -6  336.10   20.00
   5  -1   6  337.90   20.40
  -6   1  -6   49.60   11.80
  -6   1  -6   41.80    5.50
  -6   1  -6   38.40   11.70
   6  -1   6   37.40   10.50
  -7   1  -6  938.50   36.30
  -7   1  -6  878.00   27.70
  -7   1  -6  913.70   37.50
   7  -1   6  942.50   37.70
  -8   1  -6  109.70   16.30
  -8   1  -6   95.90   13.60
  -8   1  -6   92.10    7.10
  -8   1  -6   87.30    8.00
   8  -1   6   84.00   13.60
  -9   1  -6  600.30   29.60
  -9   1  -6  651.10   20.40
  -9   1  -6  549.70   18.80
  -9   1  -6  598.70   28.00
   9  -1   6  596.80   29.30
 -10   1  -6   84.10    6.60
 -10   1  -6   98.40    7.40
 -10   1  -6   94.20   13.70
 -10   1  -6   83.50   12.80
 -11   1  -6   43.70   11.90
 -11   1  -6   25.80   11.90
 -11   1  -6   38.90    6.00
  11  -1   6   35.80   10.30
 -12   1  -6  104.40    8.80
 -12   1  -6  114.50   19.00
 -12   1  -6   88.90   15.40
 -13   1  -6   42.10   12.50
 -13   1  -6   42.90   12.30
 -13   1  -6   24.40    4.90
 -14   0   6    5.00    5.50
 -14   0   6   11.40   12.30
 -14   0   6   15.90   13.40
 -14   0   6    8.80    6.10
 -13   0   6   21.60   11.70
 -13   0   6   10.00    5.10
 -13   0   6    3.70    9.90
 -12   0   6  111.10    9.20
 -12   0   6  116.10   17.40
 -12   0   6   98.20    9.50
 -12   0   6  120.80   18.10
 -11   0   6    0.10   10.30
 -11   0   6    4.00    4.00
 -10   0   6  153.60    8.50
 -10   0   6  170.10   18.40
 -10   0   6  143.00    8.80
  -9   0   6  290.90   10.10
  -9   0   6  276.60   18.60
  -9   0   6  287.30    9.70
  -8   0   6 1017.40   38.10
  -8   0   6  968.50   27.10
  -8   0   6  976.60   26.90
   7   0  -6   72.80    9.40
  -7   0   6   84.10    9.70
   6   0  -6   98.50   11.00
  -6   0   6  115.80   11.10
   5   0  -6 1848.70   51.80
  -5   0   6 1822.40   50.10
   4   0  -6   68.80    5.70
  -4   0   6   83.40    6.60
  -4   0   6   53.20    5.10
   3   0  -6 2473.00   73.00
   3   0  -6 2505.30   66.60
  -3   0   6 2509.90   72.70
  -3   0   6 2476.10   72.30
   2   0  -6   42.40    3.10
  -2   0   6   45.70    5.30
  -2   0   6   34.00    5.10
   1   0  -6 1275.90   36.60
   1   0  -6 1289.10   33.60
   1   0  -6 1280.50   36.00
  -1   0   6 1236.20   35.70
   0   0  -6 1398.80   50.70
   0   0  -6 1304.80   51.80
   0   0  -6 1415.00   50.10
   0   0   6 1381.80   52.70
   0   0   6 1405.00   50.60
  -1   0  -6  708.60    9.70
  -1   0  -6  672.10   11.30
  -1   0  -6  700.20   10.70
   1   0   6  718.10   10.00
   1   0   6  666.90   12.40
  -2   0  -6  451.20   13.80
  -2   0  -6  462.20   11.90
  -2   0  -6  457.80   14.80
   2   0   6  424.80   14.70
   2   0   6  456.80   12.30
  -3   0  -6  435.90   14.50
  -3   0  -6  450.60   11.40
  -3   0  -6  448.90   14.90
   3   0   6  451.10   12.70
   3   0   6  438.10   18.20
  -4   0  -6   64.90    4.70
  -4   0  -6   63.20    7.30
  -4   0  -6   63.90    7.30
   4   0   6   66.50    5.40
   4   0   6   56.00    7.80
  -5   0  -6 2023.70   61.00
  -5   0  -6 2178.50   68.30
  -5   0  -6 2063.40   66.10
   5   0   6 2031.30   67.70
  -6   0  -6  125.80   13.90
  -6   0  -6  133.90   14.60
  -6   0  -6  135.30    9.10
   6   0   6  127.20   14.30
  -7   0  -6   10.00    9.20
  -7   0  -6   18.50    4.80
   7   0   6    4.50    7.10
  -8   0  -6  217.50   14.00
  -8   0  -6  217.60   18.30
  -8   0  -6  213.00   17.10
   8   0   6  209.50   17.70
  -9   0  -6  183.10   15.50
  -9   0  -6  195.60   10.00
  -9   0  -6  198.00   16.80
   9   0   6  198.20   16.40
 -10   0  -6    0.20    4.30
 -10   0  -6    0.40    5.30
 -10   0  -6    2.50    8.80
 -10   0  -6    6.60   11.10
  10   0   6    5.70    8.30
 -11   0  -6   57.00   12.00
 -11   0  -6   41.30    6.90
 -11   0  -6   48.30   13.00
 -12   0  -6  311.70   13.60
 -12   0  -6  389.40   24.90
 -12   0  -6  329.90   15.80
 -12   0  -6  321.70   22.30
 -14   1   6    0.20   11.90
 -14   1   6    3.40    5.10
 -14   1   6    0.20    5.30
 -14   1   6    4.10   12.20
 -13   1   6    2.80    5.20
 -13   1   6    9.20    5.70
 -13   1   6   10.40   10.30
 -13   1   6    3.70   10.80
 -12   1   6  337.90   14.60
 -12   1   6  325.20   24.40
 -12   1   6  313.40   14.50
 -12   1   6  348.20   25.00
 -11   1   6   82.90    8.10
 -11   1   6   95.20   15.10
 -11   1   6   84.60   11.40
 -10   1   6   48.50    6.20
 -10   1   6   39.80    5.80
 -10   1   6   55.40   12.90
  -9   1   6    3.70    8.50
  -9   1   6    9.00    3.80
  -9   1   6    2.80    3.60
   8  -1  -6   12.70    8.70
  -8   1   6   12.90    3.30
  -8   1   6   10.90    3.40
  -8   1   6   16.90    9.70
   7  -1  -6  858.90   36.20
  -7   1   6  824.20   26.00
  -7   1   6  868.30   35.60
  -7   1   6  855.40   26.20
   6  -1  -6  266.30   14.40
  -6   1   6  305.00    6.10
  -6   1   6  307.60   14.20
   5  -1  -6 1135.50   29.50
  -5   1   6 1158.50   30.00
  -5   1   6 1173.50   21.10
   4  -1  -6  192.10    7.70
   4  -1  -6  207.40   13.70
  -4   1   6  193.40    7.10
  -4   1   6  201.00   13.40
  -4   1   6  207.80   12.20
   3  -1  -6 1275.70   29.10
   3  -1  -6 1229.40   34.10
  -3   1   6 1283.80   34.30
  -3   1   6 1242.70   33.60
  -3   1   6 1276.90   28.90
   2  -1  -6   25.30    5.80
   2  -1  -6   34.60    8.80
  -2   1   6   18.20    5.70
  -2   1   6   27.20    8.40
  -2   1   6   26.50    8.90
   1  -1  -6  237.80   20.50
   1  -1  -6  234.20   18.40
   1  -1  -6  236.30   20.50
  -1   1   6  242.00   23.80
  -1   1   6  242.50   18.70
  -1   1   6  230.20   20.50
   0  -1  -6 2062.30   50.10
   0  -1  -6 2117.60   48.80
   0  -1  -6 2035.20   49.40
   0   1   6 2123.20   51.10
   0   1   6 2094.40   49.10
   0   1   6 2057.80   49.40
  -1  -1  -6 1728.50   61.70
  -1  -1  -6 1751.10   60.60
  -1  -1  -6 1712.90   61.10
   1   1   6 1672.90   62.60
   1   1   6 1779.50   61.00
  -2  -1  -6  293.00   10.00
  -2  -1  -6  264.10   11.50
  -2  -1  -6  282.70   11.40
   2   1   6  278.20   11.40
   2   1   6  320.60   13.20
   2   1   6  270.60   10.50
  -3  -1  -6    4.10    4.30
  -3  -1  -6    0.00    4.80
  -3  -1  -6    0.00    4.90
   3   1   6    5.20    6.10
   3   1   6    0.00    4.40
   3   1   6    4.50    5.10
  -4  -1  -6   99.10    8.30
  -4  -1  -6  105.80    9.20
  -4  -1  -6  119.10    7.50
   4   1   6  109.00    8.00
  -5  -1  -6 1987.80   56.60
  -5  -1  -6 2040.30   60.00
  -5  -1  -6 1917.20   61.50
   5   1   6 1964.60   61.70
  -6  -1  -6   14.60    8.40
  -6  -1  -6    5.20    6.90
  -6  -1  -6    9.00    4.70
   6   1   6    1.90    6.40
  -7  -1  -6  401.50   16.70
  -7  -1  -6  432.50   23.00
  -7  -1  -6  390.00   19.80
   7   1   6  414.50   21.40
  -8  -1  -6  446.20   27.00
   8   1   6  441.60   25.00
  -9  -1  -6    2.60    5.10
  -9  -1  -6    0.00    7.60
  -9  -1  -6    9.80   10.30
   9   1   6    0.00    6.60
 -10  -1  -6  183.30   12.00
 -10  -1  -6  208.10   17.10
  10   1   6  195.60   16.80
 -11  -1  -6  395.00   23.60
 -11  -1  -6  404.50   27.20
 -11  -1  -6  408.90   20.60
 -11  -1  -6  369.10   18.20
 -12  -1  -6   20.40    8.40
 -12  -1  -6   17.50    6.40
 -12  -1  -6   17.00   10.30
 -12  -1  -6   24.10   12.50
 -14   2   6    0.30    5.60
 -14   2   6   12.20   12.50
 -14   2   6    0.30    5.70
 -14   2   6   16.10   11.90
 -13   2   6   59.20    7.80
 -13   2   6   56.30    7.00
 -13   2   6   55.40   13.60
 -13   2   6   48.10   12.20
 -12   2   6  310.50   22.50
 -12   2   6  307.80   14.70
 -12   2   6  240.80   24.00
 -11   2   6   18.70   10.90
 -11   2   6   18.90    5.70
 -11   2   6   19.50    5.60
 -10   2   6    7.00    4.30
 -10   2   6   12.20   10.00
   9  -2  -6    4.10    7.70
  -9   2   6    7.60    4.60
  -9   2   6    6.00    4.40
  -9   2   6    7.70    8.80
   8  -2  -6  248.60   19.60
  -8   2   6  233.70   11.10
  -8   2   6  243.30   18.40
   7  -2  -6 2050.20   62.60
  -7   2   6 2056.40   52.80
  -7   2   6 2111.10   61.90
   6  -2  -6   71.70   10.40
  -6   2   6   90.30   10.60
  -6   2   6  100.90    5.60
   5  -2  -6    3.80    5.60
  -5   2   6   14.70    2.90
  -5   2   6    4.40    5.80
   4  -2  -6   78.00    8.00
   4  -2  -6   85.60   11.70
  -4   2   6   89.50    7.00
  -4   2   6   92.80   11.80
   3  -2  -6   13.50    7.10
   3  -2  -6   17.10    4.80
  -3   2   6   30.20    4.80
  -3   2   6   27.80    7.10
  -3   2   6   18.20    6.80
   2  -2  -6 1001.30   37.40
   2  -2  -6  959.90   41.10
  -2   2   6  938.80   40.50
  -2   2   6 1026.80   37.60
  -2   2   6  971.10   40.60
   1  -2  -6    4.00    4.60
   1  -2  -6    3.00    3.80
  -1   2   6    2.90    5.30
  -1   2   6    4.90    4.60
  -1   2   6    3.70    3.90
   0  -2  -6 2272.20   77.50
   0  -2  -6 2182.40   78.20
   0   2   6 2185.60   77.70
   0   2   6 2263.60   78.60
   0   2   6 2159.70   79.60
  -1  -2  -6 3698.90  122.20
  -1  -2  -6 3739.40  122.30
  -1  -2  -6 3916.30  122.70
   1   2   6 3690.30  123.50
   1   2   6 3787.60  122.80
   1   2   6 3700.70  122.80
  -2  -2  -6   40.50    8.20
  -2  -2  -6   46.00    9.00
  -2  -2  -6   35.10    7.90
   2   2   6   45.40    9.70
   2   2   6   33.20    8.20
   2   2   6   40.00    8.90
  -3  -2  -6 1477.00   41.60
  -3  -2  -6 1486.90   42.20
  -3  -2  -6 1436.00   47.20
   3   2   6 1518.50   43.80
   3   2   6 1464.50   44.80
   3   2   6 1457.10   44.50
  -4  -2  -6  169.80   14.70
  -4  -2  -6  162.00   13.40
  -4  -2  -6  164.80   16.20
   4   2   6  161.70   16.40
   4   2   6  150.80   15.30
   4   2   6  154.70   16.30
  -5  -2  -6  473.60   21.10
  -5  -2  -6  496.40   19.10
   5   2   6  549.60   22.70
  -6  -2  -6  637.30   28.10
  -6  -2  -6  644.30   24.00
  -6  -2  -6  635.40   25.10
   6   2   6  661.90   27.00
  -7  -2  -6   45.80    9.70
  -7  -2  -6   30.20   10.60
  -7  -2  -6   38.90    8.20
   7   2   6   37.40   10.00
  -8  -2  -6   15.50    7.10
  -8  -2  -6   15.20   10.10
  -8  -2  -6   36.50    7.00
   8   2   6   32.40    8.10
  -9  -2  -6    0.20    7.60
  -9  -2  -6    0.10    8.90
  -9  -2  -6    4.20    5.90
   9   2   6    0.90    6.90
 -10  -2  -6  472.40   30.10
 -10  -2  -6  424.30   21.50
 -10  -2  -6  501.60   24.90
  10   2   6  468.30   24.90
 -11  -2  -6   82.60    9.70
 -11  -2  -6   82.50   11.60
 -11  -2  -6   76.90   14.00
 -12  -2  -6   21.60    7.50
 -12  -2  -6    8.60    9.00
 -12  -2  -6   12.90   11.50
 -12  -2  -6   11.30    7.90
 -14   3   6   50.70   14.00
 -14   3   6   57.20    8.20
 -14   3   6   33.50   14.80
 -13   3   6    3.20   12.70
 -13   3   6   12.10    6.30
 -13   3   6    4.30    5.30
 -13   3   6   18.60   11.70
 -12   3   6   38.10   12.40
 -12   3   6   30.20    6.60
 -12   3   6   35.90    7.70
 -12   3   6   15.30   13.00
 -11   3   6    1.70    5.70
 -11   3   6   17.10    9.70
  10  -3  -6    6.00    8.80
 -10   3   6    1.70    9.30
 -10   3   6    0.10    4.80
 -10   3   6    0.10    4.70
   9  -3  -6   69.60   13.40
  -9   3   6   57.30   11.50
  -9   3   6   74.00    7.60
   8  -3  -6 1006.20   36.80
  -8   3   6 1045.20   36.20
  -8   3   6 1073.50   28.90
   7  -3  -6 1628.70   58.20
  -7   3   6 1598.20   48.60
  -7   3   6 1580.60   56.30
   6  -3  -6  106.70   14.30
  -6   3   6  110.00   13.10
  -6   3   6   78.80    7.40
   5  -3  -6   17.80    4.20
   5  -3  -6   12.40    6.30
  -5   3   6   17.80    6.50
  -5   3   6   12.30    3.30
   4  -3  -6  255.90   14.90
   4  -3  -6  260.70   11.90
  -4   3   6  250.00   10.20
  -4   3   6  225.40   14.30
   3  -3  -6  388.40   16.00
   3  -3  -6  400.00   19.30
  -3   3   6  407.00   15.30
  -3   3   6  385.00   18.60
   2  -3  -6 1493.90   37.70
   2  -3  -6 1563.20   34.60
  -2   3   6 1531.80   37.40
  -2   3   6 1495.30   34.20
  -2   3   6 1494.40   36.80
   1  -3  -6  138.00   13.20
   1  -3  -6  134.50   10.90
  -1   3   6  135.00   11.00
  -1   3   6  139.40   12.80
  -1   3   6  139.50   12.40
   0  -3  -6  910.40   25.70
   0  -3  -6  924.80   24.50
   0   3   6  964.10   25.90
   0   3   6  950.10   25.00
   0   3   6  953.60   28.20
  -1  -3  -6  251.30   11.50
  -1  -3  -6  207.80   11.40
   1   3   6  231.20   12.50
   1   3   6  212.30   11.10
   1   3   6  223.70   11.90
  -2  -3  -6   45.10    7.90
  -2  -3  -6   30.60    7.40
  -2  -3  -6   54.00    7.70
   2   3   6   52.30    9.40
   2   3   6   56.00    9.20
   2   3   6   56.40    9.10
  -3  -3  -6 3245.20   95.20
  -3  -3  -6 3296.30   93.70
  -3  -3  -6 3257.50   92.40
   3   3   6 3310.40   95.90
   3   3   6 3154.60   95.90
   3   3   6 3318.10   95.90
  -4  -3  -6   59.10    7.60
  -4  -3  -6   77.20    7.30
  -4  -3  -6   77.50    9.10
   4   3   6   56.90    8.60
   4   3   6   71.20    8.70
   4   3   6   84.40    9.50
  -5  -3  -6   17.40    7.20
  -5  -3  -6    7.80    5.40
  -5  -3  -6    5.90    5.90
   5   3   6    1.30    5.90
   5   3   6    8.80    7.40
  -6  -3  -6 1666.90   46.70
  -6  -3  -6 1639.10   50.30
  -6  -3  -6 1705.00   46.00
   6   3   6 1729.00   52.30
   6   3   6 1691.20   48.20
  -7  -3  -6  113.90   14.80
  -7  -3  -6  132.30   12.00
  -7  -3  -6  134.70   12.50
   7   3   6  132.30   13.00
  -8  -3  -6  185.80   14.70
  -8  -3  -6  233.30   19.30
  -8  -3  -6  223.90   14.90
   8   3   6  201.20   15.50
  -9  -3  -6  320.10   16.50
  -9  -3  -6  359.20   21.60
  -9  -3  -6  338.00   16.70
   9   3   6  364.40   17.60
 -10  -3  -6  363.90   23.80
 -10  -3  -6  321.60   17.60
 -10  -3  -6  327.60   17.90
 -11  -3  -6   21.60    7.80
 -11  -3  -6   14.60    9.40
 -12  -3  -6    0.20    7.60
 -12  -3  -6   13.50   11.70
 -12  -3  -6    0.20    6.70
 -13   4   6    3.80   13.40
 -13   4   6    8.10    6.20
 -13   4   6   10.30   11.10
 -12   4   6   31.00    7.00
 -12   4   6   22.50   11.90
 -12   4   6   35.20    7.90
 -12   4   6   16.60   11.50
 -11   4   6  163.00   11.30
 -11   4   6  138.20   19.00
 -11   4   6  189.80   17.90
  10  -4  -6  186.30   18.60
 -10   4   6  171.40   11.10
 -10   4   6  184.90   17.10
   9  -4  -6  256.20   21.40
  -9   4   6  281.40   22.00
  -9   4   6  270.20   14.90
   8  -4  -6  294.80   26.90
  -8   4   6  337.60   15.80
  -8   4   6  341.10   22.40
   7  -4  -6  249.00   19.00
  -7   4   6  224.50   17.20
  -7   4   6  211.50   11.90
   6  -4  -6  119.30   13.50
  -6   4   6  103.80   12.40
  -6   4   6  115.90    8.60
   5  -4  -6   14.50    6.70
   5  -4  -6   26.60   10.30
  -5   4   6   16.10    8.50
  -5   4   6   12.50    5.40
   4  -4  -6   12.80    8.10
   4  -4  -6   18.20    6.70
  -4   4   6   15.90    8.00
  -4   4   6   12.50    4.90
   3  -4  -6   10.00    6.90
   3  -4  -6    3.20    5.40
  -3   4   6    4.50    6.50
  -3   4   6    8.40    4.90
   2  -4  -6  572.30   25.70
   2  -4  -6  581.90   23.10
  -2   4   6  578.40   25.60
  -2   4   6  573.50   22.70
   1  -4  -6 2249.60   56.40
   1  -4  -6 2201.70   59.00
  -1   4   6 2222.00   56.40
  -1   4   6 2216.60   57.60
  -1   4   6 2201.60   58.30
   0  -4  -6  407.20   18.50
   0  -4  -6  392.60   19.40
   0   4   6  387.00   18.70
   0   4   6  399.70   18.40
   0   4   6  398.80   19.90
  -1  -4  -6  206.90   17.10
  -1  -4  -6  218.20   16.90
   1   4   6  205.00   18.40
   1   4   6  217.30   17.30
   1   4   6  213.20   17.40
  -2  -4  -6  389.70   19.00
  -2  -4  -6  392.10   18.80
   2   4   6  427.80   19.60
   2   4   6  409.20   20.90
   2   4   6  416.10   19.90
  -3  -4  -6 1058.50   41.50
  -3  -4  -6 1024.80   37.90
  -3  -4  -6 1053.80   40.70
   3   4   6 1016.60   41.10
   3   4   6 1087.40   42.90
   3   4   6 1041.90   42.30
  -4  -4  -6 1090.90   32.10
  -4  -4  -6 1090.20   35.10
  -4  -4  -6 1045.90   36.20
   4   4   6 1067.10   35.80
   4   4   6 1144.30   37.80
   4   4   6 1102.50   37.70
  -5  -4  -6   72.10   10.90
  -5  -4  -6   68.10   12.00
  -5  -4  -6   63.10    8.90
   5   4   6   62.80   14.40
   5   4   6   76.00   11.40
  -6  -4  -6  759.80   29.00
  -6  -4  -6  715.90   25.50
  -6  -4  -6  761.20   32.20
   6   4   6  740.50   32.90
   6   4   6  771.00   28.30
  -7  -4  -6  258.20   13.80
  -7  -4  -6  280.30   22.00
  -7  -4  -6  253.70   16.40
   7   4   6  266.10   15.60
   7   4   6  357.50   33.90
  -8  -4  -6   89.00    7.90
  -8  -4  -6   83.20   10.20
  -8  -4  -6   77.60   11.50
   8   4   6   80.30    8.40
  -9  -4  -6   35.80    9.10
  -9  -4  -6   43.60    7.40
  -9  -4  -6   57.70   15.90
 -10  -4  -6   93.90   10.70
 -10  -4  -6   89.00    9.00
 -10  -4  -6  101.60   14.60
 -11  -4  -6  132.70   11.50
 -11  -4  -6  137.40   19.00
 -11  -4  -6  109.30   12.80
 -12  -4  -6   18.00    8.20
 -12  -4  -6    4.90   11.50
 -12  -4  -6    4.40    5.60
 -13   5   6    1.80   13.20
 -13   5   6    0.10   10.40
 -13   5   6    7.00    7.00
 -13   5   6    8.80    6.60
 -12   5   6   47.50    7.80
 -12   5   6   10.60   11.10
 -12   5   6   39.50   14.90
 -11   5   6   96.90   14.60
 -11   5   6   67.70    8.70
 -11   5   6   72.20   15.50
 -10   5   6   35.10    8.10
 -10   5   6   23.30   11.10
   9  -5  -6  279.80   20.80
  -9   5   6  280.00   13.80
  -9   5   6  289.80   18.80
   8  -5  -6   27.60   11.20
  -8   5   6   21.20    6.60
  -8   5   6   12.60    8.70
   7  -5  -6   48.90   12.50
  -7   5   6   35.40   11.00
  -7   5   6   47.50    8.30
   6  -5  -6  100.60   12.60
   6  -5  -6   93.70   10.30
  -6   5   6   88.10   12.10
   5  -5  -6    0.50    6.30
   5  -5  -6    0.10    7.10
  -5   5   6    2.00    7.10
  -5   5   6    1.30    7.00
   4  -5  -6    0.30    6.20
   4  -5  -6    2.10    6.70
  -4   5   6    1.60    4.70
  -4   5   6    1.40    6.90
   3  -5  -6   13.80    7.90
   3  -5  -6   11.30    8.70
  -3   5   6    8.30    8.00
  -3   5   6   12.60    6.50
   2  -5  -6  318.10   19.90
   2  -5  -6  352.70   18.50
  -2   5   6  345.50   19.80
  -2   5   6  331.30   17.30
   1  -5  -6  886.10   28.60
   1  -5  -6  907.20   31.20
  -1   5   6  979.20   31.30
  -1   5   6  901.90   29.70
  -1   5   6  913.60   28.80
   0  -5  -6    0.00    4.90
   0  -5  -6    2.10    5.70
   0   5   6    0.30    4.70
   0   5   6    1.60    6.00
   0   5   6    1.10    5.10
  -1  -5  -6  754.70   22.80
  -1  -5  -6  774.40   23.90
   1   5   6  757.90   23.00
   1   5   6  742.80   23.30
   1   5   6  785.40   24.70
  -2  -5  -6  248.50   13.90
  -2  -5  -6  245.00   14.00
   2   5   6  242.70   15.20
   2   5   6  245.90   13.50
   2   5   6  233.60   14.10
  -3  -5  -6   56.50    8.90
  -3  -5  -6   36.90    7.60
   3   5   6   80.40   10.00
   3   5   6   64.00    8.60
   3   5   6   54.40    9.20
  -4  -5  -6 3028.00   90.30
  -4  -5  -6 2963.50   88.90
   4   5   6 3033.40   92.20
   4   5   6 3034.20   91.70
   4   5   6 2726.30   88.20
  -5  -5  -6  390.80   20.20
  -5  -5  -6  439.20   20.00
   5   5   6  423.50   21.70
  -6  -5  -6   11.60    4.20
  -6  -5  -6   19.50    7.00
  -6  -5  -6   41.80    8.60
   6   5   6   26.20    8.40
  -7  -5  -6   43.40    9.90
  -7  -5  -6   46.90    6.60
  -7  -5  -6   54.10   11.70
  -8  -5  -6  113.70   12.90
  -8  -5  -6  123.60   16.20
  -8  -5  -6  122.90    8.60
  -9  -5  -6  102.30   14.30
  -9  -5  -6  112.90    8.30
  -9  -5  -6  108.30   14.50
 -10  -5  -6    8.20    4.60
 -10  -5  -6    7.80    9.70
 -10  -5  -6    8.60    8.40
 -11  -5  -6  195.60   20.80
 -11  -5  -6  202.10   17.10
 -11  -5  -6  191.90   10.30
 -13   6   6   98.20   17.10
 -13   6   6   72.50   10.80
 -13   6   6   75.10   19.20
 -12   6   6   33.20   15.10
 -11   6   6   57.80    8.10
 -11   6   6   45.20   13.40
 -11   6   6   52.40   10.80
 -10   6   6   16.40   10.60
 -10   6   6   15.70    7.00
   9  -6  -6    0.40    8.90
  -9   6   6    6.10    8.30
  -9   6   6   13.30    6.20
   8  -6  -6   37.90    9.60
  -8   6   6   46.60    6.70
  -8   6   6   42.60    9.90
   7  -6  -6  167.30   16.20
  -7   6   6  195.80   15.50
  -7   6   6  183.00   11.50
   6  -6  -6   73.50   11.20
   6  -6  -6   78.80   13.10
  -6   6   6   77.90    8.40
  -6   6   6   74.00   11.00
   5  -6  -6    1.00    7.30
   5  -6  -6    4.00    7.70
  -5   6   6    3.60    5.70
  -5   6   6    3.30    7.40
   4  -6  -6    0.30    7.20
   4  -6  -6    0.30    7.10
  -4   6   6    1.80    4.80
  -4   6   6    8.60    7.40
   3  -6  -6  431.80   24.70
   3  -6  -6  439.50   22.50
  -3   6   6  422.80   23.40
  -3   6   6  439.50   21.00
   2  -6  -6   72.00    9.90
   2  -6  -6   70.60    8.60
  -2   6   6   73.40    8.50
  -2   6   6   89.10   10.30
   1  -6  -6  104.60   15.10
   1  -6  -6   91.80   16.30
  -1   6   6   96.00   13.60
  -1   6   6  114.30   15.30
   0  -6  -6  721.30   26.60
   0  -6  -6  703.40   24.50
   0   6   6  749.00   27.30
   0   6   6  721.20   24.40
   0   6   6  726.60   25.00
  -1  -6  -6   85.10   13.10
  -1  -6  -6   80.20   11.50
   1   6   6   88.40   12.80
   1   6   6   71.30   11.10
   1   6   6   69.90   12.90
  -2  -6  -6  119.50   11.40
  -2  -6  -6   98.60   10.50
   2   6   6  128.30   13.70
   2   6   6  134.60   10.60
   2   6   6   96.50   11.20
  -3  -6  -6   98.30   13.50
  -3  -6  -6   90.40   14.00
   3   6   6   96.50   14.00
   3   6   6  113.70   16.70
   3   6   6  106.50   12.70
  -4  -6  -6 3169.40   93.20
  -4  -6  -6 3092.50   92.50
   4   6   6 3352.40   96.90
   4   6   6 3105.20   94.70
   4   6   6 2840.10   93.90
  -5  -6  -6  322.90   18.20
  -5  -6  -6  326.90   17.10
   5   6   6  298.90   18.60
   5   6   6  262.40   14.30
  -6  -6  -6  162.90   13.60
  -6  -6  -6  148.40   14.00
   6   6   6  153.40    9.80
  -7  -6  -6   67.90   11.90
   7   6   6   94.60    7.70
  -8  -6  -6   22.90    9.20
  -9  -6  -6  408.60   24.70
  -9  -6  -6  373.20   21.40
 -10  -6  -6   23.30   11.50
 -11  -6  -6  148.60   19.90
 -13   7   6   16.10    8.60
 -13   7   6   47.50   15.80
 -13   7   6   36.20   13.20
 -12   7   6    8.70    9.70
 -12   7   6    1.00    6.50
 -12   7   6    0.60   13.30
 -11   7   6  179.40   15.50
 -11   7   6  200.00   24.80
 -11   7   6  197.90   20.80
 -10   7   6  126.90   16.00
 -10   7   6  105.90   11.70
 -10   7   6   77.00   16.80
  -9   7   6   69.40    8.40
  -9   7   6   64.80   10.90
  -9   7   6   67.20   12.90
   8  -7  -6   73.40   15.10
  -8   7   6   68.10   13.50
  -8   7   6   75.80   10.30
   7  -7  -6   53.90   12.90
  -7   7   6   53.10    8.80
  -7   7   6   60.90   11.50
   6  -7  -6   48.70   12.60
   6  -7  -6   39.30   10.20
  -6   7   6   30.50    8.90
  -6   7   6   40.20    6.80
   5  -7  -6   54.60   19.30
   5  -7  -6   34.90   11.20
  -5   7   6   26.80    6.80
  -5   7   6   30.10    9.10
   4  -7  -6   48.60   11.40
   4  -7  -6   47.10   11.60
  -4   7   6   61.80   11.40
  -4   7   6   52.30    9.20
   3  -7  -6 1011.10   42.80
   3  -7  -6 1034.30   40.70
  -3   7   6 1065.20   41.90
  -3   7   6  973.70   38.30
   2  -7  -6   49.70    9.70
   2  -7  -6   52.70   11.10
  -2   7   6   60.10    9.60
  -2   7   6   42.90    9.70
   1  -7  -6   63.40    8.90
   1  -7  -6   80.10   11.30
  -1   7   6   62.40    9.10
  -1   7   6   69.20   10.80
   0  -7  -6  732.90   33.80
   0  -7  -6  761.80   32.50
   0   7   6  749.90   31.10
   0   7   6  733.50   31.80
   0   7   6  766.20   33.70
  -1  -7  -6   60.40   10.20
  -1  -7  -6   74.80   11.70
   1   7   6   71.90   11.30
   1   7   6   66.40    9.30
   1   7   6   68.40   12.20
  -2  -7  -6 1295.90   44.00
  -2  -7  -6 1316.10   45.30
   2   7   6 1288.70   45.20
   2   7   6 1325.50   45.20
   2   7   6 1299.20   46.50
  -3  -7  -6    4.20    7.00
  -3  -7  -6    3.30    7.00
   3   7   6    9.80    7.60
   3   7   6    0.00    7.20
   3   7   6    8.60    6.20
  -4  -7  -6  294.40   17.90
  -4  -7  -6  231.40   16.30
   4   7   6  264.60   18.30
   4   7   6  285.60   19.70
  -5  -7  -6  181.80   18.10
  -5  -7  -6  171.10   17.80
   5   7   6  144.40   12.20
  -6  -7  -6   43.90   10.90
  -6  -7  -6   38.20   10.00
   6   7   6   44.60    6.00
  -7  -7  -6  160.50   15.30
  -7  -7  -6  154.60   16.20
  -8  -7  -6  106.50   13.40
  -8  -7  -6  113.30   14.70
  -9  -7  -6 1025.90   43.50
 -10  -7  -6   10.70   10.40
 -12   8   6   27.10    8.10
 -12   8   6   45.90   15.70
 -12   8   6   29.20   11.80
 -11   8   6    6.50    7.30
 -11   8   6    0.20   11.80
 -10   8   6   16.00   12.60
 -10   8   6    1.60    6.70
 -10   8   6   12.80   10.40
  -9   8   6  261.20   24.40
  -9   8   6  246.80   20.00
  -9   8   6  253.60   17.00
  -8   8   6   96.90   11.90
  -8   8   6  107.20   14.50
  -8   8   6   98.40   17.20
   7  -8  -6    0.10    8.00
  -7   8   6    0.10    8.30
  -7   8   6    8.80    6.90
   6  -8  -6   39.80   11.80
   6  -8  -6   37.70   12.20
  -6   8   6   48.30   12.40
  -6   8   6   44.90    9.40
   5  -8  -6    0.30    7.60
   5  -8  -6    0.30    7.90
  -5   8   6    8.80    8.00
  -5   8   6    1.40    5.60
   4  -8  -6   67.80   14.50
   4  -8  -6   76.80   13.50
  -4   8   6   46.00    9.20
  -4   8   6   64.70   12.30
   3  -8  -6  356.80   19.50
   3  -8  -6  316.20   19.10
  -3   8   6  292.30   16.00
  -3   8   6  327.00   18.50
   2  -8  -6 1002.90   36.40
  -2   8   6 1007.30   36.80
  -2   8   6  965.80   34.20
   1  -8  -6  223.60   15.40
  -1   8   6  185.00   13.50
  -1   8   6  243.40   16.70
   0  -8  -6   59.40   10.00
   0   8   6   56.00   10.30
   0   8   6   67.60   11.90
   0   8   6   73.10    9.60
  -1  -8  -6   73.50   10.60
   1   8   6   46.80    7.70
   1   8   6   48.10   10.60
  -2  -8  -6 1095.70   39.20
  -2  -8  -6 1042.40   39.60
   2   8   6 1115.30   36.00
   2   8   6 1110.80   41.90
   2   8   6 1057.40   39.90
  -3  -8  -6   71.70   10.20
  -3  -8  -6   75.20   10.00
   3   8   6  103.10    8.20
   3   8   6   70.30    9.50
   3   8   6   68.80   11.00
  -4  -8  -6    0.50    7.20
  -4  -8  -6    2.60    8.70
   4   8   6    2.20    9.70
  -5  -8  -6  834.90   33.10
  -5  -8  -6  767.80   32.70
   5   8   6  687.40   26.10
  -6  -8  -6  130.50   15.20
  -6  -8  -6  163.50   16.40
  -7  -8  -6   51.20   10.70
  -8  -8  -6   28.90   12.00
  -9  -8  -6  436.00   28.00
 -10  -8  -6   35.20   12.70
 -12   9   6   60.10   14.40
 -12   9   6   69.20   11.20
 -12   9   6   93.60   18.70
 -11   9   6    6.50   10.40
 -11   9   6   16.90    8.30
 -11   9   6   22.90   15.70
 -10   9   6   28.30    9.00
 -10   9   6   51.60   15.10
 -10   9   6   38.20   20.20
  -9   9   6   37.50   11.00
  -9   9   6   61.30   15.90
  -8   9   6    7.60    6.80
  -8   9   6    1.00    9.20
   7  -9  -6    0.00    9.90
  -7   9   6    8.30   10.00
  -7   9   6   13.50    7.70
  -7   9   6   16.60    9.60
   6  -9  -6    0.10    8.20
  -6   9   6    1.70    6.20
  -6   9   6    1.70    9.70
   5  -9  -6    4.70   10.30
   5  -9  -6   23.40   10.50
  -5   9   6    0.80    5.50
  -5   9   6    6.30    9.30
   4  -9  -6   64.70   10.70
   4  -9  -6   97.30   12.60
  -4   9   6   87.20    9.60
  -4   9   6   92.80   11.40
   3  -9  -6   53.40   11.40
   3  -9  -6   67.00   11.90
  -3   9   6   39.10    8.10
  -3   9   6   47.00   10.50
   2  -9  -6 1118.40   44.30
   2  -9  -6 1127.50   42.40
  -2   9   6 1075.30   42.40
  -2   9   6 1102.90   40.50
   1  -9  -6   33.90   11.30
   1  -9  -6   47.10   10.50
  -1   9   6   50.20   11.90
  -1   9   6   54.00   11.80
   0  -9  -6   67.30   13.00
   0  -9  -6   48.10   12.10
   0   9   6   45.40   11.50
   0   9   6   62.10   13.20
  -1  -9  -6    0.50    8.20
  -1  -9  -6    3.40    7.90
   1   9   6    2.00    6.30
   1   9   6    0.90    8.60
   1   9   6    3.80    8.60
  -2  -9  -6   74.90   13.40
  -2  -9  -6   45.70   11.40
   2   9   6   63.50   10.20
   2   9   6   43.80   13.10
   2   9   6   66.20   13.30
  -3  -9  -6    9.70    7.70
  -3  -9  -6   25.20    9.70
   3   9   6   20.30   11.20
   3   9   6   29.40    6.30
  -4  -9  -6   39.50   10.40
   4   9   6   34.50   11.50
  -5  -9  -6  256.80   20.80
   5   9   6  204.90   11.90
  -6  -9  -6    0.00   10.00
  -7  -9  -6  217.20   21.10
  -8  -9  -6   16.00   10.70
  -9  -9  -6   40.30   11.40
 -11  10   6   44.80   15.10
 -11  10   6   35.90   13.00
 -10  10   6    0.10   11.00
 -10  10   6    1.00    7.20
 -10  10   6   24.70   11.70
  -9  10   6    7.80   12.40
  -9  10   6    9.80    8.40
  -8  10   6    4.10   11.20
  -8  10   6    1.40    9.00
  -8  10   6    4.30    7.40
   7 -10  -6   60.60   15.30
  -7  10   6   64.60   11.40
  -7  10   6   56.10   13.90
  -7  10   6   49.20   14.90
   6 -10  -6    0.70   10.00
  -6  10   6    0.70    6.00
  -6  10   6    0.70    9.80
  -6  10   6    0.70    9.00
   5 -10  -6   53.40   13.40
  -5  10   6   77.60   11.30
  -5  10   6   53.40   12.80
   4 -10  -6   12.50   10.80
  -4  10   6    8.90    8.80
  -4  10   6   23.10    8.00
   3 -10  -6   26.80   11.00
  -3  10   6    8.10    8.20
  -3  10   6   10.60    9.20
   2 -10  -6  674.90   32.10
  -2  10   6  647.70   31.00
  -2  10   6  683.70   29.70
   1 -10  -6    0.40    8.70
  -1  10   6    0.90    9.30
  -1  10   6    2.30    7.30
   0 -10  -6  645.30   30.80
   0  10   6  574.90   31.10
   0  10   6  551.90   28.40
  -1 -10  -6   35.50   10.60
   1  10   6   14.90   10.00
   1  10   6   20.50    6.90
  -2 -10  -6  604.40   29.30
   2  10   6  567.30   25.10
   2  10   6  608.80   31.80
  -3 -10  -6  445.00   26.10
   3  10   6  441.00   28.40
  -4 -10  -6    7.80    9.40
   4  10   6    0.10    4.00
   4  10   6    0.10    8.50
  -5 -10  -6    6.10    9.60
   5  10   6    9.50    3.30
   5  10   6    0.00    3.70
  -6 -10  -6   58.30   13.60
  -7 -10  -6  100.70   15.40
  -8 -10  -6    8.60   10.40
  -9 -10  -6    0.10   10.20
 -11  11   6    5.40   11.40
 -10  11   6   18.60   13.20
 -10  11   6    0.40   10.50
  -9  11   6    4.60   10.90
  -9  11   6    9.10   12.40
  -8  11   6   77.30   13.70
  -8  11   6   79.00   16.20
   7 -11  -6   58.10   15.30
  -7  11   6   42.80   10.50
  -7  11   6   46.40   14.50
  -7  11   6   45.70   13.70
   6 -11  -6   15.60   12.60
  -6  11   6    9.90    7.90
  -6  11   6    9.30    9.60
  -6  11   6   35.60   10.90
   5 -11  -6    9.70   10.00
  -5  11   6    0.10    6.70
  -5  11   6   11.20   11.10
  -5  11   6   10.10    9.60
   4 -11  -6  187.50   19.40
  -4  11   6  186.00   19.60
  -4  11   6  147.50   15.60
  -4  11   6  172.90   18.20
   3 -11  -6    0.50    8.50
  -3  11   6    0.50    8.30
  -3  11   6    5.00    7.40
  -3  11   6    0.50    8.20
   2 -11  -6   64.80   13.70
  -2  11   6   57.10   12.00
  -2  11   6   34.10   11.70
   1 -11  -6  152.30   16.70
  -1  11   6  154.90   16.40
   0 -11  -6  321.70   21.10
   0  11   6  240.50   20.30
   0  11   6  321.50   17.80
  -1 -11  -6   31.50   12.30
   1  11   6   33.40   12.70
   1  11   6   45.60    8.80
   1  11   6   31.70    8.40
  -2 -11  -6  235.40   20.60
   2  11   6  257.10   16.40
   2  11   6  238.80   16.10
   2  11   6  268.40   22.50
   3  11   6  281.60   15.60
   3  11   6  259.80   21.50
   3  11   6  249.10   13.50
  -4 -11  -6   11.40   10.30
   4  11   6    7.90    5.10
  -5 -11  -6  224.20   21.20
  -6 -11  -6  118.60   17.30
  -7 -11  -6    0.20    8.70
  -8 -11  -6   58.70   15.70
 -10  12   6   67.90   14.90
 -10  12   6   63.20   18.70
  -9  12   6    7.80   13.80
  -9  12   6    0.60    9.10
  -8  12   6   85.80   16.40
  -8  12   6   60.50   16.80
   7 -12  -6   20.10   14.20
  -7  12   6   27.00   12.40
  -7  12   6   29.80   12.10
   6 -12  -6   20.90   12.30
  -6  12   6   34.40   13.10
  -6  12   6   64.70   14.30
   5 -12  -6  109.10   17.80
  -5  12   6   85.40   14.60
  -5  12   6   95.90   16.20
   4 -12  -6  272.20   24.80
  -4  12   6  282.10   23.20
   3 -12  -6   17.90   11.80
  -3  12   6    0.10   10.50
  -3  12   6    2.10    8.60
   2 -12  -6   60.30   13.30
  -2  12   6   62.40   12.20
  -2  12   6   57.70   13.60
   1 -12  -6  269.00   21.50
  -1  12   6  181.10   21.90
  -1  12   6  202.50   17.50
   0 -12  -6  181.00   18.10
   0  12   6  202.50   15.90
   1  12   6  131.40   17.90
   1  12   6  143.80   13.40
   1  12   6  136.10   13.90
  -2 -12  -6   67.10   13.10
   2  12   6   99.00   10.80
   2  12   6   79.20   10.10
   2  12   6  102.60   16.70
  -3 -12  -6   51.90   12.80
   3  12   6   66.70    8.80
   3  12   6  101.40   10.70
   3  12   6   94.60   16.90
  -4 -12  -6   36.60   13.70
   4  12   6   46.80    7.10
  -5 -12  -6   80.40   15.70
  -6 -12  -6   38.20   12.70
  -7 -12  -6   49.10   14.20
  -9  13   6    3.60   11.40
  -9  13   6    0.70   12.70
  -8  13   6  127.80   18.00
  -8  13   6   67.50   18.20
   7 -13  -6   22.80   17.50
  -7  13   6   35.00   14.30
  -7  13   6   46.00   13.60
  -6  13   6    9.70   10.80
  -6  13   6    0.00    9.70
   5 -13  -6    4.50   14.90
  -5  13   6    3.70   10.10
  -5  13   6    2.90   11.80
   4 -13  -6   40.00   15.30
  -4  13   6   45.70   12.50
  -4  13   6   23.10   10.70
  -3  13   6  277.60   22.60
  -3  13   6  284.80   22.20
   2 -13  -6   92.90   20.10
  -2  13   6  100.50   15.40
  -2  13   6  110.10   16.80
   1 -13  -6  119.60   18.60
  -1  13   6   87.40   14.00
  -1  13   6   97.00   16.70
   0 -13  -6  429.80   27.40
   0  13   6  426.20   23.70
   0  13   6  445.50   28.50
  -1 -13  -6  408.60   27.50
   1  13   6  424.30   27.70
   1  13   6  421.90   21.80
   1  13   6  400.80   20.90
  -2 -13  -6    7.20   11.00
   2  13   6    4.80    5.90
   2  13   6    4.40   10.80
   2  13   6    3.70    7.40
  -3 -13  -6   19.20   11.90
   3  13   6   28.90    7.70
   3  13   6   21.40    7.10
  -4 -13  -6  217.70   21.60
   4  13   6  222.40   11.60
  -5 -13  -6   23.90   11.70
  -6 -13  -6   27.60   11.90
  -8  14   6   57.80   16.60
  -8  14   6   58.80   14.50
   7 -14  -6   52.00   18.20
  -7  14   6   15.80   13.90
  -7  14   6   32.60   13.30
   6 -14  -6    0.10   11.70
  -6  14   6   12.50   11.00
  -6  14   6    4.40   12.10
   5 -14  -6    5.90   12.80
  -5  14   6   43.80   14.50
  -5  14   6   40.40   13.50
   4 -14  -6   85.90   17.20
  -4  14   6   63.30   14.10
  -4  14   6   77.10   15.40
   3 -14  -6  849.30   42.60
  -3  14   6  882.10   40.10
  -3  14   6  909.10   40.90
   2 -14  -6  107.30   18.20
  -2  14   6   99.40   16.70
  -2  14   6   94.00   14.50
   1 -14  -6   17.30   12.40
  -1  14   6   29.60   10.30
  -1  14   6   28.60   12.30
   0 -14  -6   69.90   16.20
   0  14   6   79.70   12.70
   0  14   6   61.60   15.20
  -1 -14  -6   51.00   13.80
   1  14   6   50.50   13.60
   1  14   6   53.10   10.30
   1  14   6   80.60   11.60
  -2 -14  -6   72.10   14.90
   2  14   6   78.00   10.30
   2  14   6   84.30   10.20
   2  14   6   81.70   15.90
  -3 -14  -6   75.40   16.90
   3  14   6   84.20   10.60
   3  14   6   63.00    9.70
  -4 -14  -6  107.20   18.60
   4  14   6  118.70    8.90
  -5 -14  -6   21.30   13.00
   6 -15  -6    0.30   13.70
  -6  15   6    1.60   11.20
  -6  15   6    1.70   11.90
   5 -15  -6    0.10   12.00
  -5  15   6    0.10   10.20
  -5  15   6    8.70   13.10
   4 -15  -6   42.20   16.60
  -4  15   6   65.80   15.10
  -4  15   6   44.90   16.20
   3 -15  -6  118.10   19.30
  -3  15   6  130.40   19.40
   2 -15  -6   43.00   13.40
  -2  15   6   68.40   15.10
  -2  15   6   74.90   14.30
   1 -15  -6  129.50   18.90
  -1  15   6  111.60   18.00
  -1  15   6  127.50   16.10
   0 -15  -6   37.10   15.40
   0  15   6   27.80   13.00
   0  15   6   24.50   10.40
  -1 -15  -6   57.00   16.50
   1  15   6   66.10   11.50
   1  15   6   66.40   15.50
   1  15   6   98.10   12.00
  -2 -15  -6  319.50   28.70
   2  15   6  288.00   18.70
   2  15   6  284.60   18.50
  -3 -15  -6   42.00   13.60
   3  15   6   22.80    7.10
   3  15   6   35.30    8.20
   3 -16  -6    0.50   12.60
  -3  16   6    0.50    9.60
  -3  16   6    0.50   11.60
   2 -16  -6    0.10   11.50
  -2  16   6    4.20   11.40
  -2  16   6    0.10    9.50
   1 -16  -6    0.00   12.00
  -1  16   6    5.50   10.20
  -1  16   6   33.00   14.30
   0 -16  -6    0.10   12.50
   0  16   6    0.10    7.90
   0  16   6   13.40   11.80
   2  18  -7   59.70   16.00
  -2 -18   7   70.20   16.90
   1  18  -7   24.40   13.90
   0  18  -7   27.10   15.30
  -1  18  -7  124.20   20.40
  -2  18  -7   93.50   18.00
  -5 -17   7   69.70   15.70
  -5 -17   7   87.90   11.20
  -4 -17   7    2.90    7.50
  -4 -17   7   18.70   12.20
   3  17  -7    7.80   11.90
  -3 -17   7   21.30    9.10
  -3 -17   7   22.70   14.60
   2  17  -7    7.90   11.60
  -2 -17   7   45.90   15.70
   1  17  -7    0.20   11.80
   0  17  -7    5.80   11.80
  -1  17  -7  368.50   29.60
  -2  17  -7   91.80   20.00
  -3  17  -7   40.90   15.50
  -4  17  -7    0.30   13.70
  -5  17  -7   23.70   13.60
   5 -17   7   13.40   12.00
  -6 -16   7  103.10   10.60
  -6 -16   7   91.70   15.90
  -5 -16   7  143.40   13.40
  -5 -16   7  122.60   16.60
   4  16  -7    0.30    8.00
  -4 -16   7    0.30   11.50
  -4 -16   7    0.30    7.10
   3  16  -7   53.90   13.80
  -3 -16   7   47.10   14.70
  -3 -16   7   50.80    9.80
   2  16  -7  298.10   25.70
  -2 -16   7  266.50   20.30
  -2 -16   7  294.20   27.20
   1  16  -7  158.10   21.30
  -1 -16   7  142.00   21.10
   0  16  -7   45.10   14.10
  -1  16  -7  285.50   27.00
  -2  16  -7   26.90   12.30
  -3  16  -7    9.20   13.80
   3 -16   7   13.30   12.80
  -4  16  -7   10.20   14.40
   4 -16   7   28.40    9.90
  -5  16  -7    2.60   14.50
  -6  16  -7    4.50   12.50
  -7 -15   7    0.10    9.60
  -7 -15   7    0.10    5.30
   6  15  -7    0.00    5.40
  -6 -15   7    0.00    6.00
  -5 -15   7   11.20   13.30
  -5 -15   7   25.00    8.30
   4  15  -7    0.50    6.90
  -4 -15   7   14.40    7.10
  -4 -15   7    0.50   10.70
   3  15  -7  196.20   23.00
  -3 -15   7  228.60   24.30
   2  15  -7  104.40   18.60
  -2 -15   7  136.20   19.60
  -2 -15   7  109.90   15.10
   1  15  -7  173.30   19.50
  -1 -15   7  133.10   14.40
   0  15  -7    5.60   12.00
  -1  15  -7    5.60   12.20
  -2  15  -7   18.40   13.10
   2 -15   7   12.90    8.40
  -3  15  -7   95.30   17.70
   3 -15   7  100.10   13.00
  -4  15  -7   75.50   18.70
  -5  15  -7    0.00   13.10
   5 -15   7    0.00    6.20
  -6  15  -7   31.60   17.10
  -7  15  -7    7.30   15.30
  -8  15  -7  118.30   22.00
   8 -15   7   75.00   12.30
  -8 -14   7   36.40   11.50
  -8 -14   7   17.50    6.40
  -7 -14   7    9.40   10.40
  -7 -14   7   11.80    6.20
   6  14  -7   21.90    7.40
  -6 -14   7   28.00    7.40
  -6 -14   7   46.30   12.60
   5  14  -7    0.20    6.70
  -5 -14   7    5.50   10.10
  -5 -14   7   19.20    7.80
   4  14  -7  235.20   22.20
  -4 -14   7  300.80   23.10
  -4 -14   7  333.90   18.70
   3  14  -7    1.80    8.90
  -3 -14   7    1.30   11.00
  -3 -14   7    1.80    7.40
   2  14  -7    0.20    9.40
  -2 -14   7    0.20    9.40
  -2 -14   7    7.40    9.10
   1  14  -7  462.60   27.70
  -1 -14   7  414.90   23.20
  -1 -14   7  430.30   26.60
   0  14  -7    6.10   11.00
   0 -14   7   21.60    6.60
   0 -14   7   17.40    8.20
  -1  14  -7   24.50   12.90
   1 -14   7   44.50    9.20
  -2  14  -7   31.70   13.50
   2 -14   7   25.40    8.70
  -3  14  -7  132.70   20.40
   3 -14   7  164.70   15.50
  -4  14  -7   30.10   13.80
   4 -14   7   31.10    9.40
  -5  14  -7   23.60   16.00
  -6  14  -7  136.60   21.70
  -7  14  -7    3.90   15.00
   7 -14   7    0.40    7.20
  -8  14  -7  189.80   24.10
  -9 -13   7   27.90   11.30
  -9 -13   7   35.40   10.00
  -8 -13   7    0.20    8.30
  -8 -13   7    0.20    4.90
   7  13  -7   78.40   16.90
  -7 -13   7  105.50   14.80
  -7 -13   7   95.80    9.90
   6  13  -7  124.20   16.30
   6  13  -7   96.60   13.90
  -6 -13   7  149.30   13.20
  -6 -13   7  133.00   16.40
   5  13  -7  240.30   19.70
  -5 -13   7  246.90   15.90
  -5 -13   7  231.90   19.50
   4  13  -7  317.30   19.40
   4  13  -7  237.40   20.40
  -4 -13   7  305.80   20.60
  -4 -13   7  330.90   16.80
   3  13  -7    0.80   10.20
   3  13  -7    1.20    7.70
  -3 -13   7    1.20   10.20
  -3 -13   7    3.10    7.60
   2  13  -7  120.10   15.40
   2  13  -7  136.90   18.40
  -2 -13   7  134.60   17.20
  -2 -13   7  110.60   13.80
   1  13  -7   69.40   17.10
   1  13  -7   61.20   16.50
  -1 -13   7   61.50   12.80
  -1 -13   7   59.70   16.20
   0  13  -7   41.20   14.40
   0 -13   7   39.90   10.60
   0 -13   7   42.30   11.80
  -1  13  -7   10.60   12.30
   1 -13   7    4.30    7.00
   1 -13   7    0.00    8.10
  -2  13  -7    2.90   10.60
   2 -13   7    3.30    7.30
  -3  13  -7   51.50   15.90
   3 -13   7   59.60    9.80
  -4  13  -7    0.40   11.70
   4 -13   7   18.40    7.90
  -5  13  -7   69.10   16.70
  -6  13  -7  317.30   29.50
  -7  13  -7   54.40   17.70
  -8  13  -7    0.10   11.80
   8 -13   7    0.10    4.80
  -9  13  -7   36.50   17.80
  10  12  -7    0.20    8.90
 -10 -12   7   20.40    5.60
 -10 -12   7   20.80   10.10
   9  12  -7    0.40    8.90
  -9 -12   7    0.40    8.10
  -9 -12   7    0.40    4.70
   8  12  -7  176.70   17.70
  -8 -12   7  166.60   15.60
  -8 -12   7  149.00   11.10
   7  12  -7    0.70    8.40
  -7 -12   7    0.70    8.40
  -7 -12   7    2.10    6.00
   6  12  -7   30.60   10.10
  -6 -12   7   47.30   11.60
  -6 -12   7   52.90    9.10
   5  12  -7  213.60   16.80
  -5 -12   7  231.30   13.90
  -5 -12   7  251.30   17.60
   4  12  -7  528.50   28.70
   4  12  -7  399.40   29.20
  -4 -12   7  490.70   25.60
  -4 -12   7  489.40   28.70
   3  12  -7  359.90   22.20
   3  12  -7  361.00   24.50
  -3 -12   7  346.20   20.40
  -3 -12   7  340.80   22.50
   2  12  -7    4.80    7.70
   2  12  -7    4.80    9.30
  -2 -12   7   14.30    9.00
  -2 -12   7   25.20    8.30
  -2 -12   7    4.80    6.80
   1  12  -7  196.20   19.90
   1  12  -7  209.00   16.50
  -1 -12   7  193.30   15.70
  -1 -12   7  207.40   15.70
   0  12  -7  617.00   29.10
   0  12  -7  661.80   33.90
   0 -12   7  632.90   27.70
  -1  12  -7   61.70   13.40
  -1  12  -7   87.50   12.70
   1 -12   7   74.80    9.80
   1 -12   7   61.10   12.00
  -2  12  -7    8.70   10.40
   2 -12   7    6.90    7.80
   2 -12   7   13.50    7.50
  -3  12  -7   23.40   13.30
   3 -12   7   36.10    8.30
  -4  12  -7   40.30   13.60
   4 -12   7   39.00    8.10
  -5  12  -7    2.90   10.60
  -6  12  -7  104.40   18.70
  -7  12  -7    8.60   13.40
  -8  12  -7    3.30   13.20
  -9  12  -7   69.20   17.90
 -10  12  -7  140.70   23.10
  11  11  -7    0.50    9.30
 -11 -11   7    0.50    8.00
 -11 -11   7    2.40   12.60
  10  11  -7   17.20    9.90
 -10 -11   7    9.30    8.50
 -10 -11   7   25.10    6.30
  -9 -11   7    6.70    6.30
  -9 -11   7   16.80    9.10
   8  11  -7  279.80   19.10
  -8 -11   7  283.90   15.20
  -8 -11   7  323.90   19.50
   7  11  -7    9.40    8.20
  -7 -11   7   32.50    7.50
  -7 -11   7   36.10    9.00
   6  11  -7  304.10   24.50
   6  11  -7  359.20   22.60
  -6 -11   7  326.40   19.10
  -6 -11   7  352.70   21.90
   5  11  -7    0.50    6.80
   5  11  -7    0.50    6.60
  -5 -11   7    8.80    8.00
  -5 -11   7    0.50    5.70
   4  11  -7  914.10   35.20
   4  11  -7  839.40   37.20
  -4 -11   7  842.40   32.40
  -4 -11   7  852.70   34.50
   3  11  -7   56.10   12.20
   3  11  -7   47.50   13.90
  -3 -11   7   55.40   12.50
  -3 -11   7   55.50   11.40
   2  11  -7  328.70   20.00
   2  11  -7  355.00   23.40
  -2 -11   7  346.80   22.20
  -2 -11   7  325.00   19.20
   1  11  -7   91.70   15.40
   1  11  -7   73.70   12.00
  -1 -11   7   67.90   11.20
   0  11  -7  665.10   31.30
   0 -11   7  599.60   24.50
   0 -11   7  620.60   27.40
  -1  11  -7   49.10   11.60
  -1  11  -7   54.00    9.10
   1 -11   7   52.40    8.00
  -2  11  -7   92.30   17.40
  -2  11  -7   73.90   13.80
   2 -11   7  108.90   16.60
   2 -11   7  122.70   13.00
  -3  11  -7  208.00   20.80
  -3  11  -7  185.80   16.50
   3 -11   7  229.30   13.90
   3 -11   7  192.30   17.10
  -4  11  -7    5.50   12.90
   4 -11   7    0.70    5.10
  -5  11  -7  207.30   19.90
   5 -11   7  103.80   10.00
  -6  11  -7   27.00   14.30
  -7  11  -7  160.50   22.00
   7 -11   7  131.80    8.90
  -8  11  -7    0.50   11.80
  -9  11  -7    0.30   13.40
 -10  11  -7   12.00   16.30
  11  10  -7    0.20    7.20
 -11 -10   7    0.20   10.80
 -11 -10   7   22.00    8.30
 -11 -10   7   11.00    6.20
  10  10  -7  187.00   17.00
 -10 -10   7  215.60   13.60
 -10 -10   7  190.10   22.30
 -10 -10   7  213.80   16.40
   9  10  -7    8.00    8.50
  -9 -10   7   16.70    8.20
  -9 -10   7   22.30    7.70
   8  10  -7  159.40   15.30
  -8 -10   7  150.40   12.80
  -8 -10   7  181.70   15.30
   7  10  -7   37.30   10.20
  -7 -10   7   43.80   10.50
  -7 -10   7   47.90    9.60
   6  10  -7  283.70   16.30
   6  10  -7  281.20   16.30
  -6 -10   7  315.20   17.30
  -6 -10   7  320.50   15.40
   5  10  -7   99.90   14.00
  -5 -10   7   83.30   12.90
  -5 -10   7   87.60   12.40
   4  10  -7  267.10   21.50
   4  10  -7  269.00   19.10
  -4 -10   7  301.00   20.10
  -4 -10   7  301.40   19.00
   3  10  -7  362.70   21.00
   3  10  -7  357.00   18.30
  -3 -10   7  373.00   17.80
  -3 -10   7  341.60   18.90
   2  10  -7  632.70   27.70
   2  10  -7  651.60   25.00
  -2 -10   7  615.70   25.80
  -2 -10   7  628.40   24.30
   1  10  -7   70.90   15.50
   1  10  -7   77.10   13.20
  -1 -10   7   77.50   13.40
   0  10  -7  273.40   18.40
   0  10  -7  281.00   22.40
   0 -10   7  272.10   18.90
  -1  10  -7    7.20    6.80
  -1  10  -7    0.10   10.40
   1 -10   7    5.90    5.90
   1 -10   7    0.10    6.80
  -2  10  -7  411.30   24.00
  -2  10  -7  418.10   24.00
   2 -10   7  409.40   17.20
  -3  10  -7  140.80   16.90
  -3  10  -7  127.60   18.90
   3 -10   7  150.40   12.70
   3 -10   7  113.10   15.80
  -4  10  -7    6.20   10.60
  -4  10  -7    3.90    9.10
   4 -10   7    8.20    8.60
   4 -10   7    7.90    5.40
  -5  10  -7   18.40   11.70
  -6  10  -7  208.10   23.40
   6 -10   7  180.50   11.40
  -7  10  -7  321.00   26.80
  -8  10  -7  101.10   18.00
  -9  10  -7  124.40   18.80
 -10  10  -7   36.00   16.40
 -11  10  -7   21.70   14.50
 -12  -9   7   33.20    9.00
 -12  -9   7   28.40    8.00
 -12  -9   7   33.60   15.00
  11   9  -7   32.90    9.00
 -11  -9   7   37.10   14.60
 -11  -9   7   29.30    8.50
 -11  -9   7   32.40    7.60
  10   9  -7  641.70   29.80
 -10  -9   7  671.30   38.50
 -10  -9   7  668.10   28.60
 -10  -9   7  580.10   27.50
   9   9  -7   19.70    7.60
  -9  -9   7   30.00    8.30
  -9  -9   7   34.10    8.00
   8   9  -7    0.70    6.10
  -8  -9   7   11.10    6.70
  -8  -9   7   11.10    7.00
   7   9  -7  240.30   17.30
  -7  -9   7  263.80   19.70
  -7  -9   7  236.90   16.70
   6   9  -7  757.00   30.10
   6   9  -7  734.60   28.50
  -6  -9   7  775.40   28.10
   5   9  -7  183.50   14.30
   5   9  -7  205.30   13.70
  -5  -9   7  221.20   16.40
  -5  -9   7  214.10   13.90
   4   9  -7    0.30    6.30
  -4  -9   7    0.30    6.30
   3   9  -7   62.10   12.00
   3   9  -7   61.70    9.10
  -3  -9   7   59.70   10.30
  -3  -9   7   65.30    9.80
   2   9  -7  121.80   13.80
   2   9  -7  117.20   11.80
  -2  -9   7  107.40   11.10
   1   9  -7  132.70   11.80
   1   9  -7   98.10   12.60
  -1  -9   7  111.80   11.40
   0   9  -7    0.50    8.60
   0   9  -7    1.30    6.50
   0  -9   7   13.70    8.60
  -1   9  -7   21.50    6.90
  -1   9  -7   33.50    9.50
   1  -9   7   18.00    6.60
  -2   9  -7  476.00   27.30
  -2   9  -7  437.00   24.20
   2  -9   7  430.70   24.50
   2  -9   7  473.30   20.20
  -3   9  -7   78.70   14.40
   3  -9   7   77.40    8.20
  -4   9  -7   70.80   11.80
  -4   9  -7   57.80   12.90
   4  -9   7   83.60   12.30
  -5   9  -7  231.70   17.10
  -5   9  -7  193.60   18.30
   5  -9   7  142.40    9.50
   5  -9   7  204.90   17.30
  -6   9  -7   30.00   12.60
  -7   9  -7   33.90   13.10
  -9   9  -7  228.50   24.90
 -10   9  -7  112.20   18.80
 -11   9  -7   47.50   15.20
 -12  -8   7    0.00    6.70
 -12  -8   7    2.90   11.80
 -12  -8   7    8.90    8.00
  11   8  -7    8.10    6.00
 -11  -8   7    8.10    6.50
 -11  -8   7    3.80    7.10
 -11  -8   7    2.60   10.30
  10   8  -7  432.00   19.70
 -10  -8   7  406.40   20.70
 -10  -8   7  444.70   29.90
 -10  -8   7  374.60   19.70
   9   8  -7   22.50    7.70
  -9  -8   7   22.10    8.60
  -9  -8   7   19.00    7.40
   8   8  -7   89.50   11.20
  -8  -8   7   74.40   10.40
  -8  -8   7   63.60   15.00
  -8  -8   7   77.40   11.40
   7   8  -7   22.30    6.30
  -7  -8   7   34.40    7.90
  -7  -8   7   26.60    7.40
   6   8  -7 1893.60   54.90
  -6  -8   7 1933.70   54.10
  -6  -8   7 1882.80   55.70
   5   8  -7  817.80   29.40
   5   8  -7  842.50   32.30
  -5  -8   7  866.60   28.80
  -5  -8   7  788.60   29.90
   4   8  -7  206.50   14.50
   4   8  -7  159.70   17.00
  -4  -8   7  192.40   15.00
  -4  -8   7  217.30   15.60
   3   8  -7    0.70    7.70
   3   8  -7    3.40    6.20
  -3  -8   7   13.40    7.20
  -3  -8   7    1.80    6.80
   2   8  -7  100.20   13.40
   2   8  -7  114.50    9.50
  -2  -8   7  120.60   11.10
   1   8  -7  191.30   14.10
   1   8  -7  190.40   11.30
  -1  -8   7  215.60   13.80
   0   8  -7   30.50    9.10
   0   8  -7   28.60   10.20
   0  -8   7   27.10    9.30
  -1   8  -7  169.70   14.60
  -1   8  -7  145.90   11.30
   1  -8   7  165.10   12.90
  -2   8  -7   50.70   11.00
  -2   8  -7   63.90   15.00
   2  -8   7   54.40    8.10
   2  -8   7   48.40   11.50
  -3   8  -7  582.80   28.70
  -3   8  -7  555.10   25.90
   3  -8   7  536.50   26.70
  -4   8  -7  494.10   27.50
   4  -8   7  472.20   28.70
   4  -8   7  431.50   16.50
  -5   8  -7  736.10   33.60
   5  -8   7  674.50   18.70
   5  -8   7  687.00   30.90
   5  -8   7  647.90   19.30
  -6   8  -7   19.30   11.10
   6  -8   7   33.10   10.60
  -7   8  -7   99.30   14.70
  -8   8  -7  273.00   26.10
  -9   8  -7   43.10   13.90
 -10   8  -7   16.80   14.50
 -11   8  -7   46.90   16.40
 -12  -7   7   57.90    8.10
 -12  -7   7   69.80   10.00
 -12  -7   7   91.50   17.30
 -11  -7   7   60.60    9.10
 -11  -7   7   54.90   10.80
 -11  -7   7   58.40   15.60
  10   7  -7   24.20    6.40
 -10  -7   7   30.20   11.70
 -10  -7   7   22.00    6.50
 -10  -7   7   41.70    8.90
   9   7  -7  686.20   22.70
  -9  -7   7  626.30   32.20
  -9  -7   7  668.90   22.00
  -9  -7   7  651.20   25.40
   8   7  -7   26.50    9.80
  -8  -7   7    7.20    9.60
  -8  -7   7   17.20    7.70
  -8  -7   7    0.00    5.50
   7   7  -7    7.40    5.70
  -7  -7   7    8.50    8.80
  -7  -7   7    8.30    6.00
  -7  -7   7   21.80    7.60
   6   7  -7  472.80   19.20
  -6  -7   7  449.70   19.00
  -6  -7   7  452.50   21.90
   5   7  -7   16.70    6.20
   5   7  -7   13.70    7.30
  -5  -7   7   22.60    6.60
  -5  -7   7    6.50    7.30
   4   7  -7   10.10    7.10
  -4  -7   7   37.80    7.60
  -4  -7   7   28.40    6.10
   3   7  -7   20.10    8.60
   3   7  -7   17.80    6.20
  -3  -7   7   14.00    6.80
   2   7  -7  697.00   29.60
   2   7  -7  671.90   25.30
  -2  -7   7  711.30   27.80
   1   7  -7   98.50   11.30
  -1  -7   7   93.40   13.90
   0   7  -7   69.60   14.50
   0   7  -7   70.10   11.90
   0  -7   7   70.20   12.70
  -1   7  -7  110.50   13.70
  -1   7  -7   96.70   11.30
   1  -7   7  109.20   12.50
  -2   7  -7   91.50   10.90
  -2   7  -7   87.20   12.70
   2  -7   7   82.30   11.30
  -3   7  -7    2.20    8.60
   3  -7   7    0.30    6.70
   3  -7   7    0.30    3.80
   3  -7   7    5.60    3.70
  -4   7  -7   44.50   11.10
   4  -7   7   51.90    5.40
   4  -7   7   57.30   10.90
   4  -7   7   55.00    5.50
  -5   7  -7  100.40   15.70
   5  -7   7   96.30   14.90
  -6   7  -7   97.50   16.50
   6  -7   7   97.10   14.90
  -7   7  -7    8.40   10.80
   7  -7   7    8.20   11.40
  -8   7  -7  104.80   17.50
  -9   7  -7   19.30   11.80
 -10   7  -7   86.40   17.80
 -11   7  -7    2.70   11.70
 -12   7  -7   20.70   15.20
 -12   7  -7   39.40   16.40
 -13  -6   7    2.40    8.30
 -13  -6   7    1.90    8.50
 -13  -6   7    3.80    5.90
 -13  -6   7    1.20   12.50
 -12  -6   7   19.60    9.30
 -12  -6   7   18.00   12.60
 -12  -6   7   20.30    6.70
 -11  -6   7    0.00    7.80
 -11  -6   7    1.10   11.70
 -11  -6   7    0.20    5.50
 -10  -6   7    8.90    7.60
 -10  -6   7   15.90   12.90
 -10  -6   7    1.90    5.00
   9   6  -7  356.00   16.00
  -9  -6   7  351.60   15.80
  -9  -6   7  361.80   20.60
  -9  -6   7  389.40   27.10
   8   6  -7  424.00   17.10
  -8  -6   7  471.30   26.50
  -8  -6   7  445.50   20.90
  -8  -6   7  443.50   17.10
  -7  -6   7  117.20    9.60
  -7  -6   7  102.20   12.10
  -7  -6   7  113.80   16.10
  -6  -6   7    6.90    9.10
  -6  -6   7    0.30    6.20
  -6  -6   7    2.90    4.60
   5   6  -7  114.60    9.90
  -5  -6   7  118.00   11.40
  -5  -6   7  123.90    7.80
  -5  -6   7  131.40   10.30
   4   6  -7  714.60   35.20
   4   6  -7  677.80   31.00
  -4  -6   7  670.90   33.70
  -4  -6   7  796.30   37.00
   3   6  -7  457.90   24.70
   3   6  -7  449.50   20.70
  -3  -6   7  486.80   23.30
   2   6  -7  206.10   16.90
   2   6  -7  185.30   13.30
  -2  -6   7  201.20   16.70
   1   6  -7   63.50    8.10
   1   6  -7   67.60    6.30
  -1  -6   7  100.00    9.40
   0   6  -7    3.80    5.60
   0  -6   7   10.00    5.20
   0  -6   7    9.50    6.30
  -1   6  -7 1426.80   55.10
   1  -6   7 1442.20   54.40
   1  -6   7 1474.30   49.40
  -2   6  -7  651.60   28.30
   2  -6   7  681.10   26.80
   2  -6   7  628.30   20.70
  -3   6  -7  602.40   26.20
   3  -6   7  587.20   17.40
   3  -6   7  547.10   24.70
  -4   6  -7   85.40   13.10
   4  -6   7   69.30    4.70
   4  -6   7   70.30   11.60
  -5   6  -7  171.30   18.20
   5  -6   7  183.20   17.40
  -6   6  -7  601.70   27.90
   6  -6   7  607.20   27.50
  -7   6  -7   38.70   12.60
   7  -6   7   28.90    9.80
  -8   6  -7   95.30   14.60
  -9   6  -7   88.60   17.30
 -10   6  -7   27.60   13.30
 -10   6  -7   18.30   16.10
 -11   6  -7   23.10   13.70
 -11   6  -7   58.10   16.20
 -12   6  -7    0.10   12.10
 -12   6  -7    0.10   11.50
 -13  -5   7  219.80   12.50
 -13  -5   7  200.60   16.90
 -13  -5   7  211.80   18.40
 -13  -5   7  212.80   22.70
 -12  -5   7   43.90    6.60
 -12  -5   7   39.10   10.10
 -12  -5   7   70.20   15.10
 -11  -5   7  397.90   27.60
 -11  -5   7  337.70   21.20
 -11  -5   7  350.70   15.60
 -10  -5   7   53.90    9.40
 -10  -5   7   66.00    6.30
 -10  -5   7   70.60   13.00
  -9  -5   7   82.60   11.60
  -9  -5   7   87.60    8.00
  -9  -5   7   81.80   15.20
   8   5  -7  120.80    8.60
  -8  -5   7  129.60   14.30
  -8  -5   7  133.80   17.00
  -8  -5   7  129.50    8.90
   7   5  -7   24.70    4.10
  -7  -5   7   29.70    9.90
  -7  -5   7   27.10    7.30
  -7  -5   7   24.60    4.50
   6   5  -7   11.00    3.50
  -6  -5   7   31.60    7.60
  -6  -5   7   14.80    4.20
  -6  -5   7   17.10    8.70
   5   5  -7    0.80    3.10
  -5  -5   7    1.90    7.80
  -5  -5   7    5.20    6.00
   4   5  -7  233.10   12.80
   4   5  -7  251.10   17.20
  -4  -5   7  273.30   17.90
  -4  -5   7  258.50   16.70
   3   5  -7   35.60    5.20
   3   5  -7   40.90    7.30
  -3  -5   7   55.90    9.40
  -3  -5   7   41.50    7.80
   2   5  -7 2691.60   66.90
   2   5  -7 2646.70   71.80
  -2  -5   7 2563.90   69.20
  -2  -5   7 2601.40   70.30
   1   5  -7   90.40    5.70
   1   5  -7   67.40    4.30
  -1  -5   7   67.40    4.80
  -1  -5   7   54.10    6.30
   0   5  -7   66.40    7.80
   0  -5   7   79.30    8.20
   0  -5   7   72.00    5.80
  -1   5  -7  723.80   36.30
   1  -5   7  742.00   27.30
   1  -5   7  749.40   32.20
  -2   5  -7   84.10   13.40
   2  -5   7   88.10   12.70
   2  -5   7   74.00    7.80
  -3   5  -7   81.10   15.30
   3  -5   7   89.30   15.70
   3  -5   7   89.00    8.10
  -4   5  -7    9.70    9.10
   4  -5   7   11.90    9.20
  -5   5  -7  814.30   33.30
   5  -5   7  824.00   33.30
  -6   5  -7 1673.20   58.00
   6  -5   7 1674.30   58.70
  -7   5  -7  445.00   26.90
   7  -5   7  412.40   26.20
  -8   5  -7  110.50   15.60
   8  -5   7   94.40   14.50
  -9   5  -7    0.10    9.20
  -9   5  -7    3.40   11.00
 -10   5  -7  102.50   16.00
 -10   5  -7  103.10   16.70
 -11   5  -7   91.90   18.10
 -11   5  -7   77.10   15.90
 -12   5  -7   12.00   12.90
 -12   5  -7    0.00   10.90
 -13  -4   7  158.90   19.80
 -13  -4   7  158.50   10.20
 -13  -4   7  128.60   16.00
 -13  -4   7  174.00   19.20
 -12  -4   7   21.40    5.40
 -12  -4   7   22.20    9.10
 -12  -4   7   26.50   12.60
 -11  -4   7  465.00   29.10
 -11  -4   7  479.80   17.90
 -11  -4   7  649.30   53.40
 -10  -4   7    5.90    7.80
 -10  -4   7    0.10    9.10
 -10  -4   7    0.10    3.60
  -9  -4   7   30.20   10.80
  -9  -4   7   32.80    4.20
  -9  -4   7   22.00    8.00
  -8  -4   7   86.80   11.20
  -8  -4   7   70.50   13.00
  -8  -4   7   67.80    5.60
  -7  -4   7   23.70    4.10
  -7  -4   7   41.20   11.80
  -7  -4   7   34.40    9.40
   6   4  -7    0.90    2.40
  -6  -4   7    1.90    6.40
  -6  -4   7    0.10    7.00
   5   4  -7   14.00    3.00
  -5  -4   7   16.70    7.80
  -5  -4   7    7.10    6.90
   4   4  -7  520.70   12.10
   4   4  -7  541.90   17.30
  -4  -4   7  562.80   16.90
  -4  -4   7  550.90   17.70
   3   4  -7   62.90    4.80
   3   4  -7   54.50    7.80
  -3  -4   7   69.60    7.70
  -3  -4   7   63.00    7.70
   2   4  -7  219.10   10.60
   2   4  -7  237.90   14.50
  -2  -4   7  234.40   14.00
  -2  -4   7  218.60   13.20
   1   4  -7  285.20   19.20
  -1  -4   7  262.20   18.80
  -1  -4   7  276.20   16.70
   0   4  -7   75.80   13.10
   0  -4   7   77.80   12.10
   0  -4   7   78.80    9.40
  -1   4  -7   32.10    6.10
   1  -4   7   24.20    4.10
   1  -4   7   56.90    5.60
  -2   4  -7  871.70   35.10
   2  -4   7  909.70   31.40
   2  -4   7  948.40   25.10
  -3   4  -7 1265.00   39.80
   3  -4   7 1221.00   39.70
   3  -4   7 1220.90   30.80
  -4   4  -7  199.50   16.20
   4  -4   7  196.70   15.50
  -5   4  -7  366.30   21.00
   5  -4   7  386.70   22.00
  -6   4  -7  832.20   38.60
   6  -4   7  758.60   38.50
  -7   4  -7   13.30   10.50
   7  -4   7    0.10   13.30
  -8   4  -7   57.20   12.20
  -8   4  -7   35.90   11.60
   8  -4   7   37.90   12.00
  -9   4  -7    5.70   10.20
  -9   4  -7    0.00   10.30
   9  -4   7    0.00    9.60
 -10   4  -7  416.90   28.60
 -10   4  -7  403.00   28.30
 -11   4  -7  140.80   18.70
 -11   4  -7  159.70   19.90
 -12   4  -7    0.00   11.70
 -12   4  -7    0.00   11.50
 -13  -3   7    2.80   10.30
 -13  -3   7   17.30   13.50
 -13  -3   7    8.50    4.40
 -12  -3   7   19.10    9.20
 -12  -3   7   27.60    4.70
 -12  -3   7   29.60   11.80
 -11  -3   7   98.00    6.50
 -11  -3   7   88.50   12.10
 -11  -3   7   63.70   14.80
 -10  -3   7   11.60    3.80
 -10  -3   7   14.60    9.50
 -10  -3   7    6.90   12.10
  -9  -3   7   35.60   11.20
  -9  -3   7   49.80   10.20
  -8  -3   7  328.60   24.00
  -8  -3   7  311.50   19.70
  -7  -3   7   65.80    9.40
  -7  -3   7   85.60    8.50
  -6  -3   7    4.00    6.80
  -6  -3   7    4.00    5.50
  -5  -3   7    1.40    6.30
  -5  -3   7    0.00    6.40
   4   3  -7  912.00   34.50
   4   3  -7  834.80   27.20
  -4  -3   7  865.10   34.10
  -4  -3   7  912.10   35.60
   3   3  -7  218.50   16.50
   3   3  -7  199.00   11.10
  -3  -3   7  228.40   16.10
  -3  -3   7  220.80   15.80
   2   3  -7   61.40   10.00
  -2  -3   7   56.10    9.40
  -2  -3   7   48.50    7.60
   1   3  -7  122.40    8.70
  -1  -3   7  146.90    9.20
  -1  -3   7  144.00    7.70
   0   3  -7  203.30    9.60
   0   3  -7  192.90   12.30
   0  -3   7  197.80   12.30
   0  -3   7  215.20   10.00
  -1   3  -7   35.10    7.60
  -1   3  -7   32.60   10.40
   1  -3   7   38.20    7.80
   1  -3   7   42.40   11.40
  -2   3  -7 1292.30   49.40
   2  -3   7 1253.60   42.60
   2  -3   7 1250.10   49.20
  -3   3  -7 2539.40   94.80
   3  -3   7 2543.30   82.40
   3  -3   7 2405.50   90.60
  -4   3  -7  815.20   34.70
   4  -3   7  764.10   34.10
   4  -3   7  732.50   24.00
  -5   3  -7   56.40    9.60
   5  -3   7   69.40    8.20
  -6   3  -7    8.70    9.00
  -6   3  -7    3.80    8.40
   6  -3   7    0.30    7.90
  -7   3  -7  360.50   24.30
  -7   3  -7  389.20   24.30
   7  -3   7  348.70   24.00
  -8   3  -7   30.30   10.80
  -8   3  -7   54.80   12.00
   8  -3   7   37.40   12.10
  -9   3  -7   18.10   10.70
  -9   3  -7    0.90   10.10
   9  -3   7    0.10    7.80
 -10   3  -7  245.80   22.30
 -10   3  -7  276.80   24.50
 -11   3  -7   16.20   12.80
 -11   3  -7    6.80   11.40
 -12   3  -7    4.80   13.80
 -12   3  -7    9.70   10.90
 -13  -2   7  104.00   16.10
 -13  -2   7  124.30   18.60
 -13  -2   7   95.30    7.30
 -13  -2   7  110.80    7.20
 -12  -2   7    0.30    3.50
 -12  -2   7    0.30   10.60
 -12  -2   7    0.50    3.30
 -11  -2   7    2.00    3.00
 -11  -2   7    2.10    2.90
 -11  -2   7   19.30   13.00
 -11  -2   7    0.60    8.20
 -10  -2   7  182.80   15.30
 -10  -2   7  196.30   19.60
  -9  -2   7    5.30    7.60
  -9  -2   7    0.50    9.60
  -8  -2   7  139.40   13.10
  -8  -2   7  149.20   11.50
  -7  -2   7   37.50    8.70
  -7  -2   7   15.30    6.20
  -6  -2   7   19.70    7.00
  -6  -2   7   26.20    8.30
  -5  -2   7   26.20    6.10
  -5  -2   7   10.70    6.10
   4   2  -7  582.00   35.60
  -4  -2   7  639.40   48.40
  -4  -2   7  567.40   34.80
   3   2  -7   14.80    5.60
   3   2  -7   13.80    2.80
   3   2  -7   12.50    5.50
  -3  -2   7    8.90    6.00
  -3  -2   7   18.90    6.00
   2   2  -7  361.90   12.70
   2   2  -7  372.30    9.50
   2   2  -7  361.10   13.40
  -2  -2   7  388.10   14.50
  -2  -2   7  372.90   12.70
   1   2  -7  505.60   17.40
   1   2  -7  547.80   20.00
  -1  -2   7  508.00   19.30
  -1  -2   7  507.60   17.70
   0   2  -7 1008.50   30.90
   0   2  -7  989.50   27.60
   0  -2   7 1027.90   31.20
   0  -2   7 1048.40   28.10
  -1   2  -7  677.60   28.90
  -1   2  -7  677.50   26.60
  -1   2  -7  673.00   24.80
   1  -2   7  660.80   24.90
   1  -2   7  681.00   29.50
  -2   2  -7  163.70   13.90
  -2   2  -7  147.50   14.50
  -2   2  -7  152.90   10.20
   2  -2   7  170.60   16.00
   2  -2   7  168.10   10.70
  -3   2  -7  281.80   15.40
  -3   2  -7  263.30    9.40
   3  -2   7  256.80   10.30
   3  -2   7  258.80   15.20
  -4   2  -7    1.20    3.20
  -4   2  -7    3.90    6.30
   4  -2   7    0.90    3.60
   4  -2   7    1.60    6.60
  -5   2  -7    0.00    6.90
  -5   2  -7    3.10    2.20
  -5   2  -7    0.00    6.90
   5  -2   7    0.00    7.10
  -6   2  -7  219.60   18.30
  -6   2  -7  298.20   21.20
   6  -2   7  235.60   19.80
  -7   2  -7  352.40   21.70
  -7   2  -7  430.40   22.80
   7  -2   7  369.50   22.30
  -8   2  -7  117.50   15.00
  -8   2  -7  133.00   16.30
   8  -2   7  149.20   16.80
  -9   2  -7    4.00    9.90
  -9   2  -7    1.50    9.20
   9  -2   7   23.80   10.30
 -10   2  -7   95.10   16.40
 -10   2  -7  103.40   14.60
  10  -2   7   80.80   13.90
 -11   2  -7   11.10   11.20
 -11   2  -7   11.50   11.30
 -12   2  -7    9.60   12.20
 -12   2  -7   12.70   12.30
 -14  -1   7    0.00   10.00
 -14  -1   7    9.20   13.10
 -14  -1   7    4.50    4.00
 -14  -1   7    4.60    3.70
 -13  -1   7   45.00    4.60
 -13  -1   7   44.30    4.70
 -13  -1   7   18.50   11.30
 -13  -1   7   60.30   14.10
 -12  -1   7   14.30    3.30
 -12  -1   7   10.90   10.70
 -12  -1   7   12.20    3.10
 -11  -1   7   25.60    8.90
 -11  -1   7   33.50   12.70
 -10  -1   7  420.80   26.20
 -10  -1   7  390.50   21.80
  -9  -1   7  104.00   16.10
  -9  -1   7  111.80   16.50
  -8  -1   7    0.30    7.80
  -8  -1   7    1.50    6.40
  -7  -1   7    0.00    6.80
  -7  -1   7    2.00    5.60
   6   1  -7    5.10    6.60
  -6  -1   7    8.60    7.30
  -6  -1   7   16.10    6.30
   5   1  -7  317.20   21.80
  -5  -1   7  293.00   20.20
  -5  -1   7  348.60   22.80
   4   1  -7   65.40    8.30
  -4  -1   7   66.50    8.20
  -4  -1   7   66.40   10.20
   3   1  -7   92.80    5.50
   3   1  -7   95.20    9.80
  -3  -1   7  107.70   11.40
  -3  -1   7   90.50   10.10
   2   1  -7  451.10   18.50
   2   1  -7  453.50   13.80
   2   1  -7  403.70   16.90
  -2  -1   7  437.10   18.20
  -2  -1   7  453.30   17.90
   1   1  -7  545.50   23.40
   1   1  -7  533.80   19.00
   1   1  -7  560.70   22.70
  -1  -1   7  555.30   21.10
  -1  -1   7  565.10   23.00
   0   1  -7  513.60   25.00
   0   1  -7  502.30   28.10
   0   1  -7  529.50   25.70
   0  -1   7  508.20   25.60
   0  -1   7  506.80   28.30
  -1   1  -7 1242.00   26.00
  -1   1  -7 1252.30   24.40
   1  -1   7 1290.90   23.30
   1  -1   7 1234.50   26.70
  -2   1  -7  230.40   15.60
  -2   1  -7  239.10   12.20
  -2   1  -7  217.50   14.30
   2  -1   7  244.50   12.80
   2  -1   7  266.10   17.80
  -3   1  -7  782.30   28.60
  -3   1  -7  734.90   36.20
  -3   1  -7  762.50   33.60
   3  -1   7  803.30   35.50
   3  -1   7  760.00   29.70
  -4   1  -7  175.60   13.10
  -4   1  -7  191.80   14.50
  -4   1  -7  175.50    8.30
   4  -1   7  163.20    9.40
   4  -1   7  189.40   14.10
  -5   1  -7  496.70   19.00
  -5   1  -7  474.10   11.90
   5  -1   7  459.50   19.40
  -6   1  -7   10.50    7.60
  -6   1  -7    2.10    7.60
  -6   1  -7    8.80    3.20
   6  -1   7   21.50    7.80
  -7   1  -7   98.20   12.60
  -7   1  -7   92.20   12.60
  -7   1  -7   98.80    6.30
   7  -1   7   86.40   12.70
  -8   1  -7  208.50   18.80
  -8   1  -7  215.00   18.40
  -8   1  -7  187.90    8.90
   8  -1   7  182.00   17.70
  -9   1  -7   15.00    4.60
  -9   1  -7   27.10   11.30
  -9   1  -7    9.10    3.80
  -9   1  -7   13.30   10.10
   9  -1   7   15.60    9.90
 -10   1  -7   25.40    4.10
 -10   1  -7   28.80    4.90
 -10   1  -7   26.20   11.80
 -10   1  -7   21.00   12.50
  10  -1   7   14.90   10.90
 -11   1  -7   74.10   14.50
 -11   1  -7   46.20    4.50
 -11   1  -7   56.40    5.60
 -11   1  -7   45.00   12.70
  11  -1   7   46.20   12.40
 -12   1  -7   19.00   11.30
 -12   1  -7    7.00   11.10
 -14   0   7   33.00    4.70
 -14   0   7   23.30   12.80
 -14   0   7   25.90    4.70
 -14   0   7   26.00   14.00
 -13   0   7    3.30    3.40
 -13   0   7    0.00    9.40
 -13   0   7   23.00   13.10
 -13   0   7    4.30    3.40
 -12   0   7  129.80    7.20
 -12   0   7  125.80    6.90
 -11   0   7    0.20    8.90
 -10   0   7  186.90   21.70
  -9   0   7   50.20   11.60
   8   0  -7   24.50    9.00
  -8   0   7   12.50    8.90
   7   0  -7   65.80   13.20
  -7   0   7   49.20   11.40
  -7   0   7   51.00   10.00
   6   0  -7   71.50    8.30
  -6   0   7   87.00    8.40
  -6   0   7   83.70    8.70
   5   0  -7  239.30   18.60
  -5   0   7  251.40   17.80
  -5   0   7  248.10   18.80
   4   0  -7   22.70    6.60
   4   0  -7   32.20    3.00
  -4   0   7   28.30    6.80
   3   0  -7  365.00   21.50
   3   0  -7  353.50   15.70
  -3   0   7  377.30   22.00
  -3   0   7  324.70   20.80
   2   0  -7  113.40   14.70
   2   0  -7  123.90   15.20
   2   0  -7  113.60   10.90
  -2   0   7  114.50   15.40
  -2   0   7  118.00   14.40
   1   0  -7  441.80   17.50
   1   0  -7  443.90   14.40
   1   0  -7  432.20   16.30
  -1   0   7  448.50   16.80
  -1   0   7  429.00   17.60
   0   0  -7  307.10    4.10
   0   0  -7  353.80    6.00
   0   0  -7  347.70    4.90
   0   0   7  361.10    5.50
   0   0   7  343.80    6.30
  -1   0  -7   63.70    7.10
  -1   0  -7   57.10    8.00
  -1   0  -7   59.80    6.20
   1   0   7   65.20    6.40
   1   0   7   65.20    8.20
  -2   0  -7  285.00   16.40
  -2   0  -7  294.00   14.90
  -2   0  -7  289.70   17.20
   2   0   7  286.60   15.40
   2   0   7  292.20   19.10
  -3   0  -7  821.50   28.30
  -3   0  -7  812.20   27.80
   3   0   7  831.90   25.90
   3   0   7  852.10   29.70
  -4   0  -7  287.80   10.40
  -4   0  -7  300.20   15.20
  -4   0  -7  272.60   14.60
   4   0   7  281.30   12.00
   4   0   7  266.10   15.40
  -5   0  -7  478.90   25.20
  -5   0  -7  507.90   24.20
  -5   0  -7  481.30   18.80
   5   0   7  462.50   25.30
  -6   0  -7   74.90   10.30
  -6   0  -7   61.40   11.20
  -6   0  -7   70.80    5.90
   6   0   7   73.50   10.30
  -7   0  -7   13.20    8.20
  -7   0  -7   18.30    7.90
   7   0   7    3.30    7.40
  -8   0  -7   76.40   13.10
  -8   0  -7   76.40   14.80
   8   0   7   65.90   13.10
  -9   0  -7    6.20    4.40
  -9   0  -7    4.60    8.70
  -9   0  -7   14.50   10.20
   9   0   7    2.60    8.40
 -10   0  -7   14.80    5.10
 -10   0  -7   18.90    6.20
 -10   0  -7   25.00   12.50
 -10   0  -7   19.40   10.40
  10   0   7   12.60   10.40
 -11   0  -7   79.50    9.10
 -11   0  -7   61.80    7.70
 -11   0  -7   82.70   14.50
 -11   0  -7   70.60   16.00
  11   0   7   63.90   14.00
 -12   0  -7   23.90   13.20
 -12   0  -7   14.80    5.70
 -12   0  -7   24.90   12.00
 -12   0  -7    6.50    4.60
 -14   1   7   32.90   13.60
 -14   1   7   28.00   14.20
 -14   1   7   41.10    5.20
 -13   1   7   12.20    4.60
 -13   1   7   24.90   12.70
 -13   1   7   41.20   14.70
 -13   1   7   23.70    4.70
 -12   1   7  123.60    7.30
 -12   1   7  137.60    7.80
 -11   1   7    3.90    3.20
 -11   1   7   12.20   10.60
 -11   1   7    1.20    3.20
 -10   1   7    0.20    2.60
 -10   1   7    0.20    2.30
 -10   1   7    0.20    9.30
   9  -1  -7   92.00   13.00
  -9   1   7   88.40   13.00
   8  -1  -7  148.70   15.00
  -8   1   7  175.90   17.20
   7  -1  -7    2.80    7.70
  -7   1   7    1.40    8.40
   6  -1  -7    5.80    8.70
  -6   1   7   13.10    9.70
   5  -1  -7  190.70   15.40
  -5   1   7  201.70    7.90
  -5   1   7  188.20   15.30
  -5   1   7  195.30   15.20
   4  -1  -7  752.10   19.10
   4  -1  -7  756.30   25.30
  -4   1   7  751.60   24.50
  -4   1   7  730.30   24.60
  -4   1   7  757.60   18.40
   3  -1  -7 1683.90   36.10
   3  -1  -7 1660.60   41.80
  -3   1   7 1696.90   41.50
  -3   1   7 1681.70   36.10
  -3   1   7 1657.10   41.20
   2  -1  -7   10.30    5.20
   2  -1  -7   10.50    3.40
  -2   1   7    5.50    5.10
  -2   1   7   13.60    5.40
  -2   1   7    9.20    3.50
   1  -1  -7   48.30    6.00
   1  -1  -7   37.30    5.50
   1  -1  -7   43.80    4.40
  -1   1   7   40.90    5.60
  -1   1   7   47.90    4.90
  -1   1   7   36.60    5.70
   0  -1  -7   27.10   10.80
   0  -1  -7   20.30    9.80
   0  -1  -7   28.20   11.20
   0   1   7   22.70   10.20
   0   1   7   33.60   12.80
   0   1   7   23.70   11.70
  -1  -1  -7  275.20   11.40
  -1  -1  -7  253.90   11.30
  -1  -1  -7  242.90   10.30
   1   1   7  259.20   12.20
   1   1   7  276.70   11.60
   1   1   7  258.00   10.80
  -2  -1  -7  280.50   12.50
  -2  -1  -7  285.10   14.70
  -2  -1  -7  265.70   13.80
   2   1   7  269.10   15.70
   2   1   7  265.30   14.10
   2   1   7  287.50   13.70
  -3  -1  -7  304.10   13.60
  -3  -1  -7  317.50   16.20
  -3  -1  -7  363.30   17.40
   3   1   7  320.70   15.50
   3   1   7  301.60   17.60
  -4  -1  -7  463.90   20.70
  -4  -1  -7  451.30   17.80
  -4  -1  -7  469.70   21.60
   4   1   7  430.90   22.40
   4   1   7  464.10   19.90
  -5  -1  -7  567.10   27.20
  -5  -1  -7  552.20   21.90
  -5  -1  -7  578.10   25.50
   5   1   7  558.10   27.30
  -6  -1  -7  151.60    9.40
  -6  -1  -7  140.80   12.50
  -6  -1  -7  151.40   14.40
   6   1   7  134.80   13.10
  -7  -1  -7   53.50    9.90
  -7  -1  -7   56.40    6.70
  -7  -1  -7   36.00   10.10
   7   1   7   42.60    9.00
  -8  -1  -7   30.20   11.60
  -8  -1  -7   35.00    9.40
  -8  -1  -7   25.70    6.50
   8   1   7   32.10    9.70
  -9  -1  -7  100.30    9.40
  -9  -1  -7   95.50   13.10
  -9  -1  -7  115.40   15.40
   9   1   7  107.30   13.90
 -10  -1  -7    2.40    7.90
 -10  -1  -7    2.60    5.50
 -10  -1  -7   11.90   11.90
  10   1   7    2.40    7.80
 -11  -1  -7    5.60    5.10
 -11  -1  -7   11.90   12.20
 -11  -1  -7    0.40    9.50
 -11  -1  -7    1.10    5.70
  11   1   7    5.40    8.60
 -12  -1  -7   54.90   14.60
 -12  -1  -7   40.10    7.80
 -12  -1  -7   34.60    6.30
 -12  -1  -7   37.80   11.60
 -13   2   7   54.30   14.30
 -13   2   7   34.90   13.90
 -13   2   7   42.50    5.90
 -12   2   7   54.20    6.20
 -12   2   7   60.30    7.70
 -11   2   7   54.20   12.40
 -11   2   7   46.70    5.10
 -11   2   7   51.30    5.40
 -10   2   7   19.70    3.90
 -10   2   7   17.30   10.50
 -10   2   7   17.60    4.10
   9  -2  -7   84.20   15.00
  -9   2   7  117.50    7.40
  -9   2   7   95.10   14.30
  -9   2   7   99.00    6.50
   8  -2  -7    0.00    7.40
  -8   2   7    1.30    7.20
  -8   2   7    0.00    2.70
   7  -2  -7   49.30    9.50
  -7   2   7   34.90    8.70
  -7   2   7   32.70    3.20
   6  -2  -7  397.20   20.90
  -6   2   7  425.80   12.40
  -6   2   7  425.60   20.60
   5  -2  -7  299.70   11.50
   5  -2  -7  282.40   16.80
  -5   2   7  306.70   10.40
  -5   2   7  302.50   17.00
   4  -2  -7  287.20   14.90
   4  -2  -7  295.40   11.10
  -4   2   7  288.70    9.70
  -4   2   7  279.50   14.10
  -4   2   7  299.90   15.70
   3  -2  -7  881.20   27.90
   3  -2  -7  870.30   22.90
  -3   2   7  860.00   22.60
  -3   2   7  850.90   26.90
   2  -2  -7   93.30    6.30
   2  -2  -7   81.30    4.40
  -2   2   7   89.60    4.70
  -2   2   7   88.30    7.10
  -2   2   7   85.00    6.80
   1  -2  -7    8.60    6.40
   1  -2  -7    6.70    8.00
  -1   2   7    7.10    6.30
  -1   2   7    7.40    7.70
  -1   2   7    8.50    7.70
   0  -2  -7   25.80    7.40
   0  -2  -7   25.40    6.70
   0  -2  -7   28.40    7.60
   0   2   7   17.40    7.20
   0   2   7   25.50    6.80
   0   2   7   22.40    7.90
  -1  -2  -7 4115.40  121.30
  -1  -2  -7 4114.70  121.20
  -1  -2  -7 4027.40  121.00
   1   2   7 4093.20  121.70
   1   2   7 4205.80  121.80
   1   2   7 4116.20  123.20
  -2  -2  -7 1829.60   56.50
  -2  -2  -7 1819.00   57.00
   2   2   7 1818.60   58.50
   2   2   7 1871.20   58.00
   2   2   7 1852.60   59.60
  -3  -2  -7   59.80    9.00
  -3  -2  -7   69.40    8.00
  -3  -2  -7   54.70    7.30
   3   2   7   49.90    8.50
   3   2   7   46.90    8.70
   3   2   7   39.60    8.20
  -4  -2  -7    7.90    5.60
  -4  -2  -7   12.20    6.10
  -4  -2  -7   12.20    4.70
   4   2   7   12.20    5.60
   4   2   7   12.20    6.20
   4   2   7   12.20    5.20
  -5  -2  -7   16.70    8.80
  -5  -2  -7   19.30    7.80
  -5  -2  -7   15.70    6.50
   5   2   7   12.10    8.30
   5   2   7   20.90    7.70
  -6  -2  -7   45.00    8.90
  -6  -2  -7   37.00    7.20
  -6  -2  -7   57.60   11.30
   6   2   7   35.40    9.60
  -7  -2  -7    0.30    6.70
  -7  -2  -7    0.30    8.90
  -7  -2  -7    1.10    5.70
   7   2   7    0.30    6.50
  -8  -2  -7   21.40    9.70
  -8  -2  -7   29.70    7.10
   8   2   7   19.60    8.30
  -9  -2  -7  211.70   15.40
  -9  -2  -7  202.50   12.40
   9   2   7  238.00   16.20
 -10  -2  -7   65.10   14.40
 -10  -2  -7   65.60   10.40
 -10  -2  -7   67.60    8.30
  10   2   7   62.20   10.70
 -11  -2  -7    7.80    6.10
 -11  -2  -7    3.60   10.60
 -11  -2  -7    2.60    8.50
 -12  -2  -7  110.80   11.30
 -12  -2  -7   83.80   11.80
 -12  -2  -7   90.80   16.20
 -12  -2  -7   85.40    9.30
 -13   3   7    0.10   11.50
 -13   3   7    0.10    5.00
 -13   3   7    2.90    4.90
 -13   3   7    0.10   11.30
 -12   3   7   23.20    5.40
 -12   3   7   10.00   12.70
 -12   3   7   28.20    5.90
 -12   3   7    7.60   11.90
 -11   3   7  247.80   12.50
 -11   3   7  241.80   20.60
 -10   3   7    8.80    4.90
 -10   3   7   29.00   10.50
 -10   3   7    8.60    4.40
   9  -3  -7  364.80   23.90
  -9   3   7  327.90   13.80
  -9   3   7  386.90   24.30
   8  -3  -7   47.10   10.80
  -8   3   7   45.10    4.80
  -8   3   7   32.90   10.60
   7  -3  -7    0.10    8.70
  -7   3   7    0.00    3.30
  -7   3   7    1.10    7.00
   6  -3  -7  382.80   19.50
  -6   3   7  397.60   19.00
  -6   3   7  397.80   12.30
   5  -3  -7  150.80   11.70
   5  -3  -7  171.50   15.80
  -5   3   7  155.60   15.10
  -5   3   7  167.30    9.70
   4  -3  -7    1.10    4.70
   4  -3  -7    9.80    7.10
  -4   3   7    2.80    3.70
  -4   3   7    2.50    6.50
   3  -3  -7   45.10    6.00
   3  -3  -7   58.10    4.80
  -3   3   7   52.60    3.90
  -3   3   7   43.70    6.40
  -3   3   7   42.60    6.00
   2  -3  -7  701.70   25.60
   2  -3  -7  710.90   29.10
  -2   3   7  717.00   28.60
  -2   3   7  737.00   25.80
   1  -3  -7    6.60    4.20
   1  -3  -7    6.60    5.20
  -1   3   7    3.90    5.60
  -1   3   7    4.40    4.20
  -1   3   7    4.00    5.40
   0  -3  -7  457.40   15.90
   0  -3  -7  437.20   16.90
   0   3   7  452.70   17.30
   0   3   7  442.80   16.00
   0   3   7  455.80   17.40
  -1  -3  -7 1622.90   51.00
  -1  -3  -7 1673.70   50.90
   1   3   7 1586.70   51.80
   1   3   7 1734.70   52.30
   1   3   7 1620.70   51.30
  -2  -3  -7  639.10   23.70
  -2  -3  -7  589.70   24.00
  -2  -3  -7  630.70   22.80
   2   3   7  621.30   24.90
   2   3   7  595.70   24.70
   2   3   7  618.70   24.90
  -3  -3  -7   20.50    5.90
  -3  -3  -7   15.30    6.40
  -3  -3  -7   22.80    6.30
   3   3   7   26.00    6.80
   3   3   7   22.70    7.30
   3   3   7   36.20    7.60
  -4  -3  -7   43.90    9.70
  -4  -3  -7   39.30    9.20
  -4  -3  -7   28.90   10.10
   4   3   7   37.50   11.50
   4   3   7   43.80   11.80
   4   3   7   45.10   12.20
  -5  -3  -7  372.40   19.70
  -5  -3  -7  359.80   22.20
  -5  -3  -7  355.50   18.80
   5   3   7  384.30   24.00
   5   3   7  358.60   21.60
   5   3   7  327.00   21.50
  -6  -3  -7  226.20   17.10
  -6  -3  -7  235.50   13.90
  -6  -3  -7  234.20   14.40
   6   3   7  248.00   19.10
   6   3   7  218.90   16.00
  -7  -3  -7   12.70    6.20
  -7  -3  -7   21.10    9.30
  -7  -3  -7   15.50    6.90
   7   3   7   21.60    8.20
  -8  -3  -7   11.30   10.30
  -8  -3  -7    6.20    6.80
  -8  -3  -7   13.40    7.30
   8   3   7    2.40    7.10
  -9  -3  -7   50.20   12.20
  -9  -3  -7   37.30    8.20
  -9  -3  -7   55.00    9.40
   9   3   7   51.90    9.80
 -10  -3  -7    9.30    7.20
 -10  -3  -7   12.60   11.90
 -10  -3  -7    5.30   10.90
  10   3   7   11.70    7.70
 -11  -3  -7    0.00   11.10
 -11  -3  -7    4.40    7.40
 -11  -3  -7   10.40    6.70
 -13   4   7    0.10    9.90
 -13   4   7    5.60    6.20
 -13   4   7    0.10   11.80
 -13   4   7    1.70    5.10
 -12   4   7   54.40    7.80
 -12   4   7   60.90    7.90
 -12   4   7   65.90   13.80
 -12   4   7   60.70   15.00
 -11   4   7  143.10   13.70
 -11   4   7  157.70   18.00
 -10   4   7    3.40    4.30
 -10   4   7    4.00   10.10
   9  -4  -7    1.10    9.60
  -9   4   7   28.50    5.10
  -9   4   7   30.70   10.60
   8  -4  -7    0.60    9.10
  -8   4   7    0.80    4.20
  -8   4   7    5.20    8.50
   7  -4  -7    3.10    7.50
  -7   4   7    2.20    7.80
  -7   4   7    0.10    3.90
   6  -4  -7  109.10   11.60
   6  -4  -7  108.90   14.90
  -6   4   7  122.00    9.20
  -6   4   7  116.20   15.80
   5  -4  -7   19.40    8.70
   5  -4  -7   23.60    7.40
  -5   4   7   27.00    9.50
  -5   4   7   22.80    5.30
   4  -4  -7   11.40    7.60
   4  -4  -7   12.10    6.30
  -4   4   7    0.30    6.50
  -4   4   7    7.40    4.70
   3  -4  -7  832.80   30.90
   3  -4  -7  763.40   34.10
  -3   4   7  799.90   33.80
  -3   4   7  749.20   31.60
   2  -4  -7 1541.00   56.70
   2  -4  -7 1481.60   60.40
  -2   4   7 1508.10   56.40
  -2   4   7 1550.20   59.80
  -2   4   7 1551.10   59.30
   1  -4  -7 1394.70   46.50
   1  -4  -7 1447.10   43.90
  -1   4   7 1432.40   46.30
  -1   4   7 1421.70   44.20
  -1   4   7 1429.30   46.00
   0  -4  -7 1232.40   33.90
   0  -4  -7 1217.90   35.30
   0   4   7 1228.00   35.20
   0   4   7 1240.00   36.00
   0   4   7 1173.90   33.80
  -1  -4  -7   16.60    6.40
  -1  -4  -7   18.30    7.70
   1   4   7   13.80    6.60
   1   4   7    9.40    5.70
  -2  -4  -7  253.80   16.40
  -2  -4  -7  246.80   16.70
   2   4   7  287.60   17.60
   2   4   7  262.40   17.20
  -3  -4  -7  589.50   23.80
  -3  -4  -7  546.40   25.50
  -3  -4  -7  567.60   26.30
   3   4   7  573.80   27.30
   3   4   7  567.40   27.80
   3   4   7  615.90   31.60
  -4  -4  -7  289.30   18.20
  -4  -4  -7  262.30   13.80
  -4  -4  -7  280.10   15.90
   4   4   7  260.70   18.50
   4   4   7  265.50   17.10
   4   4   7  273.20   18.50
  -5  -4  -7  148.60   13.00
  -5  -4  -7  176.30   10.80
  -5  -4  -7  172.70   12.20
   5   4   7  167.20   14.10
   5   4   7  154.00   13.80
   5   4   7  160.90   13.10
  -6  -4  -7  193.20   14.00
  -6  -4  -7  197.80   16.60
  -6  -4  -7  197.50   12.30
   6   4   7  198.30   15.10
   6   4   7  183.50   18.30
  -7  -4  -7   81.10   10.00
  -7  -4  -7   90.70   12.00
  -7  -4  -7   81.10   14.10
   7   4   7   96.10   12.40
  -8  -4  -7  227.10   15.60
  -8  -4  -7  212.40   13.20
  -8  -4  -7  216.20   18.40
   8   4   7  208.20   14.80
  -9  -4  -7    9.20    7.10
  -9  -4  -7    5.20    5.90
  -9  -4  -7    9.10    9.80
   9   4   7    2.30    5.50
 -10  -4  -7   11.60   10.80
 -10  -4  -7    3.00    6.80
 -10  -4  -7   10.00    6.40
 -11  -4  -7    9.70    6.50
 -11  -4  -7    0.60   10.10
 -11  -4  -7    9.00    7.70
 -13   5   7    3.70   12.00
 -13   5   7    8.60    6.50
 -13   5   7   21.80   13.30
 -13   5   7    0.20    5.40
 -12   5   7   41.40   15.70
 -12   5   7   81.40   15.20
 -12   5   7   66.50    8.00
 -11   5   7   34.40    6.40
 -11   5   7   39.00   12.20
 -10   5   7   32.20   10.80
 -10   5   7   20.90    5.50
  -9   5   7    8.20    5.30
  -9   5   7    2.90    8.60
   8  -5  -7   22.20   10.70
  -8   5   7   18.00    6.40
  -8   5   7   20.20   10.00
   7  -5  -7    0.60    9.00
  -7   5   7    7.90    5.80
  -7   5   7    6.40    8.10
   6  -5  -7   11.10    6.80
  -6   5   7   10.20    8.20
  -6   5   7    0.90    4.90
   5  -5  -7  263.10   19.90
   5  -5  -7  300.10   18.50
  -5   5   7  271.40   14.50
  -5   5   7  281.80   20.20
   4  -5  -7  592.10   27.40
   4  -5  -7  602.80   30.30
  -4   5   7  618.80   24.80
  -4   5   7  627.10   29.20
   3  -5  -7  119.40   12.80
   3  -5  -7  145.70   14.90
  -3   5   7  135.60   14.30
  -3   5   7  139.00   11.30
   2  -5  -7  103.30   11.50
   2  -5  -7  112.10   14.30
  -2   5   7  113.90   11.70
  -2   5   7  101.70   13.70
  -2   5   7  103.10   13.60
   1  -5  -7  513.20   21.90
   1  -5  -7  508.40   18.90
  -1   5   7  494.30   21.60
  -1   5   7  537.60   20.70
  -1   5   7  517.90   19.00
   0  -5  -7  409.70   22.30
   0  -5  -7  403.90   24.10
   0   5   7  396.20   24.20
   0   5   7  408.50   23.30
   0   5   7  416.70   22.90
  -1  -5  -7   42.80    9.40
  -1  -5  -7   41.90    9.40
   1   5   7   40.60    8.90
   1   5   7   38.30   10.50
   1   5   7   39.30    9.10
  -2  -5  -7  621.10   25.80
  -2  -5  -7  605.10   25.50
   2   5   7  607.90   25.70
   2   5   7  598.40   27.00
   2   5   7  567.00   25.70
  -3  -5  -7  466.80   19.60
  -3  -5  -7  494.90   19.70
   3   5   7  503.40   20.20
   3   5   7  484.70   20.50
   3   5   7  470.20   21.80
  -4  -5  -7  359.60   22.20
  -4  -5  -7  373.40   21.60
   4   5   7  361.00   24.10
   4   5   7  345.10   23.80
  -5  -5  -7   17.50    8.60
  -5  -5  -7   30.60    8.40
   5   5   7   30.60    9.50
   5   5   7   44.50   10.50
   5   5   7   32.70    8.40
  -6  -5  -7   38.90   10.10
  -6  -5  -7   40.80    8.80
  -6  -5  -7   32.40    5.80
   6   5   7   21.40    7.20
  -7  -5  -7   58.70    6.90
  -7  -5  -7   70.60   12.40
  -7  -5  -7   67.10   10.40
   7   5   7   64.80    8.90
  -8  -5  -7  377.90   21.50
  -8  -5  -7  385.00   17.20
  -8  -5  -7  458.80   27.20
   8   5   7  395.70   19.20
  -9  -5  -7   14.40    5.20
  -9  -5  -7   15.00   10.00
  -9  -5  -7   17.10    8.40
   9   5   7   10.40    5.60
 -10  -5  -7    5.00    4.60
 -10  -5  -7    1.70    7.60
 -10  -5  -7    5.40   10.10
 -11  -5  -7    8.20    4.60
 -11  -5  -7    0.70   10.30
 -11  -5  -7   14.00    8.70
 -13   6   7   17.60    6.80
 -13   6   7   30.10   11.50
 -13   6   7   37.30   15.00
 -12   6   7    3.40   12.50
 -12   6   7    2.10    5.20
 -12   6   7   17.30   12.50
 -11   6   7    0.00    5.40
 -11   6   7    0.00   11.30
 -10   6   7   41.50   12.70
 -10   6   7   60.60    8.30
  -9   6   7   16.50   11.60
  -9   6   7    7.70    6.30
   8  -6  -7   36.50   12.70
  -8   6   7   58.80    7.30
  -8   6   7   46.90   10.50
   7  -6  -7    0.20    8.30
  -7   6   7    0.20    4.80
  -7   6   7    0.20    7.90
   6  -6  -7   12.10    8.90
   6  -6  -7    9.90    9.20
  -6   6   7    9.60    9.80
  -6   6   7   14.20    6.40
   5  -6  -7  627.40   28.10
   5  -6  -7  584.20   31.20
  -5   6   7  592.20   23.80
  -5   6   7  642.00   29.50
   4  -6  -7 1594.00   51.70
   4  -6  -7 1683.20   49.20
  -4   6   7 1627.60   45.80
  -4   6   7 1612.30   49.70
   3  -6  -7   40.50   10.00
   3  -6  -7   55.50    9.50
  -3   6   7   55.00    8.50
  -3   6   7   33.70    9.30
   2  -6  -7  856.10   35.10
   2  -6  -7  898.60   38.40
  -2   6   7  857.60   36.60
  -2   6   7  842.80   33.90
   1  -6  -7   65.50    9.70
   1  -6  -7   53.70   10.50
  -1   6   7   63.60   10.20
  -1   6   7   48.50   10.30
  -1   6   7   51.10    8.60
   0  -6  -7  619.50   27.70
   0  -6  -7  636.50   29.70
   0   6   7  578.80   27.00
   0   6   7  628.30   29.40
   0   6   7  631.20   28.10
  -1  -6  -7  191.90   16.80
  -1  -6  -7  207.00   16.90
   1   6   7  206.30   18.90
   1   6   7  192.90   16.20
   1   6   7  182.20   16.30
  -2  -6  -7  131.20   10.40
  -2  -6  -7  117.20   11.00
   2   6   7  140.50   10.30
   2   6   7  117.30   12.40
   2   6   7  126.40   11.10
  -3  -6  -7  393.90   22.00
  -3  -6  -7  428.50   22.90
   3   6   7  439.00   25.10
   3   6   7  383.10   21.20
   3   6   7  404.50   22.70
  -4  -6  -7  487.90   23.50
  -4  -6  -7  496.60   23.80
   4   6   7  491.70   25.50
   4   6   7  402.70   24.10
   4   6   7  508.20   26.80
  -5  -6  -7   77.20   11.90
  -5  -6  -7   43.50   10.30
   5   6   7   31.70    8.80
   5   6   7   58.10   12.50
  -6  -6  -7   33.00   10.50
   6   6   7   18.20    6.80
  -7  -6  -7    0.00    8.80
  -7  -6  -7   10.30    7.80
  -8  -6  -7  119.80   13.60
  -8  -6  -7  117.10   15.50
   8   6   7  101.40    9.10
  -9  -6  -7  199.00   16.80
  -9  -6  -7  180.00   19.70
 -10  -6  -7   71.70   14.40
 -12   7   7   48.60   12.90
 -12   7   7   14.30   15.70
 -12   7   7   40.50    8.50
 -11   7   7    6.10    6.40
 -11   7   7    0.40   10.40
 -11   7   7    8.80   10.40
 -10   7   7   18.60   11.50
 -10   7   7   26.20    7.50
 -10   7   7   30.90   15.00
  -9   7   7   25.10    7.50
  -9   7   7   17.80   10.50
  -8   7   7   17.00    6.40
  -8   7   7   19.30   10.00
   7  -7  -7  230.90   23.80
   7  -7  -7  234.30   18.90
  -7   7   7  246.90   19.20
  -7   7   7  225.30   14.50
   6  -7  -7  114.30   14.90
   6  -7  -7  111.50   13.20
  -6   7   7  118.20   10.80
  -6   7   7  111.30   13.50
   5  -7  -7  260.40   17.70
   5  -7  -7  214.10   16.80
  -5   7   7  253.40   13.10
  -5   7   7  272.10   17.10
   4  -7  -7  105.50   13.70
   4  -7  -7  107.20   12.20
  -4   7   7  100.70   10.10
  -4   7   7  116.10   12.80
   3  -7  -7    1.60    8.10
   3  -7  -7    4.20    7.50
  -3   7   7    4.10    5.80
  -3   7   7    7.00    8.00
   2  -7  -7  239.80   18.90
   2  -7  -7  272.90   16.20
  -2   7   7  236.70   16.20
  -2   7   7  265.10   14.80
   1  -7  -7  157.30   13.10
   1  -7  -7  172.90   14.30
  -1   7   7  155.70   13.00
  -1   7   7  157.00   12.90
  -1   7   7  149.10   13.50
   0  -7  -7 1793.80   55.40
   0  -7  -7 1745.20   57.50
   0   7   7 1790.80   55.30
   0   7   7 1808.50   56.10
   0   7   7 1826.30   58.10
  -1  -7  -7  358.60   18.90
  -1  -7  -7  343.80   19.60
   1   7   7  363.30   19.20
   1   7   7  364.00   22.00
   1   7   7  355.30   18.20
  -2  -7  -7   81.80   11.00
  -2  -7  -7   63.60    9.50
   2   7   7   78.50   10.70
   2   7   7   75.40   12.00
   2   7   7   74.30    8.80
  -3  -7  -7   71.10   10.20
   3   7   7   56.20    7.90
   3   7   7   62.90   10.90
   3   7   7   60.90   10.00
  -4  -7  -7  135.40   15.80
  -4  -7  -7  150.60   15.70
   4   7   7  131.70   17.30
   4   7   7  107.60   13.80
  -5  -7  -7    4.80    7.90
  -5  -7  -7    0.10    6.90
   5   7   7    0.10    5.10
  -6  -7  -7  143.80   15.80
  -6  -7  -7  132.90   14.80
   6   7   7  127.40   16.10
  -7  -7  -7   75.10   12.10
  -7  -7  -7   87.50   13.40
   7   7   7   80.60    7.50
  -8  -7  -7  101.40   15.10
  -9  -7  -7   98.30   16.00
 -10  -7  -7   76.30   15.70
 -12   8   7   55.20   14.60
 -12   8   7   62.60   10.20
 -12   8   7   63.90   17.00
 -11   8   7   10.70   14.40
 -11   8   7    0.60   10.90
 -11   8   7    3.90    7.00
 -10   8   7   19.70   10.10
 -10   8   7    9.50   12.80
 -10   8   7    7.90    6.70
  -9   8   7   19.10   10.20
  -9   8   7   11.80    6.90
  -8   8   7   64.20   13.30
  -8   8   7   61.10    9.20
   7  -8  -7  292.30   20.80
  -7   8   7  308.20   21.00
  -7   8   7  290.60   16.10
   6  -8  -7  399.80   25.00
  -6   8   7  376.90   23.40
  -6   8   7  351.50   19.00
   5  -8  -7   31.90   10.90
   5  -8  -7   29.20   10.60
  -5   8   7   27.20    7.60
  -5   8   7   35.20   10.40
   4  -8  -7  413.60   22.00
   4  -8  -7  386.50   22.90
  -4   8   7  426.40   19.00
  -4   8   7  429.30   21.90
   3  -8  -7  178.90   17.90
   3  -8  -7  221.20   18.00
  -3   8   7  220.10   19.20
  -3   8   7  217.80   15.50
   2  -8  -7  186.00   17.00
   2  -8  -7  186.90   17.30
  -2   8   7  186.40   15.20
  -2   8   7  165.80   16.70
   1  -8  -7    0.00    6.40
   1  -8  -7    0.00    7.10
  -1   8   7   11.70    9.10
  -1   8   7    0.00    6.70
  -1   8   7   10.90    7.20
   0  -8  -7  675.50   33.50
   0  -8  -7  675.10   31.90
   0   8   7  745.20   34.60
   0   8   7  679.50   35.70
   0   8   7  703.30   30.50
  -1  -8  -7   12.20    7.80
  -1  -8  -7   18.90    8.60
   1   8   7   12.90    7.70
   1   8   7   21.00    7.70
   1   8   7    5.60    9.10
  -2  -8  -7   60.70   12.10
  -2  -8  -7   48.20   11.60
   2   8   7   64.40   10.90
   2   8   7   64.60   13.00
   2   8   7   52.50   13.40
  -3  -8  -7  547.40   27.00
  -3  -8  -7  595.10   28.30
   3   8   7  610.30   30.60
   3   8   7  575.10   25.50
  -4  -8  -7   68.30   10.50
  -4  -8  -7   54.80    9.50
   4   8   7   38.00    7.30
   4   8   7   65.10   12.60
  -5  -8  -7    6.20    9.20
  -5  -8  -7    1.50    7.60
   5   8   7    0.10    9.00
  -6  -8  -7   37.90   10.60
   6   8   7   30.40    6.10
  -7  -8  -7  264.30   21.20
  -8  -8  -7   69.30   13.40
  -9  -8  -7    3.20   10.60
 -11   9   7   65.10    9.50
 -11   9   7   76.10   16.50
 -11   9   7   53.00   12.30
 -10   9   7   19.60   12.00
 -10   9   7   15.00   13.80
 -10   9   7   12.00    8.50
  -9   9   7    0.00   11.10
  -9   9   7    0.00    6.50
  -9   9   7    0.00   10.50
  -8   9   7   64.10    9.70
  -8   9   7   38.60   10.90
   7  -9  -7  111.70   16.60
  -7   9   7  144.50   16.40
  -7   9   7  125.90   12.40
   6  -9  -7  111.30   15.60
  -6   9   7   94.80   13.50
  -6   9   7   81.10   10.40
   5  -9  -7    2.60    9.60
  -5   9   7    5.40    9.50
  -5   9   7    5.00    7.60
   4  -9  -7  590.80   30.00
  -4   9   7  592.30   26.20
  -4   9   7  619.90   29.50
   3  -9  -7  176.20   17.00
  -3   9   7  150.60   15.50
  -3   9   7  144.90   19.80
   2  -9  -7  650.50   28.90
   2  -9  -7  616.60   30.40
  -2   9   7  672.50   26.90
   1  -9  -7   95.20   11.90
   1  -9  -7   76.80   12.20
  -1   9   7   62.10    9.40
  -1   9   7   68.10   11.20
   0  -9  -7   54.50   10.80
   0  -9  -7   54.70   10.80
   0   9   7   45.00   11.30
   0   9   7   67.90   10.10
   0   9   7   63.90   11.50
  -1  -9  -7  323.50   22.80
  -1  -9  -7  327.70   21.60
   1   9   7  337.60   23.70
   1   9   7  347.00   19.80
   1   9   7  339.60   22.00
  -2  -9  -7   11.50    9.90
   2   9   7    8.40   11.50
   2   9   7   19.60    8.40
  -3  -9  -7   13.80    9.00
   3   9   7    0.30    9.50
  -4  -9  -7   67.70   13.10
   4   9   7   44.70   13.40
   4   9   7   29.70    7.70
  -5  -9  -7    2.90    9.80
  -6  -9  -7    7.60    9.10
   6   9   7    0.00    2.90
  -7  -9  -7  447.10   25.40
  -8  -9  -7  120.70   16.90
  -9  -9  -7   34.10   13.50
 -11  10   7   76.90   14.80
 -11  10   7   81.10   11.60
 -11  10   7   86.50   20.50
 -10  10   7   41.60   12.90
 -10  10   7   47.90    9.30
 -10  10   7   47.10   15.10
  -9  10   7   61.10   15.40
  -9  10   7   48.50    9.50
  -9  10   7   76.60   14.90
  -8  10   7   40.50   12.40
  -8  10   7   29.80    9.30
  -8  10   7   27.30   15.10
   7 -10  -7    3.10   11.20
  -7  10   7   12.50   11.40
  -7  10   7    6.00   12.20
  -7  10   7    0.00    7.50
   6 -10  -7  190.70   20.80
  -6  10   7  182.10   18.40
  -6  10   7  147.50   14.80
   5 -10  -7   59.20   13.00
  -5  10   7   60.80   10.20
  -5  10   7   55.70   11.50
   4 -10  -7   87.50   14.30
  -4  10   7   87.40   13.90
  -4  10   7   87.90   12.00
   3 -10  -7   10.30   10.40
  -3  10   7    0.00    6.20
  -3  10   7    0.00    8.30
   2 -10  -7  376.10   23.60
  -2  10   7  368.00   20.70
  -2  10   7  357.40   22.70
   1 -10  -7    7.90    8.60
  -1  10   7    3.80    9.30
  -1  10   7    7.90    6.90
   0 -10  -7   18.60    9.10
   0  10   7    0.50    6.40
   0  10   7    1.30    9.40
  -1 -10  -7   63.30   11.70
   1  10   7   68.10   13.10
   1  10   7   69.00    9.70
  -2 -10  -7  129.50   16.40
   2  10   7  135.10   17.50
   2  10   7  143.00   13.50
  -3 -10  -7   22.00   10.50
   3  10   7   40.50    8.90
   3  10   7   27.50   12.20
  -4 -10  -7  180.40   18.20
   4  10   7  162.80   19.20
  -5 -10  -7  136.60   15.40
   5  10   7  154.10    8.70
  -6 -10  -7   13.00   11.00
  -7 -10  -7   78.50   14.50
  -8 -10  -7    0.80    8.80
 -10  11   7   12.10   12.10
 -10  11   7    0.00   12.10
  -9  11   7    0.30   12.00
  -9  11   7    0.30    8.90
  -8  11   7    9.90   11.30
  -8  11   7    0.30   11.30
   7 -11  -7   11.30   13.00
  -7  11   7   14.10   10.20
  -7  11   7   15.10   11.30
   6 -11  -7  407.70   28.50
  -6  11   7  418.50   26.90
  -6  11   7  414.50   28.20
   5 -11  -7   32.80   11.50
  -5  11   7   54.80   12.90
   4 -11  -7    0.00    8.80
  -4  11   7    0.00    8.10
   3 -11  -7   68.00   13.60
  -3  11   7   88.10   14.70
   2 -11  -7   26.50   10.20
  -2  11   7   42.40   11.90
   1 -11  -7  139.80   16.30
  -1  11   7  146.20   17.10
   0 -11  -7  239.60   19.20
   0  11   7  273.10   17.60
   0  11   7  219.80   19.80
  -1 -11  -7   76.60   13.40
   1  11   7   99.20   11.80
   1  11   7  100.10   15.70
  -2 -11  -7  109.30   19.10
   2  11   7   98.50   12.20
  -3 -11  -7    7.00    9.30
   3  11   7   22.20    6.90
   3  11   7    0.20   10.50
   3  11   7    1.30    5.80
  -4 -11  -7    0.10    9.80
   4  11   7    0.10    5.10
   4  11   7    8.50   10.30
   4  11   7    6.80    5.10
  -5 -11  -7   90.90   16.40
   5  11   7   87.30    7.40
  -6 -11  -7    0.20    8.80
  -7 -11  -7    5.20   10.40
  -9  12   7   54.50   14.50
  -9  12   7   42.60   15.50
  -8  12   7   77.60   15.90
  -8  12   7   67.70   13.40
   7 -12  -7    5.20   13.80
  -7  12   7    0.00   10.80
  -7  12   7   20.00   11.30
   6 -12  -7  136.70   20.40
  -6  12   7  157.80   19.70
  -6  12   7  196.10   22.30
   5 -12  -7    0.00   11.40
  -5  12   7   14.70   10.60
   4 -12  -7    8.60   12.20
  -4  12   7    0.40   10.10
  -4  12   7    0.90   10.10
   3 -12  -7   41.70   13.90
  -3  12   7   58.00   12.60
  -3  12   7   53.80   13.80
   2 -12  -7   18.50   11.10
  -2  12   7    1.20    7.20
  -2  12   7    1.20    9.90
   1 -12  -7  598.30   32.80
  -1  12   7  632.10   33.20
  -1  12   7  596.50   30.10
   0 -12  -7    2.00   11.50
   0  12   7    7.50    7.80
   0  12   7   16.00   11.20
   0  12   7    9.50    7.60
  -1 -12  -7  129.40   17.20
   1  12   7  151.20   14.20
   1  12   7  138.50   19.10
   1  12   7  143.40   15.30
  -2 -12  -7  136.90   17.40
   2  12   7  141.00   19.00
   2  12   7  166.50   13.60
   2  12   7  195.90   14.50
  -3 -12  -7    1.60   10.30
   3  12   7    0.00   11.50
   3  12   7    0.00    5.60
  -4 -12  -7   10.90   10.60
   4  12   7    0.00    4.60
   4  12   7    0.00    4.90
  -5 -12  -7   20.10   11.70
  -6 -12  -7   52.30   15.70
  -8  13   7  195.30   20.80
  -8  13   7  177.40   24.20
   7 -13  -7   25.10   15.90
  -7  13   7   48.30   14.00
  -7  13   7   31.60   13.70
   6 -13  -7    1.90   13.10
  -6  13   7    1.90    9.60
  -6  13   7   19.20   12.30
   5 -13  -7  113.50   20.40
  -5  13   7  138.00   19.30
  -5  13   7  149.30   20.00
   4 -13  -7   28.00   13.70
  -4  13   7   52.20   13.50
  -4  13   7   36.00   12.60
   3 -13  -7   14.90   13.30
  -3  13   7    6.10   11.60
  -3  13   7    9.00   11.50
   2 -13  -7   99.30   17.80
  -2  13   7   63.90   13.30
  -2  13   7  100.10   17.30
   1 -13  -7  162.80   19.60
  -1  13   7  197.10   17.00
  -1  13   7  205.30   22.10
   0 -13  -7   16.50   13.00
   0  13   7   13.60    9.10
   0  13   7    4.00   10.70
   0  13   7   10.60    8.90
  -1 -13  -7   26.90   11.70
   1  13   7   48.60    9.40
   1  13   7   53.20   14.40
   1  13   7   22.20    8.60
  -2 -13  -7   18.10   13.30
   2  13   7    6.00    6.60
   2  13   7    5.20   11.80
   2  13   7    2.00    6.90
  -3 -13  -7    4.90   10.70
   3  13   7    0.10    5.30
   3  13   7   15.20   12.20
  -4 -13  -7    6.30   11.10
   4  13   7    0.20    4.80
  -5 -13  -7    0.00   10.90
   7 -14  -7    0.70   13.80
  -7  14   7    7.20   14.30
  -7  14   7   10.40   13.50
   6 -14  -7    1.30   13.50
  -6  14   7    0.10   12.30
  -6  14   7    0.90   10.30
   5 -14  -7  200.70   24.00
  -5  14   7  164.20   21.40
  -5  14   7  149.00   20.70
   4 -14  -7   43.90   16.60
  -4  14   7   50.70   14.10
  -4  14   7   27.70   12.70
   3 -14  -7  385.70   29.30
  -3  14   7  373.20   26.90
  -3  14   7  433.80   29.30
   2 -14  -7    5.00   12.50
  -2  14   7    0.30   10.10
  -2  14   7    0.30    8.80
   1 -14  -7    6.70   11.50
  -1  14   7    0.10   11.80
  -1  14   7   11.10    9.80
   0 -14  -7   77.40   16.40
   0  14   7   75.70   16.30
   0  14   7   67.40   12.60
   0  14   7   68.90   11.70
  -1 -14  -7   41.30   14.00
   1  14   7   38.50    9.70
   1  14   7   51.70   10.40
   1  14   7   45.00   14.60
  -2 -14  -7    6.70   11.60
   2  14   7   16.70    7.90
   2  14   7   10.00   13.10
   2  14   7   14.40    7.50
  -3 -14  -7   24.70   14.00
   3  14   7    1.80    6.90
   3  14   7   11.40    6.50
  -4 -14  -7   26.30   14.20
   4  14   7    1.30    4.60
   5 -15  -7  110.00   19.40
  -5  15   7   85.30   17.50
  -5  15   7  108.10   18.80
   4 -15  -7    0.20   12.90
  -4  15   7    0.20    9.60
  -4  15   7    0.20   11.90
   3 -15  -7   81.70   18.00
  -3  15   7   87.10   16.30
  -3  15   7  106.50   16.60
   2 -15  -7    4.90   13.60
  -2  15   7    4.00   10.80
  -2  15   7    9.50   10.10
   1 -15  -7    0.50   13.20
  -1  15   7    0.50    7.80
  -1  15   7    0.50   10.60
   0 -15  -7   75.80   15.70
   0  15   7   69.40   12.00
   0  15   7   57.10   11.00
   0  15   7   76.50   16.20
  -1 -15  -7    9.90   13.40
   1  15   7    5.70    8.50
   1  15   7   15.50   13.10
   1  15   7    0.40    7.40
  -2 -15  -7   16.70   12.90
   2  15   7   11.60   13.10
   2  15   7   27.90    9.40
   1  18  -8   35.90   14.50
   0  18  -8   87.60   18.10
  -1  18  -8    2.80   12.30
   4  17  -8    0.40    9.20
  -4 -17   8   19.50    8.90
  -4 -17   8   22.20   13.50
   3  17  -8    0.00   10.70
  -3 -17   8    5.10   12.50
   2  17  -8  122.40   18.00
   1  17  -8   61.20   16.50
   0  17  -8   34.20   15.40
  -1  17  -8   17.80   14.70
  -2  17  -8   76.60   18.00
  -3  17  -8   65.00   19.10
  -4  17  -8  241.50   28.70
  -6 -16   8    4.00    7.40
  -6 -16   8    0.00   11.30
  -5 -16   8   15.50   12.00
   4  16  -8    2.80   11.40
  -4 -16   8   62.70   15.10
  -4 -16   8   44.40   10.50
   3  16  -8    0.50    8.90
  -3 -16   8    3.40   11.40
  -3 -16   8    1.40    8.50
   2  16  -8  282.30   26.70
   1  16  -8    1.10   11.00
   0  16  -8   57.00   16.50
  -1  16  -8    0.70   15.20
  -2  16  -8   65.80   18.20
  -3  16  -8  175.10   23.10
   3 -16   8  158.20   16.00
  -4  16  -8  253.70   27.70
   4 -16   8  239.40   19.00
  -5  16  -8    0.00   13.20
  -6  16  -8  136.90   25.20
  -7 -15   8   18.10    7.50
  -6 -15   8  160.70   13.90
  -6 -15   8  164.20   18.90
  -5 -15   8    0.60   10.80
  -5 -15   8    1.90    7.20
   4  15  -8    2.80    9.20
  -4 -15   8   26.10   11.40
  -4 -15   8   30.50    8.40
   3  15  -8    0.90   11.10
  -3 -15   8    1.30   11.70
  -3 -15   8    0.30    7.90
   2  15  -8  199.70   24.00
  -2 -15   8  178.60   18.40
   1  15  -8  200.30   24.00
   0  15  -8   99.60   19.20
  -1  15  -8    0.00   10.40
   2 -15   8   45.30    9.70
  -3  15  -8   55.90   17.20
   3 -15   8   54.60   10.60
  -4  15  -8   11.70   15.30
   4 -15   8   15.90    8.30
  -5  15  -8   52.80   15.70
   5 -15   8    4.10    7.50
  -6  15  -8  114.10   23.30
  -7  15  -8   84.40   19.30
  -8 -14   8   29.90    7.00
  -8 -14   8   51.90   11.70
  -7 -14   8    1.00   10.70
  -7 -14   8    8.90    6.30
  -6 -14   8  310.20   23.90
  -6 -14   8  311.60   18.80
   5  14  -8    0.30    6.60
  -5 -14   8    0.20    6.90
  -5 -14   8    0.30   10.30
   4  14  -8   29.40   12.60
  -4 -14   8   39.50   13.40
  -4 -14   8   38.00    9.80
   3  14  -8   12.80   11.60
  -3 -14   8    4.20   11.50
  -3 -14   8   10.60    9.00
   2  14  -8  247.50   22.30
  -2 -14   8  236.70   17.80
   1  14  -8  189.70   22.10
  -1 -14   8  190.10   18.10
   0  14  -8   50.40   15.00
   0 -14   8   78.20   11.40
  -1  14  -8   13.80   14.70
   1 -14   8   27.70    9.70
  -2  14  -8  255.30   27.60
   3 -14   8    6.90    7.50
  -4  14  -8  791.60   39.40
   4 -14   8  629.80   28.30
  -5  14  -8  433.30   35.00
  -6  14  -8    0.00   13.00
  -7  14  -8    1.80   14.00
  -8  14  -8    7.40   13.90
   8 -14   8    0.10    3.70
  -9 -13   8   44.70   11.70
  -9 -13   8   30.20    7.30
   8  13  -8  147.00   19.00
  -8 -13   8  165.10   17.30
  -8 -13   8  158.40   13.00
   7  13  -8   41.60   13.20
  -7 -13   8   58.90   10.00
  -7 -13   8   76.60   14.00
   6  13  -8  413.70   26.40
  -6 -13   8  408.40   21.90
  -6 -13   8  503.40   26.80
   5  13  -8    6.50    9.20
   5  13  -8    0.10    7.70
  -5 -13   8    0.10    8.70
  -5 -13   8    0.10    6.80
   4  13  -8   32.90    9.80
   4  13  -8    9.10   10.20
  -4 -13   8   12.10    8.00
  -4 -13   8   26.80   11.40
   3  13  -8  402.50   26.60
   3  13  -8  396.50   23.50
  -3 -13   8  336.60   20.40
  -3 -13   8  352.80   24.30
   2  13  -8  153.10   12.80
   2  13  -8  154.00   16.80
  -2 -13   8  126.90   12.50
   1  13  -8    1.40   11.10
  -1 -13   8    8.40    7.70
  -1 -13   8    4.20    7.10
   0  13  -8   97.70   18.10
   0 -13   8  144.00   15.00
   0 -13   8  117.80   16.30
  -1  13  -8  127.10   16.00
   1 -13   8  144.80   11.90
  -2  13  -8    8.50   13.30
   2 -13   8    9.70    6.40
  -3  13  -8  115.00   18.40
   3 -13   8  168.60   13.30
   4 -13   8  322.60   18.20
  -5  13  -8   93.00   19.10
  -6  13  -8    0.20   12.10
  -7  13  -8   54.50   17.00
  -8  13  -8   33.60   17.30
  -9  13  -8  101.70   19.80
  10  12  -8    1.10   10.50
 -10 -12   8   18.40    9.40
 -10 -12   8   15.70    6.70
   9  12  -8    0.10    8.80
  -9 -12   8   10.20    9.40
  -9 -12   8   22.60    6.90
   8  12  -8  390.10   26.80
  -8 -12   8  511.30   23.20
  -8 -12   8  539.80   26.90
   7  12  -8    0.10    7.80
  -7 -12   8    2.40    6.60
  -7 -12   8   11.70    8.90
   6  12  -8    0.80    7.70
   6  12  -8    5.40    8.00
  -6 -12   8    1.40    9.30
  -6 -12   8    0.20    6.80
   5  12  -8    7.20    9.90
   5  12  -8   10.70    9.10
  -5 -12   8    8.30    9.70
  -5 -12   8   24.70    8.70
   4  12  -8  167.60   18.30
   4  12  -8  199.30   16.20
  -4 -12   8  198.50   15.80
  -4 -12   8  209.90   17.90
   3  12  -8  648.60   29.90
   3  12  -8  666.70   26.80
  -3 -12   8  612.40   25.10
  -3 -12   8  698.60   28.60
   2  12  -8   29.90   10.50
   2  12  -8   16.20   12.60
  -2 -12   8   26.50   10.60
   1  12  -8  114.10   18.80
   1  12  -8  105.60   15.00
  -1 -12   8  108.60   15.30
  -1 -12   8  113.50   14.20
   0  12  -8  362.00   21.10
   0  12  -8  385.50   24.00
   0 -12   8  364.90   21.10
   0 -12   8  379.20   18.60
  -1  12  -8   98.70   17.20
  -1  12  -8   67.10   12.20
   1 -12   8   86.70   12.70
   1 -12   8   87.50   10.70
  -2  12  -8  437.80   28.80
   2 -12   8  450.90   21.10
  -3  12  -8  641.60   36.40
   3 -12   8  656.80   26.80
  -4  12  -8   19.10   13.80
   4 -12   8   51.40    9.40
   5 -12   8    4.20    4.90
  -6  12  -8   38.80   14.70
   6 -12   8   12.30    7.60
  -7  12  -8    1.00   12.40
   7 -12   8    4.40    3.50
  -8  12  -8    0.60   12.00
  -9  12  -8  124.80   22.60
  10  11  -8   14.10    9.80
 -10 -11   8   27.50    9.20
 -10 -11   8   38.60   14.30
 -10 -11   8   21.40    6.90
   9  11  -8   41.70   11.00
  -9 -11   8   53.40   10.80
  -9 -11   8   34.40    8.70
   8  11  -8  203.90   17.70
  -8 -11   8  244.50   17.70
  -8 -11   8  258.40   16.50
   7  11  -8  200.40   17.60
  -7 -11   8  230.20   17.40
  -7 -11   8  252.80   16.70
   6  11  -8   15.80    7.60
   6  11  -8    1.70    7.10
  -6 -11   8   35.50    8.40
  -6 -11   8   32.20    8.80
   5  11  -8    0.50    6.70
   5  11  -8    0.50    8.50
  -5 -11   8    0.50    6.60
  -5 -11   8    0.90    8.30
   4  11  -8   30.60   10.60
   4  11  -8   16.20   11.90
  -4 -11   8   30.90   10.40
  -4 -11   8   32.30   11.50
   3  11  -8  161.70   20.40
   3  11  -8  176.70   16.60
  -3 -11   8  136.20   15.40
   2  11  -8  131.20   13.50
   2  11  -8  128.60   16.50
  -2 -11   8  127.40   13.50
   1  11  -8  422.30   27.90
   1  11  -8  425.00   23.80
  -1 -11   8  428.50   24.30
   0  11  -8  110.00   16.00
   0  11  -8  126.20   12.70
   0 -11   8  108.30   13.10
   0 -11   8  113.80   11.40
  -1  11  -8   25.20    9.50
  -1  11  -8   21.60   11.60
   1 -11   8   23.50    7.40
   1 -11   8   22.10    9.50
  -2  11  -8  554.00   29.20
  -2  11  -8  516.60   24.60
   2 -11   8  533.80   25.80
   2 -11   8  516.00   20.40
  -3  11  -8  305.10   23.40
   3 -11   8  335.90   16.10
  -4  11  -8   31.40   12.40
  -6  11  -8  202.00   21.10
   6 -11   8  160.90    8.60
  -7  11  -8   88.00   19.10
  -8  11  -8   11.40   14.00
  -9  11  -8   26.50   15.80
 -10  11  -8    3.30   14.80
  11  10  -8    0.10    7.10
 -11 -10   8    0.10   12.20
 -11 -10   8    0.10    7.30
 -11 -10   8    0.10    7.10
  10  10  -8  123.00   12.10
 -10 -10   8  137.00   19.00
 -10 -10   8  116.90   11.50
 -10 -10   8  100.80   11.20
   9  10  -8  103.40   12.50
  -9 -10   8  111.20   11.90
  -9 -10   8  114.60   18.80
  -9 -10   8  114.60   11.50
   8  10  -8  197.90   14.40
  -8 -10   8  199.20   14.40
  -8 -10   8  205.80   14.70
   7  10  -8   30.60    7.90
  -7 -10   8   34.50    8.00
  -7 -10   8   44.30    8.10
   6  10  -8  176.30   16.50
   6  10  -8  174.30   15.70
  -6 -10   8  184.70   15.00
  -6 -10   8  197.20   15.40
   5  10  -8  210.10   15.50
   5  10  -8  185.50   18.60
  -5 -10   8  222.50   17.00
  -5 -10   8  198.10   15.40
   4  10  -8   16.50    8.50
   4  10  -8    8.70   10.10
  -4 -10   8   10.80    9.10
  -4 -10   8    6.50    7.90
   3  10  -8   87.40   15.90
   3  10  -8   91.70   13.40
  -3 -10   8  101.70   14.10
   2  10  -8 1101.30   44.10
   2  10  -8 1106.60   40.20
  -2 -10   8 1057.20   40.20
   1  10  -8  454.90   21.50
   1  10  -8  506.60   26.10
  -1 -10   8  468.50   22.70
   0  10  -8   11.00    7.30
   0  10  -8    0.10    9.90
   0 -10   8    0.10    7.80
  -1  10  -8  322.30   23.30
  -1  10  -8  326.00   23.10
   1 -10   8  317.60   16.30
   1 -10   8  300.60   23.20
  -2  10  -8  111.50   16.40
  -2  10  -8   93.70   11.70
   2 -10   8  129.40   10.50
   2 -10   8  105.40   13.00
  -3  10  -8  131.10   16.70
  -3  10  -8  145.00   20.30
   3 -10   8  162.10   12.30
   3 -10   8  140.10   16.40
  -4  10  -8   67.90   13.80
   4 -10   8   85.50    7.70
   5 -10   8  308.90   11.50
  -6  10  -8   82.70   15.80
  -7  10  -8  107.40   20.50
  -8  10  -8   18.30   13.00
  -9  10  -8   39.90   15.10
 -10  10  -8   30.80   16.80
 -12  -9   8   17.10   14.70
 -12  -9   8   44.30    8.50
 -12  -9   8   11.80    8.30
  11   9  -8    0.50    6.10
 -11  -9   8    0.50    6.20
 -11  -9   8    0.50   10.80
 -11  -9   8   11.40    6.80
  10   9  -8  115.50   12.40
 -10  -9   8   87.20   11.50
 -10  -9   8  116.50   18.70
   9   9  -8  175.80   13.80
  -9  -9   8  194.90   15.40
  -9  -9   8  198.70   22.00
  -9  -9   8  179.50   15.50
   8   9  -8    2.40    5.50
  -8  -9   8    2.40    6.50
  -8  -9   8    2.40    6.40
   7   9  -8  538.40   24.60
  -7  -9   8  516.70   24.90
  -7  -9   8  583.30   23.90
   6   9  -8  237.60   14.60
   6   9  -8  279.80   18.40
  -6  -9   8  250.10   14.70
  -6  -9   8  251.50   16.40
   5   9  -8   18.00    7.10
   5   9  -8   13.90    8.80
  -5  -9   8   20.90    7.80
  -5  -9   8   19.70    7.60
   4   9  -8  195.40   14.70
   4   9  -8  221.60   19.10
  -4  -9   8  204.80   16.00
   3   9  -8   89.60   12.30
   3   9  -8  109.20   10.30
  -3  -9   8  106.80   11.70
   2   9  -8 1308.60   45.40
   2   9  -8 1312.20   49.70
  -2  -9   8 1332.00   47.00
   1   9  -8   67.50   12.60
   1   9  -8   52.60   10.00
  -1  -9   8   68.90   11.60
   0   9  -8   10.30    7.10
   0   9  -8   14.70    9.80
   0  -9   8   15.90    7.60
  -1   9  -8  449.30   28.40
  -1   9  -8  460.50   24.10
   1  -9   8  429.30   25.10
  -2   9  -8   22.70   11.50
  -2   9  -8   21.40    8.70
   2  -9   8   25.10    6.40
   2  -9   8   20.70   12.20
  -3   9  -8 1581.40   55.70
  -3   9  -8 1765.70   61.10
   3  -9   8 1710.50   49.50
   3  -9   8 1624.00   57.80
  -4   9  -8  202.00   24.20
  -4   9  -8  182.40   19.00
   4  -9   8  198.80   13.30
   4  -9   8  191.20   20.10
  -5   9  -8   52.30   14.00
   5  -9   8   40.60    5.70
   5  -9   8   56.10    5.90
  -6   9  -8    0.80   10.60
  -7   9  -8    3.80   11.50
  -8   9  -8   37.80   15.80
  -9   9  -8    9.50   12.90
 -10   9  -8   84.50   17.90
 -11   9  -8    4.60   15.80
 -12  -8   8   10.50    6.80
 -12  -8   8    4.30    8.60
 -12  -8   8   22.90   14.60
 -11  -8   8    0.00   11.60
 -11  -8   8    5.10    6.10
 -11  -8   8    0.00    7.40
  10   8  -8   67.60    9.40
 -10  -8   8   69.90    9.50
 -10  -8   8   75.90   16.70
 -10  -8   8   81.40   12.30
   9   8  -8   85.80   10.60
  -9  -8   8   78.10   17.50
  -9  -8   8   91.30   11.20
  -9  -8   8   98.80   13.30
   8   8  -8  103.40    9.90
  -8  -8   8  140.80   14.40
  -8  -8   8  130.30   17.20
  -8  -8   8  129.00   11.40
   7   8  -8   64.50    9.90
  -7  -8   8   46.20   10.80
  -7  -8   8   55.90   14.40
  -7  -8   8   54.40    9.30
   6   8  -8   36.10    7.40
   6   8  -8   47.30   10.40
  -6  -8   8   25.00   10.70
  -6  -8   8   41.20    8.00
  -6  -8   8   45.50    9.80
   5   8  -8   14.80    7.90
   5   8  -8    0.30    5.20
  -5  -8   8   16.70    8.10
  -5  -8   8    8.10    6.70
   4   8  -8  922.10   40.20
   4   8  -8  919.30   35.90
  -4  -8   8  943.40   37.90
   3   8  -8  215.30   14.50
   3   8  -8  212.50   18.00
  -3  -8   8  210.70   15.10
   2   8  -8  403.20   25.40
   2   8  -8  395.50   20.60
  -2  -8   8  386.20   22.80
   1   8  -8  316.00   20.60
   1   8  -8  337.70   17.60
  -1  -8   8  304.10   18.70
   0   8  -8    4.50    9.20
   0   8  -8    8.60    7.90
   0  -8   8    6.00    9.10
  -1   8  -8   63.40   14.80
  -1   8  -8   37.10   10.20
   1  -8   8   30.80   10.20
  -2   8  -8    1.20    6.60
  -2   8  -8    0.00    8.50
   2  -8   8    0.00    7.60
  -3   8  -8 2606.30   83.50
   3  -8   8 2427.20   87.10
   3  -8   8 2470.00   71.90
  -4   8  -8   86.50   16.10
   4  -8   8   81.70   14.20
   4  -8   8  104.40    8.10
   4  -8   8   96.30    8.00
  -5   8  -8    0.10    9.20
   5  -8   8    0.00    8.80
  -6   8  -8   34.90   14.10
  -7   8  -8    2.20   12.40
  -8   8  -8  269.20   24.60
  -9   8  -8  133.60   20.90
 -10   8  -8   95.10   19.90
 -11   8  -8    0.50   10.80
 -12  -7   8   71.10   11.00
 -12  -7   8   68.80    7.70
 -12  -7   8  113.10   17.20
 -11  -7   8    1.00    5.10
 -11  -7   8    0.70    7.40
 -11  -7   8    1.00    9.60
 -10  -7   8   28.60   15.30
 -10  -7   8   22.90    6.80
 -10  -7   8   37.30   11.10
   9   7  -8  413.10   17.20
  -9  -7   8  412.10   22.20
  -9  -7   8  452.80   28.00
  -9  -7   8  430.80   17.40
   8   7  -8  567.80   21.90
  -8  -7   8  566.00   31.90
  -8  -7   8  539.90   26.40
  -8  -7   8  539.10   21.50
   7   7  -8    0.90    4.70
  -7  -7   8    0.90    7.30
  -7  -7   8    1.40    5.30
  -7  -7   8   10.00    9.90
   6   7  -8   40.40    6.90
  -6  -7   8   52.20    7.60
  -6  -7   8   23.70   11.50
  -6  -7   8   34.30    9.20
   5   7  -8    0.30    4.80
   5   7  -8    0.30    6.90
  -5  -7   8    8.70    8.40
  -5  -7   8    0.30    6.80
   4   7  -8 1534.30   48.80
  -4  -7   8 1436.50   45.80
  -4  -7   8 1528.20   48.20
   3   7  -8   33.50    7.90
   3   7  -8   36.60   10.80
  -3  -7   8   27.90    9.60
  -3  -7   8   29.60   10.10
   2   7  -8   27.30    6.90
   2   7  -8   11.70    5.20
  -2  -7   8   33.50    7.10
  -2  -7   8   23.40    7.50
   1   7  -8 1604.90   50.40
   1   7  -8 1614.40   54.90
  -1  -7   8 1632.00   51.00
  -1  -7   8 1592.90   53.10
   0   7  -8  289.10   14.80
   0   7  -8  250.30   17.60
   0  -7   8  260.00   16.30
   0  -7   8  277.10   13.90
  -1   7  -8  764.20   36.10
  -1   7  -8  719.00   32.40
   1  -7   8  766.10   30.00
   1  -7   8  744.40   34.70
  -2   7  -8  237.60   19.30
   2  -7   8  245.60   18.80
   2  -7   8  218.20   12.30
  -3   7  -8  584.50   30.50
   3  -7   8  560.20   19.90
   3  -7   8  500.00   27.10
  -4   7  -8   59.00   13.60
   4  -7   8   64.70    6.10
   4  -7   8   70.70    6.20
   4  -7   8   60.20   12.80
  -5   7  -8   12.00   10.90
   5  -7   8    0.30    7.20
  -6   7  -8   35.20   12.00
   6  -7   8   27.70   11.10
  -7   7  -8   12.00   11.50
  -8   7  -8   35.70   13.70
  -9   7  -8   31.90   15.60
 -10   7  -8  211.00   24.10
 -11   7  -8   14.60   14.90
 -11   7  -8    5.90   12.90
 -13  -6   8   24.80   14.90
 -13  -6   8   19.80   10.40
 -13  -6   8   23.90    5.40
 -12  -6   8   15.60    5.10
 -12  -6   8    9.70    9.30
 -12  -6   8   34.10   16.10
 -11  -6   8   12.40    9.90
 -11  -6   8    0.90    4.20
 -11  -6   8   35.70   12.50
 -10  -6   8   11.10   10.80
 -10  -6   8   32.20    9.20
 -10  -6   8   28.70    5.30
  -9  -6   8  255.30   21.50
  -9  -6   8  241.00   17.90
  -9  -6   8  235.70   11.20
   8   6  -8  273.00   11.90
  -8  -6   8  255.70   12.00
  -8  -6   8  273.40   18.40
  -8  -6   8  284.40   22.00
   7   6  -8    9.60    4.40
  -7  -6   8   22.30   10.30
  -7  -6   8   11.90    8.20
  -7  -6   8    5.00    4.60
   6   6  -8   74.00    6.30
  -6  -6   8   81.60   12.40
  -6  -6   8   93.80   11.40
   5   6  -8  165.60   13.40
   5   6  -8  150.90   16.40
  -5  -6   8  174.00   17.60
  -5  -6   8  143.10   16.10
   4   6  -8  503.80   24.50
   4   6  -8  509.10   20.00
  -4  -6   8  518.00   23.70
  -4  -6   8  549.30   25.50
   3   6  -8  356.20   21.50
   3   6  -8  373.20   17.00
  -3  -6   8  394.80   20.50
  -3  -6   8  360.80   19.80
   2   6  -8    8.30    7.10
   2   6  -8   15.60    6.30
  -2  -6   8    7.50    7.40
   1   6  -8 1085.80   34.50
   1   6  -8 1088.60   38.70
  -1  -6   8 1098.90   37.50
  -1  -6   8 1100.50   35.30
   0   6  -8  111.40   10.40
   0   6  -8   91.80   11.70
   0  -6   8   82.60    8.80
   0  -6   8   93.50   11.20
  -1   6  -8 2674.00   75.30
   1  -6   8 2470.90   73.70
   1  -6   8 2525.70   68.10
  -2   6  -8   97.50   13.00
   2  -6   8  108.60    8.80
   2  -6   8   86.40   12.00
  -3   6  -8   38.80   11.90
   3  -6   8   55.00   11.30
   3  -6   8   52.40    5.90
  -4   6  -8 1215.70   44.50
   4  -6   8 1143.40   31.30
   4  -6   8 1190.10   31.10
   4  -6   8 1170.00   43.90
  -5   6  -8   68.40   14.50
   5  -6   8   66.70   13.60
  -6   6  -8    6.20   11.30
   6  -6   8   10.40    9.60
  -7   6  -8    3.60   10.20
   7  -6   8    1.90   10.30
  -8   6  -8  380.70   27.50
  -9   6  -8    7.60   12.00
 -10   6  -8   27.40   14.40
 -10   6  -8   36.40   14.60
 -11   6  -8    7.20   12.50
 -11   6  -8    0.50   10.80
 -13  -5   8   95.00   17.70
 -12  -5   8   38.50   10.20
 -12  -5   8   48.90   15.50
 -12  -5   8   38.70    4.30
 -11  -5   8   95.20   12.70
 -11  -5   8  126.10   18.70
 -11  -5   8   99.20    6.20
 -10  -5   8  231.90    9.00
 -10  -5   8  222.00   18.10
 -10  -5   8  254.40   26.10
  -9  -5   8    0.20    9.90
  -9  -5   8    4.20    7.80
  -9  -5   8    2.20    3.10
  -8  -5   8  348.50   22.10
  -8  -5   8  348.00   19.10
   7   5  -8   73.10    5.80
  -7  -5   8   97.00   15.30
  -7  -5   8   67.10   11.10
   6   5  -8   69.70    6.40
  -6  -5   8   62.00   13.10
  -6  -5   8   67.60   11.70
   5   5  -8   27.10    4.50
   5   5  -8    9.20    7.30
  -5  -5   8   16.40    7.90
  -5  -5   8   19.40    9.50
   4   5  -8    9.80    4.40
   4   5  -8   16.10    7.80
  -4  -5   8    6.60    7.30
  -4  -5   8    6.80    6.70
   3   5  -8 4893.10  145.60
  -3  -5   8 4983.30  144.30
  -3  -5   8 4805.80  144.20
   2   5  -8  907.70   45.10
   2   5  -8  903.80   40.00
  -2  -5   8  926.20   42.90
  -2  -5   8  904.40   44.40
   1   5  -8    0.80    8.10
  -1  -5   8    1.80    5.80
  -1  -5   8   13.80    6.70
   0   5  -8  543.20   23.90
   0  -5   8  559.20   20.20
   0  -5   8  611.40   24.20
  -1   5  -8  588.20   24.20
   1  -5   8  574.50   22.80
   1  -5   8  618.80   18.70
  -2   5  -8  717.30   35.50
   2  -5   8  704.50   28.00
   2  -5   8  700.70   35.00
  -3   5  -8    6.30    7.90
   3  -5   8   11.40    6.90
   3  -5   8   27.10    3.60
  -4   5  -8 1266.20   48.50
   4  -5   8 1226.80   47.70
  -5   5  -8   25.80   10.90
   5  -5   8   15.40    9.10
  -6   5  -8   40.70   11.90
   6  -5   8   34.50   11.00
  -7   5  -8   27.30   11.50
   7  -5   8   17.90   11.60
  -8   5  -8   54.70   13.60
  -8   5  -8   62.00   14.40
  -9   5  -8  183.90   20.70
  -9   5  -8  196.80   20.20
 -10   5  -8   16.30   12.40
 -10   5  -8   23.40   12.30
 -11   5  -8   30.90   14.10
 -11   5  -8   26.50   15.20
 -12   5  -8    0.00   13.10
 -12   5  -8    5.90   13.70
 -13  -4   8   16.60   13.10
 -12  -4   8    0.00   11.30
 -11  -4   8  101.00   17.00
 -11  -4   8   98.90   13.30
 -10  -4   8  296.50   19.10
 -10  -4   8  318.00   23.60
  -9  -4   8  102.80   15.50
  -9  -4   8   86.10   11.70
  -8  -4   8  282.60   21.60
  -8  -4   8  209.80   16.40
  -7  -4   8  238.00   14.40
  -7  -4   8  231.80   17.30
  -6  -4   8    9.90    8.40
  -6  -4   8    0.00    6.90
   5   4  -8  276.90   13.20
  -5  -4   8  263.40   20.30
  -5  -4   8  296.50   22.10
   4   4  -8    8.30    6.10
   4   4  -8    0.50    3.50
  -4  -4   8    8.30    6.90
  -4  -4   8    1.50    7.50
   3   4  -8 1996.30   56.10
   3   4  -8 2098.30   63.50
  -3  -4   8 2006.30   62.00
  -3  -4   8 2029.90   61.80
   2   4  -8   39.90    5.50
  -2  -4   8   31.40    7.40
  -2  -4   8   60.10    7.00
   1   4  -8  165.20   12.90
  -1  -4   8  165.20   10.80
  -1  -4   8  188.00   10.10
   0   4  -8  308.40   17.80
   0  -4   8  326.90   18.00
   0  -4   8  302.10   14.50
  -1   4  -8    9.40    7.50
   1  -4   8    4.70    4.70
   1  -4   8    1.90    6.80
  -2   4  -8 3403.10  101.30
   2  -4   8 3380.70   93.70
   2  -4   8 3375.70  101.50
  -3   4  -8   36.00    8.90
   3  -4   8   35.30    4.30
   3  -4   8   46.20    8.80
  -4   4  -8  243.10   17.30
   4  -4   8  232.10   16.60
   4  -4   8  195.10    7.10
  -5   4  -8   57.60   13.60
   5  -4   8   76.70   14.10
  -6   4  -8   19.00   11.50
   6  -4   8   17.80    9.10
  -7   4  -8  169.80   19.30
  -7   4  -8  145.60   17.70
   7  -4   8  137.00   18.70
  -8   4  -8   88.10   15.00
  -8   4  -8  107.20   15.30
   8  -4   8   72.90   13.60
  -9   4  -8   62.90   15.40
  -9   4  -8   74.50   15.60
 -10   4  -8   33.50   14.30
 -10   4  -8   17.00   13.00
 -11   4  -8   93.80   16.40
 -11   4  -8   74.60   25.00
 -12   4  -8   45.70   16.10
 -12   4  -8   40.10   14.90
 -13  -3   8    3.40   12.80
 -12  -3   8    4.50   11.70
 -11  -3   8    0.10    8.10
 -11  -3   8    3.40   10.10
 -10  -3   8  271.90   23.50
 -10  -3   8  250.70   18.40
  -9  -3   8  207.30   19.80
  -9  -3   8  195.30   18.90
  -8  -3   8   17.40    9.70
  -8  -3   8   23.90   11.60
  -7  -3   8  697.80   28.10
  -7  -3   8  681.00   30.70
  -6  -3   8  230.20   16.70
  -6  -3   8  230.10   15.90
  -5  -3   8 2290.10   61.90
  -5  -3   8 2299.80   63.50
   4   3  -8   18.70    7.00
   4   3  -8   16.90    3.10
   4   3  -8   17.40    2.60
  -4  -3   8   19.50    7.10
  -4  -3   8   12.70    6.30
   3   3  -8  480.10   25.90
   3   3  -8  475.50   16.80
  -3  -3   8  478.90   22.20
   2   3  -8 1733.20   64.50
   2   3  -8 1597.20   57.50
  -2  -3   8 1624.60   57.70
  -2  -3   8 1522.70   58.80
   1   3  -8   62.00    6.90
   1   3  -8   47.00    8.40
  -1  -3   8   39.10    6.40
  -1  -3   8   23.30    6.80
   0   3  -8  183.90   10.10
   0  -3   8  181.60   10.00
   0  -3   8  207.30   13.10
  -1   3  -8    1.30    6.40
  -1   3  -8    1.40    4.00
   1  -3   8    4.10    4.10
   1  -3   8    0.40    6.40
  -2   3  -8 2558.10   58.90
  -2   3  -8 2679.00   66.30
   2  -3   8 2560.30   59.00
   2  -3   8 2602.70   66.40
  -3   3  -8    2.30    7.60
  -3   3  -8    1.60    3.40
   3  -3   8    0.60    3.80
   3  -3   8   16.10    8.90
  -4   3  -8    2.00    8.30
  -4   3  -8    2.30    7.50
   4  -3   8    2.30    7.40
   4  -3   8    2.30    3.00
  -5   3  -8  211.40   16.40
  -5   3  -8  199.30   15.80
   5  -3   8  234.90   16.80
  -6   3  -8   57.20   11.50
  -6   3  -8   81.40   14.10
   6  -3   8   73.60   12.90
  -7   3  -8  315.30   21.80
  -7   3  -8  287.10   21.90
  -8   3  -8    6.60    9.50
  -8   3  -8   11.40   10.30
   8  -3   8   12.40    9.70
  -9   3  -8  204.10   20.70
   9  -3   8  155.50   18.60
 -10   3  -8   29.20   13.60
 -10   3  -8   35.70   12.80
 -11   3  -8   47.00   14.90
 -11   3  -8   53.70   15.30
 -12   3  -8   80.80   16.20
 -12   3  -8   68.40   16.70
 -13  -2   8   33.00   14.40
 -12  -2   8   27.80   14.00
 -10  -2   8   47.70   10.00
 -10  -2   8   45.50   13.20
  -9  -2   8  345.10   22.60
  -9  -2   8  367.80   25.90
  -8  -2   8    0.30    9.10
  -8  -2   8    0.30    6.90
  -7  -2   8  308.30   18.80
  -7  -2   8  294.80   20.20
  -6  -2   8   54.40    8.90
  -6  -2   8   51.40    9.00
   5   2  -8 1159.20   34.70
  -5  -2   8 1173.80   33.90
  -5  -2   8 1195.50   35.60
   4   2  -8  145.70    3.80
   4   2  -8  155.30    9.30
   4   2  -8  161.10    4.50
  -4  -2   8  137.00    8.90
  -4  -2   8  144.10    9.20
   3   2  -8  281.70   14.30
   3   2  -8  267.40   20.30
   3   2  -8  274.70   19.80
  -3  -2   8  288.10   20.90
  -3  -2   8  304.60   20.50
   2   2  -8 4651.30  122.70
   2   2  -8 4576.20  127.00
   2   2  -8 4601.70  132.80
  -2  -2   8 4707.80  128.90
  -2  -2   8 4680.60  127.10
   1   2  -8   82.50    8.10
   1   2  -8   80.10    6.70
   1   2  -8   74.20    8.80
  -1  -2   8   84.60    9.40
  -1  -2   8   83.00    8.10
   0   2  -8 2862.00   92.30
   0   2  -8 2829.80   92.10
   0   2  -8 2945.90   96.30
   0  -2   8 2957.40   92.60
   0  -2   8 2899.90   96.60
  -1   2  -8  148.20    9.90
  -1   2  -8  161.80   13.60
  -1   2  -8  146.40   11.40
   1  -2   8  147.40   13.50
   1  -2   8  142.10    9.60
  -2   2  -8  343.10   24.20
  -2   2  -8  294.30   18.80
  -2   2  -8  332.70   15.80
   2  -2   8  331.40   15.80
   2  -2   8  332.60   21.30
  -3   2  -8  823.80   28.20
  -3   2  -8  824.30   21.30
  -3   2  -8  796.50   26.30
   3  -2   8  794.20   22.10
   3  -2   8  790.30   28.10
  -4   2  -8  120.60   13.50
  -4   2  -8  146.60   15.70
  -4   2  -8  114.00    7.70
   4  -2   8  126.00   14.40
   4  -2   8  104.10    8.80
  -5   2  -8    7.90    2.90
  -5   2  -8   11.40    8.90
  -5   2  -8    9.60    7.90
   5  -2   8    0.20    7.70
  -6   2  -8  216.20   18.00
  -6   2  -8  227.50   17.10
   6  -2   8  191.60   17.70
  -7   2  -8   91.40   14.20
  -7   2  -8  117.60   15.20
   7  -2   8   94.90   14.40
  -8   2  -8  293.80   23.10
  -8   2  -8  250.80   20.80
   8  -2   8  253.50   21.40
  -9   2  -8  370.40   24.50
   9  -2   8  381.30   25.90
 -10   2  -8    5.30   10.00
 -10   2  -8    0.30    9.70
  10  -2   8    0.30   10.80
 -11   2  -8   31.80   12.80
 -11   2  -8   65.40   15.40
 -12   2  -8   20.90   12.70
 -12   2  -8   31.00   13.50
 -13  -1   8   25.80   13.60
 -12  -1   8   55.20   14.70
 -11  -1   8   27.40   13.40
 -10  -1   8   12.80    9.10
 -10  -1   8   39.80   12.80
  -9  -1   8  602.90   33.00
  -9  -1   8  658.50   30.20
  -8  -1   8   26.60   10.20
  -8  -1   8   26.20   10.50
   7   1  -8   91.10   16.60
  -7  -1   8  115.20   15.10
  -7  -1   8  118.30   13.50
   6   1  -8    1.40    7.10
  -6  -1   8    5.10    7.00
  -6  -1   8    0.70    6.50
   5   1  -8   23.90    8.90
  -5  -1   8   32.30    9.10
  -5  -1   8   46.40    8.90
   4   1  -8 1065.10   33.30
   4   1  -8 1069.20   24.70
  -4  -1   8 1113.60   34.00
  -4  -1   8 1082.10   33.00
   3   1  -8  120.90    5.80
   3   1  -8  127.20   10.40
  -3  -1   8  102.80    9.90
   2   1  -8 2117.30   73.00
   2   1  -8 2107.20   68.30
   2   1  -8 2137.80   63.80
  -2  -1   8 2108.40   69.50
  -2  -1   8 2175.10   68.30
   1   1  -8    4.70    5.40
   1   1  -8   16.60    4.90
   1   1  -8   20.50    4.30
  -1  -1   8   19.30    5.90
  -1  -1   8   14.00    4.90
   0   1  -8 3022.90   96.70
   0   1  -8 3039.40   97.40
   0   1  -8 2903.40   93.20
   0  -1   8 2987.40   97.60
   0  -1   8 2900.20   93.70
  -1   1  -8    2.80    4.90
  -1   1  -8    5.50    6.50
  -1   1  -8    0.70    6.10
   1  -1   8    2.70    7.20
   1  -1   8    8.20    5.10
  -2   1  -8    0.30    7.30
  -2   1  -8    0.90    7.40
  -2   1  -8    1.00    5.30
   2  -1   8    1.00    5.50
   2  -1   8    0.20    8.40
  -3   1  -8  894.10   37.00
  -3   1  -8  916.70   34.90
  -3   1  -8  958.90   42.00
   3  -1   8  929.40   39.40
   3  -1   8  975.60   34.30
  -4   1  -8    4.80    6.30
  -4   1  -8    4.80    6.40
  -4   1  -8   23.10    4.10
   4  -1   8   16.30    4.70
   4  -1   8   37.70    7.90
  -5   1  -8   87.40   13.10
  -5   1  -8   79.20   12.80
  -5   1  -8   87.30    7.50
   5  -1   8   82.70   13.30
   5  -1   8  100.30    8.70
  -6   1  -8   13.10    8.50
  -6   1  -8   12.00    3.90
  -6   1  -8   19.20    9.50
   6  -1   8   18.40    9.60
  -7   1  -8  231.80   18.90
  -7   1  -8  198.20    9.00
  -7   1  -8  187.90   17.70
   7  -1   8  164.50   17.50
  -8   1  -8  284.60   11.70
  -8   1  -8  279.50   22.50
  -8   1  -8  292.80   22.80
   8  -1   8  278.80   22.70
  -9   1  -8  123.70    6.20
  -9   1  -8   94.90   18.00
  -9   1  -8  132.00    7.00
  -9   1  -8  127.60   15.80
   9  -1   8  114.20   16.10
 -10   1  -8   25.40   11.60
 -10   1  -8   32.00   12.70
  10  -1   8   14.30   11.40
 -11   1  -8   83.30   16.20
 -11   1  -8  104.90   15.30
 -12   1  -8    9.30   11.90
 -12   1  -8    9.60   11.70
 -13   0   8   14.80   12.80
 -12   0   8   16.00   11.90
 -11   0   8   72.70   14.30
 -10   0   8   41.00   13.30
  -9   0   8  243.20   18.80
  -9   0   8  295.20   22.80
   8   0  -8   32.10    9.30
  -8   0   8    1.10    9.80
  -8   0   8   10.70    6.70
   7   0  -8  307.90   27.00
  -7   0   8  348.20   23.90
  -7   0   8  346.10   22.10
   6   0  -8   90.90   14.40
  -6   0   8  101.50   14.80
  -6   0   8   92.70   13.40
   5   0  -8  275.50   17.80
  -5   0   8  241.40   16.30
  -5   0   8  261.10   17.50
   4   0  -8 4007.40  106.20
   4   0  -8 3995.60  115.30
  -4   0   8 4075.20  114.50
  -4   0   8 3952.90  114.10
   3   0  -8   41.50    6.10
   3   0  -8   40.90   10.20
  -3   0   8   32.00    9.70
  -3   0   8   36.30   10.10
   2   0  -8   52.40    6.70
   2   0  -8   49.50    4.60
  -2   0   8   60.10    7.80
  -2   0   8   71.30    8.70
   1   0  -8    5.00    5.10
   1   0  -8    1.60    8.00
   1   0  -8    2.80    6.50
  -1   0   8    3.90    7.40
  -1   0   8    3.80    6.40
   0   0  -8 1870.90   62.30
   0   0  -8 1778.00   60.30
   0   0  -8 1856.20   59.60
   0   0   8 1785.60   60.30
   0   0   8 1827.50   63.50
  -1   0  -8  687.90   27.00
  -1   0  -8  662.70   28.10
   1   0   8  678.70   26.30
   1   0   8  699.10   30.40
  -2   0  -8    0.70    5.80
  -2   0  -8    0.90    8.40
  -2   0  -8    2.10    8.90
   2   0   8    0.70    8.70
   2   0   8    3.40    6.80
  -3   0  -8  874.30   34.50
  -3   0  -8  871.30   34.60
  -3   0  -8  882.70   30.80
   3   0   8  940.20   37.40
   3   0   8  896.20   32.80
  -4   0  -8  455.90   26.50
  -4   0  -8  440.00   18.30
  -4   0  -8  448.80   23.00
   4   0   8  490.90   25.70
   4   0   8  436.30   20.30
  -5   0  -8    5.20    7.70
  -5   0  -8    4.10    4.40
  -5   0  -8   12.00    8.50
   5   0   8    9.20    5.30
   5   0   8    3.00    7.80
  -6   0  -8  452.10   18.40
  -6   0  -8  476.80   22.40
  -6   0  -8  475.50   21.70
   6   0   8  448.60   23.50
  -7   0  -8  188.00   16.00
  -7   0  -8  199.10   14.70
   7   0   8  202.10   16.50
  -8   0  -8  141.20   14.70
  -8   0  -8  186.90   17.90
   8   0   8  150.50   16.60
  -9   0  -8   15.80   11.50
  -9   0  -8   27.60   10.00
   9   0   8    6.60    9.20
 -10   0  -8   54.90    6.70
 -10   0  -8   59.50   14.30
 -10   0  -8   49.60   11.90
  10   0   8   27.20   11.00
 -11   0  -8    5.60    4.80
 -11   0  -8    2.50   10.30
 -11   0  -8   17.00   13.60
  11   0   8    0.60    8.40
 -12   0  -8    0.00    3.70
 -12   0  -8    0.00   10.50
 -12   0  -8    4.60    3.80
 -12   0  -8    0.00   10.80
 -13   1   8   15.30   13.30
 -12   1   8   42.50   14.10
 -11   1   8  325.80   23.80
 -10   1   8    6.40    9.80
  -9   1   8    1.20    9.40
   8  -1  -8   93.30   12.80
  -8   1   8  104.90   14.10
   7  -1  -8    1.50    8.10
  -7   1   8    5.80    8.70
  -7   1   8    5.20   13.90
   6  -1  -8  301.20   19.30
  -6   1   8  331.60   19.90
  -6   1   8  359.90   20.00
   5  -1  -8   59.60    6.20
   5  -1  -8   47.40   11.90
  -5   1   8   67.00   12.70
  -5   1   8   75.30   12.50
  -5   1   8   55.70    5.80
   4  -1  -8 2677.90   85.70
   4  -1  -8 2575.80   93.10
  -4   1   8 2693.70   85.20
  -4   1   8 2652.90   92.50
  -4   1   8 2629.10   92.60
   3  -1  -8   35.50    5.20
   3  -1  -8   31.10    8.20
  -3   1   8   33.00    5.50
  -3   1   8   35.00    9.10
  -3   1   8   21.70    7.80
   2  -1  -8  623.80   19.70
   2  -1  -8  594.70   23.40
  -2   1   8  570.20   23.50
  -2   1   8  593.80   20.00
  -2   1   8  594.90   23.60
   1  -1  -8  198.70   16.80
   1  -1  -8  182.90   19.80
   1  -1  -8  183.70   18.70
  -1   1   8  195.00   17.00
  -1   1   8  184.10   19.80
  -1   1   8  186.30   18.60
   0  -1  -8   62.90    5.70
   0  -1  -8   70.40    7.30
   0  -1  -8   57.30    5.60
   0   1   8   50.70    6.60
   0   1   8   62.90    6.10
   0   1   8   65.20    6.40
  -1  -1  -8 1183.20   41.70
  -1  -1  -8 1168.50   43.10
  -1  -1  -8 1177.00   42.00
   1   1   8 1147.00   44.90
   1   1   8 1173.90   41.90
   1   1   8 1150.10   42.30
  -2  -1  -8  179.00   11.70
  -2  -1  -8  172.20   13.60
  -2  -1  -8  166.50   13.40
   2   1   8  197.90   12.80
   2   1   8  179.70   14.60
  -3  -1  -8  613.80   23.00
  -3  -1  -8  702.00   24.10
  -3  -1  -8  678.60   21.10
   3   1   8  627.50   22.70
   3   1   8  650.70   26.00
  -4  -1  -8   30.10    9.20
  -4  -1  -8   16.70    7.50
   4   1   8   25.40    8.80
   4   1   8    4.70    6.20
  -5  -1  -8  138.90   15.70
  -5  -1  -8  143.90   14.50
   5   1   8  156.30   13.00
   5   1   8  136.40   15.10
  -6  -1  -8  495.10   24.20
  -6  -1  -8  506.80   22.80
   6   1   8  533.50   25.70
  -7  -1  -8   80.30   12.60
  -7  -1  -8   73.00   13.30
  -7  -1  -8   84.60    9.90
   7   1   8   65.90   12.60
  -8  -1  -8   86.80   14.40
  -8  -1  -8   72.20    8.00
  -8  -1  -8   90.40   12.10
   8   1   8   88.60   13.70
  -9  -1  -8  594.60   30.60
  -9  -1  -8  582.40   25.90
  -9  -1  -8  597.00   20.20
   9   1   8  568.10   27.90
 -10  -1  -8  291.90   14.70
 -10  -1  -8  323.70   21.20
 -10  -1  -8  329.00   24.20
  10   1   8  283.70   21.90
 -11  -1  -8  106.70   18.00
 -11  -1  -8   88.30    9.70
 -11  -1  -8   84.60   14.50
 -11  -1  -8  111.20   11.60
  11   1   8   73.60   15.50
 -13   2   8    4.90   10.70
 -13   2   8   10.90   13.00
 -12   2   8   15.60   12.30
 -11   2   8   79.00   16.10
 -10   2   8   10.20    9.50
  -9   2   8  281.30   22.10
   8  -2  -8  380.10   25.50
  -8   2   8  427.70   25.70
   7  -2  -8  158.00   17.80
  -7   2   8  170.70   17.00
  -7   2   8  151.80    7.00
   6  -2  -8 1445.30   52.70
  -6   2   8 1495.90   41.40
  -6   2   8 1492.50   51.60
  -6   2   8 1383.00   49.90
   5  -2  -8   67.90   10.40
   5  -2  -8   80.30    7.00
  -5   2   8   67.90    5.80
  -5   2   8   76.50   10.50
  -5   2   8   99.40   11.80
   4  -2  -8  187.10   15.30
   4  -2  -8  188.80   10.50
  -4   2   8  210.50   14.60
  -4   2   8  201.20   15.00
  -4   2   8  215.80    9.90
   3  -2  -8 1060.80   42.90
   3  -2  -8 1120.60   37.30
  -3   2   8 1081.50   42.10
  -3   2   8 1044.30   41.90
   2  -2  -8  102.40    9.50
   2  -2  -8  111.50    6.90
  -2   2   8  103.50    7.20
  -2   2   8  122.10   10.50
  -2   2   8  116.30    9.70
   1  -2  -8  294.30   14.70
   1  -2  -8  273.10   16.40
  -1   2   8  282.60   17.20
  -1   2   8  296.50   15.10
  -1   2   8  323.70   17.40
   0  -2  -8  130.70    9.80
   0  -2  -8  150.70   10.80
   0  -2  -8  149.90    9.30
   0   2   8  143.60   10.30
   0   2   8  131.50   10.80
   0   2   8  151.10   10.20
  -1  -2  -8 1434.90   38.90
  -1  -2  -8 1375.20   38.60
  -1  -2  -8 1496.60   42.20
   1   2   8 1407.80   41.10
   1   2   8 1447.70   39.70
   1   2   8 1462.40   39.30
  -2  -2  -8  980.90   30.40
  -2  -2  -8  986.80   31.00
  -2  -2  -8  970.30   31.80
   2   2   8 1025.60   32.10
   2   2   8 1002.00   34.10
   2   2   8  982.40   32.20
  -3  -2  -8  126.80   12.20
  -3  -2  -8  124.30   12.60
  -3  -2  -8  122.30   11.20
   3   2   8  120.30   12.70
   3   2   8  119.30   14.10
   3   2   8  126.10   12.90
  -4  -2  -8   21.80    6.40
  -4  -2  -8   13.50    7.50
  -4  -2  -8    0.00    6.40
   4   2   8   20.90    8.70
   4   2   8    8.40    7.30
   4   2   8   21.40    7.70
  -5  -2  -8  286.40   17.80
  -5  -2  -8  280.00   16.00
  -5  -2  -8  271.10   19.70
   5   2   8  270.80   21.00
   5   2   8  247.30   18.20
  -6  -2  -8   78.70   10.40
  -6  -2  -8   76.80   14.10
   6   2   8   72.30   13.80
  -7  -2  -8  149.20   10.90
  -7  -2  -8  138.70   13.80
  -7  -2  -8  133.40   14.80
   7   2   8   99.40   14.10
  -8  -2  -8  311.50   20.10
  -8  -2  -8  266.40   16.60
  -8  -2  -8  281.20   23.20
   8   2   8  295.70   22.50
  -9  -2  -8  204.00   20.10
  -9  -2  -8  215.90   17.50
  -9  -2  -8  199.80   13.50
   9   2   8  227.10   18.50
 -10  -2  -8   96.60   15.60
 -10  -2  -8   89.30   12.50
 -10  -2  -8   88.20    9.50
  10   2   8   71.50   13.00
 -11  -2  -8   94.20   16.00
 -11  -2  -8  100.60   12.30
 -11  -2  -8   77.80    8.80
  11   2   8   82.80   12.60
 -13   3   8   14.00   12.80
 -13   3   8    2.40   12.70
 -12   3   8   39.00    3.80
 -12   3   8   30.60    3.80
 -12   3   8   35.30   11.70
 -11   3   8   33.80    4.50
 -11   3   8   35.20    4.20
 -10   3   8  104.90    6.70
 -10   3   8   94.90   16.10
 -10   3   8  104.90    7.50
  -9   3   8   61.90    5.50
  -9   3   8   44.40   12.00
   8  -3  -8   64.50   13.80
  -8   3   8   61.20    5.60
  -8   3   8   57.30   12.50
   7  -3  -8   86.60   14.00
  -7   3   8   89.40    6.90
  -7   3   8   91.10   13.90
   6  -3  -8 1013.50   29.10
  -6   3   8  928.60   34.60
  -6   3   8  966.90   26.70
   5  -3  -8    8.90    5.40
   5  -3  -8    5.80    6.90
  -5   3   8    8.20    4.00
  -5   3   8    1.30    7.90
   4  -3  -8   77.70   13.90
   4  -3  -8  107.40   11.20
  -4   3   8   99.80   14.40
  -4   3   8  105.50    9.90
  -4   3   8   77.50   13.20
   3  -3  -8 1637.00   45.70
   3  -3  -8 1467.70   49.80
  -3   3   8 1611.90   49.90
  -3   3   8 1647.10   50.10
  -3   3   8 1644.80   45.20
   2  -3  -8  119.80   14.70
   2  -3  -8  121.20   11.80
  -2   3   8  123.30   15.50
  -2   3   8  133.60   14.90
  -2   3   8  125.60   12.10
   1  -3  -8  337.70   17.80
   1  -3  -8  335.50   20.60
  -1   3   8  319.10   19.80
  -1   3   8  320.10   20.00
  -1   3   8  321.10   17.90
   0  -3  -8  166.50   12.40
   0  -3  -8  183.70   12.10
   0   3   8  179.50   14.20
   0   3   8  186.50   13.70
   0   3   8  170.80   12.30
  -1  -3  -8  439.40   22.40
  -1  -3  -8  399.50   22.60
   1   3   8  456.10   23.60
   1   3   8  429.90   23.90
  -2  -3  -8 1168.10   35.10
  -2  -3  -8 1139.00   35.90
  -2  -3  -8 1154.70   35.60
   2   3   8 1159.10   38.10
   2   3   8 1092.50   36.40
   2   3   8 1124.20   37.40
  -3  -3  -8   66.40    8.50
  -3  -3  -8   45.90    7.40
  -3  -3  -8   46.10    9.10
   3   3   8   41.90    9.10
   3   3   8   52.90    9.50
   3   3   8   66.40    9.30
  -4  -3  -8   29.30    8.80
  -4  -3  -8   27.90   10.70
  -4  -3  -8   19.00    8.30
   4   3   8   22.20   12.50
   4   3   8   15.30    9.50
   4   3   8   30.50   11.00
  -5  -3  -8  138.90   12.00
  -5  -3  -8  117.30   10.90
  -5  -3  -8  113.20   12.90
   5   3   8  140.00   14.50
   5   3   8  120.90   14.00
  -6  -3  -8    0.10    6.20
  -6  -3  -8   22.20    7.00
  -6  -3  -8    2.90    8.30
   6   3   8    0.10    7.30
  -7  -3  -8  863.40   37.30
  -7  -3  -8  778.60   31.10
  -7  -3  -8  848.40   32.30
   7   3   8  779.20   35.20
  -8  -3  -8  335.80   27.00
  -8  -3  -8  301.70   16.10
  -8  -3  -8  274.50   18.60
   8   3   8  310.40   19.30
  -9  -3  -8    0.10    7.20
  -9  -3  -8    0.10    9.40
  -9  -3  -8    0.10    6.20
   9   3   8    0.10    5.80
 -10  -3  -8   14.40    7.90
 -10  -3  -8   35.40    8.20
 -10  -3  -8   40.20   13.50
  10   3   8   32.40    9.50
 -11  -3  -8    9.20    6.70
 -11  -3  -8   15.00    8.00
 -11  -3  -8   31.60   14.40
 -13   4   8   10.80   13.00
 -13   4   8   11.40   12.20
 -13   4   8   12.90    4.90
 -12   4   8    5.00    4.90
 -12   4   8    3.70   11.90
 -11   4   8   64.50    6.80
 -11   4   8   68.40   13.80
 -10   4   8  264.90   22.90
  -9   4   8    0.20    9.90
   8  -4  -8   43.10   12.40
  -8   4   8   17.40    9.10
   7  -4  -8    2.70    8.90
  -7   4   8    1.50    8.70
  -7   4   8    2.70    4.00
   6  -4  -8  113.80   10.60
   6  -4  -8  118.40   15.10
  -6   4   8  106.10    8.20
  -6   4   8  115.90   14.50
   5  -4  -8  610.60   23.50
   5  -4  -8  608.80   28.20
  -5   4   8  574.20   26.20
  -5   4   8  597.10   20.40
   4  -4  -8  184.10   13.70
   4  -4  -8  164.40   11.10
  -4   4   8  150.30   12.00
  -4   4   8  126.00   11.60
   3  -4  -8  621.70   19.80
   3  -4  -8  623.20   23.80
  -3   4   8  620.60   23.30
  -3   4   8  616.00   18.70
  -3   4   8  625.90   22.40
   2  -4  -8  151.70   14.90
   2  -4  -8  136.00   11.10
  -2   4   8  139.70   13.80
  -2   4   8  148.10   13.50
  -2   4   8  141.50   11.10
   1  -4  -8  429.00   19.90
   1  -4  -8  445.60   23.20
  -1   4   8  426.60   20.30
  -1   4   8  473.50   23.40
  -1   4   8  466.30   22.30
   0  -4  -8  676.90   25.90
   0  -4  -8  662.10   27.70
   0   4   8  661.00   27.30
   0   4   8  682.50   26.60
   0   4   8  670.00   27.30
  -1  -4  -8   11.90    6.90
  -1  -4  -8   27.90    8.70
   1   4   8   20.90    8.10
   1   4   8   12.90    8.10
   1   4   8   15.40    7.40
  -2  -4  -8  485.70   24.00
  -2  -4  -8  430.90   23.20
   2   4   8  484.90   25.30
   2   4   8  503.50   25.20
   2   4   8  503.70   25.70
  -3  -4  -8  788.00   31.20
  -3  -4  -8  837.10   34.40
  -3  -4  -8  791.50   33.10
   3   4   8  836.80   36.00
   3   4   8  795.70   35.50
   3   4   8  834.80   35.40
  -4  -4  -8   72.10   11.80
  -4  -4  -8   88.60   14.10
  -4  -4  -8   95.10   11.60
   4   4   8   97.60   15.00
   4   4   8   58.40   12.80
   4   4   8   96.50   15.60
  -5  -4  -8   81.40   14.50
  -5  -4  -8  105.90   12.60
  -5  -4  -8  103.40   11.30
   5   4   8   86.20   13.90
   5   4   8  107.10   15.20
   5   4   8   85.40   14.30
  -6  -4  -8  248.90   13.10
  -6  -4  -8  268.70   15.00
  -6  -4  -8  257.60   17.70
   6   4   8  236.80   17.00
  -7  -4  -8  635.70   24.20
  -7  -4  -8  635.00   30.00
  -7  -4  -8  632.60   26.10
   7   4   8  595.40   27.70
  -8  -4  -8   18.10    8.00
  -8  -4  -8   28.70    7.30
  -8  -4  -8   34.20   10.90
   8   4   8   46.20    9.00
  -9  -4  -8    0.20    5.50
  -9  -4  -8    3.90    7.10
  -9  -4  -8   15.70   11.00
   9   4   8    0.20    6.70
 -10  -4  -8  128.20   13.20
 -10  -4  -8  107.70   14.40
 -10  -4  -8  130.80   18.10
  10   4   8  111.70   12.80
 -11  -4  -8   20.10   13.50
 -13   5   8    5.10    5.70
 -13   5   8   15.80   12.80
 -13   5   8    0.10   12.20
 -12   5   8  125.70   10.80
 -12   5   8  139.20   20.90
 -12   5   8  118.50   17.00
 -11   5   8   51.00   14.70
 -10   5   8  166.80   17.70
  -9   5   8    0.20   10.40
  -8   5   8  113.00   15.50
   7  -5  -8   10.70    9.50
  -7   5   8   13.30   10.30
   6  -5  -8   95.50   14.20
   6  -5  -8  103.00   10.40
  -6   5   8  102.30   13.80
  -6   5   8  109.50    8.40
   5  -5  -8 1125.70   43.40
   5  -5  -8 1130.10   38.80
  -5   5   8 1152.20   41.20
  -5   5   8 1188.50   35.50
   4  -5  -8  397.30   26.50
   4  -5  -8  472.70   20.30
  -4   5   8  444.60   17.90
  -4   5   8  475.30   22.80
   3  -5  -8    9.40    8.20
   3  -5  -8    3.30    8.90
  -3   5   8    3.60    6.60
  -3   5   8    5.70    8.40
  -3   5   8   12.10   10.20
   2  -5  -8    0.50    6.40
   2  -5  -8    2.90    8.80
  -2   5   8    3.20    6.30
  -2   5   8    4.60    8.20
  -2   5   8    1.60    7.20
   1  -5  -8  167.20   12.20
   1  -5  -8  128.80   12.30
  -1   5   8  157.10   13.20
  -1   5   8  141.00   13.10
  -1   5   8  147.10   11.50
   0  -5  -8  744.30   32.70
   0  -5  -8  778.50   30.90
   0   5   8  724.10   31.10
   0   5   8  696.90   31.40
   0   5   8  745.00   33.10
  -1  -5  -8  201.70   16.00
  -1  -5  -8  161.30   13.90
   1   5   8  190.90   15.50
   1   5   8  178.50   16.50
   1   5   8  183.00   15.40
  -2  -5  -8  154.00   14.20
  -2  -5  -8  152.60   13.90
   2   5   8  147.10   14.60
   2   5   8  157.30   15.40
   2   5   8  147.50   15.70
  -3  -5  -8  939.60   35.10
  -3  -5  -8  935.80   35.40
   3   5   8  925.50   37.90
   3   5   8  909.00   36.40
   3   5   8  901.10   36.30
  -4  -5  -8  124.80   15.50
  -4  -5  -8   90.30   12.90
   4   5   8  104.00   15.80
   4   5   8   86.50   14.30
   4   5   8  104.40   14.00
  -5  -5  -8  285.20   16.90
  -5  -5  -8  244.80   14.80
   5   5   8  227.10   17.30
   5   5   8  205.80   16.00
  -6  -5  -8  123.00   11.20
  -6  -5  -8  121.90   15.20
  -6  -5  -8  124.50   13.60
   6   5   8   99.60   13.90
  -7  -5  -8  157.40   10.70
  -7  -5  -8  154.60   13.40
   7   5   8  146.90   13.50
  -8  -5  -8   44.30   11.50
  -8  -5  -8   19.40    5.90
  -8  -5  -8   16.70    8.10
   8   5   8   17.00    6.80
  -9  -5  -8   38.40    9.80
  -9  -5  -8   25.40    6.30
  -9  -5  -8   22.90   10.80
   9   5   8    6.80    6.60
 -10  -5  -8   28.20    5.80
 -10  -5  -8   47.50   12.10
 -10  -5  -8    6.40    7.20
 -12   6   8  132.90   16.40
 -12   6   8  125.90   10.10
 -12   6   8  100.00   18.40
 -11   6   8    5.40   11.20
 -11   6   8    7.70    5.00
 -10   6   8    0.20   11.10
 -10   6   8    0.20    4.80
  -9   6   8   70.40    7.40
  -9   6   8   77.70   14.30
  -8   6   8   10.30    5.60
  -8   6   8   19.80   10.40
   7  -6  -8   32.30   10.00
  -7   6   8    8.00    6.40
  -7   6   8    7.80   10.10
   6  -6  -8  243.20   18.10
   6  -6  -8  265.40   20.70
  -6   6   8  232.50   13.70
  -6   6   8  264.00   19.30
   5  -6  -8  704.40   34.30
   5  -6  -8  635.60   30.40
  -5   6   8  624.60   26.40
  -5   6   8  688.10   32.30
   4  -6  -8  247.30   18.10
   4  -6  -8  262.20   20.50
  -4   6   8  247.50   15.00
  -4   6   8  255.90   18.60
   3  -6  -8   60.70    9.30
   3  -6  -8   39.90    9.40
  -3   6   8   62.40   10.20
  -3   6   8   55.80    7.60
   2  -6  -8    1.00    7.80
   2  -6  -8    2.50    7.00
  -2   6   8    1.40    6.50
  -2   6   8    2.10    6.30
  -2   6   8    1.00    7.80
   1  -6  -8  117.00   11.50
   1  -6  -8  111.80   13.20
  -1   6   8  101.20   12.90
  -1   6   8  123.40   11.40
  -1   6   8  107.00   11.80
   0  -6  -8 1061.80   36.30
   0  -6  -8 1044.50   34.00
   0   6   8 1015.60   36.10
   0   6   8 1056.90   35.00
   0   6   8 1072.80   35.00
  -1  -6  -8  417.70   25.20
  -1  -6  -8  395.70   24.30
   1   6   8  410.90   24.80
   1   6   8  398.80   25.00
   1   6   8  413.80   26.10
  -2  -6  -8  136.30   13.60
  -2  -6  -8  111.10   12.80
   2   6   8  146.00   13.50
   2   6   8  145.50   15.40
   2   6   8  120.90   13.30
  -3  -6  -8   38.30   10.30
  -3  -6  -8   47.20    9.30
   3   6   8   48.70   11.00
   3   6   8   40.10    9.30
   3   6   8   36.00    8.90
  -4  -6  -8   99.50   14.40
  -4  -6  -8   88.10   14.80
   4   6   8   88.10   16.30
   4   6   8   56.70   12.40
  -5  -6  -8  487.80   25.90
  -5  -6  -8  531.40   28.30
   5   6   8  453.30   28.60
  -6  -6  -8   12.10   10.00
  -6  -6  -8    6.80    7.70
   6   6   8    0.10    6.70
  -7  -6  -8   11.70   10.10
  -7  -6  -8    7.30    8.30
  -8  -6  -8  435.10   26.20
  -8  -6  -8  438.80   23.60
   8   6   8  456.30   19.40
  -9  -6  -8   62.10   13.50
 -10  -6  -8   43.20   14.90
 -12   7   8   42.10   14.00
 -12   7   8   44.90    7.70
 -12   7   8   57.00   17.20
 -11   7   8    8.10   11.30
 -11   7   8    9.70    6.00
 -11   7   8    0.00   11.60
 -10   7   8   69.70    8.00
 -10   7   8  113.90   16.50
  -9   7   8  315.60   15.70
  -9   7   8  296.80   25.20
  -8   7   8  106.20   15.40
  -8   7   8  105.60   10.80
   7  -7  -8  279.60   18.40
  -7   7   8  248.60   18.80
  -7   7   8  266.40   13.40
   6  -7  -8  167.80   16.70
  -6   7   8  132.70   12.40
  -6   7   8  152.40   17.10
   5  -7  -8    6.90    8.50
   5  -7  -8    0.20    8.30
  -5   7   8    0.30    6.10
  -5   7   8    0.20    7.80
   4  -7  -8  232.30   17.80
   4  -7  -8  201.00   18.40
  -4   7   8  217.70   14.50
  -4   7   8  221.40   18.00
   3  -7  -8  311.40   20.70
   3  -7  -8  285.70   22.10
  -3   7   8  266.80   18.00
  -3   7   8  294.40   22.40
   2  -7  -8   34.70   10.20
   2  -7  -8   11.10    8.00
  -2   7   8   16.20    7.60
  -2   7   8   22.50    7.00
  -2   7   8   18.90    8.60
   1  -7  -8  171.50   16.50
   1  -7  -8  152.30   13.60
  -1   7   8  160.40   16.10
  -1   7   8  178.40   13.60
  -1   7   8  166.10   14.70
   0  -7  -8  192.00   15.20
   0  -7  -8  177.50   16.50
   0   7   8  156.50   14.60
   0   7   8  164.80   15.70
   0   7   8  175.50   16.90
  -1  -7  -8  790.60   27.60
  -1  -7  -8  730.50   28.30
   1   7   8  795.80   30.00
   1   7   8  802.50   28.80
   1   7   8  758.50   27.00
  -2  -7  -8    1.20    8.20
  -2  -7  -8   10.20    7.10
   2   7   8   15.80    8.70
   2   7   8   18.30    7.60
   2   7   8    1.20    7.40
  -3  -7  -8  133.80   14.60
  -3  -7  -8  136.00   14.60
   3   7   8  127.30   13.40
   3   7   8  119.70   16.10
  -4  -7  -8   59.40   11.80
  -4  -7  -8   56.00   11.00
   4   7   8   60.90   13.90
   4   7   8   33.10    9.70
  -5  -7  -8  471.30   25.70
  -5  -7  -8  424.00   24.40
   5   7   8  441.50   28.60
  -6  -7  -8   27.90   11.00
  -6  -7  -8   17.00    8.80
   6   7   8   11.40    6.60
  -7  -7  -8    0.40    9.20
   7   7   8    1.30    6.70
  -8  -7  -8  511.00   29.20
   8   7   8  514.90   18.90
  -9  -7  -8    8.10   10.50
 -11   8   8   23.00   14.50
 -11   8   8   48.10   13.60
 -11   8   8   15.70    7.10
 -10   8   8   36.60   14.40
 -10   8   8   63.60    9.70
 -10   8   8   48.60   13.50
  -9   8   8  140.40   12.90
  -9   8   8  139.60   17.80
  -8   8   8   97.80   10.50
  -8   8   8   94.80   14.50
   7  -8  -8  218.70   20.20
  -7   8   8  238.40   20.80
  -7   8   8  221.50   15.00
   6  -8  -8  103.60   14.80
  -6   8   8  103.70   15.00
  -6   8   8   87.30   10.30
   5  -8  -8  130.70   16.70
  -5   8   8  150.70   18.00
  -5   8   8  129.40   13.20
   4  -8  -8  181.90   17.60
  -4   8   8  205.30   18.20
  -4   8   8  213.90   15.30
   3  -8  -8  105.10   13.10
   3  -8  -8   87.90   16.10
  -3   8   8   99.60   13.70
  -3   8   8  128.80   12.70
   2  -8  -8  112.70   15.10
   2  -8  -8  130.00   14.30
  -2   8   8  132.20   15.30
  -2   8   8  127.00   13.70
  -2   8   8  112.90   13.30
   1  -8  -8  320.60   21.60
   1  -8  -8  331.80   18.90
  -1   8   8  300.50   18.60
  -1   8   8  375.10   22.10
  -1   8   8  334.10   19.20
   0  -8  -8   68.50   11.90
   0  -8  -8   48.00   11.10
   0   8   8   45.00   10.30
   0   8   8   45.30   12.20
   0   8   8   45.10    9.50
  -1  -8  -8  434.30   22.30
  -1  -8  -8  385.20   22.90
   1   8   8  424.30   24.60
   1   8   8  406.00   21.40
   1   8   8  441.70   23.60
  -2  -8  -8  107.90   15.50
  -2  -8  -8  101.30   14.70
   2   8   8  105.30   17.30
   2   8   8  116.10   14.20
  -3  -8  -8  310.00   21.40
  -3  -8  -8  347.30   21.20
   3   8   8  347.80   23.70
   3   8   8  332.80   19.90
  -4  -8  -8  136.30   13.60
   4   8   8  143.40   17.10
   4   8   8  104.60   11.40
  -5  -8  -8   20.90   11.40
   5   8   8    6.40   11.10
  -6  -8  -8  546.50   28.20
   6   8   8  481.30   22.10
  -7  -8  -8   78.60   15.10
   7   8   8   77.60    7.30
  -8  -8  -8   54.00   15.30
  -9  -8  -8   54.40   14.00
 -11   9   8  113.20   20.40
 -11   9   8  101.20   12.40
 -11   9   8  136.20   17.50
 -10   9   8    0.30    8.70
 -10   9   8   13.20   12.50
  -9   9   8    4.90   10.20
  -9   9   8    8.60    7.30
  -8   9   8    8.00   11.30
  -8   9   8   12.70    7.10
   7  -9  -8    2.60   10.30
  -7   9   8    2.20    6.90
   6  -9  -8   72.80   13.30
  -6   9   8   69.40   13.30
  -6   9   8   62.30    9.50
   5  -9  -8  423.30   26.60
  -5   9   8  411.40   24.70
  -5   9   8  400.80   23.80
   4  -9  -8  120.70   15.90
  -4   9   8  121.40   13.30
  -4   9   8  107.10   15.50
   3  -9  -8    0.30    8.80
  -3   9   8    5.20    9.30
  -3   9   8    8.80    7.70
   2  -9  -8   95.60   14.90
  -2   9   8  113.70   14.60
  -2   9   8  113.00   16.30
   1  -9  -8  337.80   22.40
  -1   9   8  381.60   22.40
  -1   9   8  360.50   24.40
  -1   9   8  366.30   22.20
   0  -9  -8    0.90    9.10
   0   9   8    0.90    6.30
   0   9   8   15.60    9.30
   0   9   8    6.40    9.10
  -1  -9  -8  167.20   17.30
   1   9   8  147.90   15.60
   1   9   8  129.60   18.40
  -2  -9  -8  533.00   29.10
   2   9   8  463.00   29.70
   2   9   8  578.70   27.50
  -3  -9  -8    2.70    9.90
   3   9   8    1.00   10.20
   3   9   8   12.10    7.80
  -4  -9  -8   83.90   13.00
   4   9   8   44.70    8.90
   4   9   8   73.60   15.40
  -5  -9  -8    0.00    9.00
  -6  -9  -8  776.90   37.40
   6   9   8  703.40   27.40
  -7  -9  -8   56.00   13.00
  -8  -9  -8   15.60   12.50
 -10  10   8    8.60   12.10
 -10  10   8    0.50    6.60
 -10  10   8   14.90   12.30
  -9  10   8  113.10   20.00
  -9  10   8  150.80   19.20
  -9  10   8  155.40   15.00
  -8  10   8   24.10    8.10
  -8  10   8   17.00   10.50
  -8  10   8   44.70   13.30
   7 -10  -8  195.40   22.70
  -7  10   8  194.50   15.80
  -7  10   8  247.00   22.60
   6 -10  -8  252.20   23.20
  -6  10   8  262.40   21.40
  -6  10   8  249.20   17.20
   5 -10  -8  278.80   22.70
  -5  10   8  267.00   18.30
   4 -10  -8    0.20    9.70
  -4  10   8    0.20    9.10
  -4  10   8    0.20    7.60
   3 -10  -8    9.40   10.60
  -3  10   8    5.20   10.00
  -3  10   8   12.70    9.10
   2 -10  -8   19.80   11.20
  -2  10   8    5.80   10.10
   1 -10  -8  718.20   33.20
  -1  10   8  731.70   34.60
  -1  10   8  671.50   35.20
   0 -10  -8  101.80   14.00
   0  10   8   63.70   13.50
   0  10   8  116.60   12.40
  -1 -10  -8    1.60    9.40
   1  10   8   22.40    7.80
   1  10   8    0.30    9.70
  -2 -10  -8  312.70   23.60
   2  10   8  329.70   25.90
   2  10   8  330.10   19.90
  -3 -10  -8  216.70   19.80
   3  10   8  221.60   22.70
   3  10   8  208.00   15.90
  -4 -10  -8  650.80   31.80
   4  10   8  595.30   40.00
  -5 -10  -8   21.50   11.50
  -6 -10  -8  220.00   21.10
  -7 -10  -8  114.40   17.00
  -9  11   8    4.00   13.90
  -9  11   8   20.50   10.80
  -8  11   8    0.00   10.90
  -8  11   8    0.00   11.60
   7 -11  -8  132.10   20.40
  -7  11   8  118.90   19.90
  -7  11   8  146.60   18.90
   6 -11  -8   69.00   16.10
  -6  11   8   92.20   16.80
   5 -11  -8  231.40   21.80
  -5  11   8  251.30   21.10
   4 -11  -8    1.30   10.30
  -4  11   8    6.60    9.50
   3 -11  -8   14.40   11.60
  -3  11   8   31.20   11.30
   2 -11  -8  114.30   15.30
  -2  11   8   97.30   15.40
   1 -11  -8   63.70   12.80
  -1  11   8   57.30   11.00
  -1  11   8   47.90   12.20
   0 -11  -8  435.70   26.30
   0  11   8  446.50   24.00
   0  11   8  436.20   27.00
  -1 -11  -8   16.90   10.10
   1  11   8    0.30    8.90
   1  11   8   10.10    7.40
  -2 -11  -8   42.80   12.50
   2  11   8   53.50   15.50
   2  11   8   71.30   11.50
  -3 -11  -8   51.60   13.60
   3  11   8   62.90   14.70
   3  11   8   73.00   11.10
  -4 -11  -8  475.20   27.90
   4  11   8  481.30   32.70
  -5 -11  -8    3.40   10.40
   5  11   8   11.00    4.50
  -6 -11  -8    5.90   10.50
  -9  12   8   35.90   15.30
  -9  12   8   23.10   13.30
   8 -12  -8   46.30   15.60
  -8  12   8   60.90   13.70
  -8  12   8   69.30   16.80
   7 -12  -8   14.90   13.90
  -7  12   8   50.70   14.10
  -7  12   8   51.10   13.30
   6 -12  -8    0.00   11.30
  -6  12   8    8.00   12.80
  -6  12   8    0.00    9.40
   5 -12  -8   76.70   16.00
  -5  12   8  105.90   18.00
  -5  12   8   86.00   17.30
   4 -12  -8    9.70   11.60
  -4  12   8   16.20   11.20
   3 -12  -8   68.00   14.80
  -3  12   8   57.90   14.50
  -2  12   8    4.30   10.50
   1 -12  -8   14.90   12.50
  -1  12   8    8.10    9.30
  -1  12   8    0.40   11.10
   0 -12  -8  769.40   37.70
   0  12   8  781.50   39.40
   0  12   8  755.60   34.20
  -1 -12  -8   84.10   16.80
   1  12   8  106.80   13.90
   1  12   8   91.70   17.60
  -2 -12  -8   86.60   15.60
   2  12   8   88.70   12.70
   2  12   8   90.10   17.50
   2  12   8   86.60   11.70
  -3 -12  -8   10.90   11.50
   3  12   8    3.40   11.90
   3  12   8   26.20    9.10
  -4 -12  -8   45.70   13.60
   4  12   8   68.60    8.70
  -5 -12  -8   60.80   14.90
   5  12   8   53.70    5.90
   7 -13  -8   50.20   17.90
  -7  13   8   72.70   16.40
  -7  13   8   66.30   16.60
   6 -13  -8    0.80   12.30
  -6  13   8   12.50   10.70
  -6  13   8   14.30   11.10
   5 -13  -8    0.00   12.50
  -5  13   8    0.00    9.80
  -5  13   8   11.20    9.80
   4 -13  -8    0.00   11.90
  -4  13   8   23.70   13.10
  -4  13   8   19.40   12.80
   3 -13  -8    0.30   11.30
  -3  13   8    4.30   11.00
  -3  13   8   23.40   11.60
   2 -13  -8   21.40   12.00
  -2  13   8    5.60    9.70
  -2  13   8   16.00   11.80
   1 -13  -8   86.90   15.90
  -1  13   8   99.30   18.10
  -1  13   8   91.90   14.30
   0 -13  -8  316.90   26.20
   0  13   8  336.40   26.20
   0  13   8  289.70   20.50
   0  13   8  327.90   21.00
  -1 -13  -8    0.00    9.90
   1  13   8    0.00    6.90
   1  13   8    0.00   10.90
  -2 -13  -8  147.60   18.80
   2  13   8  170.70   14.90
   2  13   8  130.40   20.70
   2  13   8  168.60   15.50
  -3 -13  -8  119.30   16.60
   3  13   8  146.30   14.10
   3  13   8  109.60   17.80
   3  13   8  143.70   17.80
  -4 -13  -8   40.60   13.60
   4  13   8    0.40   11.30
   4  13   8   21.40    6.70
   6 -14  -8   23.40   15.20
  -6  14   8   15.30   13.10
  -6  14   8   19.70   15.10
   5 -14  -8   10.30   14.00
  -5  14   8   24.30   13.50
  -5  14   8   35.10   13.40
   4 -14  -8    3.20   13.10
  -4  14   8   11.20   10.60
  -4  14   8    7.50   10.30
   3 -14  -8   11.90   12.10
  -3  14   8   23.00   12.40
  -3  14   8   17.70   13.00
   2 -14  -8  252.80   24.10
  -2  14   8  243.20   21.60
  -2  14   8  280.90   24.90
   1 -14  -8    1.20   11.00
  -1  14   8    0.00    8.20
  -1  14   8    6.90   13.00
   0 -14  -8    7.90   11.40
   0  14   8    0.00    7.60
   0  14   8    0.00    7.70
   0  14   8    0.00   12.20
  -1 -14  -8  141.70   20.10
   1  14   8  123.80   14.20
   1  14   8  105.50   13.30
   1  14   8  121.10   19.20
  -2 -14  -8   10.00   13.60
   2  14   8    0.10    8.10
   2  14   8    4.50    7.60
   2  14   8    0.10   11.30
   2 -15  -8  128.80   18.90
  -2  15   8  180.10   21.10
  -2  15   8  161.60   18.90
   4  17  -9   38.50   13.30
   3  17  -9    0.00   11.70
   2  17  -9   87.40   16.20
   1  17  -9    4.90   13.10
   0  17  -9   19.50   15.60
  -1  17  -9  181.80   24.30
  -2  17  -9  109.70   21.50
  -3  17  -9  322.30   31.80
   5  16  -9    0.70    8.30
  -5 -16   9    0.70    7.70
  -5 -16   9    0.70   12.10
   4  16  -9   83.20   18.10
  -4 -16   9  103.60   16.70
   3  16  -9    0.20    9.60
   2  16  -9   50.50   15.50
   1  16  -9  265.10   26.10
   0  16  -9    0.60   13.60
  -1  16  -9    0.20   12.10
  -2  16  -9   13.40   14.80
  -3  16  -9   71.30   19.80
   3 -16   9   66.40   12.50
  -4  16  -9    0.00   14.40
   4 -16   9    0.00    8.60
  -5  16  -9   39.00   17.80
   5 -16   9    6.00    9.20
   7  15  -9   20.40    7.30
  -7 -15   9   22.20   11.90
  -7 -15   9    0.00    7.40
   6  15  -9    0.10    6.00
  -6 -15   9   15.00   11.40
  -6 -15   9    0.10    7.40
  -5 -15   9   41.40   10.20
  -5 -15   9   37.10   13.20
   4  15  -9   18.60   10.80
  -4 -15   9    3.30    7.40
   3  15  -9   28.00   12.40
  -3 -15   9    1.10    8.70
   2  15  -9  229.70   25.10
   1  15  -9  448.00   30.90
   0  15  -9    0.00   12.00
  -2  15  -9   41.70   16.20
   2 -15   9   40.60    8.70
  -3  15  -9   36.10   14.40
   3 -15   9   75.80   10.70
  -4  15  -9   96.80   21.00
   4 -15   9  109.10   14.40
  -5  15  -9  105.30   18.00
   5 -15   9   11.10    7.80
  -6  15  -9   45.70   17.90
  -8 -14   9  111.90   12.20
  -8 -14   9  112.20   15.40
   7  14  -9   48.70   10.50
  -7 -14   9   67.40   14.00
  -7 -14   9   79.00   11.50
  -6 -14   9   21.10    9.10
  -6 -14   9   22.60   12.40
  -5 -14   9  191.90   20.00
  -5 -14   9  178.50   16.70
   4  14  -9   69.90   14.10
  -4 -14   9   71.10   10.20
   3  14  -9  178.00   21.70
  -3 -14   9  178.50   16.50
   2  14  -9  135.90   18.10
  -2 -14   9  131.10   13.90
   1  14  -9  100.60   18.60
   0  14  -9   81.90   16.10
   0 -14   9   83.50   11.50
  -1  14  -9    0.10   11.80
   1 -14   9   14.40    7.30
  -3  14  -9  181.80   25.00
   3 -14   9  264.50   18.10
  -4  14  -9  443.00   32.10
   4 -14   9  396.50   21.20
  -5  14  -9   14.50   17.00
  -6  14  -9    0.60   15.10
  -7  14  -9   24.30   15.00
   7 -14   9    0.30    8.10
   7 -14   9   21.00    5.10
   9  13  -9   26.80   13.60
  -9 -13   9   96.90   11.00
  -9 -13   9   83.90   12.80
   8  13  -9    0.10    9.60
  -8 -13   9   30.20   10.40
  -8 -13   9   26.80    8.50
   7  13  -9  205.80   21.60
  -7 -13   9  308.10   21.60
  -7 -13   9  300.10   18.10
   6  13  -9    4.50    8.70
   6  13  -9    3.60    7.70
  -6 -13   9   18.40    8.50
  -6 -13   9   12.00   10.00
   5  13  -9  158.60   16.10
   5  13  -9  104.50   15.60
  -5 -13   9  198.00   17.00
   4  13  -9  318.90   26.10
   4  13  -9  409.30   24.70
  -4 -13   9  353.30   22.00
   3  13  -9  373.10   29.50
   3  13  -9  436.20   26.80
  -3 -13   9  443.20   26.20
   2  13  -9    0.00    7.60
   2  13  -9   13.30   12.00
  -2 -13   9   11.30    8.80
   1  13  -9  258.60   23.50
  -1 -13   9  248.90   19.20
  -1 -13   9  310.40   18.30
   0  13  -9  397.90   30.60
   0 -13   9  390.20   22.70
  -1  13  -9  191.20   22.00
   1 -13   9  196.50   15.40
  -2  13  -9  112.90   18.50
   2 -13   9  175.70   13.70
  -3  13  -9  102.00   27.70
   3 -13   9  111.80   11.90
  -4  13  -9   65.80   16.40
   4 -13   9   70.90    9.70
  -5  13  -9  257.60   24.90
  -6  13  -9   27.30   15.80
  -7  13  -9   16.60   14.60
  -8  13  -9   11.20   14.90
  10  12  -9    3.20   11.90
 -10 -12   9   23.40   15.80
 -10 -12   9   24.50    8.60
 -10 -12   9   12.70    9.30
  -9 -12   9   44.40    9.30
  -9 -12   9   47.00   10.30
  -9 -12   9   31.40   14.70
  -8 -12   9    0.20    7.60
  -8 -12   9   10.50    9.10
   7  12  -9  156.10   18.90
  -7 -12   9  244.70   17.80
  -7 -12   9  216.80   16.30
   6  12  -9   19.80   10.30
   6  12  -9   14.70    8.10
  -6 -12   9   21.70    7.50
  -6 -12   9   37.20   10.10
   5  12  -9    0.20    8.60
  -5 -12   9    0.20    7.10
  -5 -12   9    6.40    9.00
   4  12  -9  137.50   16.20
   4  12  -9  147.90   20.70
  -4 -12   9  159.70   19.70
   3  12  -9  237.30   17.70
   3  12  -9  282.80   22.60
  -3 -12   9  233.00   17.50
   2  12  -9   41.10   14.20
   2  12  -9   62.20   12.50
  -2 -12   9   59.10   12.50
   1  12  -9  485.20   30.40
   1  12  -9  511.40   35.90
  -1 -12   9  514.80   32.10
   0  12  -9  342.30   27.50
   0  12  -9  342.80   22.60
   0 -12   9  347.80   19.80
   0 -12   9  311.90   23.30
  -1  12  -9  167.70   19.80
   1 -12   9  187.20   14.20
  -2  12  -9  424.30   31.70
   2 -12   9  456.50   22.10
  -3  12  -9  146.40   18.10
   3 -12   9  184.80   12.20
  -4  12  -9   28.80   21.20
   4 -12   9   32.50    7.10
  -5  12  -9  125.80   21.00
  -6  12  -9   16.00   14.60
   6 -12   9    5.70    4.60
  -7  12  -9   54.60   17.60
  -8  12  -9    1.60   12.30
  -9  12  -9    0.20   13.50
  10  11  -9    0.00    8.40
 -10 -11   9    7.20    7.70
 -10 -11   9   20.60   13.80
 -10 -11   9    0.00    7.50
   9  11  -9   85.20   12.90
  -9 -11   9  107.10   12.90
  -9 -11   9  106.20   19.70
  -9 -11   9  103.10   12.60
   8  11  -9   88.70   12.90
  -8 -11   9  104.90   12.80
  -8 -11   9   95.30   12.50
  -8 -11   9  107.10   17.80
   7  11  -9  341.40   24.00
  -7 -11   9  450.60   24.50
  -7 -11   9  452.50   24.80
   6  11  -9   63.10   11.70
   6  11  -9   44.70   10.30
  -6 -11   9   73.90   11.00
  -6 -11   9   63.90   11.00
   5  11  -9  159.90   13.50
   5  11  -9  165.10   16.30
  -5 -11   9  183.60   14.00
   4  11  -9   98.80   14.30
   4  11  -9   65.30   15.20
  -4 -11   9   75.10   13.40
   3  11  -9  362.80   26.60
   3  11  -9  358.00   22.10
  -3 -11   9  342.20   22.40
   2  11  -9  413.40   21.30
   2  11  -9  414.20   25.30
  -2 -11   9  419.90   25.20
   1  11  -9   55.10   12.60
   1  11  -9   56.00   13.50
  -1 -11   9   60.40   10.90
   0  11  -9    2.80    7.20
   0  11  -9    4.10   11.20
   0 -11   9    3.20    7.60
  -1  11  -9   22.60   12.30
  -1  11  -9    0.50    7.00
   1 -11   9    8.10    6.40
   1 -11   9    0.50    7.70
  -2  11  -9  122.70   16.70
  -2  11  -9  120.80   20.30
   2 -11   9  141.40   13.70
  -3  11  -9  192.20   22.30
   3 -11   9  248.30   14.60
  -4  11  -9   52.80   15.50
  -5  11  -9  118.60   33.90
   5 -11   9  146.40   10.40
  -6  11  -9    9.50   13.20
  -7  11  -9    0.00   12.40
  -8  11  -9  220.30   25.70
  -9  11  -9    3.70   13.80
  11  10  -9   29.90    7.90
 -11 -10   9   13.20   10.90
 -11 -10   9    1.80    8.20
 -11 -10   9   40.60    7.90
  10  10  -9    0.00    6.60
 -10 -10   9    0.00    7.20
 -10 -10   9    4.70    7.10
 -10 -10   9    1.70   11.60
   9  10  -9  222.80   16.50
  -9 -10   9  212.80   15.30
  -9 -10   9  181.20   16.20
  -9 -10   9  227.90   24.90
   8  10  -9    0.70    6.00
  -8 -10   9    0.70   10.50
  -8 -10   9   12.20    7.80
  -8 -10   9   21.50    7.80
   7  10  -9   60.80   10.20
  -7 -10   9   63.70   18.10
  -7 -10   9   68.40   10.90
  -7 -10   9   82.10   10.90
   6  10  -9   22.20    8.90
   6  10  -9   33.40   12.40
  -6 -10   9   22.70   10.10
  -6 -10   9   34.10    9.70
   5  10  -9   65.40   15.70
   5  10  -9   61.10   12.60
  -5 -10   9   45.90   12.30
   4  10  -9    7.70    9.40
   4  10  -9   34.90    8.40
  -4 -10   9   18.70    8.70
   3  10  -9 1028.40   37.90
   3  10  -9 1026.80   43.10
  -3 -10   9 1028.10   39.00
   2  10  -9  665.80   28.80
   2  10  -9  640.00   33.60
  -2 -10   9  621.00   29.80
   1  10  -9   20.80    7.20
   1  10  -9    4.00    9.60
   0  10  -9  175.20   15.70
   0  10  -9  173.00   18.50
   0 -10   9  161.80   15.90
  -1  10  -9    5.20   11.00
  -1  10  -9   34.80    8.90
   1 -10   9   39.50    8.80
  -2  10  -9    3.50    8.60
  -2  10  -9    0.00   12.10
   2 -10   9   11.60    5.30
   2 -10   9    0.00    7.50
  -3  10  -9  351.10   23.50
  -3  10  -9  358.90   27.40
   3 -10   9  350.30   17.40
  -4  10  -9   79.50   18.10
   4 -10   9  101.00   10.20
   4 -10   9   85.30   10.50
  -5  10  -9   18.70   13.10
   5 -10   9    6.50    4.40
  -6  10  -9   60.00   23.80
  -7  10  -9   47.30   14.70
  -8  10  -9  555.30   34.50
  -9  10  -9   30.20   15.40
 -10  10  -9    7.80   15.30
 -11  -9   9   41.10    8.50
 -11  -9   9   55.10   16.10
  10   9  -9  100.00   10.50
 -10  -9   9  109.00   13.60
 -10  -9   9   99.70   10.40
 -10  -9   9  102.90   17.70
   9   9  -9  259.40   14.60
  -9  -9   9  292.20   18.00
  -9  -9   9  316.40   24.30
  -9  -9   9  291.30   15.30
   8   9  -9   12.10    6.30
  -8  -9   9    8.50    8.30
  -8  -9   9    9.30    6.70
  -8  -9   9    0.00   10.00
   7   9  -9  166.60   14.50
  -7  -9   9  151.00   21.00
  -7  -9   9  150.90   16.60
  -7  -9   9  173.20   14.50
   6   9  -9  482.50   25.40
   6   9  -9  458.80   20.70
  -6  -9   9  496.90   23.40
  -6  -9   9  508.50   28.40
   5   9  -9  111.50   15.10
   5   9  -9   94.20   10.90
  -5  -9   9  122.40   15.50
  -5  -9   9  140.60   14.10
   4   9  -9  471.60   24.40
   4   9  -9  475.80   29.50
  -4  -9   9  436.90   26.00
   3   9  -9  371.10   18.10
   3   9  -9  348.50   22.30
  -3  -9   9  330.40   19.30
   2   9  -9  171.40   15.20
   2   9  -9  158.80   17.90
  -2  -9   9  155.20   16.70
   1   9  -9  236.20   16.70
   1   9  -9  205.50   21.00
  -1  -9   9  275.20   20.00
   0   9  -9  146.70   13.80
   0   9  -9  130.00   15.90
   0  -9   9  145.40   17.00
  -1   9  -9   13.30    7.40
  -1   9  -9   10.50    9.70
   1  -9   9   25.30    9.20
  -2   9  -9  305.20   24.00
  -2   9  -9  340.20   21.40
   2  -9   9  316.30   17.10
   2  -9   9  284.20   22.20
  -3   9  -9  227.60   15.60
  -3   9  -9  190.80   16.80
   3  -9   9  202.10   10.30
   3  -9   9  212.20   16.20
   3  -9   9  244.70   10.80
  -4   9  -9  427.40   27.60
  -4   9  -9  400.90   27.90
   4  -9   9  425.90   16.20
   4  -9   9  409.50   16.40
  -5   9  -9   28.70   12.00
  -6   9  -9    2.40   11.80
  -7   9  -9   91.60   16.90
  -8   9  -9  161.70   21.80
  -9   9  -9  121.20   19.00
 -10   9  -9    0.20   14.50
 -12  -8   9    0.20    8.60
 -12  -8   9   11.20    5.20
 -12  -8   9    7.00   13.20
 -11  -8   9    4.60    5.20
 -11  -8   9   12.10    9.30
 -11  -8   9    0.10   12.20
  10   8  -9    1.10    4.60
 -10  -8   9    0.60    5.30
 -10  -8   9    1.70   12.00
 -10  -8   9    1.80   13.60
   9   8  -9   10.80    5.20
  -9  -8   9    9.70    9.10
  -9  -8   9    0.20    5.60
  -9  -8   9   18.70   13.10
   8   8  -9   14.20    6.40
  -8  -8   9   16.00    6.80
  -8  -8   9   23.50   10.60
  -8  -8   9    9.80   12.20
  -7  -8   9  104.20   16.00
  -7  -8   9  103.90   12.60
   6   8  -9   94.10   13.40
   6   8  -9  128.40   11.00
  -6  -8   9  135.60   14.20
  -6  -8   9  145.50   16.20
   5   8  -9  585.80   26.10
   5   8  -9  618.40   31.70
  -5  -8   9  608.80   29.50
  -5  -8   9  632.80   31.60
   4   8  -9 1177.60   41.70
   4   8  -9 1119.30   35.70
  -4  -8   9 1153.10   40.40
  -4  -8   9 1129.40   38.70
   3   8  -9    0.60    8.80
   3   8  -9   14.30    6.40
  -3  -8   9   19.40    7.70
  -3  -8   9   16.20    8.60
   2   8  -9  182.90   17.10
   2   8  -9  166.10   13.10
  -2  -8   9  144.50   15.30
  -2  -8   9  151.40   15.00
   1   8  -9 1485.90   54.40
   1   8  -9 1510.50   59.90
  -1  -8   9 1382.60   54.10
  -1  -8   9 1442.70   57.20
   0   8  -9    5.60    8.00
   0   8  -9    0.10   10.60
   0  -8   9    2.40    6.90
   0  -8   9    6.70    8.70
  -1   8  -9  101.90   14.20
  -1   8  -9  101.00   10.70
   1  -8   9  113.40   12.10
   1  -8   9  108.80    9.70
  -2   8  -9  982.30   37.40
  -2   8  -9  936.90   33.80
   2  -8   9  965.30   28.80
   2  -8   9  972.70   36.00
  -3   8  -9   48.50   13.40
   3  -8   9   53.00    7.20
   3  -8   9   44.70   11.50
   3  -8   9   47.50    9.60
  -4   8  -9  624.00   33.90
   4  -8   9  583.60   20.30
   4  -8   9  606.60   19.90
   4  -8   9  550.20   29.90
  -5   8  -9   10.30   13.30
  -6   8  -9  345.60   26.10
  -7   8  -9    4.50   11.20
  -8   8  -9   15.50   14.80
  -9   8  -9  278.40   28.90
 -10   8  -9   62.70   17.30
 -11   8  -9   45.60   16.40
 -11   8  -9   45.60   16.60
 -12  -7   9    1.00    9.00
 -12  -7   9    3.80   13.60
 -11  -7   9   15.60    5.00
 -11  -7   9   29.40   15.10
 -11  -7   9   31.40   11.10
 -10  -7   9    0.00   10.00
 -10  -7   9    7.90    9.10
   9   7  -9  324.20   13.00
  -9  -7   9  338.40   21.00
  -9  -7   9  357.30   25.20
   8   7  -9  324.10   15.00
  -8  -7   9  282.60   24.40
  -8  -7   9  298.20   21.10
  -7  -7   9    3.30    7.70
  -7  -7   9    2.80   10.90
   6   7  -9   10.70    4.90
  -6  -7   9   20.70    8.50
  -6  -7   9   17.20   10.10
   5   7  -9  205.20   13.10
   5   7  -9  204.10   18.20
  -5  -7   9  233.50   18.30
  -5  -7   9  217.20   18.60
   4   7  -9  324.10   22.90
  -4  -7   9  322.80   21.20
  -4  -7   9  288.50   20.70
   3   7  -9   47.80   10.40
   3   7  -9   38.00   13.00
  -3  -7   9   49.80   13.50
  -3  -7   9   45.90   13.30
   2   7  -9  135.60   16.50
   2   7  -9  153.80   13.00
  -2  -7   9  151.90   16.60
  -2  -7   9  151.20   14.50
   1   7  -9 1092.80   40.60
   1   7  -9 1063.30   35.20
  -1  -7   9 1067.00   39.80
  -1  -7   9 1043.40   38.50
   0   7  -9    2.50    8.20
   0   7  -9   10.80    6.30
   0  -7   9    2.50    7.40
   0  -7   9   13.90    5.90
  -1   7  -9   68.80   13.70
   1  -7   9   32.00   11.00
   1  -7   9   49.40    8.30
  -2   7  -9 1293.60   51.90
   2  -7   9 1309.20   51.70
   2  -7   9 1375.30   43.90
  -3   7  -9    2.00    9.40
   3  -7   9    1.10    4.40
   3  -7   9    5.30    8.40
  -4   7  -9   63.10   13.50
   4  -7   9   85.90    6.00
   4  -7   9   67.70    5.80
   4  -7   9   62.80   12.30
  -5   7  -9  245.70   24.30
   5  -7   9  247.90   21.40
  -6   7  -9    1.00   11.00
  -7   7  -9   51.00   15.10
  -8   7  -9   55.50   14.40
  -9   7  -9  287.90   25.60
 -10   7  -9   65.50   16.00
 -10   7  -9  107.40   19.70
 -11   7  -9    2.00   11.40
 -11   7  -9    2.00   13.40
 -12  -6   9    8.00   11.60
 -11  -6   9    5.50    9.40
 -11  -6   9    0.10   10.40
 -10  -6   9   12.30    9.20
 -10  -6   9    0.60   11.70
  -9  -6   9  257.20   23.70
   8   6  -9  313.40   12.20
  -8  -6   9  344.00   24.70
  -8  -6   9  326.30   21.20
   7   6  -9   41.80    4.80
  -7  -6   9   38.90    9.60
  -7  -6   9   47.00   11.50
   6   6  -9  183.10    8.90
  -6  -6   9  189.40   15.50
  -6  -6   9  189.40   17.10
   5   6  -9   47.10   11.10
   5   6  -9   72.70    7.90
  -5  -6   9   61.60   11.10
  -5  -6   9   72.60   13.10
   4   6  -9  116.80   13.70
   4   6  -9  107.30    9.70
  -4  -6   9   94.10   12.80
  -4  -6   9  106.60   13.40
   3   6  -9  584.00   23.10
   3   6  -9  599.70   17.60
  -3  -6   9  587.60   21.80
  -3  -6   9  571.90   21.30
   2   6  -9   42.40    7.80
   2   6  -9   22.00   10.40
  -2  -6   9   39.00    9.40
  -2  -6   9   36.20    9.90
   1   6  -9    8.90    8.60
   1   6  -9   20.30    7.20
  -1  -6   9   13.10    7.60
  -1  -6   9   23.10    9.10
   0   6  -9    4.70    9.90
   0  -6   9    4.30    6.90
   0  -6   9    6.70    9.10
  -1   6  -9   15.30   11.00
   1  -6   9   19.80   10.10
   1  -6   9   21.40    7.60
  -2   6  -9  626.00   31.50
   2  -6   9  667.30   23.50
   2  -6   9  674.10   30.80
  -3   6  -9  452.30   27.40
   3  -6   9  450.60   17.20
   3  -6   9  413.60   25.60
  -4   6  -9    9.70   10.30
   4  -6   9   13.00    3.80
   4  -6   9   21.90    3.60
   4  -6   9   10.50   10.60
  -5   6  -9  288.80   22.10
   5  -6   9  308.20   21.40
  -6   6  -9    3.50   11.70
   6  -6   9    0.80    8.30
  -7   6  -9  288.90   23.50
  -8   6  -9   14.90   13.00
  -9   6  -9    1.30   11.70
 -10   6  -9   29.90   13.30
 -10   6  -9   31.10   15.00
 -11   6  -9    4.70   11.40
 -11   6  -9    2.90   13.00
 -13  -5   9    1.70   12.60
 -12  -5   9    7.50   11.80
 -11  -5   9  334.80   26.40
 -11  -5   9  340.10   22.30
 -10  -5   9   53.70   11.40
 -10  -5   9   40.90   13.10
  -9  -5   9  213.60   21.90
  -9  -5   9  224.10   19.80
  -8  -5   9   33.90   10.90
  -8  -5   9   43.00   10.40
  -7  -5   9   68.40   11.50
  -7  -5   9   66.90   13.70
   6   5  -9   11.80    2.80
  -6  -5   9   17.30    7.90
  -6  -5   9   20.20    8.50
   5   5  -9   26.00    8.90
   5   5  -9   39.70    5.60
  -5  -5   9   34.20   10.00
  -5  -5   9   38.60   10.40
   4   5  -9  401.30   15.10
   4   5  -9  417.30   21.60
  -4  -5   9  407.20   20.10
  -4  -5   9  396.30   20.10
   3   5  -9 1017.50   28.20
   3   5  -9  967.90   33.70
  -3  -5   9 1031.00   34.00
  -3  -5   9 1002.80   32.40
   2   5  -9  152.20   15.50
   2   5  -9  152.80   11.70
  -2  -5   9  123.70   13.40
  -2  -5   9  126.30   14.10
   1   5  -9  182.40   14.70
  -1  -5   9  157.40   13.40
  -1  -5   9  164.70   11.80
   0   5  -9    9.90    8.00
   0  -5   9    0.40    6.50
   0  -5   9    0.40    5.40
  -1   5  -9    5.20    8.10
   1  -5   9    9.40    7.40
   1  -5   9    1.10    4.90
  -2   5  -9  173.20   13.30
   2  -5   9  188.40   13.50
   2  -5   9  173.10    8.80
  -3   5  -9  609.90   30.30
   3  -5   9  555.90   19.90
   3  -5   9  574.90   29.80
  -4   5  -9  300.80   21.10
   4  -5   9  254.90    9.00
   4  -5   9  326.10   22.50
  -5   5  -9  859.80   37.90
   5  -5   9  881.00   39.00
  -6   5  -9  239.90   21.30
   6  -5   9  198.40   20.30
  -7   5  -9  366.50   25.40
  -7   5  -9  367.60   25.10
  -8   5  -9   23.00   12.20
  -9   5  -9   29.30   12.60
  -9   5  -9   30.90   13.80
 -10   5  -9  171.10   21.30
 -10   5  -9  236.60   25.00
 -11   5  -9    0.30   11.10
 -11   5  -9   10.30   11.30
 -13  -4   9   27.20   14.20
 -12  -4   9   33.50   14.00
 -11  -4   9  364.70   26.50
 -10  -4   9  147.60   15.00
 -10  -4   9  150.90   22.20
  -9  -4   9   32.60   11.10
  -9  -4   9   28.50   10.00
  -8  -4   9   17.60   10.70
  -8  -4   9   20.50   11.20
  -7  -4   9  243.70   17.80
  -7  -4   9  288.80   22.10
  -6  -4   9   40.20    9.30
  -6  -4   9   43.10    9.40
   5   4  -9  142.30    7.30
  -5  -4   9  142.00   14.70
  -5  -4   9  161.40   15.70
   4   4  -9  331.90   15.10
   4   4  -9  334.80   21.70
  -4  -4   9  362.70   22.50
  -4  -4   9  337.50   21.30
   3   4  -9   96.50   11.60
   3   4  -9   75.30   16.10
  -3  -4   9   82.70   15.30
  -3  -4   9   87.10   17.00
   2   4  -9  298.10   18.10
  -2  -4   9  290.20   17.90
   1   4  -9  180.80   16.90
  -1  -4   9  179.10   16.60
  -1  -4   9  206.50   14.30
   0   4  -9   91.40   11.60
   0  -4   9  109.60   12.10
   0  -4   9   99.60    9.20
  -1   4  -9   74.90   13.30
   1  -4   9   65.60   12.80
   1  -4   9   73.40    9.90
  -2   4  -9   75.90   10.30
   2  -4   9   73.20   10.20
   2  -4   9   77.70    6.40
  -3   4  -9  811.20   37.00
   3  -4   9  876.40   37.80
   3  -4   9  855.30   28.60
  -4   4  -9   13.20    9.60
   4  -4   9   11.40    3.80
   4  -4   9   34.50    9.40
  -5   4  -9    0.20    7.40
  -5   4  -9    8.40    9.30
  -6   4  -9   27.40   10.40
  -6   4  -9   29.30   10.30
   6  -4   9   38.20   10.20
  -7   4  -9  162.90   17.40
  -7   4  -9  151.30   17.30
   7  -4   9  171.30   19.40
  -8   4  -9   17.60   11.00
  -8   4  -9    4.80   10.60
  -9   4  -9   60.80   14.10
  -9   4  -9   88.30   16.00
 -10   4  -9  308.20   26.20
 -10   4  -9  322.80   25.70
 -11   4  -9   28.10   14.30
 -11   4  -9   11.00   12.50
 -13  -3   9    7.00   14.00
 -12  -3   9    7.30   14.10
 -11  -3   9   97.60   16.60
 -10  -3   9   13.60   13.80
 -10  -3   9    0.10    7.60
  -9  -3   9   22.30    8.60
  -9  -3   9   37.60   11.20
  -8  -3   9  154.10   15.40
  -8  -3   9  151.80   17.30
  -7  -3   9  814.60   36.50
  -7  -3   9  847.90   34.80
  -6  -3   9  477.60   29.10
  -6  -3   9  502.70   27.90
  -5  -3   9   16.30    9.80
  -5  -3   9   27.30   10.60
   4   3  -9  279.10   17.50
   4   3  -9  219.70    9.40
   4   3  -9  235.20   10.10
  -4  -3   9  225.80   16.50
  -4  -3   9  241.10   16.70
   3   3  -9  163.90   13.40
   3   3  -9  146.40    9.20
   3   3  -9  146.60   14.40
  -3  -3   9  160.90   14.60
  -3  -3   9  157.50   14.70
   2   3  -9  439.70   15.30
   2   3  -9  446.00   18.90
   2   3  -9  439.80   20.40
  -2  -3   9  464.30   20.80
  -2  -3   9  449.40   19.10
   1   3  -9  214.10   15.20
   1   3  -9  237.30   13.50
  -1  -3   9  224.90   16.60
  -1  -3   9  201.00   13.30
   0   3  -9   96.20   13.70
   0   3  -9   87.40   10.00
   0  -3   9   89.10   11.20
   0  -3   9  105.00   13.90
  -1   3  -9  424.20   18.70
  -1   3  -9  449.80   20.80
  -1   3  -9  444.30   24.30
   1  -3   9  419.70   19.00
   1  -3   9  445.10   24.40
  -2   3  -9  274.20   12.40
  -2   3  -9  304.80   19.40
  -2   3  -9  279.50   16.50
   2  -3   9  275.00   12.70
   2  -3   9  292.80   19.50
  -3   3  -9 1363.10   43.50
  -3   3  -9 1351.60   49.80
  -3   3  -9 1405.30   52.30
   3  -3   9 1353.70   44.20
   3  -3   9 1300.10   52.30
  -4   3  -9  104.40   12.90
  -4   3  -9  108.00   13.10
   4  -3   9   88.00    7.40
   4  -3   9  114.50   14.50
  -5   3  -9  341.10   23.20
  -5   3  -9  371.30   24.30
   5  -3   9  371.90   25.00
  -6   3  -9   24.70   10.20
  -6   3  -9   11.20    9.10
   6  -3   9   10.60   10.60
  -7   3  -9   35.50   11.50
  -7   3  -9   47.30   12.90
   7  -3   9   33.50   11.60
  -8   3  -9  485.90   28.70
  -8   3  -9  476.30   28.70
   8  -3   9  382.70   28.30
  -9   3  -9   30.50   12.30
  -9   3  -9   24.00   10.80
 -10   3  -9   62.00   14.60
 -10   3  -9   45.90   14.90
 -11   3  -9   38.00   24.80
 -11   3  -9   39.10   13.90
 -13  -2   9    0.00   10.60
 -12  -2   9   23.90   13.60
 -11  -2   9   18.80   11.60
 -10  -2   9  283.10   21.40
  -9  -2   9  135.90   17.40
  -9  -2   9  135.70   16.20
  -8  -2   9   48.00   11.30
  -8  -2   9   59.20   12.70
  -7  -2   9  247.70   18.50
  -7  -2   9  290.70   20.40
  -6  -2   9   14.00    9.80
  -6  -2   9   21.00   10.20
   5   2  -9    0.20    6.10
  -5  -2   9    0.20    7.10
  -5  -2   9    0.20    8.00
   4   2  -9   25.00    8.30
   4   2  -9   23.20    3.40
   4   2  -9   22.40    3.90
  -4  -2   9   24.00    8.30
  -4  -2   9   22.10    9.10
   3   2  -9  442.90   21.10
   3   2  -9  480.80   15.60
   3   2  -9  452.10   21.50
  -3  -2   9  485.20   22.10
  -3  -2   9  482.70   21.30
   2   2  -9   93.10   10.30
   2   2  -9   90.10    7.50
   2   2  -9   96.30   11.10
  -2  -2   9   97.70   11.90
  -2  -2   9   87.10   11.00
   1   2  -9  110.40   13.10
   1   2  -9  101.60   10.20
   1   2  -9   94.60    9.00
  -1  -2   9  116.20   13.50
  -1  -2   9  102.60   10.70
   0   2  -9  128.40   15.10
   0   2  -9  102.40   11.90
   0   2  -9  133.60   12.60
   0  -2   9  121.50   12.60
   0  -2   9  125.80   16.60
  -1   2  -9 1210.80   38.60
  -1   2  -9 1186.00   41.50
  -1   2  -9 1196.10   35.80
   1  -2   9 1220.50   39.60
   1  -2   9 1245.70   34.30
  -2   2  -9   24.30    9.70
  -2   2  -9   30.20    7.60
  -2   2  -9   16.10    9.70
   2  -2   9   18.80    7.20
   2  -2   9   32.00   12.20
  -3   2  -9  228.60   16.80
  -3   2  -9  238.00   15.70
   3  -2   9  214.60   16.80
   3  -2   9  237.40   11.40
  -4   2  -9    0.20    7.40
  -4   2  -9    5.30    9.30
  -4   2  -9    1.20    3.70
   4  -2   9    1.40    4.40
   4  -2   9    1.70    8.10
  -5   2  -9   52.80   11.60
  -5   2  -9   44.30   11.70
  -5   2  -9   42.00    5.30
   5  -2   9   23.90    9.80
   5  -2   9   47.00    5.80
  -6   2  -9    1.30    2.90
  -6   2  -9    0.80    7.80
  -6   2  -9    0.80    8.60
   6  -2   9    0.00    8.90
  -7   2  -9  184.40   19.20
  -7   2  -9  143.30   17.00
   7  -2   9  152.60   18.30
  -8   2  -9  787.60   37.30
  -8   2  -9  810.70   36.40
   8  -2   9  743.70   38.40
  -9   2  -9   38.70   12.70
  -9   2  -9   22.00   11.70
   9  -2   9   36.90   12.40
 -10   2  -9   52.70   13.20
 -10   2  -9   61.80   12.90
 -11   2  -9    0.00   11.00
 -11   2  -9    4.90   12.50
 -13  -1   9   14.60   13.00
 -12  -1   9    0.20   12.20
 -11  -1   9   89.90   16.80
 -10  -1   9  432.10   27.20
  -9  -1   9  325.20   22.50
  -9  -1   9  350.50   21.40
  -8  -1   9   31.20    9.60
  -8  -1   9   35.90    8.30
   7   1  -9   32.70    9.20
  -7  -1   9   20.60    8.50
  -7  -1   9   42.90   10.50
  -6  -1   9   48.50   11.30
  -6  -1   9   44.80   11.20
   5   1  -9  404.90   23.40
  -5  -1   9  365.80   21.60
  -5  -1   9  403.80   22.80
   4   1  -9   75.30   11.40
   4   1  -9   87.50    5.40
  -4  -1   9   85.50   11.30
  -4  -1   9   87.00   12.00
   3   1  -9  661.60   20.60
   3   1  -9  624.50   26.50
  -3  -1   9  684.10   26.90
  -3  -1   9  631.70   27.20
   2   1  -9   21.00    8.20
   2   1  -9   16.40    7.80
   2   1  -9   31.10    5.80
  -2  -1   9   14.60    8.10
  -2  -1   9   19.80   12.10
   1   1  -9    1.40    8.80
   1   1  -9    3.60   10.70
   1   1  -9    1.50    6.90
  -1  -1   9    2.60    8.60
  -1  -1   9    0.40    9.50
   0   1  -9  584.00   26.90
   0   1  -9  579.50   29.90
   0   1  -9  596.20   26.30
   0  -1   9  580.00   26.90
   0  -1   9  572.20   30.70
  -1   1  -9  767.40   30.10
  -1   1  -9  700.40   28.40
  -1   1  -9  735.70   32.40
   1  -1   9  733.60   28.60
   1  -1   9  725.00   33.50
  -2   1  -9   22.00    6.80
  -2   1  -9   19.20    4.90
  -2   1  -9   21.30    7.40
   2  -1   9   15.20    5.60
   2  -1   9   32.50    9.30
  -3   1  -9   16.30    5.30
  -3   1  -9    5.70    8.40
  -3   1  -9   13.00    7.70
   3  -1   9   14.00    9.60
   3  -1   9   14.60    5.80
  -4   1  -9  384.00   23.30
  -4   1  -9  432.30   19.40
  -4   1  -9  392.90   24.20
   4  -1   9  402.10   26.20
   4  -1   9  334.50   19.30
  -5   1  -9  390.90   16.20
  -5   1  -9  386.00   23.60
  -5   1  -9  421.60   24.80
   5  -1   9  353.00   17.40
   5  -1   9  395.70   25.60
  -6   1  -9  172.90   17.20
  -6   1  -9  197.00   18.30
  -6   1  -9  176.80    9.80
   6  -1   9  214.20   20.00
  -7   1  -9  141.10    7.50
  -7   1  -9  142.20   15.90
  -7   1  -9  160.80   15.40
   7  -1   9  139.90   16.70
  -8   1  -9  393.00   29.60
  -8   1  -9  410.80   24.80
  -8   1  -9  388.40   13.60
   8  -1   9  366.50   26.30
  -9   1  -9   23.70   11.50
  -9   1  -9   38.40   11.70
   9  -1   9   27.70   12.00
 -10   1  -9    0.00    9.80
 -10   1  -9   35.20   12.10
 -11   1  -9    2.80   12.70
 -11   1  -9    0.30   10.90
 -13   0   9   44.20   13.50
 -12   0   9   46.30   14.80
 -11   0   9    2.40   10.60
 -10   0   9   30.40   12.00
  -9   0   9   18.40    9.70
   8   0  -9   15.60    9.70
  -8   0   9   15.50    9.40
  -8   0   9   21.80   10.90
   7   0  -9  176.60   15.40
  -7   0   9  189.90   16.00
  -7   0   9  184.30   14.30
   6   0  -9  128.90   15.60
  -6   0   9  106.30   12.60
  -6   0   9  131.50   12.10
   5   0  -9  513.20   23.10
  -5   0   9  503.80   22.50
  -5   0   9  500.50   23.00
   4   0  -9  104.50    6.00
   4   0  -9  102.90   11.00
  -4   0   9  108.10   11.10
  -4   0   9   97.70   10.80
   3   0  -9  266.40   17.80
   3   0  -9  252.80   12.40
  -3   0   9  266.30   18.80
  -3   0   9  222.90   17.70
   2   0  -9   49.90   10.20
   2   0  -9   51.10   10.40
   2   0  -9   52.80    7.70
  -2   0   9   52.90   10.80
  -2   0   9   48.00   10.30
   1   0  -9  177.10   12.40
   1   0  -9  204.40   15.70
   1   0  -9  166.20   13.50
  -1   0   9  186.00   14.80
  -1   0   9  174.40   15.80
   0   0  -9  278.00   14.10
   0   0  -9  252.90   16.40
   0   0  -9  267.40   13.70
   0   0   9  252.40   14.40
   0   0   9  295.10   18.20
  -1   0  -9    2.10    6.20
  -1   0  -9    3.50    8.60
   1   0   9    4.40    8.40
   1   0   9    7.60    6.90
  -2   0  -9  378.00   16.20
  -2   0  -9  381.40   19.30
  -2   0  -9  378.00   18.00
   2   0   9  424.30   18.00
   2   0   9  417.10   22.20
  -3   0  -9    1.90    7.40
  -3   0  -9   10.50    7.00
   3   0   9    0.10    7.20
   3   0   9    0.10    5.60
  -4   0  -9  823.40   33.30
  -4   0  -9  911.70   34.30
  -4   0  -9  856.50   28.50
   4   0   9  772.50   30.80
   4   0   9  853.20   36.60
  -5   0  -9  951.40   31.40
  -5   0  -9  969.70   37.50
  -5   0  -9  899.20   37.50
   5   0   9  819.40   33.00
   5   0   9  906.70   40.30
  -6   0  -9  299.60   23.10
  -6   0  -9  318.50   16.60
  -6   0  -9  317.20   22.70
   6   0   9  375.00   26.90
  -7   0  -9   74.50   13.30
  -7   0  -9   72.90    8.20
  -7   0  -9   68.30   13.70
   7   0   9   73.20   14.70
  -8   0  -9   18.10    5.40
  -8   0  -9   13.50    9.40
   8   0   9    1.00    9.60
  -9   0  -9  201.50   21.10
  -9   0  -9  198.40   19.10
   9   0   9  172.90   20.90
 -10   0  -9   41.30    5.40
 -10   0  -9   29.70   13.60
 -10   0  -9   39.90    6.10
 -10   0  -9   33.60   11.70
  10   0   9    0.10   10.80
 -11   0  -9    0.30    3.30
 -11   0  -9    0.40    3.70
 -11   0  -9    6.10   12.70
 -11   0  -9    0.80   10.20
 -13   1   9   51.10   15.80
 -12   1   9  116.80   18.50
 -11   1   9  132.40   19.60
 -10   1   9  107.00   16.30
  -9   1   9   48.40   11.80
  -8   1   9  156.50   18.80
  -8   1   9  138.00   15.40
   7  -1  -9   43.20   11.40
  -7   1   9   49.20   10.90
  -7   1   9   33.10    8.90
   6  -1  -9   35.30   11.30
  -6   1   9   28.40   11.50
  -6   1   9   36.50   12.50
   5  -1  -9  179.50   14.00
   5  -1  -9  180.90    7.80
  -5   1   9  182.70   13.50
  -5   1   9  170.20   13.50
   4  -1  -9   40.40   10.00
   4  -1  -9   27.10    5.40
  -4   1   9   35.30    9.80
  -4   1   9   34.30    9.30
   3  -1  -9   99.30    9.50
   3  -1  -9   90.60    6.20
  -3   1   9  130.10   11.70
  -3   1   9   96.20    9.60
   2  -1  -9   52.50    5.40
   2  -1  -9   56.80    8.50
  -2   1   9   52.60    7.60
  -2   1   9   57.00    9.10
  -2   1   9   49.60    5.90
   1  -1  -9   27.60   10.40
   1  -1  -9   44.20   11.50
   1  -1  -9   34.30    8.90
  -1   1   9   43.20   12.60
  -1   1   9   38.70    9.50
  -1   1   9   30.40   10.30
   0  -1  -9  139.50   11.60
   0  -1  -9  111.50   11.10
   0  -1  -9  111.80   12.10
   0   1   9  120.80   12.50
   0   1   9  113.10   11.40
   0   1   9  122.90   13.50
  -1  -1  -9  300.20   19.30
  -1  -1  -9  297.90   17.30
  -1  -1  -9  277.40   17.10
   1   1   9  290.90   17.80
   1   1   9  270.00   20.30
  -2  -1  -9  496.30   24.80
  -2  -1  -9  489.20   23.70
  -2  -1  -9  492.70   22.30
   2   1   9  491.50   26.90
   2   1   9  484.40   23.70
  -3  -1  -9  146.20   14.10
  -3  -1  -9  168.40   15.10
  -3  -1  -9  143.50   11.50
   3   1   9  133.50   13.20
   3   1   9  176.50   17.10
  -4  -1  -9   89.20   11.90
  -4  -1  -9   84.90    8.80
  -4  -1  -9   71.50   11.10
   4   1   9   88.50   11.30
   4   1   9   59.20   12.00
  -5  -1  -9  298.00   15.60
  -5  -1  -9  302.50   20.30
  -5  -1  -9  307.40   20.80
   5   1   9  259.20   21.70
   5   1   9  263.90   17.90
  -6  -1  -9  127.20   13.50
  -6  -1  -9  124.10    9.60
  -6  -1  -9  109.60   12.10
   6   1   9  123.70   15.10
  -7  -1  -9  139.50    9.90
  -7  -1  -9  122.10   14.30
  -7  -1  -9  142.10   13.90
   7   1   9  113.40   14.20
  -8  -1  -9  273.70   20.30
  -8  -1  -9  272.70   24.00
  -8  -1  -9  288.50   14.50
   8   1   9  253.20   22.40
  -9  -1  -9  629.30   22.00
  -9  -1  -9  647.70   33.40
  -9  -1  -9  655.60   28.50
   9   1   9  588.80   31.00
 -10  -1  -9   11.10    9.90
 -10  -1  -9    0.00   10.90
 -10  -1  -9   10.80    5.30
  10   1   9    7.50   10.40
 -11  -1  -9   46.10   15.20
 -11  -1  -9   27.50    9.40
 -11  -1  -9   45.00    6.80
  11   1   9   20.40   12.90
 -13   2   9    1.90   12.80
 -12   2   9    0.40   10.80
 -11   2   9    7.10   11.30
 -10   2   9   16.90   10.10
  -9   2   9  133.00   16.90
  -8   2   9   85.70   12.20
   7  -2  -9  198.90   17.50
  -7   2   9  201.10   17.50
  -7   2   9  171.60   15.20
   6  -2  -9  127.20   14.80
  -6   2   9  117.10    6.50
  -6   2   9  152.10   14.60
  -6   2   9  108.50   13.30
   5  -2  -9  259.90   18.50
   5  -2  -9  204.10   12.00
  -5   2   9  246.50   17.90
  -5   2   9  237.40   10.80
  -5   2   9  230.70   17.50
   4  -2  -9    9.70    6.10
   4  -2  -9   15.40    4.50
  -4   2   9   32.90    7.00
  -4   2   9   24.50    6.60
   3  -2  -9    2.60    4.50
   3  -2  -9    4.90    6.90
  -3   2   9    3.70    7.00
  -3   2   9    0.60    4.30
  -3   2   9    0.60    7.20
   2  -2  -9   79.20   10.90
   2  -2  -9   90.00    8.60
  -2   2   9  102.00   12.50
  -2   2   9   94.30   12.50
  -2   2   9  102.40    9.30
   1  -2  -9  169.60   10.00
   1  -2  -9  169.90    8.60
  -1   2   9  162.60    8.50
  -1   2   9  187.30   11.70
  -1   2   9  168.30   10.70
   0  -2  -9   26.10    6.70
   0  -2  -9   15.70    6.50
   0  -2  -9   17.50    6.30
   0   2   9   28.50    7.80
   0   2   9   18.60    6.00
   0   2   9   19.30    7.20
  -1  -2  -9 1411.80   46.70
  -1  -2  -9 1434.10   46.30
  -1  -2  -9 1420.90   45.90
   1   2   9 1456.80   47.00
   1   2   9 1446.60   49.20
  -2  -2  -9  886.60   31.80
  -2  -2  -9  917.20   32.10
  -2  -2  -9  860.70   30.70
   2   2   9  934.90   32.70
   2   2   9  917.20   35.10
   2   2   9  872.00   32.50
  -3  -2  -9  336.90   15.70
  -3  -2  -9  346.20   17.30
  -3  -2  -9  329.30   16.70
   3   2   9  331.50   19.70
   3   2   9  338.10   17.60
   3   2   9  324.80   17.30
  -4  -2  -9  149.80   12.70
  -4  -2  -9  142.60   10.40
  -4  -2  -9  145.30   11.90
   4   2   9  157.70   14.70
   4   2   9  155.20   13.40
  -5  -2  -9    9.60    6.40
  -5  -2  -9   17.30   10.10
  -5  -2  -9   10.40    8.10
   5   2   9    1.20    8.70
   5   2   9   15.60    8.80
  -6  -2  -9  157.40   12.70
  -6  -2  -9  157.10   17.30
  -6  -2  -9  168.40   14.70
   6   2   9  162.70   17.90
  -7  -2  -9  493.80   23.00
  -7  -2  -9  533.30   20.40
  -7  -2  -9  528.40   26.20
   7   2   9  507.00   27.10
  -8  -2  -9   22.60    8.80
  -8  -2  -9   44.30   11.50
  -8  -2  -9   28.80    6.80
   8   2   9   14.30   10.20
  -9  -2  -9   52.50   10.70
  -9  -2  -9   54.80   15.20
  -9  -2  -9   53.20    8.00
   9   2   9   35.30   11.30
 -10  -2  -9    5.50    8.60
 -10  -2  -9    0.00    4.50
 -10  -2  -9   19.30   11.50
  10   2   9    0.00    7.80
 -11  -2  -9    0.10    5.30
 -11  -2  -9    0.90    8.20
 -11  -2  -9    9.10   13.00
  11   2   9    0.10    9.80
 -13   3   9   24.10   13.10
 -12   3   9   18.80   12.40
 -11   3   9    4.30   11.10
 -10   3   9   27.40   13.40
  -9   3   9   37.40   12.10
  -8   3   9    0.10    8.10
  -8   3   9    7.60    3.10
   7  -3  -9  108.10   15.80
  -7   3   9  133.00   16.80
  -7   3   9  104.10    7.30
   6  -3  -9   11.50    8.70
   6  -3  -9    2.10    4.90
  -6   3   9    2.50    3.70
  -6   3   9    2.40    7.00
  -6   3   9    7.60    8.60
   5  -3  -9  151.10   16.20
   5  -3  -9  133.80   12.00
  -5   3   9  137.70   15.70
  -5   3   9  140.30   16.20
  -5   3   9  165.60   14.40
   4  -3  -9  154.30   16.50
   4  -3  -9  167.50   13.10
  -4   3   9  161.10   11.50
  -4   3   9  158.80   15.80
  -4   3   9  171.70   16.70
   3  -3  -9   74.60    6.60
   3  -3  -9   84.00    9.30
  -3   3   9   68.40    8.50
  -3   3   9   55.80    8.30
  -3   3   9   93.90    7.10
   2  -3  -9  147.30   14.40
   2  -3  -9  170.40   12.20
  -2   3   9  162.30   15.60
  -2   3   9  143.10   14.30
  -2   3   9  169.20   12.00
   1  -3  -9  380.90   17.40
   1  -3  -9  338.00   18.90
  -1   3   9  353.20   19.90
  -1   3   9  364.30   19.40
  -1   3   9  378.30   17.70
   0  -3  -9   27.30    6.00
   0  -3  -9   25.80    7.10
   0   3   9   51.10    7.00
   0   3   9   24.80    7.90
   0   3   9   32.00    7.70
  -1  -3  -9  119.70   12.50
  -1  -3  -9  116.10   12.70
   1   3   9  141.70   14.20
   1   3   9  133.00   14.70
   1   3   9  133.30   15.70
  -2  -3  -9    1.20    7.40
  -2  -3  -9    0.10    6.00
  -2  -3  -9    0.10    6.10
   2   3   9    1.20    7.20
   2   3   9    0.10    6.50
   2   3   9    2.60    6.30
  -3  -3  -9    4.10    6.90
  -3  -3  -9    0.20    6.30
  -3  -3  -9    0.20    7.70
   3   3   9    7.30    8.40
   3   3   9    7.20    8.20
  -4  -3  -9  128.50   14.90
  -4  -3  -9  127.00   13.50
  -4  -3  -9  122.10   12.50
   4   3   9  118.30   15.60
   4   3   9  129.50   15.80
   4   3   9  142.80   16.60
  -5  -3  -9    2.00    7.20
  -5  -3  -9    2.00    6.40
  -5  -3  -9    0.50    6.00
   5   3   9    2.00    8.10
   5   3   9    2.00    7.00
  -6  -3  -9  534.50   25.30
  -6  -3  -9  464.50   20.20
  -6  -3  -9  492.30   19.90
   6   3   9  417.20   23.90
  -7  -3  -9  665.80   46.40
  -7  -3  -9  613.60   27.30
  -7  -3  -9  673.20   28.70
   7   3   9  560.70   32.40
  -8  -3  -9    0.00    9.00
  -8  -3  -9    7.50    6.30
  -8  -3  -9    0.00    7.00
   8   3   9    0.00    7.40
  -9  -3  -9   18.00    8.10
  -9  -3  -9    0.80    6.10
  -9  -3  -9   16.10   10.20
   9   3   9    0.10    7.90
 -10  -3  -9   18.90   12.60
 -10  -3  -9    0.30    6.20
 -10  -3  -9    0.30    7.60
  10   3   9    0.30    8.50
 -13   4   9    9.10   11.80
 -12   4   9  133.00   19.20
 -11   4   9  101.00    6.00
 -11   4   9   99.20    6.60
 -11   4   9   98.60   16.40
 -10   4   9   81.40    6.10
 -10   4   9   72.60   15.30
  -9   4   9    8.40    3.60
  -9   4   9   18.60   11.20
  -8   4   9   22.00    4.30
  -8   4   9   28.80   10.20
  -7   4   9    1.40    6.20
  -7   4   9    0.00    8.30
   6  -4  -9   75.90   14.10
   6  -4  -9  102.70   11.80
  -6   4   9   90.30   15.10
  -6   4   9   84.30    8.50
   5  -4  -9   47.70    8.20
   5  -4  -9   41.60    9.70
  -5   4   9   32.10    8.50
  -5   4   9   38.80    5.70
  -5   4   9   54.20   10.40
   4  -4  -9  260.70   21.50
   4  -4  -9  220.80   16.50
  -4   4   9  238.10   14.70
  -4   4   9  239.40   19.60
   3  -4  -9    1.30    7.60
   3  -4  -9    5.20    6.10
  -3   4   9    3.30    5.90
  -3   4   9    3.50    7.70
  -3   4   9    3.70    7.80
   2  -4  -9  194.00   13.20
   2  -4  -9  184.90   15.40
  -2   4   9  174.10   15.50
  -2   4   9  162.00   12.50
  -2   4   9  169.70   15.80
   1  -4  -9 2086.80   61.40
   1  -4  -9 2136.20   58.00
  -1   4   9 2135.20   61.20
  -1   4   9 2145.90   58.60
  -1   4   9 2131.10   61.50
   0  -4  -9  318.10   20.20
   0  -4  -9  352.30   18.40
   0   4   9  354.30   21.30
   0   4   9  315.10   18.90
   0   4   9  374.30   21.60
  -1  -4  -9   45.00    9.80
  -1  -4  -9   59.00   10.20
   1   4   9   45.00   10.70
   1   4   9   49.60   11.10
   1   4   9   50.50   10.30
  -2  -4  -9  757.50   30.90
  -2  -4  -9  799.30   31.20
   2   4   9  840.40   33.80
   2   4   9  820.00   33.00
   2   4   9  800.10   32.70
  -3  -4  -9  699.90   26.10
  -3  -4  -9  692.10   24.70
   3   4   9  655.20   26.90
   3   4   9  703.40   26.60
   3   4   9  683.50   27.50
  -4  -4  -9   35.30    8.40
  -4  -4  -9   30.20    7.80
  -4  -4  -9   29.20   10.10
   4   4   9   38.90   10.50
   4   4   9   49.00   11.10
   4   4   9   22.40    9.00
  -5  -4  -9  124.80   14.10
  -5  -4  -9  125.40   15.60
  -5  -4  -9  123.00   12.90
   5   4   9  114.20   15.50
   5   4   9   74.30   13.70
  -6  -4  -9  115.70   15.50
  -6  -4  -9  107.00   12.70
  -6  -4  -9  149.70   14.70
   6   4   9   78.00   14.50
  -7  -4  -9  128.50   11.90
  -7  -4  -9  127.30   15.70
  -7  -4  -9  119.00   12.60
   7   4   9   86.20   13.20
  -8  -4  -9   42.80    8.50
  -8  -4  -9   46.30   12.50
  -8  -4  -9   54.80    9.60
   8   4   9   13.10    8.80
  -9  -4  -9    3.60   11.50
  -9  -4  -9   18.00    7.00
   9   4   9    3.80    8.10
 -10  -4  -9   45.80   12.70
 -10  -4  -9   41.90    8.50
  10   4   9   47.50   10.60
 -12   5   9    7.20    4.30
 -12   5   9   17.20   12.80
 -11   5   9   76.50   16.70
 -10   5   9    0.00    3.90
 -10   5   9    0.00    8.70
  -9   5   9  101.40    8.50
  -9   5   9  108.60   16.10
  -8   5   9   11.10   10.10
  -8   5   9    6.90    5.00
   7  -5  -9   24.90    7.50
  -7   5   9   16.80    9.90
  -7   5   9   14.10    6.10
   6  -5  -9   48.80    9.20
   6  -5  -9   48.90   13.10
  -6   5   9   62.90   11.90
  -6   5   9   59.10    6.90
   5  -5  -9  259.10   17.60
   5  -5  -9  264.00   20.60
  -5   5   9  295.20   20.30
  -5   5   9  295.90   15.20
   4  -5  -9 1158.70   34.20
   4  -5  -9 1063.50   37.60
  -4   5   9 1128.90   37.60
  -4   5   9 1114.90   36.50
  -4   5   9 1120.20   31.50
   3  -5  -9   40.50    9.20
   3  -5  -9   60.40    8.80
  -3   5   9   49.80   10.00
  -3   5   9   48.60    9.60
  -3   5   9   63.80    7.90
   2  -5  -9    0.20    5.70
  -2   5   9    0.20    7.30
  -2   5   9    9.70    6.10
  -2   5   9    1.40    7.70
   1  -5  -9  592.90   25.00
   1  -5  -9  553.10   27.60
  -1   5   9  594.10   27.90
  -1   5   9  576.30   25.60
  -1   5   9  572.90   27.70
   0  -5  -9    0.10    5.40
   0  -5  -9    0.10    6.60
   0   5   9    0.10    7.40
   0   5   9    4.30    6.60
   0   5   9    0.60    8.50
  -1  -5  -9   23.00    7.70
  -1  -5  -9   34.60    8.20
   1   5   9   21.60    8.60
   1   5   9   25.70    8.50
   1   5   9   36.60    8.20
  -2  -5  -9  684.50   27.70
  -2  -5  -9  670.30   28.10
   2   5   9  707.10   29.60
   2   5   9  651.60   28.80
   2   5   9  685.40   29.50
  -3  -5  -9  476.00   24.90
  -3  -5  -9  486.20   25.20
   3   5   9  480.30   27.10
   3   5   9  477.30   26.80
   3   5   9  512.20   27.40
  -4  -5  -9  309.40   19.40
  -4  -5  -9  260.10   20.60
   4   5   9  250.70   21.00
   4   5   9  262.70   21.90
  -5  -5  -9  191.80   16.70
  -5  -5  -9  195.90   15.20
   5   5   9  189.70   18.70
   5   5   9  125.70   15.10
  -6  -5  -9    0.10    8.60
   6   5   9    0.10    7.20
  -7  -5  -9   20.80    9.80
  -7  -5  -9   26.10    9.00
  -7  -5  -9   27.60    7.10
   7   5   9   10.20    8.40
  -8  -5  -9   26.80    7.10
  -8  -5  -9   28.30   12.70
  -8  -5  -9   15.00    7.90
   8   5   9   20.30    8.90
  -9  -5  -9    1.60   10.10
  -9  -5  -9    1.60    7.30
  -9  -5  -9    0.20    5.30
   9   5   9    1.60    6.40
 -10  -5  -9   21.40   10.90
 -10  -5  -9    6.40    8.10
 -10  -5  -9   24.40    6.50
  10   5   9   21.30    8.10
 -12   6   9    2.90   11.30
 -12   6   9    0.00    7.00
 -11   6   9    8.00   12.20
 -11   6   9   15.80    4.90
 -10   6   9  119.60   17.10
 -10   6   9  121.10    9.90
  -9   6   9  187.40   19.20
  -9   6   9  200.00   11.90
  -8   6   9    5.20    9.50
  -8   6   9    4.20    5.20
   7  -6  -9   21.20    9.00
  -7   6   9   20.50   10.30
  -7   6   9   16.00    5.80
   6  -6  -9   28.50    8.80
  -6   6   9   32.10   10.10
  -6   6   9   30.60    6.40
   5  -6  -9   83.20   12.80
  -5   6   9   86.70    8.60
  -5   6   9   79.10   12.00
   4  -6  -9  497.70   23.50
   4  -6  -9  419.20   25.60
  -4   6   9  495.70   25.50
  -4   6   9  465.20   20.80
  -4   6   9  471.50   25.10
   3  -6  -9  358.40   20.20
   3  -6  -9  329.00   22.50
  -3   6   9  344.60   21.90
  -3   6   9  329.30   18.20
  -3   6   9  325.30   20.80
   2  -6  -9  166.70   14.60
   2  -6  -9  166.80   16.30
  -2   6   9  150.50   15.00
  -2   6   9  164.80   16.30
  -2   6   9  139.50   13.40
   1  -6  -9    5.90    7.50
   1  -6  -9    1.30    7.10
  -1   6   9    1.30    6.10
  -1   6   9    7.70    8.10
  -1   6   9    3.90    7.90
   0  -6  -9  365.60   18.40
   0  -6  -9  360.60   21.00
   0   6   9  386.50   20.90
   0   6   9  356.70   19.50
   0   6   9  350.40   19.20
  -1  -6  -9  522.10   25.20
  -1  -6  -9  518.30   26.50
   1   6   9  511.00   26.20
   1   6   9  518.40   28.20
   1   6   9  514.20   26.30
  -2  -6  -9   61.90   11.40
  -2  -6  -9   78.90   13.50
   2   6   9   54.80   11.60
   2   6   9   88.90   13.00
   2   6   9   70.00   14.40
  -3  -6  -9   14.50    7.40
  -3  -6  -9   24.60    8.30
   3   6   9   24.90    7.30
   3   6   9    2.70    9.00
  -4  -6  -9  111.10   12.90
  -4  -6  -9  138.70   12.90
   4   6   9   99.10   12.80
   4   6   9  137.00   15.60
  -5  -6  -9   63.00   12.80
  -5  -6  -9   58.10   10.60
   5   6   9   25.60    9.20
   5   6   9   75.30   13.70
  -6  -6  -9    0.30    8.80
  -6  -6  -9    0.30    7.30
  -7  -6  -9  242.90   21.40
  -7  -6  -9  248.40   17.90
   7   6   9  192.60   16.40
  -8  -6  -9    1.00    9.50
  -9  -6  -9    3.70   10.00
 -11   7   9    4.30    5.50
 -11   7   9   30.20   13.20
 -10   7   9  116.10   17.40
 -10   7   9  130.40   10.90
  -9   7   9   77.00    8.50
  -9   7   9   75.10   13.60
  -8   7   9    6.80   17.30
  -8   7   9    5.30    5.30
   7  -7  -9  140.10   15.00
  -7   7   9  145.00   16.80
  -7   7   9  130.90   10.80
   6  -7  -9   60.90   12.20
  -6   7   9   94.40   15.10
  -6   7   9   59.60    8.70
   5  -7  -9    0.70    8.10
  -5   7   9    3.00    8.60
  -5   7   9    1.60    6.40
   4  -7  -9   23.20    9.20
  -4   7   9   17.20    9.20
  -4   7   9   35.40    7.10
   3  -7  -9    8.30   11.20
   3  -7  -9    4.10    8.00
  -3   7   9    7.20    8.10
  -3   7   9    0.20    8.10
  -3   7   9    3.10    6.60
   2  -7  -9   96.60   11.60
   2  -7  -9  108.80   13.10
  -2   7   9   97.70   10.50
  -2   7   9   94.50   17.50
  -2   7   9   98.00   13.30
   1  -7  -9  198.10   17.60
   1  -7  -9  168.20   16.00
  -1   7   9  193.20   17.80
  -1   7   9  201.30   17.10
  -1   7   9  164.90   16.90
   0  -7  -9  849.60   37.00
   0  -7  -9  854.20   39.70
   0   7   9  908.80   38.70
   0   7   9  818.80   37.70
   0   7   9  861.70   40.40
  -1  -7  -9  968.40   39.10
  -1  -7  -9  958.60   40.70
   1   7   9  980.80   40.20
   1   7   9  996.80   42.10
   1   7   9  997.10   39.80
  -2  -7  -9    2.70    9.20
  -2  -7  -9   10.10    8.40
   2   7   9    0.20    8.50
   2   7   9    4.60    7.40
  -3  -7  -9   99.60   15.60
  -3  -7  -9  107.10   16.40
   3   7   9  109.80   16.00
   3   7   9  108.40   19.20
  -4  -7  -9    9.00    8.90
  -4  -7  -9    6.60   10.20
   4   7   9    0.20    8.30
   4   7   9    2.60    8.10
  -5  -7  -9    5.20   10.10
   5   7   9    0.20    7.60
  -6  -7  -9    4.20   10.50
  -7  -7  -9  297.20   22.30
   7   7   9  238.60   17.70
  -8  -7  -9    3.50   10.50
   8   7   9    0.10    4.70
  -9  -7  -9   23.40   11.40
   9   7   9   21.00    5.10
 -11   8   9    0.00    5.90
 -11   8   9   12.70   12.10
 -11   8   9    9.80   13.60
 -10   8   9   77.00    8.80
 -10   8   9   71.70   14.90
  -9   8   9    3.40   10.10
  -9   8   9    0.10    6.30
  -8   8   9   55.30    9.20
  -8   8   9   37.10   13.90
   7  -8  -9  111.90   16.70
  -7   8   9  103.50   15.50
  -7   8   9  105.30   11.30
   6  -8  -9   47.70   13.50
  -6   8   9   56.00   10.30
  -6   8   9   60.10   14.60
   5  -8  -9    0.00    8.90
  -5   8   9    3.60    9.70
  -5   8   9    1.80    6.30
   4  -8  -9  106.60   14.70
  -4   8   9  145.30   17.00
  -4   8   9  105.20   12.40
   3  -8  -9  190.00   18.30
  -3   8   9  183.90   17.80
  -3   8   9  205.90   19.00
  -3   8   9  190.30   19.00
   2  -8  -9  145.40   15.90
  -2   8   9  120.70   13.10
  -2   8   9  130.60   15.70
  -2   8   9  133.60   15.40
   1  -8  -9  238.50   18.30
  -1   8   9  221.20   21.40
  -1   8   9  252.20   21.00
  -1   8   9  225.80   17.10
   0  -8  -9   12.00    9.70
   0   8   9    1.50    9.00
   0   8   9    9.80    8.90
   0   8   9   11.10    8.50
  -1  -8  -9   11.60    8.50
   1   8   9    7.90    8.60
   1   8   9    3.40   10.00
  -2  -8  -9   10.80    9.00
   2   8   9    9.20    8.80
   2   8   9    6.20   11.30
  -3  -8  -9    6.40    8.50
   3   8   9    0.00   10.60
   3   8   9    4.30    7.80
  -4  -8  -9    0.00    8.50
   4   8   9    3.70    7.50
   4   8   9    0.00   10.30
  -5  -8  -9  413.40   25.40
   5   8   9  388.90   27.90
  -6  -8  -9   13.20   10.50
   6   8   9    0.10    7.10
  -7  -8  -9  128.50   16.60
   7   8   9  121.10   11.00
  -8  -8  -9    9.00   12.50
   8   8   9    0.00    3.50
 -10   9   9   11.00   11.50
 -10   9   9   16.00    7.70
 -10   9   9    8.30   13.20
  -9   9   9    4.70    7.10
  -9   9   9    3.00   10.90
  -8   9   9   74.40   15.60
  -8   9   9   52.90   10.10
   7  -9  -9   18.10   12.00
  -7   9   9   21.20   13.00
   6  -9  -9   28.10   12.00
  -6   9   9   27.70   13.10
  -6   9   9   20.20    9.80
   5  -9  -9   87.00   15.10
  -5   9   9  110.40   12.30
   4  -9  -9   28.40   12.10
  -4   9   9   33.40   11.90
  -4   9   9   36.40    9.70
   3  -9  -9  319.40   22.80
  -3   9   9  315.50   20.10
  -3   9   9  330.90   25.10
  -3   9   9  289.30   22.30
   2  -9  -9  269.30   20.30
  -2   9   9  274.10   19.20
  -2   9   9  273.20   20.70
  -2   9   9  238.10   17.90
   1  -9  -9  141.10   15.70
  -1   9   9  113.20   15.50
  -1   9   9  147.40   15.30
   0  -9  -9  119.80   14.40
   0   9   9  108.40   12.70
   0   9   9   91.40   14.10
  -1  -9  -9  132.50   14.20
   1   9   9  102.80   14.80
   1   9   9  132.10   13.20
  -2  -9  -9  252.60   19.70
   2   9   9  197.40   19.40
   2   9   9  241.60   18.00
  -3  -9  -9   26.70   11.70
   3   9   9   33.50   13.00
   3   9   9   18.60    9.20
  -4  -9  -9    2.30   10.60
   4   9   9    1.00    6.70
   4   9   9    1.00    9.70
  -6  -9  -9    2.50   10.40
  -7  -9  -9   98.50   15.00
   7   9   9   88.60    7.90
 -10  10   9   37.70   13.80
 -10  10   9    8.10   13.80
 -10  10   9   26.80    7.90
  -9  10   9    0.00    6.70
  -9  10   9    0.00   12.10
  -9  10   9    0.00   11.20
   8 -10  -9    0.10    9.60
  -8  10   9    5.30   10.60
  -8  10   9    4.20    7.70
   7 -10  -9    0.00    9.70
  -7  10   9   11.10    7.40
  -7  10   9    0.00   10.10
   6 -10  -9   63.80   15.40
  -6  10   9   80.20   11.50
  -6  10   9   80.40   15.00
   5 -10  -9  262.60   22.40
  -5  10   9  214.60   20.50
  -5  10   9  243.50   17.30
   4 -10  -9    0.10    9.20
  -4  10   9    0.10    9.60
  -4  10   9   13.00    8.60
   3 -10  -9   93.70   15.40
  -3  10   9  122.10   16.90
   2 -10  -9  102.60   15.30
  -2  10   9  125.20   16.50
  -2  10   9  106.40   13.60
   1 -10  -9  142.80   17.50
  -1  10   9  122.90   15.80
  -1  10   9  102.00   19.60
   0 -10  -9    0.50    9.30
   0  10   9    1.50   12.90
   0  10   9    6.60    8.40
  -1 -10  -9  133.80   25.80
   1  10   9  109.80   17.00
   1  10   9  152.80   15.80
  -2 -10  -9  251.70   21.40
   2  10   9  282.10   25.10
   2  10   9  273.90   20.10
  -3 -10  -9  110.70   16.40
   3  10   9  125.00   14.60
   3  10   9  122.70   19.40
  -4 -10  -9   31.20   12.60
   4  10   9    0.40   11.60
   4  10   9   10.50    7.40
  -6 -10  -9   22.00   12.00
  -7 -10  -9   33.90   12.40
  -9  11   9    1.60   12.40
  -9  11   9   12.20   13.90
   8 -11  -9    0.00    9.20
  -8  11   9    0.00   10.90
  -8  11   9    1.20   10.40
   7 -11  -9    0.20   10.80
  -7  11   9    7.70   11.00
   6 -11  -9   13.80   11.00
  -6  11   9   51.30   12.70
   5 -11  -9  120.50   18.10
  -5  11   9  116.70   16.40
   4 -11  -9    0.10   10.70
  -4  11   9   19.10   11.40
   3 -11  -9   13.20   10.10
  -3  11   9    6.20   10.90
   2 -11  -9    1.10   10.90
  -2  11   9   13.80   11.70
   1 -11  -9  214.40   33.70
  -1  11   9  203.60   22.00
  -1  11   9  189.60   17.80
   0 -11  -9   80.30   15.40
   0  11   9  104.90   18.10
   0  11   9   99.30   13.80
  -1 -11  -9  138.60   17.10
   1  11   9  165.00   16.30
   1  11   9  156.80   19.70
  -2 -11  -9  106.30   16.30
   2  11   9  121.80   14.30
   2  11   9  132.90   18.80
  -3 -11  -9  123.80   16.50
   3  11   9  134.20   19.30
   3  11   9  135.60   15.00
  -4 -11  -9    0.40    9.90
   4  11   9    0.40   12.00
   4  11   9    2.90    8.30
  -5 -11  -9   47.70   12.30
  -6 -11  -9  118.40   18.50
   8 -12  -9    0.00   12.10
  -8  12   9   30.10   12.90
  -8  12   9    7.00   11.60
   7 -12  -9   11.30   14.00
  -7  12   9   58.00   14.50
  -7  12   9   39.00   14.80
   6 -12  -9    0.00   11.50
  -6  12   9    0.00    9.20
  -6  12   9    2.20   12.20
   5 -12  -9    0.10   11.90
  -5  12   9    1.30   12.00
  -4  12   9    1.30   11.40
   3 -12  -9   91.90   15.60
  -3  12   9  110.50   16.30
   2 -12  -9   45.60   14.70
  -2  12   9   26.40   12.60
   1 -12  -9  150.40   19.30
  -1  12   9  121.50   18.10
   0 -12  -9  133.60   16.30
   0  12   9  154.00   20.00
   0  12   9  145.30   15.10
  -1 -12  -9    0.60    9.00
   1  12   9   13.80    9.50
   1  12   9    1.30   11.10
  -2 -12  -9    0.00   12.10
   2  12   9   10.20    8.50
   2  12   9    0.00    9.80
  -3 -12  -9    6.70   11.10
   3  12   9    0.00    9.30
   3  12   9    7.40    9.00
  -4 -12  -9    0.10   10.80
   4  12   9   22.40   12.50
   4  12   9    9.70    6.10
   6 -13  -9    2.80   12.40
  -6  13   9   10.60   11.50
  -6  13   9   24.70   12.10
   5 -13  -9    0.20   12.10
  -5  13   9   34.40   12.00
  -5  13   9   60.20   14.10
   4 -13  -9   99.00   16.90
  -4  13   9   88.90   16.10
  -4  13   9   94.60   16.60
   3 -13  -9    8.70   10.30
  -3  13   9   14.30   10.10
  -3  13   9    6.50   11.40
   2 -13  -9   21.40   12.80
  -2  13   9   30.70   11.30
  -2  13   9   22.30   13.60
   1 -13  -9   41.60   14.10
  -1  13   9   58.60   12.20
  -1  13   9   22.20   11.90
   0 -13  -9    0.30   11.80
   0  13   9    3.90   10.30
   0  13   9    0.10   12.80
   0  13   9    0.30    7.20
  -1 -13  -9    0.00   12.00
   1  13   9    0.00   11.00
   1  13   9    0.00    7.50
   1  13   9    0.00    8.20
  -2 -13  -9   39.50   15.60
   2  13   9   53.70   13.10
   2  13   9   43.90   15.90
   2  13   9   53.80   11.00
  -3 -13  -9   10.90   13.50
   3  13   9   29.80    8.40
   3  13   9   29.80   15.00
   3  13   9   26.90   10.90
   4 -14  -9   94.90   19.70
  -4  14   9  129.60   19.10
  -4  14   9  130.40   19.60
   3 -14  -9  123.80   18.10
  -3  14   9   97.30   17.30
  -3  14   9  124.70   18.10
   2 -14  -9   53.00   14.10
  -2  14   9   89.70   14.60
  -2  14   9   44.10   14.10
   1 -14  -9   18.70   12.90
  -1  14   9   36.50   13.40
  -1  14   9   21.40   10.50
   0 -14  -9   83.00   17.70
   0  14   9   72.80   16.70
   0  14   9   70.50   13.10
   2  17 -10    0.90   12.50
   1  17 -10   24.70   15.80
   0  17 -10    0.90   12.70
  -1  17 -10   30.50   15.70
  -2  17 -10    0.10   14.80
   5  16 -10    1.20    8.30
   4  16 -10    0.00   11.10
   3  16 -10  150.30   21.40
   2  16 -10   96.20   20.80
   1  16 -10   42.20   15.50
   0  16 -10    1.40   12.90
  -1  16 -10    0.00   14.50
  -2  16 -10    9.50   13.00
  -3  16 -10    0.00   13.80
   3 -16  10   24.40    8.90
  -4  16 -10    1.10   14.50
   4 -16  10    4.10    8.30
  -6 -15  10    0.00    7.60
   5  15 -10   75.80   15.30
   4  15 -10    1.40    9.40
   3  15 -10  118.00   20.70
   2  15 -10   46.20   15.30
   1  15 -10   33.50   14.60
   0  15 -10   24.50   13.70
  -1  15 -10    0.90   14.00
  -2  15 -10   12.90   14.80
   2 -15  10   19.80    8.20
  -3  15 -10   14.80   15.50
   3 -15  10   18.20    8.90
  -4  15 -10   29.00   17.50
   4 -15  10   72.20   11.20
  -5  15 -10    2.40   13.80
  -6  15 -10    1.00   15.20
   7  14 -10    1.70    7.10
  -7 -14  10   37.10   10.90
  -7 -14  10    6.20    8.10
  -6 -14  10   68.10   12.80
   5  14 -10  413.50   32.60
  -5 -14  10  616.60   30.10
   4  14 -10    0.60   10.00
  -4 -14  10    1.00    9.80
   3  14 -10   72.50   15.90
   2  14 -10    9.50   11.20
   1  14 -10    0.20   11.90
   0  14 -10  212.80   23.40
   0 -14  10  289.30   18.30
   1 -14  10   14.90    8.10
  -2  14 -10   11.10   11.10
  -3  14 -10    1.20   13.20
   3 -14  10    0.80    6.50
  -4  14 -10   98.00   20.60
   4 -14  10   77.50    9.50
  -5  14 -10   70.10   18.50
  -6  14 -10   36.70   18.90
   6 -14  10   48.80    7.50
  -7  14 -10    4.60   15.70
   8  13 -10    0.10   10.70
  -8 -13  10   29.80    9.60
  -8 -13  10   54.50   12.00
  -8 -13  10   44.30   15.50
   7  13 -10   12.00   10.30
   7  13 -10   13.50    8.10
  -7 -13  10   36.80   10.00
   6  13 -10  109.80   15.00
   6  13 -10   54.70   12.70
  -6 -13  10  124.00   13.80
   5  13 -10  473.50   26.40
   5  13 -10  410.80   30.00
  -5 -13  10  518.70   25.60
   4  13 -10    0.50   11.00
   4  13 -10   29.50   10.30
  -4 -13  10   22.00    9.80
   3  13 -10   14.20   12.30
   3  13 -10   29.00    9.40
  -3 -13  10   18.80    9.70
   2  13 -10    1.50   10.80
   1  13 -10   13.90   12.60
   0  13 -10  166.60   21.60
   0 -13  10  204.10   16.40
  -1  13 -10   54.80   15.20
   1 -13  10   70.60   11.30
   2 -13  10  443.80   22.80
  -3  13 -10   44.80   16.60
   3 -13  10   54.90    9.60
  -4  13 -10   51.30   16.50
   4 -13  10   65.00    9.50
  -5  13 -10  164.50   23.80
   5 -13  10  146.60   12.30
  -6  13 -10  119.10   20.20
   6 -13  10  102.00    8.30
   6 -13  10   59.40    7.50
  -7  13 -10   10.70   14.60
  -8  13 -10   62.20   19.80
   9  12 -10  227.20   20.00
  -9 -12  10  291.60   19.50
  -9 -12  10  298.50   27.60
  -9 -12  10  322.40   20.60
   8  12 -10   52.40   12.80
  -8 -12  10  109.60   13.60
  -8 -12  10  114.70   13.60
  -8 -12  10  101.70   18.60
   7  12 -10  141.80   16.10
  -7 -12  10  185.50   16.70
  -7 -12  10  211.90   22.40
   6  12 -10   68.70   11.80
   6  12 -10   70.70   14.20
  -6 -12  10  116.50   13.30
   5  12 -10  109.50   15.50
  -5 -12  10  131.10   13.70
   4  12 -10   85.10   11.20
   4  12 -10   61.40   14.40
  -4 -12  10   83.60   11.70
   3  12 -10    3.50    7.80
   3  12 -10    1.30   11.10
  -3 -12  10    6.10    8.90
   2  12 -10    0.40    8.10
   2  12 -10    4.20   10.80
  -2 -12  10    0.30    8.80
   1  12 -10   34.30    9.30
   1  12 -10   46.80   14.20
   0  12 -10   59.00   15.20
  -1  12 -10  119.70   20.20
   1 -12  10  144.70   14.40
  -2  12 -10  377.40   32.00
   2 -12  10  405.30   21.60
   3 -12  10  189.50   14.10
  -4  12 -10   32.20   15.20
   4 -12  10    8.30    6.60
   4 -12  10   15.50    6.20
  -5  12 -10    5.80   14.00
   5 -12  10    4.30    4.90
  -6  12 -10   12.50   15.20
  -7  12 -10   28.30   16.60
  -8  12 -10   36.50   16.50
  10  11 -10    0.90    7.40
 -10 -11  10   14.10    7.70
 -10 -11  10    0.90    7.60
 -10 -11  10   29.90   13.30
   9  11 -10   11.50    7.80
  -9 -11  10   39.30    9.70
  -9 -11  10    0.20   13.30
  -9 -11  10    9.10    8.90
   8  11 -10    0.30    7.00
  -8 -11  10    0.30    8.10
  -8 -11  10   23.40   12.70
   7  11 -10  201.60   18.20
  -7 -11  10  296.20   21.00
  -7 -11  10  310.90   28.10
   6  11 -10   50.30   12.00
  -6 -11  10   81.00   12.30
  -6 -11  10   83.90   15.30
   5  11 -10    1.40    7.70
   5  11 -10    1.40    6.60
  -5 -11  10   27.50    9.10
   4  11 -10  444.40   28.70
   4  11 -10  428.70   23.70
  -4 -11  10  437.30   24.40
   3  11 -10    6.20    8.20
   3  11 -10    1.90   10.50
  -3 -11  10    0.30    7.40
   2  11 -10   21.50    9.40
   2  11 -10   27.70   12.10
  -2 -11  10    0.90    8.80
   1  11 -10   42.90   14.40
   1  11 -10   47.60   11.40
  -1 -11  10   39.90   12.60
   0  11 -10   44.00   11.90
   0  11 -10   58.60    9.10
   0 -11  10   55.90   12.20
  -1  11 -10   97.60   18.80
  -1  11 -10  120.10   15.80
  -2  11 -10   65.00   15.60
   2 -11  10  108.00   10.80
   2 -11  10   90.60   10.80
  -3  11 -10   19.40   15.10
   3 -11  10   18.20    7.10
   3 -11  10   32.50    6.80
   4 -11  10   50.10   11.90
   4 -11  10   35.90    8.00
  -5  11 -10   25.60   15.80
   5 -11  10   55.70    6.20
  -6  11 -10  481.70   34.10
  -7  11 -10  447.80   35.40
  -8  11 -10    4.20   13.60
  -9  11 -10    9.90   16.60
  10  10 -10    0.20    5.40
 -10 -10  10    0.20   12.70
 -10 -10  10   17.10    8.90
   9  10 -10   35.70    8.60
  -9 -10  10   29.40   10.00
  -9 -10  10   26.50   14.50
   8  10 -10   87.60   10.50
  -8 -10  10   80.60   12.60
  -8 -10  10   83.80   15.70
   7  10 -10   17.70    7.90
  -7 -10  10   46.40   11.10
  -7 -10  10   24.10   14.00
   6  10 -10  131.70   19.50
   6  10 -10   77.90   12.70
  -6 -10  10  145.30   20.00
  -6 -10  10  143.90   19.80
   5  10 -10   14.80    9.70
   5  10 -10   20.40    7.30
  -5 -10  10   15.70   10.00
  -5 -10  10   15.00    8.70
   4  10 -10  162.00   20.90
   4  10 -10  164.70   16.00
  -4 -10  10  186.40   18.40
  -4 -10  10  177.70   20.60
   3  10 -10    6.70    7.00
   3  10 -10    1.00    9.80
  -3 -10  10    1.00    8.20
  -3 -10  10    9.20   10.30
   2  10 -10    1.70   10.00
   2  10 -10    1.70    6.50
  -2 -10  10    1.70    8.20
  -2 -10  10    1.70    6.80
   1  10 -10  226.60   16.40
   1  10 -10  248.90   22.80
  -1 -10  10  222.40   17.40
  -1 -10  10  207.30   17.00
   0  10 -10  159.50   15.10
   0  10 -10  170.10   18.20
   0 -10  10  160.60   14.20
   0 -10  10  148.50   12.80
  -1  10 -10   27.40    9.10
  -1  10 -10   28.10   12.30
   1 -10  10   31.40   10.50
   1 -10  10    7.30    6.90
  -2  10 -10  116.00   14.70
  -2  10 -10  124.50   18.00
   2 -10  10  118.20   11.60
  -3  10 -10  110.80   16.30
   3 -10  10  140.00   10.10
   3 -10  10  140.80    9.40
  -4  10 -10   13.50   11.90
   4 -10  10    0.40    4.40
   5 -10  10    4.20    3.50
  -6  10 -10  411.90   32.80
  -7  10 -10  236.80   26.50
  -8  10 -10    1.40   13.00
  -9  10 -10   27.70   17.00
 -11  -9  10  124.10   19.60
 -11  -9  10  126.60   14.80
  10   9 -10   17.90    5.80
 -10  -9  10   29.90   13.90
 -10  -9  10   16.70    9.60
  -9  -9  10  199.10   17.70
  -9  -9  10  256.00   23.50
   8   9 -10   20.50    6.20
  -8  -9  10   36.70   10.00
  -8  -9  10   49.50   12.90
   7   9 -10    4.40    6.60
  -7  -9  10   14.80   21.70
  -7  -9  10   13.30   11.30
   6   9 -10  336.30   23.50
   6   9 -10  306.50   18.10
  -6  -9  10  328.50   24.00
  -6  -9  10  373.50   34.50
   5   9 -10   30.20    8.80
   5   9 -10   11.20   10.40
  -5  -9  10   27.00   11.70
  -5  -9  10   35.70   12.80
   4   9 -10    2.90    9.90
   4   9 -10    1.80    6.20
  -4  -9  10   11.50    8.90
   3   9 -10   50.50    9.60
   3   9 -10   28.70   11.90
  -3  -9  10   38.70   11.50
   2   9 -10    2.50    8.70
   2   9 -10   18.10    6.80
  -2  -9  10   23.50    8.70
  -2  -9  10    2.50    7.00
   1   9 -10  667.30   30.70
   1   9 -10  616.60   25.10
  -1  -9  10  646.50   25.80
  -1  -9  10  636.70   27.50
   0   9 -10   22.00   10.10
   0   9 -10   19.70   13.70
   0  -9  10   31.60    9.90
   0  -9  10   16.00   10.40
  -1   9 -10    1.30   11.70
   1  -9  10    7.60    6.90
   1  -9  10   11.10   10.30
  -2   9 -10  308.00   18.50
  -2   9 -10  315.00   24.10
   2  -9  10  271.60   18.90
   2  -9  10  315.10   14.80
  -3   9 -10  394.70   23.00
  -3   9 -10  489.10   28.70
   3  -9  10  477.90   17.80
   3  -9  10  445.30   18.30
  -4   9 -10  382.60   28.20
   4  -9  10  368.00   15.80
   4  -9  10  395.70   16.00
  -5   9 -10  208.40   21.20
  -6   9 -10   57.00   18.80
  -7   9 -10    0.70   12.20
  -8   9 -10  343.60   29.90
  -9   9 -10   12.40   14.60
 -10   9 -10    9.10   14.10
 -11  -8  10    2.30   14.00
 -11  -8  10    7.50    9.00
 -10  -8  10  200.20   19.50
 -10  -8  10  218.30   25.10
   9   8 -10   35.90    6.40
  -9  -8  10   42.90   13.70
  -9  -8  10   60.00   11.40
   8   8 -10    3.70    4.70
  -8  -8  10    2.30    9.30
  -8  -8  10    1.00    8.10
   7   8 -10    5.40    5.00
  -7  -8  10    0.10   10.30
   6   8 -10  258.60   20.80
  -6  -8  10  272.80   19.70
  -6  -8  10  294.10   21.80
   5   8 -10   13.20    8.70
   5   8 -10   22.20    6.30
  -5  -8  10   37.90   10.50
  -5  -8  10   32.00    9.20
   4   8 -10    0.90    6.50
   4   8 -10    3.80    8.90
  -4  -8  10    0.60    9.80
  -4  -8  10    2.20   10.40
   3   8 -10    6.00    6.20
   3   8 -10    0.00    9.60
  -3  -8  10    7.40    8.90
  -3  -8  10    0.00    8.40
   2   8 -10    2.30    6.70
   2   8 -10    0.50    9.00
  -2  -8  10    0.30    7.80
  -2  -8  10    0.00    8.10
   1   8 -10  355.70   18.80
   1   8 -10  378.00   24.70
  -1  -8  10  365.20   33.40
  -1  -8  10  369.20   20.00
   0   8 -10  247.60   18.30
   0   8 -10  263.40   21.90
   0  -8  10  291.80   21.60
   0  -8  10  264.80   17.70
  -1   8 -10  524.40   29.90
  -1   8 -10  498.60   26.10
   1  -8  10  507.20   28.80
   1  -8  10  537.90   23.20
  -2   8 -10   30.20   11.30
   2  -8  10   42.60    7.40
   2  -8  10   39.50   11.00
  -3   8 -10   61.80   15.10
   3  -8  10   59.60   13.50
   3  -8  10   83.70    9.50
  -4   8 -10  209.40   20.60
   4  -8  10  229.80    9.50
   4  -8  10  192.80    9.60
  -5   8 -10  153.30   20.00
  -6   8 -10   47.90   15.60
  -7   8 -10  153.80   21.20
  -8   8 -10  245.40   24.90
  -9   8 -10   39.20   18.30
 -10   8 -10   10.60   14.50
 -10   8 -10    0.30   11.30
 -12  -7  10    1.00   11.10
 -11  -7  10   54.50   17.90
 -10  -7  10  270.30   21.20
 -10  -7  10  268.60   27.20
  -9  -7  10   70.00   13.40
  -9  -7  10   82.60   11.70
   8   7 -10  179.30    8.90
  -8  -7  10  208.60   17.90
  -8  -7  10  192.60   24.00
   7   7 -10   82.10    6.90
  -7  -7  10   97.50   15.40
  -7  -7  10   96.60   20.10
   6   7 -10   39.00    9.70
  -6  -7  10   56.30   12.90
  -6  -7  10   53.40   11.70
   5   7 -10   72.50    8.70
   5   7 -10   81.30   13.80
  -5  -7  10   78.10   12.70
  -5  -7  10   73.30   11.70
   4   7 -10    1.00    8.70
   4   7 -10    1.10    5.40
  -4  -7  10    4.20    8.40
  -4  -7  10    3.10    9.20
   3   7 -10  132.60   11.90
   3   7 -10  117.70   15.90
  -3  -7  10  152.70   16.10
  -3  -7  10  149.00   15.90
   2   7 -10   31.10    9.80
   2   7 -10   43.30    7.40
  -2  -7  10   40.90    9.50
  -2  -7  10   34.30    8.70
   1   7 -10    6.90    7.50
   1   7 -10    7.40   10.00
  -1  -7  10   10.30    9.20
  -1  -7  10    3.00    7.90
   0   7 -10 1393.30   49.90
   0   7 -10 1343.90   54.60
   0  -7  10 1384.60   48.50
  -1   7 -10 1099.50   42.20
   1  -7  10 1117.30   41.40
   1  -7  10 1124.70   35.20
  -2   7 -10   11.90    9.80
   2  -7  10   12.10    5.20
   2  -7  10    3.80    7.00
  -3   7 -10  112.70   15.60
   3  -7  10  128.60    9.30
   3  -7  10  113.40   15.10
  -4   7 -10    5.80   10.80
   4  -7  10    0.20    7.60
   4  -7  10   10.50    3.50
  -5   7 -10  253.00   22.60
  -6   7 -10  284.20   25.30
  -7   7 -10   43.70   15.20
  -8   7 -10   13.50   14.40
  -9   7 -10    0.10   12.90
  -9   7 -10    0.10   11.90
 -10   7 -10   30.30   14.50
 -10   7 -10   12.20   13.70
 -12  -6  10  157.60   21.90
 -11  -6  10   39.80   15.50
 -10  -6  10   59.10   11.50
 -10  -6  10   62.10   13.60
  -9  -6  10    4.80    9.50
  -9  -6  10    3.00   10.50
  -8  -6  10  111.00   17.10
  -8  -6  10  110.80   14.70
   7   6 -10  237.80    8.60
  -7  -6  10  230.00   20.10
  -7  -6  10  229.20   21.50
   6   6 -10    5.10    3.60
  -6  -6  10   28.10   10.10
  -6  -6  10    9.70    8.20
   5   6 -10  175.30   18.20
   5   6 -10  148.60   11.00
  -5  -6  10  152.40   16.80
  -5  -6  10  147.10   15.70
   4   6 -10   71.40    6.60
   4   6 -10   63.70   10.40
  -4  -6  10   92.70   10.60
  -4  -6  10   78.10    9.70
   3   6 -10   51.70    8.50
   3   6 -10   39.00   11.80
  -3  -6  10   26.80   10.30
  -3  -6  10   39.70   11.00
   2   6 -10   44.80    7.40
   2   6 -10   31.70    9.50
  -2  -6  10   47.30   10.20
  -2  -6  10   31.00    7.70
   1   6 -10   12.60    8.20
   1   6 -10   40.40    6.40
  -1  -6  10   52.70    9.10
  -1  -6  10   32.20    7.00
   0   6 -10  659.00   33.90
   0  -6  10  585.10   31.30
   0  -6  10  656.00   27.90
  -1   6 -10  291.20   23.40
   1  -6  10  279.20   17.30
   1  -6  10  279.10   25.10
  -2   6 -10    6.10    9.40
   2  -6  10    0.00    4.60
   2  -6  10    3.10    9.30
  -3   6 -10  526.40   29.50
   3  -6  10  524.60   19.90
   3  -6  10  492.00   28.40
  -4   6 -10   90.40   14.50
   4  -6  10   73.80    6.00
   4  -6  10  105.00   15.10
  -5   6 -10  111.50   15.10
   5  -6  10   87.30   15.60
  -6   6 -10   59.20   14.40
  -7   6 -10    3.80   12.60
  -8   6 -10   47.00   18.80
  -8   6 -10   42.20   13.20
  -9   6 -10    0.40   13.10
  -9   6 -10    0.40   11.10
 -10   6 -10   33.50   15.90
 -10   6 -10   20.90   13.80
 -12  -5  10  356.50   30.90
 -11  -5  10   30.80   14.90
 -10  -5  10    0.20   10.70
  -9  -5  10    8.10    9.90
  -8  -5  10    0.40   10.10
  -8  -5  10    0.40    8.60
  -7  -5  10  331.40   21.90
  -7  -5  10  360.60   24.80
   6   5 -10   91.30    4.70
  -6  -5  10   85.50   13.10
  -6  -5  10   90.40   13.00
   5   5 -10   64.20    7.30
   5   5 -10   99.90   13.80
  -5  -5  10   82.00   13.60
  -5  -5  10   64.10   12.40
   4   5 -10  329.40   23.00
   4   5 -10  320.80   16.00
  -4  -5  10  330.10   20.90
  -4  -5  10  317.60   22.00
   3   5 -10   68.00   11.20
   3   5 -10   74.50    7.20
  -3  -5  10   62.10   10.00
  -3  -5  10   70.30    9.60
   2   5 -10  992.30   37.40
   2   5 -10  972.60   31.60
  -2  -5  10  973.90   34.20
  -2  -5  10  954.40   36.30
   1   5 -10  338.30   22.10
  -1  -5  10  362.70   22.10
   0   5 -10    6.00    9.80
   0  -5  10    4.90    9.20
   0  -5  10   10.90    8.00
  -1   5 -10  397.30   25.20
   1  -5  10  415.60   24.40
   1  -5  10  431.80   19.50
  -2   5 -10   53.30   10.90
   2  -5  10   49.50    9.80
   2  -5  10   58.50    6.20
  -3   5 -10   36.60   12.30
   3  -5  10   31.60   11.10
   3  -5  10   35.80    6.40
  -4   5 -10   83.10   13.50
   4  -5  10  138.50   16.80
   4  -5  10   86.40    7.30
  -5   5 -10  971.10   42.40
   5  -5  10  957.80   42.60
  -6   5 -10  231.60   22.50
  -6   5 -10  235.70   23.80
  -7   5 -10   43.10   12.30
  -7   5 -10   52.50   12.80
  -8   5 -10  168.80   20.30
  -8   5 -10  170.10   20.60
  -9   5 -10    3.30   11.00
  -9   5 -10    0.00   12.40
 -10   5 -10   14.70   13.40
 -10   5 -10   17.90   14.30
 -11   5 -10    2.00   10.80
 -11   5 -10    5.70   13.90
 -12  -4  10   85.90   18.20
 -11  -4  10    2.70   11.00
 -10  -4  10   85.40   14.80
  -9  -4  10   22.10   10.00
  -9  -4  10    5.10   10.20
  -8  -4  10   74.50   12.50
  -8  -4  10   84.30   14.70
  -7  -4  10  103.70   13.20
  -7  -4  10   90.60   14.10
  -6  -4  10  897.10   41.90
  -6  -4  10  834.30   38.10
   5   4 -10  387.50   10.90
   5   4 -10  346.00   11.60
  -5  -4  10  339.50   20.10
  -5  -4  10  343.60   19.40
   4   4 -10   31.20    6.40
   4   4 -10   26.80   12.40
   4   4 -10   32.70    7.00
  -4  -4  10   42.70   12.20
  -4  -4  10   33.80   11.60
   3   4 -10    1.20    5.00
   3   4 -10    3.90    8.40
  -3  -4  10    2.20    8.10
  -3  -4  10    0.10    7.80
   2   4 -10  522.40   26.90
  -2  -4  10  440.60   24.70
  -2  -4  10  448.10   23.20
   1   4 -10   27.10   10.40
  -1  -4  10   33.50    8.70
  -1  -4  10   37.30   11.20
   0   4 -10    1.20    7.30
   0  -4  10    1.20    5.80
   0  -4  10    3.90    7.40
  -1   4 -10 1454.00   54.80
   1  -4  10 1441.40   55.40
   1  -4  10 1452.90   48.60
  -2   4 -10  354.20   22.90
   2  -4  10  342.90   22.90
   2  -4  10  341.70   15.70
  -3   4 -10  118.90   17.30
   3  -4  10  112.80   10.20
   3  -4  10  135.60   18.70
  -4   4 -10  253.70   18.70
  -4   4 -10  261.20   21.20
   4  -4  10  218.30   11.60
   4  -4  10  277.80   21.60
  -5   4 -10   31.20   11.10
  -5   4 -10   17.40   10.50
   5  -4  10    9.50    9.70
  -6   4 -10   68.10   14.10
  -6   4 -10   91.70   15.50
   6  -4  10   76.10   15.00
  -7   4 -10    0.00   11.10
  -7   4 -10    3.40   10.10
  -8   4 -10   33.50   13.00
  -8   4 -10   43.10   14.30
  -9   4 -10   10.20   11.60
  -9   4 -10    3.70   12.60
 -10   4 -10   12.60   13.30
 -10   4 -10    0.50   10.90
 -11   4 -10    0.00   12.90
 -11   4 -10   25.70   14.10
 -13  -3  10   33.30   14.40
 -12  -3  10    0.40   13.30
 -11  -3  10   63.60   17.70
 -10  -3  10    9.60   12.60
  -9  -3  10  105.50   15.20
  -9  -3  10   83.90   15.50
  -8  -3  10  201.00   19.60
  -8  -3  10  202.50   17.90
  -7  -3  10   57.10    9.90
  -7  -3  10   68.80   11.20
  -6  -3  10  658.10   32.20
  -5  -3  10  127.60   16.00
  -5  -3  10  141.70   17.00
   4   3 -10   69.00   12.50
   4   3 -10   57.20    6.60
   4   3 -10   59.50    7.30
  -4  -3  10   58.10   12.00
  -4  -3  10   57.10   12.50
   3   3 -10    5.60    4.20
   3   3 -10    0.90    6.50
   3   3 -10    0.90    7.80
  -3  -3  10   17.90    7.60
  -3  -3  10   17.00    7.30
   2   3 -10   32.50    9.00
   2   3 -10   43.70   11.20
   2   3 -10   28.80    6.40
  -2  -3  10   42.20   10.00
  -2  -3  10   21.80    9.50
   1   3 -10 1094.90   43.30
   1   3 -10 1104.70   40.20
   1   3 -10 1079.20   38.00
  -1  -3  10 1103.10   43.80
  -1  -3  10 1096.00   40.70
   0   3 -10  535.00   21.30
   0   3 -10  508.10   21.10
   0   3 -10  534.30   25.10
   0  -3  10  543.40   21.40
   0  -3  10  504.60   25.10
  -1   3 -10  304.10   13.40
  -1   3 -10  309.50   18.30
  -1   3 -10  350.50   16.20
   1  -3  10  324.20   14.50
   1  -3  10  287.80   19.30
  -2   3 -10  271.40   21.70
  -2   3 -10  265.30   15.00
  -2   3 -10  293.80   19.50
   2  -3  10  282.90   21.40
   2  -3  10  266.60   15.60
  -3   3 -10  559.50   25.90
  -3   3 -10  576.90   18.10
  -3   3 -10  523.30   22.80
   3  -3  10  514.80   25.80
   3  -3  10  559.80   18.60
  -4   3 -10   30.80   10.10
  -4   3 -10   35.40    5.00
  -4   3 -10   33.60    9.30
   4  -3  10    4.80    5.00
   4  -3  10   34.50   11.70
  -5   3 -10   43.50   11.50
  -5   3 -10   36.20   11.00
   5  -3  10   36.20   11.20
   5  -3  10   43.30    4.60
  -6   3 -10  365.20   25.10
  -6   3 -10  387.60   24.40
   6  -3  10  343.60   25.70
  -7   3 -10   78.70   13.30
  -7   3 -10   96.20   15.40
   7  -3  10   72.70   14.80
  -8   3 -10   16.10   11.40
  -8   3 -10   13.40   11.70
  -9   3 -10   23.20   11.50
  -9   3 -10    0.60   10.50
 -10   3 -10   77.20   16.20
 -10   3 -10   68.00   18.00
 -11   3 -10    1.30   10.90
 -11   3 -10    0.40   11.40
 -13  -2  10   13.60   13.60
 -12  -2  10   73.50   16.50
 -11  -2  10   77.20   15.70
 -10  -2  10    0.00    9.60
  -9  -2  10   24.00   11.60
  -8  -2  10  332.60   20.90
  -8  -2  10  369.00   25.00
  -7  -2  10    8.60    8.90
  -7  -2  10    9.60    8.00
   6   2 -10  669.90   31.30
  -6  -2  10  716.30   32.00
  -6  -2  10  731.80   32.50
   5   2 -10   13.10   14.60
  -5  -2  10   11.80    8.60
  -5  -2  10   14.60    8.90
   4   2 -10   62.40    4.70
   4   2 -10   61.80    9.70
  -4  -2  10   49.60   10.10
  -4  -2  10   56.90   10.90
   3   2 -10   26.40    8.10
   3   2 -10    9.10    7.90
   3   2 -10   16.30    4.70
  -3  -2  10    0.10    8.40
  -3  -2  10   18.30    7.70
   2   2 -10  570.50   20.50
   2   2 -10  571.40   16.90
   2   2 -10  596.40   22.70
  -2  -2  10  533.50   22.30
  -2  -2  10  580.70   21.30
   1   2 -10 4589.80  122.30
   1   2 -10 4699.30  128.20
   1   2 -10 4632.00  124.90
  -1  -2  10 4545.00  128.60
   0   2 -10 1710.60   61.30
   0   2 -10 1735.00   57.40
   0   2 -10 1712.80   57.80
   0  -2  10 1754.80   58.00
   0  -2  10 1766.40   62.80
  -1   2 -10   34.80   10.90
  -1   2 -10   23.60    7.20
  -1   2 -10   30.70    7.20
   1  -2  10   34.60    7.50
   1  -2  10   38.00   10.60
  -2   2 -10  116.60   14.10
  -2   2 -10  110.40   12.20
  -2   2 -10  106.80   15.70
   2  -2  10  108.20   11.50
   2  -2  10  100.70   16.30
  -3   2 -10   17.60    5.70
  -3   2 -10    6.60    7.90
  -3   2 -10   25.60    9.80
   3  -2  10   11.40    6.30
   3  -2  10   18.90    9.60
  -4   2 -10  409.00   23.40
  -4   2 -10  379.90   21.40
   4  -2  10  377.10   23.60
   4  -2  10  309.20   16.20
  -5   2 -10   97.90   14.50
  -5   2 -10  124.60   15.30
  -5   2 -10  101.80    8.00
   5  -2  10  103.70    9.10
  -6   2 -10  380.50   13.00
  -6   2 -10  395.80   24.50
  -6   2 -10  355.30   22.90
   6  -2  10  370.30   25.60
  -7   2 -10   40.60   11.60
  -7   2 -10   13.40   10.50
   7  -2  10    0.30    9.70
  -8   2 -10    0.00    9.40
  -8   2 -10    6.60   10.30
   8  -2  10    0.00    9.90
  -9   2 -10   36.60   13.10
  -9   2 -10   37.20   14.00
 -10   2 -10   36.20   12.70
 -10   2 -10   38.80   12.80
 -11   2 -10   11.60   13.30
 -11   2 -10    0.40   10.80
 -13  -1  10   39.10   14.10
 -12  -1  10   94.90   17.40
 -11  -1  10   11.80   12.50
 -10  -1  10    4.70   11.60
  -9  -1  10    0.00    8.40
  -8  -1  10  333.50   21.40
  -8  -1  10  342.40   19.30
   7   1 -10   15.10    9.10
  -7  -1  10   33.20    9.00
  -7  -1  10   33.10   10.50
   6   1 -10  103.30   14.20
  -6  -1  10  124.90   15.80
  -6  -1  10  123.60   15.40
  -5  -1  10  238.50   18.30
  -5  -1  10  221.50   20.40
   4   1 -10   79.30   10.80
   4   1 -10   71.40    5.80
  -4  -1  10   72.40   10.70
  -4  -1  10   91.70   11.70
   3   1 -10  402.60   16.50
   3   1 -10  424.20   22.80
  -3  -1  10  414.30   23.60
  -3  -1  10  444.40   23.40
   2   1 -10  178.20   12.40
   2   1 -10  191.70   14.30
   2   1 -10  201.70   10.30
  -2  -1  10  173.20   14.30
  -2  -1  10  187.90   13.90
   1   1 -10 2475.50   63.40
   1   1 -10 2588.40   68.60
   1   1 -10 2554.90   66.50
  -1  -1  10 2415.20   68.90
  -1  -1  10 2534.50   66.00
   0   1 -10  633.00   21.30
   0   1 -10  672.90   24.80
   0   1 -10  662.70   22.30
   0  -1  10  717.00   27.20
   0  -1  10  667.80   22.40
  -1   1 -10    9.90    7.10
  -1   1 -10   28.20    7.00
  -1   1 -10    7.40    5.30
   1  -1  10    4.00    7.40
   1  -1  10    4.00    5.50
  -2   1 -10   42.60    7.60
  -2   1 -10   34.40    8.40
  -2   1 -10   24.90    9.30
   2  -1  10   32.20    9.90
   2  -1  10   34.10    8.00
  -3   1 -10   12.70    6.90
  -3   1 -10   12.00    5.50
  -3   1 -10   14.00    9.00
   3  -1  10    3.00    7.30
   3  -1  10    3.00    5.40
  -4   1 -10 1164.60   40.00
  -4   1 -10 1094.20   39.40
  -4   1 -10 1125.20   33.20
   4  -1  10  925.10   34.70
   4  -1  10 1136.10   43.40
  -5   1 -10  101.50   12.90
  -5   1 -10  104.30   13.00
  -5   1 -10  113.70    8.40
   5  -1  10  117.90   15.40
   5  -1  10  117.50    9.40
  -6   1 -10  244.40   20.50
  -6   1 -10  222.50   20.50
  -6   1 -10  233.40   16.60
   6  -1  10  236.10   35.80
  -7   1 -10    6.30    9.80
  -7   1 -10    1.90    3.70
  -7   1 -10    0.40    8.60
   7  -1  10    1.30    9.30
  -8   1 -10    9.80    3.40
  -8   1 -10   20.90   11.10
  -8   1 -10   20.80   10.80
   8  -1  10    0.00   10.00
  -9   1 -10   50.70   12.90
  -9   1 -10   70.00   14.50
 -10   1 -10   18.10   11.80
 -10   1 -10   17.90   12.00
 -11   1 -10    9.00   11.00
 -11   1 -10    0.20   10.70
 -13   0  10   16.20   12.30
 -12   0  10   49.70   15.20
 -11   0  10    3.30   10.80
 -10   0  10    1.60   10.10
  -9   0  10   41.30   11.00
  -8   0  10  238.20   22.30
   7   0 -10  171.00   19.30
  -7   0  10  179.10   19.00
  -7   0  10  210.30   20.30
   6   0 -10   22.50    8.50
  -6   0  10   24.80    7.90
  -6   0  10   23.30    9.30
   5   0 -10  225.50   15.60
   5   0 -10  252.60    8.40
  -5   0  10  253.60   16.10
  -5   0  10  245.20   16.10
   4   0 -10   84.60   12.20
   4   0 -10   74.90    6.70
  -4   0  10   64.10   10.70
  -4   0  10   78.80   11.80
   3   0 -10 1102.30   34.10
   3   0 -10 1091.30   40.60
  -3   0  10 1101.50   41.50
  -3   0  10 1116.00   40.40
   2   0 -10    1.80    5.40
   2   0 -10    0.40    8.20
   2   0 -10    2.50    7.40
  -2   0  10    3.80    8.60
  -2   0  10    1.50    8.50
   1   0 -10  131.50   11.90
   1   0 -10  123.90   14.70
   1   0 -10  118.50   13.80
  -1   0  10  135.50   13.50
  -1   0  10  131.70   15.80
   0   0 -10  182.60   13.00
   0   0 -10  178.30   13.60
   0   0 -10  164.90   15.70
   0   0  10  163.10   16.50
  -1   0 -10   47.50    9.80
  -1   0 -10   62.90    7.60
  -1   0 -10   33.70    6.80
   1   0  10   46.40    9.90
   1   0  10   34.70    7.10
  -2   0 -10   45.20    8.70
  -2   0 -10   56.90   11.40
  -2   0 -10   33.40    8.80
   2   0  10   58.50   12.20
   2   0  10   63.10   10.00
  -3   0 -10   74.80   12.50
  -3   0 -10   85.50   10.30
  -3   0 -10   75.10   12.90
   3   0  10   95.20   12.00
   3   0  10   81.50   15.10
  -4   0 -10 1114.80   38.10
  -4   0 -10 1144.90   38.70
  -4   0 -10 1115.00   33.00
   4   0  10  981.60   35.60
   4   0  10 1054.20   41.50
  -5   0 -10    9.90    8.10
  -5   0 -10    1.00    8.20
  -5   0 -10    6.00    4.70
   5   0  10    9.00    5.50
   5   0  10    7.20    9.00
  -6   0 -10   71.30   12.50
  -6   0 -10   84.90    8.60
  -6   0 -10   80.40   13.50
   6   0  10   85.90   15.00
  -7   0 -10   82.70    8.00
  -7   0 -10   89.80   14.60
  -7   0 -10   75.70   12.90
   7   0  10   58.00   14.20
  -8   0 -10    0.40   10.00
  -8   0 -10    7.20    4.40
  -8   0 -10    1.60    9.20
   8   0  10    0.40    8.90
  -9   0 -10    8.90   10.00
  -9   0 -10    0.10    9.30
   9   0  10    7.00   11.60
 -10   0 -10   60.20   13.70
 -10   0 -10   59.20    6.00
 -10   0 -10   76.50   15.20
 -10   0 -10   59.20    6.00
 -13   1  10    0.50   11.10
 -12   1  10   12.20   13.70
 -11   1  10   30.10   13.90
 -10   1  10   85.10   15.70
  -9   1  10    0.60   10.00
  -8   1  10    6.40   10.20
  -7   1  10  343.50   22.60
  -7   1  10  391.60   24.50
   6  -1 -10   16.20    7.90
  -6   1  10   22.60    8.80
  -6   1  10   16.00    8.30
   5  -1 -10    0.00    3.90
   5  -1 -10    5.80    8.60
  -5   1  10   10.50    8.90
  -5   1  10    2.70    6.90
   4  -1 -10   17.10    8.30
   4  -1 -10   17.70    5.00
  -4   1  10   22.10    8.40
  -4   1  10   14.10   10.50
   3  -1 -10  904.00   27.90
   3  -1 -10  870.00   33.60
  -3   1  10  927.80   34.20
  -3   1  10  874.50   34.20
   2  -1 -10    6.20    4.60
   2  -1 -10   11.30    6.80
  -2   1  10    9.50    7.80
  -2   1  10    7.60    7.80
   1  -1 -10  133.10   10.90
   1  -1 -10  111.80   12.70
   1  -1 -10  122.80   13.00
  -1   1  10  139.60   14.30
  -1   1  10  104.00   12.40
   0  -1 -10  936.00   31.90
   0  -1 -10  927.90   33.40
   0  -1 -10  946.90   34.40
   0   1  10  973.00   33.20
   0   1  10  919.20   36.30
  -1  -1 -10    0.10    5.40
  -1  -1 -10    0.10    6.30
  -1  -1 -10    8.10    7.90
   1   1  10    2.90    6.30
   1   1  10    0.10    8.30
  -2  -1 -10  204.90   15.20
  -2  -1 -10  204.50   13.20
  -2  -1 -10  200.70   16.00
   2   1  10  196.10   14.40
   2   1  10  230.20   18.10
  -3  -1 -10   42.60    9.10
  -3  -1 -10   63.90    8.10
  -3  -1 -10   49.40    9.60
   3   1  10   46.40    9.30
   3   1  10   63.80   12.20
  -4  -1 -10  356.00   21.30
  -4  -1 -10  333.60   17.20
  -4  -1 -10  355.80   21.20
   4   1  10  349.00   24.30
   4   1  10  277.40   19.20
  -5  -1 -10  129.50   15.40
  -5  -1 -10  146.30   14.20
  -5  -1 -10  129.40   10.70
   5   1  10  102.60   11.70
   5   1  10  155.70   17.50
  -6  -1 -10   84.90    9.90
  -6  -1 -10   90.30   13.60
  -6  -1 -10   92.40   14.80
   6   1  10   70.70   15.00
  -7  -1 -10    5.50    9.20
  -7  -1 -10    0.80    5.10
  -7  -1 -10    1.00   14.80
   7   1  10    1.00    7.80
  -8  -1 -10   12.00   10.20
  -8  -1 -10   15.60    6.10
  -8  -1 -10    9.30    9.90
  -9  -1 -10    0.00    9.50
  -9  -1 -10    6.70    9.10
  -9  -1 -10    6.30    5.00
   9   1  10    0.00    8.30
 -10  -1 -10  150.70   16.80
 -10  -1 -10  167.80   20.00
 -10  -1 -10  168.90   15.00
  10   1  10  118.30   18.40
 -12   2  10    6.80   11.70
 -11   2  10   12.50   11.20
 -10   2  10   98.20   17.50
  -9   2  10    7.20    9.90
  -8   2  10   91.10   14.20
  -7   2  10  476.90   25.30
   6  -2 -10    5.80    7.80
   6  -2 -10    4.10    3.70
  -6   2  10    1.30    7.10
  -6   2  10    7.10    3.60
  -6   2  10    6.40    8.40
   5  -2 -10  538.60   19.40
   5  -2 -10  606.90   26.50
  -5   2  10  634.10   18.30
  -5   2  10  594.70   25.20
  -5   2  10  625.60   26.80
   4  -2 -10  137.90   19.00
   4  -2 -10  135.00   10.80
  -4   2  10  128.30   14.90
  -4   2  10  149.20   10.50
  -4   2  10  151.90   16.90
   3  -2 -10    1.40    7.80
   3  -2 -10    2.80    5.00
  -3   2  10    5.30    8.00
  -3   2  10    0.70    7.00
  -3   2  10    4.80    5.10
   2  -2 -10  220.50   10.70
   2  -2 -10  239.40   14.60
  -2   2  10  237.80   14.70
  -2   2  10  237.30   11.70
  -2   2  10  250.80   14.30
   1  -2 -10   73.80    9.30
   1  -2 -10   90.70   11.80
  -1   2  10   77.50    9.80
  -1   2  10   73.40   12.00
  -1   2  10   89.10   11.90
   0  -2 -10  592.30   23.70
   0  -2 -10  591.10   25.40
   0  -2 -10  606.40   25.30
   0   2  10  623.80   24.10
   0   2  10  554.90   24.30
   0   2  10  588.80   27.50
  -1  -2 -10   14.10    7.50
  -1  -2 -10   16.10    7.80
  -1  -2 -10    1.50    7.20
   1   2  10    0.50    6.40
   1   2  10    3.00    7.40
   1   2  10   11.80    9.10
  -2  -2 -10  282.40   18.60
  -2  -2 -10  259.00   17.20
  -2  -2 -10  256.10   16.60
   2   2  10  280.50   18.30
   2   2  10  262.30   18.60
   2   2  10  304.30   21.40
  -3  -2 -10   96.70   10.20
  -3  -2 -10   76.70    9.30
  -3  -2 -10   98.00    9.20
   3   2  10   86.20   10.20
   3   2  10  119.20   12.60
  -4  -2 -10   59.10   10.30
  -4  -2 -10   63.00   11.10
  -4  -2 -10   72.00    9.50
   4   2  10   63.70   11.20
   4   2  10   70.10   13.30
  -5  -2 -10  287.90   16.50
  -5  -2 -10  333.30   19.90
  -5  -2 -10  317.70   20.80
   5   2  10  268.40   19.80
   5   2  10  263.60   23.00
  -6  -2 -10   22.60   10.00
  -6  -2 -10    8.40    8.40
  -6  -2 -10    9.30    6.10
   6   2  10    0.00    8.70
  -7  -2 -10   31.30    7.80
  -7  -2 -10   41.60   12.30
  -7  -2 -10   45.70   10.30
   7   2  10   46.60   13.60
  -8  -2 -10   92.00    9.60
  -8  -2 -10  101.80   15.20
  -8  -2 -10   96.40   12.50
   8   2  10   64.40   14.10
  -9  -2 -10    0.10    5.00
  -9  -2 -10    0.90    8.80
  -9  -2 -10    0.10   10.40
 -10  -2 -10  129.70   11.20
 -10  -2 -10  168.20   16.70
 -10  -2 -10  136.60   18.00
  10   2  10  125.30   17.50
 -12   3  10    7.80   13.40
 -11   3  10   14.00   12.40
 -10   3  10   27.80   12.80
  -9   3  10  147.40   26.30
  -8   3  10   59.90   12.20
  -7   3  10  162.10   19.70
  -7   3  10  175.70    9.80
   6  -3 -10   34.60   12.00
   6  -3 -10   43.90    7.90
  -6   3  10   30.40   10.10
  -6   3  10   34.80   11.30
  -6   3  10   33.40    5.80
   5  -3 -10  281.80   17.80
   5  -3 -10  303.00   23.10
  -5   3  10  316.20   22.60
  -5   3  10  282.00   22.20
  -5   3  10  297.30   15.70
   4  -3 -10    1.00    5.10
   4  -3 -10    6.40    7.70
  -4   3  10    1.00    7.00
  -4   3  10   13.80    9.20
  -4   3  10   13.00    5.80
   3  -3 -10  406.70   17.30
  -3   3  10  393.50   17.60
  -3   3  10  435.70   22.30
   2  -3 -10 1524.60   56.70
   2  -3 -10 1585.70   52.20
  -2   3  10 1556.80   57.20
  -2   3  10 1608.20   56.30
  -2   3  10 1572.60   52.80
   1  -3 -10    8.20    7.10
   1  -3 -10   12.20    6.50
  -1   3  10    0.60    7.70
  -1   3  10   12.90    6.90
  -1   3  10   11.50    8.90
   0  -3 -10   26.50    9.30
   0  -3 -10   32.80    8.30
   0   3  10   21.50    9.40
   0   3  10   28.30   10.20
   0   3  10   29.90    9.20
  -1  -3 -10  113.90   12.50
  -1  -3 -10  115.00   12.80
   1   3  10  130.20   16.50
   1   3  10  119.70   14.20
   1   3  10   90.30   13.60
  -2  -3 -10   67.00   10.80
  -2  -3 -10   67.50   11.10
  -2  -3 -10  101.70   12.70
   2   3  10   57.10   11.20
   2   3  10   73.30   12.90
  -3  -3 -10   90.20   13.20
  -3  -3 -10   91.50   14.60
  -3  -3 -10   73.70   13.00
   3   3  10  102.20   16.70
   3   3  10   89.10   15.70
   3   3  10   90.50   16.80
  -4  -3 -10    0.20    6.50
  -4  -3 -10    5.70    8.70
  -4  -3 -10    0.10    7.30
   4   3  10    0.10    9.20
   4   3  10    0.30    8.50
  -5  -3 -10  196.10   15.10
  -5  -3 -10  194.00   16.00
  -5  -3 -10  204.10   18.90
   5   3  10  183.40   20.70
   5   3  10  154.70   17.60
  -6  -3 -10   10.60    9.70
  -6  -3 -10   16.80    7.80
  -6  -3 -10    5.80    7.80
   6   3  10    1.60    9.30
  -7  -3 -10   27.80   11.50
  -7  -3 -10   22.60    8.60
  -7  -3 -10   28.80    8.10
   7   3  10   11.70    9.80
  -8  -3 -10  269.80   17.50
  -8  -3 -10  239.20   15.40
  -8  -3 -10  264.10   22.90
   8   3  10  215.40   21.30
  -9  -3 -10   82.90   10.60
  -9  -3 -10   86.40   16.80
  -9  -3 -10   97.30   12.40
   9   3  10   32.40   13.20
 -10  -3 -10   18.10    7.20
 -10  -3 -10   33.30   12.10
 -10  -3 -10   30.40    9.00
  10   3  10    5.90   10.60
 -12   4  10   29.50   13.90
 -11   4  10    3.20   11.00
 -10   4  10   25.40   12.00
  -9   4  10  285.70   11.10
  -9   4  10  311.50   23.00
  -8   4  10   18.20    4.60
  -8   4  10   21.10   10.90
  -7   4  10    4.30    4.90
  -7   4  10    6.70   10.00
   6  -4 -10  199.80   14.30
  -6   4  10  209.00   18.30
  -6   4  10  216.20   11.50
   5  -4 -10   18.80    9.20
   5  -4 -10   25.40    7.70
  -5   4  10   44.60   10.30
  -5   4  10   47.60    6.80
  -5   4  10   36.90   10.20
   4  -4 -10  155.60   18.00
   4  -4 -10  147.50   13.70
  -4   4  10  155.70   17.50
  -4   4  10  167.40   12.70
  -4   4  10  161.10   17.00
   3  -4 -10  252.00   14.20
   3  -4 -10  266.00   17.90
  -3   4  10  296.80   19.50
  -3   4  10  277.00   14.40
  -3   4  10  284.40   19.10
   2  -4 -10 1340.70   44.90
   2  -4 -10 1318.90   49.50
  -2   4  10 1329.90   45.20
  -2   4  10 1311.70   49.50
  -2   4  10 1319.00   48.50
   1  -4 -10   12.00    8.50
   1  -4 -10    0.00    5.40
  -1   4  10    0.00    6.10
  -1   4  10    0.00    8.20
  -1   4  10    0.00    8.10
   0  -4 -10  149.00   13.70
   0  -4 -10  136.20   11.90
   0   4  10  139.40   12.50
   0   4  10  164.70   14.90
   0   4  10  140.10   13.60
  -1  -4 -10   14.40    7.20
  -1  -4 -10   17.40    7.60
   1   4  10   29.20    8.60
   1   4  10   16.10    8.10
   1   4  10   16.30    9.20
  -2  -4 -10    0.90    7.10
  -2  -4 -10    0.20    8.00
   2   4  10    0.90    8.70
   2   4  10    3.80    8.70
   2   4  10    2.30    6.90
  -3  -4 -10  128.40   12.50
  -3  -4 -10  119.10   13.30
   3   4  10   88.00   12.90
   3   4  10  125.80   14.00
   3   4  10  125.70   15.20
  -4  -4 -10  180.30   17.70
  -4  -4 -10  154.30   14.20
  -4  -4 -10  170.30   14.40
   4   4  10  155.70   18.00
   4   4  10  154.40   17.90
  -5  -4 -10  115.70   11.70
  -5  -4 -10  101.90   13.40
  -5  -4 -10   89.30   10.30
   5   4  10  113.00   13.90
  -6  -4 -10    0.00    6.00
  -6  -4 -10    0.00    9.70
  -6  -4 -10    4.40    7.20
   6   4  10    0.00    7.40
  -7  -4 -10   16.90    7.80
  -7  -4 -10    5.40   10.10
  -7  -4 -10   15.20    7.70
   7   4  10    1.60    8.70
  -8  -4 -10   73.00   14.20
  -8  -4 -10   65.50   11.30
  -8  -4 -10   73.40   10.20
   8   4  10   45.40   12.80
  -9  -4 -10   35.30   12.20
  -9  -4 -10   35.60    8.40
   9   4  10    6.70   10.90
 -12   5  10   17.80   12.10
 -11   5  10   12.90   11.30
 -11   5  10   10.60    3.30
 -10   5  10  107.10    8.70
 -10   5  10  116.50   16.00
  -9   5  10  197.10   20.50
  -9   5  10  190.00   10.50
  -8   5  10   97.80   16.90
  -8   5  10  101.50    7.90
   7  -5 -10   80.20   10.10
  -7   5  10   46.60   11.50
  -7   5  10   72.30    7.20
   6  -5 -10  244.40   16.90
  -6   5  10  242.70   19.30
  -6   5  10  224.90   12.80
   5  -5 -10  198.10   17.50
  -5   5  10  243.30   15.00
  -5   5  10  267.90   20.80
   4  -5 -10  671.10   28.70
   4  -5 -10  552.20   30.90
  -4   5  10  634.30   30.90
  -4   5  10  613.70   30.40
  -4   5  10  585.80   25.20
   3  -5 -10   54.00    9.70
   3  -5 -10   59.80   11.70
  -3   5  10   32.70   10.30
  -3   5  10   45.50    8.50
  -3   5  10   34.70   10.20
   2  -5 -10   43.10   10.40
   2  -5 -10   58.60    8.50
  -2   5  10   62.80    8.20
  -2   5  10   59.00   10.60
  -2   5  10   63.60   11.30
   1  -5 -10  394.60   24.30
   1  -5 -10  403.80   21.20
  -1   5  10  378.90   21.10
  -1   5  10  412.10   24.50
  -1   5  10  405.40   23.20
   0  -5 -10   52.50   10.00
   0  -5 -10   52.30    9.00
   0   5  10   52.40    9.30
   0   5  10   62.20   11.10
   0   5  10   59.70   10.80
  -1  -5 -10    9.00    8.70
  -1  -5 -10    1.80    7.80
   1   5  10   17.10    8.20
   1   5  10   16.50    8.60
   1   5  10    4.00    8.10
  -2  -5 -10   34.80    9.20
  -2  -5 -10   36.60    8.80
   2   5  10   52.90   10.60
   2   5  10   38.60    9.80
   2   5  10   46.10   10.90
  -3  -5 -10  339.30   20.40
  -3  -5 -10  356.50   19.90
   3   5  10  327.50   21.40
   3   5  10  289.80   21.60
  -4  -5 -10   67.60   10.30
  -4  -5 -10   65.80   11.40
   4   5  10  100.70   14.60
   4   5  10   57.40   12.50
  -5  -5 -10    1.10    9.70
  -5  -5 -10    6.50    7.90
   5   5  10    0.00    8.10
   5   5  10    0.00    7.80
  -6  -5 -10    7.10    8.20
  -6  -5 -10    9.80   10.90
   6   5  10    0.70    7.50
  -7  -5 -10   97.30   12.50
  -7  -5 -10  110.30   15.60
   7   5  10   64.30   14.10
  -8  -5 -10    2.00    6.00
  -8  -5 -10   11.80   11.70
  -8  -5 -10    4.90    7.40
   8   5  10    0.00    8.40
  -9  -5 -10    1.80    7.40
  -9  -5 -10   12.40    6.50
  -9  -5 -10    3.00   10.50
   9   5  10    1.80    8.00
 -11   6  10   36.10    5.70
 -11   6  10   36.20   13.40
 -10   6  10   61.10   15.60
  -9   6  10    1.80   10.50
  -9   6  10    0.40    4.50
  -8   6  10  318.40   15.80
  -8   6  10  361.30   25.90
   7  -6 -10   42.00    9.50
  -7   6  10   35.60   11.80
  -7   6  10   38.80    6.50
   6  -6 -10    0.40    7.60
  -6   6  10    0.40    9.30
  -6   6  10    0.10    5.20
   5  -6 -10  108.20   13.30
  -5   6  10  104.70   10.30
  -5   6  10   86.80   13.80
   4  -6 -10  601.70   25.80
  -4   6  10  533.30   28.20
  -4   6  10  594.00   28.00
  -4   6  10  514.60   22.70
   3  -6 -10    0.10    7.20
  -3   6  10    0.80    7.60
  -3   6  10    6.10    9.30
  -3   6  10    0.10    5.70
   2  -6 -10  188.40   15.40
   2  -6 -10  177.00   18.70
  -2   6  10  158.50   14.20
  -2   6  10  199.50   17.10
  -2   6  10  181.20   17.50
   1  -6 -10  762.20   30.80
   1  -6 -10  743.30   34.30
  -1   6  10  685.20   30.30
  -1   6  10  703.10   32.80
   0  -6 -10    2.10    7.20
   0  -6 -10    2.10    6.90
   0   6  10    2.10    6.60
   0   6  10    2.10    8.10
   0   6  10    2.10    9.00
  -1  -6 -10   96.80   13.80
  -1  -6 -10  107.50   14.20
   1   6  10  121.70   16.60
   1   6  10  124.90   15.60
   1   6  10   98.20   14.10
  -2  -6 -10  116.80   13.20
  -2  -6 -10  116.40   12.80
   2   6  10   90.60   12.60
   2   6  10   85.80   12.50
  -3  -6 -10  122.80   15.60
  -3  -6 -10  119.70   15.30
   3   6  10  120.10   16.40
   3   6  10  110.40   17.60
  -4  -6 -10  133.10   15.10
  -4  -6 -10  157.10   17.10
   4   6  10  131.80   18.60
   4   6  10   95.00   15.40
  -5  -6 -10   33.30   10.30
  -5  -6 -10    7.10    8.30
   5   6  10    3.70    9.00
   5   6  10    0.90    7.60
  -6  -6 -10   23.80    9.50
  -6  -6 -10    5.10    9.90
  -7  -6 -10   81.00   14.80
  -8  -6 -10   10.60   10.30
 -11   7  10   27.70    6.10
 -11   7  10   41.30   14.60
 -10   7  10   12.70   12.70
 -10   7  10   13.30    5.40
  -9   7  10  123.00   11.00
  -9   7  10  132.20   17.80
  -8   7  10  624.30   34.50
  -8   7  10  590.70   24.80
   7  -7 -10    0.50    8.10
  -7   7  10   23.00    6.70
  -7   7  10   24.70   11.60
   6  -7 -10   73.90   13.20
  -6   7  10   72.40   14.20
  -6   7  10   76.50   10.00
   5  -7 -10    2.30    8.90
  -5   7  10    0.00    9.00
  -5   7  10    4.80    6.10
   4  -7 -10    0.10    7.70
  -4   7  10    0.10    8.60
  -4   7  10    4.60    6.60
   3  -7 -10  294.50   18.50
  -3   7  10  240.40   16.20
  -3   7  10  278.00   21.60
  -3   7  10  267.50   19.90
   2  -7 -10  168.50   16.50
  -2   7  10  183.50   19.70
  -2   7  10  177.70   17.00
   1  -7 -10  327.10   19.40
  -1   7  10  341.60   19.70
  -1   7  10  329.00   19.10
  -1   7  10  352.50   21.30
   0  -7 -10   43.90   10.60
   0   7  10   45.80   11.20
   0   7  10   53.80   12.00
   0   7  10   50.40   10.00
  -1  -7 -10  273.10   19.50
   1   7  10  247.10   21.10
   1   7  10  269.30   19.10
  -2  -7 -10  113.30   16.10
   2   7  10  137.90   18.30
   2   7  10  113.50   19.10
  -3  -7 -10    6.90    8.20
   3   7  10    3.60    8.00
   3   7  10    0.20    8.20
  -4  -7 -10  210.70   20.20
   4   7  10  251.50   22.30
   4   7  10  166.10   18.60
  -5  -7 -10  123.00   16.10
   5   7  10  124.90   19.00
  -6  -7 -10    0.00    9.50
  -7  -7 -10    9.90   10.40
   7   7  10    0.00    7.10
  -8  -7 -10    0.00    9.10
   8   7  10    0.00    6.40
 -10   8  10   34.30    8.10
 -10   8  10   31.10   13.00
  -9   8  10  107.30   11.20
  -9   8  10  115.80   17.30
  -8   8  10   82.00   14.40
  -8   8  10  116.80   10.60
   7  -8 -10    1.10    9.30
  -7   8  10    7.00    6.70
  -7   8  10    0.20   11.00
   6  -8 -10   89.70   14.90
  -6   8  10  121.50   15.90
  -6   8  10  104.20   11.40
   5  -8 -10    0.10    8.80
  -5   8  10    1.30    6.50
  -5   8  10   10.00   12.10
   4  -8 -10  188.50   17.40
  -4   8  10  211.20   18.50
   3  -8 -10  534.10   27.10
  -3   8  10  557.60   28.70
  -3   8  10  525.10   25.00
   2  -8 -10   89.60   12.10
  -2   8  10  117.20   14.40
  -2   8  10   88.50   14.70
  -2   8  10   98.40   11.70
   1  -8 -10    0.00    8.30
  -1   8  10   10.50   10.20
  -1   8  10   14.40    8.90
  -1   8  10    0.00    7.20
   0  -8 -10   93.90   11.80
   0   8  10  116.60   12.90
   0   8  10  110.00   14.00
  -1  -8 -10   27.30    9.80
   1   8  10   20.20   10.90
   1   8  10   36.80   10.30
  -2  -8 -10  572.80   29.10
   2   8  10  525.40   30.50
   2   8  10  605.20   29.50
  -3  -8 -10    0.30    8.60
   3   8  10    0.30    9.10
   3   8  10    0.30    7.70
  -4  -8 -10  103.00   14.90
   4   8  10  136.00   19.60
   4   8  10   70.30   14.00
  -5  -8 -10  229.60   20.60
   5   8  10  206.60   22.10
  -6  -8 -10   90.60   15.20
  -7  -8 -10  240.70   21.80
   7   8  10  164.90   14.60
 -10   9  10   89.70   10.80
 -10   9  10  108.30   17.60
  -9   9  10    0.50    7.50
  -9   9  10   34.30   13.60
   8  -9 -10   17.70   11.00
  -8   9  10    9.40   11.50
   7  -9 -10   46.10   11.90
  -7   9  10   61.80    9.40
  -7   9  10   80.00   13.90
   6  -9 -10    0.20   10.10
  -6   9  10    0.20    6.10
  -6   9  10    0.20   11.80
   5  -9 -10    7.90   10.30
  -5   9  10    2.80    7.60
  -5   9  10    4.30   10.70
   4  -9 -10  562.90   29.40
  -4   9  10  567.00   30.00
  -4   9  10  534.90   25.50
   3  -9 -10  475.20   27.00
  -3   9  10  417.60   24.00
  -3   9  10  470.90   27.60
   2  -9 -10  147.00   15.60
  -2   9  10  156.20   21.00
   1  -9 -10    9.10   10.40
  -1   9  10   27.50   11.10
   0  -9 -10   41.10    9.80
   0   9  10   14.60   12.40
   0   9  10   39.30   10.00
  -1  -9 -10   13.70    9.60
  -2  -9 -10   77.70   14.00
   2   9  10   98.70   14.00
  -3  -9 -10  459.50   26.40
   3   9  10  429.20   25.60
   3   9  10  467.50   30.00
  -4  -9 -10  161.50   17.30
   4   9  10  207.40   23.00
   4   9  10  136.40   16.60
  -5  -9 -10   31.60   11.50
   5   9  10    0.20   10.20
  -6  -9 -10   30.50   11.50
  -9  10  10    0.20    7.30
  -9  10  10   16.60   13.70
   8 -10 -10  141.30   18.90
  -8  10  10  179.80   19.60
  -8  10  10  135.30   13.30
   7 -10 -10   62.80   15.50
  -7  10  10   93.20   12.50
  -7  10  10   74.70   15.70
   6 -10 -10   67.90   15.30
  -6  10  10   78.60   14.50
  -6  10  10   84.90   11.70
   5 -10 -10   85.70   17.40
  -5  10  10  102.30   18.00
   4 -10 -10  131.70   17.60
  -4  10  10  130.30   17.90
   3 -10 -10    0.00    9.10
  -3  10  10    5.60   10.40
   2 -10 -10  243.50   22.40
  -2  10  10  241.90   24.00
   1 -10 -10   34.60   13.20
  -1  10  10   35.10   13.10
  -1  10  10   27.40   12.20
   0 -10 -10   23.20   11.70
   0  10  10    2.20   11.80
   0  10  10    4.20    8.30
  -1 -10 -10   42.70   12.00
   1  10  10   52.70   11.50
   1  10  10   37.80   12.60
  -2 -10 -10   68.20   13.50
   2  10  10   59.90   15.60
   2  10  10   80.20   12.60
  -3 -10 -10  732.90   35.60
   3  10  10  700.80   34.10
   3  10  10  654.00   36.80
  -4 -10 -10  155.60   18.00
   4  10  10  133.90   19.70
  -5 -10 -10   51.50   13.70
  -6 -10 -10   24.90   12.90
   8 -11 -10   28.10   13.10
  -8  11  10   41.60   13.50
   7 -11 -10    0.00   11.10
  -7  11  10    0.00   10.50
   6 -11 -10   38.20   14.40
  -6  11  10   33.00   14.20
   5 -11 -10   42.00   14.20
  -5  11  10   45.30   14.30
   4 -11 -10   93.60   16.00
  -4  11  10   88.90   16.10
   3 -11 -10    6.10   10.90
  -3  11  10    2.60   11.70
   2 -11 -10   65.00   15.30
  -2  11  10   61.60   15.20
   1 -11 -10    8.20   11.30
  -1  11  10    0.20   10.40
   0 -11 -10    0.00    8.90
   0  11  10    4.50    9.40
   0  11  10    0.00   12.20
  -1 -11 -10  145.90   18.40
   1  11  10  181.10   21.90
   1  11  10  171.90   16.90
  -2 -11 -10   67.00   15.50
   2  11  10   47.90   18.40
   2  11  10   61.20   17.50
  -3 -11 -10  183.20   19.00
   3  11  10  285.00   26.70
   3  11  10  158.50   16.70
  -4 -11 -10    7.60   11.90
   4  11  10    0.60   10.10
  -7  12  10   66.60   17.90
   6 -12 -10    1.00   14.00
  -6  12  10    1.60   11.10
   5 -12 -10    1.30   10.30
  -5  12  10    5.60   12.20
   4 -12 -10    0.00   10.60
  -4  12  10   23.60   13.90
   3 -12 -10   79.60   15.40
  -3  12  10   86.80   17.50
   2 -12 -10    4.70   12.10
  -2  12  10    0.20   10.90
   1 -12 -10    6.60   10.90
  -1  12  10   21.20   12.60
   0 -12 -10    0.10   10.70
   0  12  10    0.10   12.50
  -1 -12 -10  242.90   22.60
   1  12  10  255.70   25.70
   1  12  10  284.90   21.20
  -2 -12 -10   17.90   13.80
   2  12  10   31.50   10.70
   2  12  10   40.30   14.40
  -3 -12 -10    6.40   11.00
   3  12  10    4.80   10.50
   3  12  10    5.10   13.30
   5 -13 -10    1.00   12.50
  -5  13  10   45.60   14.10
  -5  13  10   24.50   12.50
   4 -13 -10   37.90   15.00
  -4  13  10   48.70   16.50
   3 -13 -10   83.90   15.40
  -3  13  10  103.70   17.80
   2 -13 -10    1.00   10.40
  -2  13  10    4.10   13.10
   1 -13 -10    6.10   12.20
  -1  13  10    0.50   12.10
   0 -13 -10    0.40   10.70
   0  13  10    6.40   13.60
  -1 -13 -10  120.80   19.60
   1  13  10  152.90   21.70
   1  13  10  164.10   18.30
   4  16 -11   29.50   15.10
   3  16 -11    0.10   11.20
   2  16 -11   95.50   18.60
   1  16 -11    0.60   13.40
   0  16 -11  235.60   26.70
  -1  16 -11    0.20   14.30
  -2  16 -11   22.30   17.80
  -3  16 -11    7.60   14.90
   3 -16  11   33.60    9.70
   5  15 -11    4.40   11.70
   4  15 -11  210.20   26.20
   3  15 -11   10.50   12.50
   1  15 -11    0.20   12.20
   0  15 -11  484.40   36.80
  -1  15 -11    0.00   13.20
  -2  15 -11   34.20   17.00
   2 -15  11   38.60    9.50
  -3  15 -11  233.30   25.10
  -4  15 -11    7.50   14.30
   4 -15  11   24.90    8.60
  -5  15 -11   23.00   18.50
   5 -15  11   26.60   10.90
   7  14 -11    1.10    7.80
  -7 -14  11   84.30   16.60
   6  14 -11   86.30   13.30
   5  14 -11    0.00   10.10
   4  14 -11  574.20   35.20
   3  14 -11    4.00   12.50
   2  14 -11   34.40   13.70
   1  14 -11    0.30   15.50
   0  14 -11   40.40   15.90
  -1  14 -11  163.90   23.60
   1 -14  11  217.10   17.00
  -2  14 -11   32.60   14.90
  -3  14 -11  145.70   23.70
   3 -14  11  185.10   15.70
  -4  14 -11   24.40   15.20
   4 -14  11    4.60    6.90
   4 -14  11   12.90    6.10
  -5  14 -11  232.00   26.50
   5 -14  11  221.30   14.20
  -6  14 -11    0.30   13.80
   6 -14  11    3.60    4.40
   8  13 -11    0.80    9.80
  -8 -13  11   13.60    9.10
  -8 -13  11   25.50   13.70
   7  13 -11   14.70    8.70
  -7 -13  11   17.80   13.50
  -7 -13  11    6.90   10.80
   6  13 -11  274.10   21.90
   6  13 -11  227.40   25.50
   5  13 -11   37.90   10.50
   5  13 -11   28.20   12.50
   4  13 -11  493.60   28.40
   4  13 -11  468.20   32.90
   3  13 -11    1.80    8.90
   3  13 -11    0.40   10.60
   2  13 -11  167.30   20.60
   1  13 -11    0.10   12.10
   0  13 -11  296.20   27.60
   0 -13  11  271.10   19.50
  -1  13 -11 1468.50   58.10
   1 -13  11 1487.10   52.00
  -2  13 -11   45.10   15.30
   2 -13  11   74.50   11.00
   2 -13  11   65.10    8.90
  -3  13 -11   13.80   13.20
   3 -13  11   11.70    7.70
  -4  13 -11   22.50   15.50
   4 -13  11   29.30    8.30
   4 -13  11   36.60    7.80
  -5  13 -11  109.20   21.20
   5 -13  11  105.70   10.30
  -6  13 -11  117.10   23.80
  -7  13 -11    0.20   16.30
   9  12 -11   37.60   11.30
  -9 -12  11   60.00   12.20
  -9 -12  11   49.90   16.60
  -8 -12  11    0.10    8.20
  -8 -12  11    0.10   11.10
   7  12 -11    0.20    8.90
  -7 -12  11    2.60    9.00
  -7 -12  11    0.70   11.70
   6  12 -11  377.30   31.70
   6  12 -11  398.80   27.20
  -6 -12  11  560.70   34.70
  -6 -12  11  569.10   30.00
   5  12 -11   62.40   16.80
  -5 -12  11   69.10   15.50
  -5 -12  11   63.10   15.40
   4  12 -11   59.50   16.00
   4  12 -11   58.60   11.60
  -4 -12  11   73.70   15.60
   3  12 -11   66.80   18.40
   3  12 -11   72.20   14.50
   2  12 -11   56.40   11.30
   2  12 -11   36.60   14.40
   1  12 -11   66.30   15.90
   1  12 -11  116.00   14.10
   0  12 -11  432.80   29.10
   0 -12  11  413.50   21.80
  -1  12 -11  691.70   36.30
   1 -12  11  652.30   27.80
   1 -12  11  669.20   26.60
  -2  12 -11    0.10   14.60
   2 -12  11   22.10    7.40
   2 -12  11   13.80    8.30
  -3  12 -11    0.50   13.10
  -4  12 -11   74.00   16.00
   4 -12  11   73.60    7.90
   4 -12  11   62.80    6.80
  -5  12 -11    1.00   12.60
   5 -12  11    5.80    5.00
  -6  12 -11  368.60   34.30
  -7  12 -11   18.80   16.60
  -8  12 -11   30.50   14.80
   9  11 -11   16.70    8.00
  -9 -11  11   23.50    9.50
  -9 -11  11   19.90   15.40
   8  11 -11    0.50    6.00
  -8 -11  11    0.50   11.50
  -8 -11  11    3.20    8.80
   7  11 -11    1.30    6.90
  -7 -11  11   10.20   12.10
  -7 -11  11    9.30    9.90
   6  11 -11  268.10   18.00
   6  11 -11  304.80   23.00
  -6 -11  11  349.80   24.80
  -6 -11  11  347.10   20.90
   5  11 -11  150.10   16.10
   5  11 -11  135.30   19.90
  -5 -11  11  158.10   17.50
  -5 -11  11  202.00   20.80
   4  11 -11   78.70   12.80
   4  11 -11   48.40   16.00
  -4 -11  11   71.60   15.50
  -4 -11  11   73.20   14.70
   3  11 -11  249.70   20.90
   3  11 -11  227.20   16.00
  -3 -11  11  231.60   19.10
  -3 -11  11  267.60   20.40
   2  11 -11   41.50   13.20
   2  11 -11   47.20    9.30
  -2 -11  11   20.40    9.70
   1  11 -11  847.00   36.90
   1  11 -11  909.10   44.00
  -1 -11  11  916.10   38.00
   0  11 -11  137.70   17.80
   0  11 -11  141.90   13.70
   0 -11  11  142.50   13.90
  -1  11 -11  130.30   19.80
   1 -11  11  182.50   15.10
  -2  11 -11  320.90   27.10
   2 -11  11  349.40   18.00
   2 -11  11  323.50   19.20
  -3  11 -11   35.60   23.60
   3 -11  11   48.30    6.60
   3 -11  11   34.90    6.90
  -4  11 -11   14.10   13.40
   4 -11  11   25.80    6.10
   4 -11  11    3.20    5.70
  -5  11 -11  178.90   24.30
   5 -11  11  197.00   10.00
  -6  11 -11  511.30   35.00
  -7  11 -11   86.30   21.00
  -8  11 -11   20.80   14.90
 -10 -10  11  101.20   19.60
   9  10 -11    7.30    6.30
  -9 -10  11   12.20    9.80
  -9 -10  11   25.00   13.40
   8  10 -11  113.20   12.10
  -8 -10  11  162.30   20.70
  -8 -10  11  111.10   15.70
   7  10 -11    1.50    5.70
  -7 -10  11   15.20   13.40
  -7 -10  11    4.10    9.30
   6  10 -11   18.30   11.10
   6  10 -11    0.40    5.50
  -6 -10  11    8.50    9.70
  -6 -10  11    0.40   12.70
   5  10 -11  317.10   18.10
   5  10 -11  308.80   23.50
  -5 -10  11  324.20   20.70
  -5 -10  11  347.20   23.00
   4  10 -11  167.10   14.60
   4  10 -11  162.70   18.60
  -4 -10  11  152.50   17.00
  -4 -10  11  179.00   17.50
   3  10 -11   46.90   13.50
   3  10 -11   43.40    9.10
  -3 -10  11   45.20   11.30
  -3 -10  11   30.70   10.90
   2  10 -11   92.10   18.10
   2  10 -11  119.00   13.80
  -2 -10  11  116.50   16.60
  -2 -10  11   68.70   13.70
   1  10 -11  917.80   45.70
  -1 -10  11  982.00   41.00
  -1 -10  11  882.20   47.60
   0  10 -11    0.20    9.70
   0  10 -11    0.80    8.50
   0 -10  11   11.00    8.10
  -1  10 -11  133.30   15.80
  -1  10 -11  143.20   20.70
   1 -10  11  152.60   15.10
  -2  10 -11  965.40   47.00
   2 -10  11  940.00   36.60
  -3  10 -11    0.10   12.10
   3 -10  11    7.40    6.10
  -4  10 -11   34.80   17.50
   4 -10  11   69.70    7.70
   4 -10  11  101.60    8.80
  -5  10 -11  212.70   23.10
  -6  10 -11   37.80   16.20
  -7  10 -11  384.10   31.70
  -8  10 -11    0.50   15.30
  -9  10 -11   30.40   15.80
 -11  -9  11    0.30   13.80
 -10  -9  11    0.70   12.20
  -9  -9  11   25.60   14.20
  -9  -9  11    6.40    9.30
   8   9 -11  217.80   13.90
  -8  -9  11  249.70   24.00
  -8  -9  11  260.80   20.70
   7   9 -11    5.30    5.90
  -7  -9  11   14.30    9.90
  -7  -9  11   40.10   13.20
   6   9 -11  309.10   22.80
   6   9 -11  231.60   15.60
  -6  -9  11  298.70   20.70
  -6  -9  11  315.70   24.30
   5   9 -11  539.90   32.50
   5   9 -11  468.40   25.00
  -5  -9  11  522.40   31.40
  -5  -9  11  492.30   29.30
   4   9 -11  139.70   12.20
   4   9 -11  129.60   16.70
  -4  -9  11  146.40   14.70
  -4  -9  11  112.30   13.70
   3   9 -11   93.00   14.10
   3   9 -11  152.60   11.80
  -3  -9  11  107.90   12.30
  -3  -9  11  126.50   12.80
   2   9 -11   31.00   13.10
   2   9 -11   53.50   11.00
  -2  -9  11   30.20   10.60
  -2  -9  11   21.30   12.30
   1   9 -11  224.00   15.50
   1   9 -11  222.60   20.60
  -1  -9  11  240.90   16.90
  -1  -9  11  222.30   17.60
   0   9 -11  214.10   21.40
   0   9 -11  227.20   17.90
   0  -9  11  218.80   16.90
   0  -9  11  220.30   19.00
  -1   9 -11  348.90   29.50
  -1   9 -11  380.70   25.30
   1  -9  11  386.80   23.00
  -2   9 -11  504.20   27.50
  -2   9 -11  443.60   30.20
   2  -9  11  512.70   22.50
  -3   9 -11    1.80   11.90
   3  -9  11    0.00    5.20
  -4   9 -11  453.90   32.60
   4  -9  11  416.80   17.10
   4  -9  11  374.80   17.10
  -5   9 -11  279.30   28.00
  -6   9 -11    6.70   14.50
  -7   9 -11  386.70   29.90
  -8   9 -11    8.60   16.40
  -9   9 -11    0.00   16.10
 -11  -8  11  115.80   20.40
 -10  -8  11    2.40   11.50
  -9  -8  11   10.30   12.80
   8   8 -11   56.80    5.80
  -8  -8  11   60.40   14.40
  -8  -8  11   54.50   12.50
   7   8 -11  119.20   10.00
  -7  -8  11  121.70   16.10
   6   8 -11  360.70   21.20
   6   8 -11  440.50   28.60
  -6  -8  11  479.60   27.10
  -6  -8  11  476.60   28.60
   5   8 -11  406.80   29.30
   5   8 -11  369.50   21.50
  -5  -8  11  424.80   28.40
  -5  -8  11  444.20   27.50
   4   8 -11    1.00   10.20
   4   8 -11   22.40    6.80
  -4  -8  11   23.40   10.30
  -4  -8  11   22.20   10.30
   3   8 -11  890.90   33.00
   3   8 -11  907.00   40.20
  -3  -8  11  872.20   37.70
  -3  -8  11  909.00   36.90
   2   8 -11  109.30   13.00
   2   8 -11  127.50   18.90
  -2  -8  11   99.60   15.20
  -2  -8  11  106.90   14.80
   1   8 -11  245.80   20.90
   1   8 -11  236.60   16.20
  -1  -8  11  299.70   20.30
  -1  -8  11  240.00   17.10
   0   8 -11 1194.80   39.00
   0   8 -11 1144.60   43.80
   0  -8  11 1147.90   41.80
   0  -8  11 1163.00   37.30
  -1   8 -11  238.70   20.90
   1  -8  11  229.80   19.60
   1  -8  11  198.30   13.80
  -2   8 -11    1.50   10.20
   2  -8  11    0.00    5.80
  -3   8 -11    2.20   10.70
   3  -8  11   17.30    5.80
  -4   8 -11  139.80   19.80
   4  -8  11  156.80    8.40
   4  -8  11  120.00    8.80
  -5   8 -11  314.40   27.30
  -6   8 -11  274.40   24.50
  -7   8 -11   51.70   17.00
  -8   8 -11   45.50   14.80
  -9   8 -11   11.80   14.70
 -11  -7  11  102.90   19.50
 -10  -7  11   14.30   12.20
  -9  -7  11    0.00    9.70
  -8  -7  11  155.90   19.30
  -8  -7  11  134.70   16.50
   7   7 -11  476.80   16.70
  -7  -7  11  517.50   30.60
  -7  -7  11  503.00   27.30
  -6  -7  11  232.20   19.50
  -6  -7  11  207.90   22.10
   5   7 -11    1.60    9.60
   5   7 -11    7.20    5.20
  -5  -7  11   15.00    9.10
  -5  -7  11    6.60    9.50
   4   7 -11   73.30   11.30
   4   7 -11   59.70   14.80
  -4  -7  11   93.10   16.50
  -4  -7  11   71.70   15.30
   3   7 -11  401.40   27.70
   3   7 -11  398.80   20.90
  -3  -7  11  399.40   26.50
  -3  -7  11  401.80   24.30
   2   7 -11    0.10    5.40
   2   7 -11    0.10    9.10
  -2  -7  11    4.40    8.20
  -2  -7  11    0.10    7.40
   1   7 -11  913.40   32.00
   1   7 -11  917.60   38.20
  -1  -7  11  953.10   33.00
  -1  -7  11  895.50   36.50
   0   7 -11 1282.70   50.50
   0  -7  11 1218.90   43.20
   0  -7  11 1195.90   48.70
  -1   7 -11  109.40   14.20
   1  -7  11  129.60   13.70
   1  -7  11  147.70   11.10
  -2   7 -11  156.50   18.60
   2  -7  11  190.10   13.00
   2  -7  11  153.50   18.60
  -3   7 -11  184.50   19.50
   3  -7  11  219.50   12.10
  -4   7 -11  125.90   17.70
   4  -7  11  157.00    9.00
  -5   7 -11  751.60   39.20
  -6   7 -11  191.60   22.80
  -7   7 -11    0.20   11.20
  -8   7 -11   68.10   16.90
  -8   7 -11   86.90   18.40
  -9   7 -11   31.20   15.40
  -9   7 -11   36.50   14.80
 -10   7 -11  218.00   26.40
 -10   7 -11  252.50   27.40
 -12  -6  11    5.10   14.00
 -11  -6  11  162.10   23.10
 -10  -6  11  116.80   20.60
  -9  -6  11    0.10   11.50
  -8  -6  11  420.30   25.20
  -7  -6  11  448.50   26.10
  -7  -6  11  464.90   24.90
   6   6 -11  145.50    7.50
  -6  -6  11  170.00   17.40
  -6  -6  11  160.80   15.50
   5   6 -11  178.20   19.90
   5   6 -11  218.80   20.90
  -5  -6  11  235.10   21.40
  -5  -6  11  235.20   22.00
   4   6 -11  335.40   15.90
   4   6 -11  301.30   22.90
  -4  -6  11  346.90   22.20
  -4  -6  11  320.70   22.30
   3   6 -11   24.70    6.90
   3   6 -11   24.20   11.70
  -3  -6  11   19.50    9.80
  -3  -6  11   30.00   10.30
   2   6 -11  978.70   38.60
   2   6 -11  942.10   44.80
  -2  -6  11  949.50   44.60
  -2  -6  11  909.10   40.70
   1   6 -11  389.10   24.20
  -1  -6  11  329.60   21.00
  -1  -6  11  421.10   19.80
   0   6 -11  135.00   16.40
   0  -6  11  141.60   15.80
  -1   6 -11  124.00   20.10
   1  -6  11  120.30   14.00
   1  -6  11  103.10   17.50
  -2   6 -11  743.10   32.70
   2  -6  11  774.60   25.00
   2  -6  11  723.60   32.30
  -3   6 -11   35.00   12.10
   3  -6  11   24.40    6.00
   3  -6  11   19.30   11.60
  -4   6 -11   26.60   12.10
   4  -6  11   21.30    5.50
  -5   6 -11   53.90   13.40
  -6   6 -11  293.80   25.90
  -7   6 -11   23.50   16.40
  -7   6 -11    4.10   13.50
  -8   6 -11   29.00   12.80
  -8   6 -11   47.00   14.90
  -9   6 -11   24.30   14.60
  -9   6 -11   23.50   13.30
 -10   6 -11   48.70   16.00
 -10   6 -11   59.50   17.50
 -12  -5  11   10.90   13.20
 -11  -5  11   98.30   19.10
 -10  -5  11   11.90   13.70
  -9  -5  11  115.50   17.90
  -8  -5  11  142.90   18.90
  -8  -5  11  126.60   15.30
  -7  -5  11    1.20    7.90
  -7  -5  11    2.80   10.00
  -6  -5  11  311.30   22.80
  -6  -5  11  303.90   21.30
   5   5 -11  278.80   10.30
   5   5 -11  284.90   19.20
   5   5 -11  240.40   11.00
  -5  -5  11  273.10   19.90
  -5  -5  11  265.30   19.30
   4   5 -11  136.20    9.60
   4   5 -11  157.50   15.90
  -4  -5  11  121.90   14.20
  -4  -5  11  147.60   14.90
   3   5 -11  475.80   29.10
  -3  -5  11  468.80   26.80
  -3  -5  11  467.90   29.20
   2   5 -11 1658.50   57.10
  -2  -5  11 1751.40   53.80
  -2  -5  11 1617.50   57.10
   1   5 -11   61.80   14.40
  -1  -5  11   57.70   14.30
  -1  -5  11   71.80   12.70
   0   5 -11  681.40   30.10
   0  -5  11  673.60   25.90
   0  -5  11  625.90   29.20
  -1   5 -11  378.00   23.70
   1  -5  11  347.40   23.60
   1  -5  11  395.40   18.50
  -2   5 -11   80.90   14.00
   2  -5  11   96.30   13.30
   2  -5  11   98.70    9.20
  -3   5 -11  979.10   41.10
   3  -5  11  949.90   31.50
   3  -5  11  920.80   41.30
  -4   5 -11  449.80   26.40
   4  -5  11  420.00   16.50
   4  -5  11  479.80   27.70
  -5   5 -11   15.90   11.00
  -5   5 -11   17.70   12.30
  -6   5 -11  167.00   19.10
  -6   5 -11  198.10   20.10
  -7   5 -11   11.90   11.80
  -7   5 -11    3.80   12.40
  -8   5 -11  124.50   23.30
  -8   5 -11  129.00   19.70
  -9   5 -11   86.50   16.20
  -9   5 -11  102.80   18.30
 -10   5 -11   11.00   13.80
 -10   5 -11    0.30   13.50
 -12  -4  11   94.30   18.20
 -11  -4  11    6.10   14.00
 -10  -4  11   16.70   11.40
  -9  -4  11  155.10   20.80
  -8  -4  11   18.50   12.30
  -7  -4  11  632.10   31.10
  -7  -4  11  536.50   28.00
  -6  -4  11  750.30   35.50
  -6  -4  11  755.00   35.60
   5   4 -11   84.80    6.10
   5   4 -11   84.70    5.40
  -5  -4  11   80.90   12.30
  -5  -4  11  104.40   12.90
   4   4 -11   98.50    8.60
   4   4 -11  110.70   15.20
   4   4 -11   86.30    7.60
  -4  -4  11   93.90   13.90
  -4  -4  11   76.80   13.00
   3   4 -11  154.60    9.70
   3   4 -11  175.50   15.60
  -3  -4  11  207.80   14.70
  -3  -4  11  179.40   18.80
   2   4 -11   54.30    7.20
   2   4 -11   75.90   11.50
  -2  -4  11   53.70    9.20
   1   4 -11  608.80   23.60
   1   4 -11  634.60   29.00
  -1  -4  11  625.00   25.70
   0   4 -11  864.70   35.60
   0   4 -11  920.10   40.90
   0  -4  11  877.90   35.60
   0  -4  11  837.70   45.90
  -1   4 -11  102.60   11.90
  -1   4 -11   71.30   12.80
   1  -4  11   79.40    9.30
   1  -4  11   93.20   13.40
  -2   4 -11  589.00   32.60
  -2   4 -11  620.40   29.00
   2  -4  11  580.70   24.80
   2  -4  11  618.10   32.70
  -3   4 -11   42.90   12.00
  -3   4 -11   55.70   11.90
   3  -4  11   62.70   13.80
   3  -4  11   50.00    7.60
  -4   4 -11  587.60   26.70
  -4   4 -11  533.40   28.70
   4  -4  11  563.50   28.80
   4  -4  11  439.80   18.50
  -5   4 -11  151.60   17.80
  -5   4 -11  155.00   17.00
   5  -4  11  135.90   16.80
   5  -4  11  156.00    6.80
  -6   4 -11  199.00   19.90
  -6   4 -11  217.30   21.00
  -7   4 -11  116.30   16.10
  -7   4 -11   90.90   14.50
  -8   4 -11   50.60   13.70
  -8   4 -11   71.50   15.20
  -9   4 -11    2.60   12.60
  -9   4 -11    2.10   11.50
 -10   4 -11   67.90   17.90
 -10   4 -11   39.90   14.50
 -12  -3  11   53.40   14.60
 -11  -3  11    6.20   11.80
 -10  -3  11    6.90   12.80
  -9  -3  11   44.30   13.80
  -8  -3  11   14.80   11.80
  -7  -3  11  905.60   38.80
  -7  -3  11  848.20   36.60
  -6  -3  11  434.80   23.90
  -6  -3  11  434.10   23.30
   5   3 -11   73.80    6.20
   5   3 -11   74.30    5.20
  -5  -3  11   89.80   15.30
  -5  -3  11  103.60   15.30
   4   3 -11  370.60   24.00
   4   3 -11  383.80   14.90
   4   3 -11  390.90   15.70
   4   3 -11  318.60   31.70
  -4  -3  11  381.90   23.30
  -4  -3  11  369.50   22.20
   3   3 -11   46.50    5.90
   3   3 -11   51.70    9.50
   3   3 -11   18.60    8.60
  -3  -3  11   53.90   16.80
  -3  -3  11   26.20    8.30
   2   3 -11 1365.20   45.60
   2   3 -11 1296.60   42.30
   2   3 -11 1402.10   39.10
  -2  -3  11 1310.60   50.70
  -2  -3  11 1356.70   42.90
   1   3 -11 1236.90   40.30
   1   3 -11 1265.40   44.10
   1   3 -11 1226.00   38.20
  -1  -3  11 1254.20   40.30
  -1  -3  11 1245.70   45.20
   0   3 -11  406.10   23.10
   0   3 -11  450.60   19.70
   0   3 -11  417.80   19.70
   0  -3  11  411.60   22.70
   0  -3  11  478.60   28.60
  -1   3 -11   40.40    7.40
  -1   3 -11   51.50   12.20
  -1   3 -11   41.80    9.10
   1  -3  11   45.30    8.00
  -2   3 -11    0.90    8.60
  -2   3 -11    1.90    4.90
  -2   3 -11    1.90    6.20
   2  -3  11    1.90    8.40
   2  -3  11    0.00    5.80
  -3   3 -11   55.70    9.40
  -3   3 -11   45.50    5.80
  -3   3 -11   48.90   11.30
   3  -3  11   58.20    7.30
   3  -3  11   51.50   10.50
  -4   3 -11  908.40   35.70
  -4   3 -11  865.00   37.10
   4  -3  11  723.70   28.50
   4  -3  11  867.90   38.60
  -5   3 -11  133.00   16.90
  -5   3 -11  153.80   17.30
   5  -3  11  119.60    8.90
   5  -3  11  171.20   19.70
  -6   3 -11    1.00    9.60
  -6   3 -11    3.10   10.00
  -7   3 -11  625.80   34.20
  -7   3 -11  624.50   33.20
  -8   3 -11   13.60   13.50
  -8   3 -11   29.80   12.90
  -9   3 -11  233.80   27.10
  -9   3 -11  273.90   27.30
 -10   3 -11    4.00   11.40
 -10   3 -11    0.10   11.60
 -12  -2  11   49.20   14.60
 -11  -2  11   86.70   17.20
 -10  -2  11  100.40   18.70
  -9  -2  11  308.80   26.00
  -8  -2  11  270.10   21.30
  -7  -2  11  402.10   25.10
  -7  -2  11  486.80   28.50
   6   2 -11    2.20    8.00
  -6  -2  11    2.10    9.30
  -6  -2  11    1.70    8.90
   5   2 -11  176.20    6.50
   5   2 -11  188.90    6.90
   5   2 -11  186.30   15.40
  -5  -2  11  180.70   16.20
  -5  -2  11  211.20   17.00
   4   2 -11  139.40    9.20
  -4  -2  11  139.70   17.00
  -4  -2  11  135.70   16.10
   3   2 -11  122.00   12.80
   3   2 -11  115.50    8.40
   3   2 -11  117.90   11.80
  -3  -2  11  145.80   13.10
  -3  -2  11  125.20   16.00
   2   2 -11 2777.40   94.50
   2   2 -11 2826.60   89.50
   2   2 -11 2795.50   96.70
  -2  -2  11 2798.60   94.20
  -2  -2  11 2873.80  102.50
   1   2 -11  606.70   29.50
   1   2 -11  610.70   27.20
   1   2 -11  625.10   24.80
  -1  -2  11  598.90   30.40
  -1  -2  11  665.60   27.90
   0   2 -11 1218.50   42.60
   0   2 -11 1192.40   42.00
   0   2 -11 1212.30   46.40
   0  -2  11 1155.00   47.10
   0  -2  11 1239.40   43.30
  -1   2 -11  124.40   11.20
  -1   2 -11  119.30   10.40
  -1   2 -11  139.70   14.20
   1  -2  11   98.40   13.20
   1  -2  11  137.80   11.30
  -2   2 -11  140.60   16.80
  -2   2 -11  127.90   13.60
  -2   2 -11  142.10   12.20
   2  -2  11  159.60   13.10
   2  -2  11  102.00   25.30
  -3   2 -11  103.70   14.10
  -3   2 -11   84.40   10.50
  -3   2 -11  106.90   16.40
   3  -2  11  116.60   11.90
   3  -2  11   90.70   15.90
  -4   2 -11  111.10   14.40
  -4   2 -11  122.40   10.20
  -4   2 -11  124.00   15.70
   4  -2  11   74.00   10.50
   4  -2  11  128.60   17.80
  -5   2 -11  650.20   32.50
  -5   2 -11  605.60   31.20
   5  -2  11  579.90   33.60
  -6   2 -11    8.90    9.30
  -6   2 -11    2.60   10.40
  -6   2 -11    1.30    3.80
   6  -2  11    2.40   10.50
  -7   2 -11  363.80   24.80
  -7   2 -11  307.40   23.40
  -8   2 -11  103.70   16.30
  -8   2 -11   87.10   15.10
  -9   2 -11  318.40   26.80
  -9   2 -11  254.00   23.70
 -10   2 -11    0.00   17.10
 -10   2 -11    0.00   12.40
 -12  -1  11   68.60   17.10
 -11  -1  11   73.20   17.70
 -10  -1  11   20.60   13.80
  -9  -1  11  467.40   30.60
  -8  -1  11  268.20   23.00
  -7  -1  11   99.80   13.70
   6   1 -11  334.10   21.80
  -6  -1  11  321.20   21.20
  -6  -1  11  338.50   22.30
   5   1 -11  117.00    6.40
   5   1 -11  149.80   14.90
  -5  -1  11  136.90   14.80
  -5  -1  11  167.80   15.60
   4   1 -11   87.80    7.30
   4   1 -11   69.60   14.30
  -4  -1  11   79.80   12.70
  -4  -1  11   67.30   11.90
   3   1 -11  213.50   11.60
   3   1 -11  217.80   16.30
  -3  -1  11  235.80   17.10
  -3  -1  11  224.50   18.20
   2   1 -11 1473.10   51.10
   2   1 -11 1396.20   49.30
   2   1 -11 1425.40   44.70
  -2  -1  11 1336.00   56.10
  -2  -1  11 1428.10   49.50
   1   1 -11   13.30   11.40
   1   1 -11   10.20    9.20
   1   1 -11   11.90    8.20
  -1  -1  11   12.40   10.10
  -1  -1  11   14.30   11.50
   0   1 -11  504.00   20.10
   0   1 -11  550.10   24.10
   0   1 -11  508.90   21.10
   0  -1  11  499.00   25.50
   0  -1  11  535.10   21.70
  -1   1 -11   87.20   13.00
  -1   1 -11  106.80   11.30
  -1   1 -11  111.40   12.20
   1  -1  11  111.40   15.60
   1  -1  11   79.30   12.30
  -2   1 -11  390.10   22.20
  -2   1 -11  404.60   20.00
  -2   1 -11  390.10   17.00
   2  -1  11  380.00   17.90
   2  -1  11  394.30   23.80
  -3   1 -11  198.80   13.70
  -3   1 -11  195.50   17.80
  -3   1 -11  204.40   19.50
   3  -1  11  183.90   15.00
  -4   1 -11    0.00    8.30
  -4   1 -11   18.90   10.50
  -4   1 -11    8.10    5.60
   4  -1  11    0.00    9.30
   4  -1  11    0.00    5.80
  -5   1 -11  846.60   34.90
  -5   1 -11  884.40   35.90
  -5   1 -11  874.30   27.70
   5  -1  11  835.50   39.00
  -6   1 -11    1.60    4.60
  -6   1 -11    5.70   10.00
  -6   1 -11    9.30   10.80
   6  -1  11    9.60   11.50
  -7   1 -11   37.20   11.30
  -7   1 -11   34.30    5.10
  -7   1 -11   23.70   11.10
   7  -1  11   20.10   11.90
  -8   1 -11    0.90    3.10
  -8   1 -11    1.70   10.30
  -8   1 -11    1.80    9.70
  -9   1 -11  102.40   16.70
  -9   1 -11  100.10   15.70
 -10   1 -11   75.10   16.70
 -10   1 -11   52.60   13.30
 -12   0  11  122.40   20.50
 -11   0  11    0.10   11.40
 -10   0  11   35.10   13.40
  -9   0  11  122.70   18.20
  -8   0  11    7.00    9.90
  -7   0  11  185.30   18.20
   6   0 -11  716.80   34.90
  -6   0  11  682.70   33.30
  -6   0  11  748.70   33.80
   5   0 -11    2.60    6.90
   5   0 -11    0.20    3.60
  -5   0  11    0.20    7.40
  -5   0  11    7.90    8.70
   4   0 -11  606.50   20.80
   4   0 -11  575.20   28.40
  -4   0  11  596.40   29.80
  -4   0  11  626.30   28.90
   3   0 -11  140.40   15.90
   3   0 -11  111.40   10.00
  -3   0  11  131.50   15.60
  -3   0  11  133.70   16.00
   2   0 -11  593.60   24.90
   2   0 -11  590.70   20.90
  -2   0  11  611.80   25.00
   1   0 -11  538.60   25.10
   1   0 -11  579.20   28.40
   1   0 -11  544.20   29.10
  -1   0  11  550.90   30.40
  -1   0  11  529.80   27.50
   0   0 -11   45.90   12.40
   0   0 -11   25.30    9.00
   0   0 -11   41.60    9.80
   0   0  11   51.00   11.40
   0   0  11   50.20   12.40
  -1   0 -11  297.60   17.50
  -1   0 -11  298.00   19.90
  -1   0 -11  280.40   16.90
   1   0  11  284.80   17.10
   1   0  11  275.30   21.00
  -2   0 -11   19.70    8.60
  -2   0 -11    2.40    6.20
  -2   0 -11    7.40    8.20
   2   0  11   21.10   10.80
  -3   0 -11  482.80   24.10
  -3   0 -11  458.90   20.80
  -3   0 -11  505.30   25.80
   3   0  11  449.10   27.60
   3   0  11  504.10   23.40
  -4   0 -11   43.20    9.40
  -4   0 -11   36.80   10.20
  -4   0 -11   41.50    6.50
   4   0  11    2.70    6.70
   4   0  11   30.40   20.50
  -5   0 -11  769.10   33.50
  -5   0 -11  761.60   33.70
  -5   0 -11  790.90   27.50
   5   0  11  708.40   37.00
  -6   0 -11   29.80   10.40
  -6   0 -11   43.10   11.90
  -6   0 -11   30.90    6.70
   6   0  11   26.80   12.90
  -7   0 -11  151.20   16.90
  -7   0 -11  163.60   17.90
   7   0  11  133.90   18.30
  -8   0 -11   15.40   11.00
  -8   0 -11    7.10    4.90
  -8   0 -11    3.40    9.90
   8   0  11    6.00   12.60
  -9   0 -11   19.70   10.40
  -9   0 -11    5.00   10.70
 -10   0 -11  284.40   22.80
 -10   0 -11  321.80   26.70
 -12   1  11   24.10   14.00
 -11   1  11   26.00   13.10
 -10   1  11  233.70   23.00
  -9   1  11   40.10   12.40
  -8   1  11  471.40   27.20
  -7   1  11  386.50   24.70
  -6   1  11  287.50   21.40
   5  -1 -11  171.40   17.20
   5  -1 -11  188.90   11.40
  -5   1  11  220.00   18.50
  -5   1  11  202.50   19.00
   4  -1 -11  590.40   21.30
   4  -1 -11  559.30   28.20
  -4   1  11  609.90   29.70
  -4   1  11  619.20   29.20
   3  -1 -11   43.60    6.90
  -3   1  11   40.20   10.60
  -3   1  11   40.90   10.50
   2  -1 -11  108.80   13.60
   2  -1 -11  131.40   11.30
  -2   1  11  128.80   14.30
  -2   1  11  107.20   17.10
   1  -1 -11  803.10   34.00
   1  -1 -11  880.60   35.50
   1  -1 -11  874.30   35.40
  -1   1  11  855.30   34.80
  -1   1  11  913.90   38.30
   0  -1 -11  169.30   15.80
   0  -1 -11  133.90   13.40
   0  -1 -11  159.50   13.00
   0   1  11  143.50   17.30
   0   1  11  159.90   15.60
  -1  -1 -11  259.70   17.30
  -1  -1 -11  297.60   18.00
  -1  -1 -11  292.40   20.00
   1   1  11  307.80   18.80
   1   1  11  277.10   20.50
  -2  -1 -11   98.60   14.90
  -2  -1 -11  127.90   15.30
  -2  -1 -11  116.60   13.00
   2   1  11  102.00   17.30
   2   1  11  101.20   13.60
  -3  -1 -11  717.60   30.00
  -3  -1 -11  643.40   26.70
  -3  -1 -11  614.90   28.80
   3   1  11  676.10   34.30
   3   1  11  698.40   29.90
  -4  -1 -11  127.70   13.10
  -4  -1 -11  164.60   16.90
  -4  -1 -11  139.00   16.70
   4   1  11  155.80   19.70
  -5  -1 -11  147.00   14.70
  -5  -1 -11  145.20   11.20
  -5  -1 -11  144.00   15.00
   5   1  11   97.50   26.10
   5   1  11   89.10   11.50
  -6  -1 -11   65.60    9.00
  -6  -1 -11   56.50   12.10
   6   1  11   62.20   14.90
   6   1  11   60.00   10.10
  -7  -1 -11  216.20   13.50
  -7  -1 -11  217.40   18.60
  -7  -1 -11  261.30   21.00
   7   1  11  150.90   21.40
  -8  -1 -11    7.90    5.70
  -8  -1 -11    0.30    9.60
  -8  -1 -11    3.50    9.30
   8   1  11    0.30   10.20
  -9  -1 -11  145.20   10.90
  -9  -1 -11  179.10   18.20
  -9  -1 -11  186.10   21.20
   9   1  11  113.90   19.60
 -10  -1 -11  442.70   26.60
 -10  -1 -11  493.20   31.60
 -12   2  11    0.60   10.40
 -11   2  11    0.20   11.40
 -10   2  11   10.00   12.50
  -9   2  11    8.50   10.00
  -8   2  11  623.90   32.20
  -7   2  11   44.40   12.40
   6  -2 -11    4.20    4.40
  -6   2  11    3.90    9.10
   5  -2 -11  541.60   28.90
   5  -2 -11  560.30   22.40
  -5   2  11  639.50   30.30
  -5   2  11  638.90   29.40
   4  -2 -11   20.50    6.20
   4  -2 -11    9.00    8.30
  -4   2  11   27.70   10.40
  -4   2  11   14.10    9.00
  -4   2  11   10.70    6.50
   3  -2 -11  447.80   20.40
   3  -2 -11  425.00   25.20
  -3   2  11  402.90   26.30
  -3   2  11  463.00   26.60
  -3   2  11  441.20   20.70
   2  -2 -11  118.30   10.60
   2  -2 -11   92.40   14.20
  -2   2  11  109.40   14.00
  -2   2  11  115.70   11.00
  -2   2  11  100.30   12.80
   1  -2 -11  391.20   21.90
   1  -2 -11  397.10   19.00
  -1   2  11  439.20   20.10
  -1   2  11  416.60   21.70
  -1   2  11  462.60   37.60
   0  -2 -11  264.40   17.20
   0  -2 -11  271.70   15.70
   0   2  11  239.40   17.90
   0   2  11  245.40   15.80
   0   2  11  249.50   17.00
  -1  -2 -11   16.80    8.10
  -1  -2 -11    0.20    7.50
  -1  -2 -11   13.40    8.00
   1   2  11    5.80    9.60
   1   2  11    9.50    7.30
  -2  -2 -11  175.10   15.10
  -2  -2 -11  164.10   14.10
  -2  -2 -11  192.10   16.30
   2   2  11  181.90   19.40
   2   2  11  193.60   16.40
  -3  -2 -11  581.10   29.40
  -3  -2 -11  665.70   30.20
  -3  -2 -11  570.10   27.70
   3   2  11  625.50   30.90
   3   2  11  581.90   33.80
  -4  -2 -11  281.50   17.40
  -4  -2 -11  257.30   17.40
  -4  -2 -11  288.80   15.20
   4   2  11  220.10   17.70
   4   2  11  282.50   20.80
  -5  -2 -11  201.50   16.50
  -5  -2 -11  189.40   17.40
  -5  -2 -11  180.10   13.80
   5   2  11  184.20   20.60
   5   2  11  137.10   16.10
  -6  -2 -11  973.40   35.90
  -6  -2 -11  904.20   38.00
  -6  -2 -11  901.10   32.40
  -7  -2 -11   58.80    9.50
  -7  -2 -11   91.70   12.70
  -7  -2 -11   81.00   14.00
   7   2  11   48.40   14.50
  -8  -2 -11  285.40   22.30
  -8  -2 -11  279.60   19.50
  -8  -2 -11  257.80   15.00
   8   2  11  188.60   23.00
  -9  -2 -11   78.00   15.40
  -9  -2 -11   99.40   13.40
  -9  -2 -11   68.30    8.70
   9   2  11   29.30   14.20
 -12   3  11   41.40   14.70
 -11   3  11   11.20   12.00
 -10   3  11   26.50   12.20
  -9   3  11   27.90   11.90
  -7   3  11  112.10    7.60
  -7   3  11   90.10   15.90
   6  -3 -11    0.40    4.70
  -6   3  11   24.00    9.40
   5  -3 -11  222.00   14.10
  -5   3  11  245.50   12.40
  -5   3  11  240.40   18.90
   4  -3 -11   24.10    9.00
   4  -3 -11   24.40    7.20
  -4   3  11   12.90    5.90
  -4   3  11   20.10    9.20
  -4   3  11   33.50   10.40
   3  -3 -11  473.50   24.70
   3  -3 -11  503.40   19.70
  -3   3  11  512.80   19.90
  -3   3  11  554.30   25.70
  -3   3  11  515.00   24.80
   2  -3 -11   49.50    8.90
   2  -3 -11   53.60   11.20
  -2   3  11   48.40    9.20
  -2   3  11   52.70   11.40
  -2   3  11   40.60   10.90
   1  -3 -11  340.10   19.50
  -1   3  11  337.60   23.30
  -1   3  11  335.10   21.60
  -1   3  11  318.30   19.50
   0  -3 -11   31.10    8.50
   0  -3 -11   39.30   10.10
   0   3  11   38.60   10.30
   0   3  11   41.00    8.50
   0   3  11   48.30   10.50
  -1  -3 -11  338.20   19.70
  -1  -3 -11  346.30   21.10
   1   3  11  340.90   21.70
   1   3  11  355.50   24.10
   1   3  11  337.20   32.50
  -2  -3 -11   22.00    7.80
  -2  -3 -11    2.10    7.00
  -2  -3 -11   19.00    7.00
   2   3  11    2.10    6.90
   2   3  11    5.40    9.60
   2   3  11    9.50    8.20
  -3  -3 -11   53.00   10.30
  -3  -3 -11   64.50   11.70
  -3  -3 -11   64.20    9.90
   3   3  11   63.10   13.10
   3   3  11   53.50   11.50
   3   3  11   77.40   14.50
  -4  -3 -11  477.10   22.00
  -4  -3 -11  456.70   23.90
  -4  -3 -11  467.80   22.60
   4   3  11  445.30   25.90
   4   3  11  472.80   27.50
  -5  -3 -11  198.10   15.40
  -5  -3 -11  200.80   17.90
  -5  -3 -11  168.00   13.20
   5   3  11  149.90   16.30
   5   3  11  191.00   19.90
  -6  -3 -11  219.50   15.30
  -6  -3 -11  218.00   19.40
  -6  -3 -11  196.50   16.50
   6   3  11  142.00   17.10
   6   3  11  115.10   18.50
  -7  -3 -11  123.60   13.00
  -7  -3 -11  136.70   17.60
  -7  -3 -11  126.50   13.90
   7   3  11   80.80   17.60
  -8  -3 -11  310.80   18.20
  -8  -3 -11  316.50   24.20
  -8  -3 -11  361.30   21.20
  -9  -3 -11   66.80   15.30
  -9  -3 -11   60.20    9.80
  -9  -3 -11   56.10   11.20
   9   3  11   17.50   14.30
 -12   4  11   51.30   16.20
 -11   4  11   54.00   16.90
 -10   4  11  105.80   16.60
  -9   4  11   36.90   12.70
  -8   4  11   72.00   15.00
  -8   4  11   64.90    7.00
   7  -4 -11  534.80   22.60
  -7   4  11  498.30   28.80
  -7   4  11  520.30   19.40
   6  -4 -11    1.70    5.70
  -6   4  11    8.60   10.20
   5  -4 -11   18.50    8.10
  -5   4  11   21.00    7.00
  -5   4  11   12.50   10.60
   4  -4 -11    0.40    6.60
  -4   4  11    0.40    8.50
  -4   4  11    2.90    8.40
  -4   4  11    8.80    5.70
   3  -4 -11  366.10   23.30
   3  -4 -11  391.00   19.70
  -3   4  11  357.80   24.20
  -3   4  11  380.50   19.40
  -3   4  11  376.80   24.10
   2  -4 -11  171.90   16.30
   2  -4 -11  165.30   13.40
  -2   4  11  186.80   16.40
  -2   4  11  158.10   13.30
  -2   4  11  174.00   17.50
   1  -4 -11  141.40   13.90
   1  -4 -11  143.00   12.20
  -1   4  11  151.00   15.70
  -1   4  11  131.20   14.40
  -1   4  11  113.30   11.60
   0  -4 -11   14.40    8.20
   0  -4 -11   13.70    9.00
   0   4  11   26.50    8.90
   0   4  11   17.20    9.00
  -1  -4 -11  917.80   37.50
  -1  -4 -11  844.40   37.80
   1   4  11  891.00   38.30
   1   4  11  942.00   41.20
   1   4  11  948.10   39.30
  -2  -4 -11   30.40   10.40
  -2  -4 -11   23.10   11.60
   2   4  11   28.10   11.60
   2   4  11   20.60   10.30
   2   4  11   39.10   10.80
  -3  -4 -11   84.50   13.30
   3   4  11  126.30   15.90
   3   4  11   95.50   14.90
  -4  -4 -11 1021.50   38.60
  -4  -4 -11 1055.40   42.00
   4   4  11  865.40   44.50
   4   4  11  967.00   43.90
  -5  -4 -11   15.80    8.50
  -5  -4 -11   21.70   10.20
   5   4  11    4.60    9.50
   5   4  11    5.40   10.80
  -6  -4 -11   77.10   10.80
  -6  -4 -11   83.10   14.30
   6   4  11   59.50   12.50
  -7  -4 -11   20.00    8.10
  -7  -4 -11   18.40    8.00
  -7  -4 -11   37.50   12.40
   7   4  11    0.10    9.50
  -8  -4 -11   53.40   14.00
  -8  -4 -11   60.50    9.40
  -8  -4 -11   55.00    9.60
   8   4  11   15.00   12.80
  -9  -4 -11   66.00   10.60
  -9  -4 -11   53.50   10.00
  -9  -4 -11   51.10   13.90
   9   4  11   11.80   12.40
 -11   5  11    0.20   11.00
 -10   5  11   35.40    4.40
 -10   5  11   16.80   12.40
  -9   5  11   50.60   13.10
  -8   5  11   89.10    7.60
  -8   5  11   90.20   14.60
   7  -5 -11  216.00   15.50
  -7   5  11  239.40   20.80
  -7   5  11  264.70   12.90
   6  -5 -11    0.00    7.00
  -6   5  11    1.30    5.50
  -6   5  11    0.00    8.40
   5  -5 -11   94.20   11.90
  -5   5  11  100.70   13.80
  -5   5  11  102.40    9.80
   4  -5 -11   47.20   10.20
  -4   5  11   41.90   13.00
  -4   5  11   35.30    8.20
   3  -5 -11  296.70   18.30
  -3   5  11  300.80   17.30
  -3   5  11  295.50   21.60
  -3   5  11  303.90   21.60
   2  -5 -11  167.50   13.60
   2  -5 -11  111.60   14.30
  -2   5  11  126.80   15.30
  -2   5  11  137.00   12.50
  -2   5  11  131.60   14.60
   1  -5 -11   29.10    9.50
   1  -5 -11   33.90    9.40
  -1   5  11   21.70    9.60
  -1   5  11   14.60    7.90
  -1   5  11   37.80   11.30
   0  -5 -11    0.10    6.60
   0  -5 -11   37.90    9.30
   0   5  11   12.20    8.40
   0   5  11   16.90    9.00
   0   5  11   10.40    9.90
  -1  -5 -11  326.10   20.40
  -1  -5 -11  381.40   19.50
   1   5  11  383.50   22.60
   1   5  11  370.00   25.90
   1   5  11  336.20   19.30
  -2  -5 -11  190.30   17.30
  -2  -5 -11  184.90   15.70
   2   5  11  187.40   17.40
   2   5  11  192.90   18.60
  -3  -5 -11  198.80   17.50
  -3  -5 -11  186.70   17.00
   3   5  11  148.10   18.20
   3   5  11  202.40   20.60
  -4  -5 -11  490.10   27.50
  -4  -5 -11  475.00   25.10
   4   5  11  430.40   29.30
   4   5  11  459.20   29.20
  -5  -5 -11    3.70    9.10
  -5  -5 -11    2.10    7.40
   5   5  11    0.00    8.10
   5   5  11    0.00    7.50
  -6  -5 -11  445.00   23.30
  -6  -5 -11  477.80   28.10
  -7  -5 -11    0.90    6.90
  -7  -5 -11    0.10    9.80
  -8  -5 -11   39.50   12.30
  -8  -5 -11   34.80    9.00
   8   5  11   10.20   12.20
 -11   6  11   27.00   14.30
 -11   6  11   51.20    6.60
 -10   6  11    0.00   11.80
 -10   6  11    0.00    4.10
  -9   6  11  293.50   13.40
  -9   6  11  249.60   22.10
  -8   6  11   48.00    6.70
  -8   6  11   62.60   12.90
   7  -6 -11   75.10   11.80
  -7   6  11   93.80   14.60
  -7   6  11   93.50    9.10
   6  -6 -11    0.10    6.70
  -6   6  11   14.60   12.60
  -6   6  11    8.90    5.70
   5  -6 -11  140.40   15.70
  -5   6  11  144.20   17.30
  -5   6  11  125.60   12.10
   4  -6 -11  204.80   17.00
  -4   6  11  235.90   20.90
  -4   6  11  190.30   14.60
   3  -6 -11  165.40   15.80
  -3   6  11  174.00   15.00
  -3   6  11  168.70   18.70
   2  -6 -11  142.70   13.80
  -2   6  11  120.70   15.70
  -2   6  11  189.60   18.50
  -2   6  11  147.80   14.40
   1  -6 -11  187.90   14.70
  -1   6  11  198.50   17.20
  -1   6  11  194.40   17.70
  -1   6  11  213.90   15.30
   0  -6 -11   86.20   13.00
   0   6  11  100.90   14.90
   0   6  11  108.40   14.50
   0   6  11   86.90   14.80
  -1  -6 -11   38.60   11.00
   1   6  11   34.30   13.10
   1   6  11   45.20   11.90
  -2  -6 -11  502.40   24.70
   2   6  11  507.40   28.10
   2   6  11  532.60   27.90
  -3  -6 -11  233.80   19.70
   3   6  11  244.60   22.10
   3   6  11  227.20   20.60
  -4  -6 -11   36.70   10.10
   4   6  11    2.00    9.70
   4   6  11   14.50    8.70
  -5  -6 -11    7.10    9.40
   5   6  11    3.80    9.10
   5   6  11    0.50    8.70
  -7  -6 -11    4.70   10.60
  -8  -6 -11  174.70   18.10
   8   6  11  153.00   17.10
 -10   7  11    0.30    4.70
 -10   7  11    0.30    9.90
  -9   7  11  202.00   22.20
  -9   7  11  246.10   13.70
  -8   7  11    6.40   11.40
  -8   7  11   11.40    6.50
   7  -7 -11   13.50    9.10
  -7   7  11   36.70   12.80
  -7   7  11   32.20    7.80
   6  -7 -11    0.10    8.20
  -6   7  11    8.50   10.70
  -6   7  11    1.40    6.10
   5  -7 -11   19.00   10.00
  -5   7  11   17.60    7.50
  -5   7  11   22.80   11.20
   4  -7 -11  429.90   24.80
  -4   7  11  452.20   30.80
  -4   7  11  396.50   21.20
   3  -7 -11   12.30    9.00
  -3   7  11    7.20   10.00
  -3   7  11    1.10    6.60
   2  -7 -11  447.10   24.50
  -2   7  11  406.00   23.40
  -2   7  11  418.70   26.70
   1  -7 -11  218.20   18.40
  -1   7  11  204.20   21.30
  -1   7  11  211.30   19.50
  -1   7  11  202.50   18.50
   0  -7 -11   22.50    9.10
   0   7  11   12.40   11.30
   0   7  11   35.70   10.90
  -1  -7 -11  240.30   16.80
   1   7  11  238.90   18.60
   1   7  11  212.90   18.70
  -2  -7 -11  246.90   20.10
   2   7  11  222.80   22.30
   2   7  11  238.20   24.80
  -3  -7 -11  239.10   19.70
   3   7  11  233.70   21.70
   3   7  11  231.10   24.10
  -4  -7 -11  293.70   20.70
   4   7  11  216.80   21.10
   4   7  11  258.40   23.50
  -5  -7 -11   83.60   13.80
   5   7  11   83.70   15.90
  -6  -7 -11    5.90   11.90
  -7  -7 -11   27.20   10.70
   7   7  11    0.10    8.70
 -10   8  11    6.70   12.00
 -10   8  11    0.00    5.90
  -9   8  11   43.60    8.70
  -9   8  11   47.90   14.70
   8  -8 -11   25.00   10.10
  -8   8  11   50.10   13.40
  -8   8  11   53.10    9.10
   7  -8 -11    0.00    7.40
  -7   8  11    1.30    6.70
  -7   8  11    0.00   10.20
   6  -8 -11    0.10    8.80
  -6   8  11    2.00   10.40
  -6   8  11    0.70    6.40
   5  -8 -11    1.50    8.00
  -5   8  11    3.90    7.70
  -5   8  11    3.70    9.80
   4  -8 -11  131.60   16.10
  -4   8  11  145.40   14.10
  -4   8  11  127.60   16.90
   3  -8 -11  354.40   23.30
  -3   8  11  370.60   25.40
  -3   8  11  317.00   20.90
   2  -8 -11 1172.40   43.30
  -2   8  11 1158.20   61.00
  -2   8  11 1128.30   42.90
   1  -8 -11    0.10    7.80
  -1   8  11    8.10   11.10
  -1   8  11    6.90   12.20
   0  -8 -11   31.60    9.90
   0   8  11   19.40   12.50
   0   8  11   34.30   11.60
  -1  -8 -11  177.10   19.10
   1   8  11  202.70   19.70
   1   8  11  181.90   20.20
  -2  -8 -11    1.00    8.80
   2   8  11    0.00   10.80
   2   8  11    0.00   10.00
  -3  -8 -11  210.30   19.90
   3   8  11  215.10   20.20
  -4  -8 -11  532.10   27.80
   4   8  11  374.40   27.10
   4   8  11  575.80   37.40
  -5  -8 -11   44.30   13.50
   5   8  11   64.30   15.70
  -6  -8 -11   59.80   15.80
  -9   9  11    4.20   10.70
  -9   9  11    6.10   12.10
  -8   9  11  112.00   12.70
  -8   9  11  128.00   19.60
   7  -9 -11    0.00    9.80
  -7   9  11    0.00    6.20
  -7   9  11    0.00   11.30
   6  -9 -11    0.00    9.60
  -6   9  11    0.00    9.50
  -6   9  11    1.70    7.30
   5  -9 -11   74.80   13.70
  -5   9  11   78.60   10.90
  -5   9  11   65.80   14.50
   4  -9 -11  197.90   19.80
  -4   9  11  223.10   21.10
  -4   9  11  223.70   19.10
   3  -9 -11  151.20   18.00
  -3   9  11  108.90   17.00
   2  -9 -11  162.30   18.10
  -2   9  11  174.30   20.00
   1  -9 -11    1.40   10.00
  -1   9  11    0.10    8.70
   0  -9 -11  132.50   20.20
   0   9  11  166.20   20.60
   0   9  11  137.60   17.50
  -1  -9 -11   16.60   10.60
   1   9  11    9.30    9.90
   1   9  11    2.70   10.60
  -2  -9 -11  533.60   28.90
   2   9  11  497.80   31.50
   2   9  11  497.90   29.40
  -3  -9 -11  386.40   26.80
   3   9  11  369.00   26.90
   3   9  11  426.50   29.40
  -4  -9 -11  115.30   16.20
   4   9  11  154.30   21.20
   4   9  11   87.70   15.80
  -5  -9 -11   24.80   11.40
   5   9  11   30.10   13.30
   8 -10 -11    5.90   11.80
  -8  10  11  110.90   17.80
  -8  10  11   70.10   10.50
   7 -10 -11    0.10    9.40
  -7  10  11    3.00   12.30
   6 -10 -11    7.50   10.80
  -6  10  11    2.00   11.00
   5 -10 -11   28.40   11.70
  -5  10  11   25.30   12.20
   4 -10 -11   50.40   13.50
  -4  10  11   72.00   14.40
   3 -10 -11  235.70   21.30
  -3  10  11  192.10   20.80
   2 -10 -11    9.90   10.30
  -2  10  11    0.10   10.70
   1 -10 -11    0.00   10.50
  -1  10  11    5.80   11.00
   0 -10 -11   80.10   13.70
   0  10  11   62.50   15.00
  -1 -10 -11   16.30   10.00
   1  10  11   28.10   13.20
   1  10  11   24.50   10.60
  -2 -10 -11  501.70   30.10
   2  10  11  525.00   33.60
   2  10  11  464.10   28.90
  -3 -10 -11  178.50   20.40
   3  10  11  163.80   22.10
   3  10  11  148.40   23.00
  -4 -10 -11   21.80   11.60
   4  10  11   10.70   11.80
   4  10  11    0.00    9.90
   7 -11 -11    0.30   12.00
  -7  11  11    5.20   11.60
   6 -11 -11    0.30   10.60
  -6  11  11    2.30   12.80
   5 -11 -11   35.80   14.80
  -5  11  11   37.50   15.00
  -4  11  11  109.30   17.30
   3 -11 -11    6.40   11.60
  -3  11  11    0.00   11.90
   2 -11 -11  128.40   17.20
  -2  11  11  134.70   18.90
   1 -11 -11    6.60   10.00
  -1  11  11   21.20   12.10
   0 -11 -11   14.50   10.60
   0  11  11   31.20   14.10
  -1 -11 -11   86.10   15.00
   1  11  11   88.60   17.30
   1  11  11   53.60   14.70
  -2 -11 -11  179.00   20.20
   2  11  11  198.50   21.70
   2  11  11  179.50   23.40
  -3 -11 -11    0.30    9.90
   3  11  11    0.30   12.70
   5 -12 -11   23.30   13.30
  -5  12  11    1.80   11.20
   4 -12 -11    1.70   12.50
  -4  12  11   31.20   13.50
   3 -12 -11   21.60   13.50
  -3  12  11   30.40   13.70
   2 -12 -11  128.00   17.90
  -2  12  11  137.90   20.70
   1 -12 -11   10.10   13.30
  -1  12  11    0.10   12.10
   0 -12 -11  176.80   20.90
   0  12  11  193.10   22.60
  -1 -12 -11  147.70   19.10
   1  12  11  172.70   22.40
   3  16 -12  195.60   27.10
   2  16 -12  121.20   20.60
   1  16 -12  123.50   20.30
   0  16 -12   46.80   15.60
  -1  16 -12    6.60   12.60
  -2  16 -12   26.20   19.00
  -5 -15  12   96.40   19.80
   4  15 -12   11.00   12.40
   3  15 -12   82.70   19.50
   2  15 -12    3.20   12.90
   1  15 -12   87.40   19.40
   0  15 -12    8.00   14.30
  -1  15 -12    0.70   13.80
  -2  15 -12   90.30   20.00
   2 -15  12  154.50   16.10
   2 -15  12  164.40   14.70
  -3  15 -12    3.80   14.60
   3 -15  12   11.00    9.50
   3 -15  12   17.10   14.30
  -4  15 -12   34.80   17.30
   4 -15  12   36.20    9.00
   4 -15  12   34.10    8.90
   6  14 -12    0.40    8.90
  -6 -14  12   21.30   14.10
   5  14 -12  268.90   25.80
   4  14 -12  209.80   26.80
  -4 -14  12  199.10   24.20
  -3 -14  12    0.90   10.50
   2  14 -12   66.80   16.10
   1  14 -12   14.10   13.30
  -1 -14  12   12.80   10.40
   0  14 -12  171.20   22.50
   0 -14  12  213.20   19.10
  -1  14 -12   21.20   14.10
   1 -14  12   23.20    8.70
   1 -14  12   24.80    9.50
  -2  14 -12  157.30   22.20
   2 -14  12  118.00   14.20
   2 -14  12  117.50   14.50
  -3  14 -12   12.10   17.10
   3 -14  12   47.10    8.20
   3 -14  12   23.90    8.20
  -4  14 -12    3.20   16.10
   4 -14  12   30.40    7.60
   4 -14  12   23.30    7.80
  -5  14 -12   35.20   16.90
   5 -14  12   50.20    7.90
   7  13 -12    0.60    7.70
  -7 -13  12    5.10   12.20
   6  13 -12    0.60   11.40
  -6 -13  12    4.70   13.40
   5  13 -12  173.70   18.70
   5  13 -12  161.60   22.40
  -5 -13  12  217.70   22.40
   4  13 -12   56.00   12.90
   4  13 -12   47.70   15.80
  -4 -13  12   60.20   15.10
   3  13 -12   13.70   12.70
   2  13 -12   31.60   16.10
  -2 -13  12   33.10   11.80
   1  13 -12   22.10   13.90
  -1 -13  12   18.30   10.80
   0  13 -12  578.00   37.80
   0 -13  12  590.10   30.10
  -1  13 -12   23.80   14.10
   1 -13  12   31.80    8.90
   1 -13  12   20.40   10.40
  -2  13 -12   95.30   19.70
   2 -13  12  124.30   14.40
   2 -13  12  136.20   12.90
  -3  13 -12   12.10   16.10
   3 -13  12   41.70    7.60
   3 -13  12    6.00    7.90
  -4  13 -12    1.00   14.10
   4 -13  12    3.10    5.10
   4 -13  12    5.50    6.40
  -5  13 -12  102.60   21.10
   5 -13  12   81.70    8.00
  -6  13 -12   24.80   15.50
  -8 -12  12  115.80   19.10
   7  12 -12  102.90   16.60
   7  12 -12   49.60   11.90
  -7 -12  12  165.30   20.50
   6  12 -12   21.70   12.90
   6  12 -12   16.90   10.80
  -6 -12  12   28.00   13.90
   5  12 -12   31.20   13.20
  -5 -12  12   48.00   14.70
   4  12 -12   14.10    8.70
   4  12 -12    6.90   10.70
  -4 -12  12   14.70   13.30
   3  12 -12  195.60   23.30
   3  12 -12  156.40   16.60
  -3 -12  12  176.00   20.00
   2  12 -12    5.10    7.90
   2  12 -12    0.00   11.60
  -2 -12  12    9.30    9.90
   1  12 -12   45.00   17.40
  -1 -12  12   45.70   13.70
   0 -12  12  530.90   27.60
  -1  12 -12  200.90   25.60
   1 -12  12  207.50   18.40
  -2  12 -12  220.80   23.90
   2 -12  12  234.90   15.90
   2 -12  12  254.60   14.80
  -3  12 -12    2.10   15.10
   3 -12  12    2.10    7.80
  -4  12 -12   46.10   18.20
   4 -12  12   30.50    7.50
  -5  12 -12   46.10   16.30
   5 -12  12   44.90    5.70
  -6  12 -12   55.70   17.70
  -7  12 -12   18.00   16.50
   9  11 -12    0.40    6.80
  -9 -11  12   33.70   14.00
   8  11 -12    1.90    7.30
  -8 -11  12   32.80   13.50
   7  11 -12    0.10    7.90
  -7 -11  12   60.80   15.70
   6  11 -12    0.10    4.70
   6  11 -12    0.10    9.90
  -6 -11  12   13.40   10.90
   5  11 -12    0.20    6.90
   5  11 -12    1.40    9.50
  -5 -11  12    2.20   10.20
   4  11 -12  159.40   22.60
   4  11 -12  194.60   17.70
  -4 -11  12  170.90   21.10
   3  11 -12  232.80   23.90
  -3 -11  12  239.20   22.60
   2  11 -12  234.10   23.20
   2  11 -12  236.30   16.80
  -2 -11  12  186.70   16.80
   1  11 -12    1.10    7.20
   1  11 -12    0.90   10.30
  -1 -11  12    1.30    9.00
   0  11 -12  467.10   30.50
   0 -11  12  384.80   23.60
  -1  11 -12  327.40   31.80
   1 -11  12  320.30   19.30
  -2  11 -12  134.80   19.50
   2 -11  12  104.00   10.90
  -3  11 -12    2.10   11.90
   3 -11  12    2.10    6.30
  -4  11 -12    0.10   11.20
   4 -11  12    4.80    5.50
  -5  11 -12   13.70   16.30
  -6  11 -12  380.00   32.70
  -7  11 -12  154.00   26.00
  10  10 -12  134.00    8.80
 -10 -10  12  173.30   24.20
   9  10 -12   19.70    6.00
  -9 -10  12   36.20   14.30
   8  10 -12   72.60    8.40
  -8 -10  12   86.70   15.30
   7  10 -12   56.70    9.30
  -7 -10  12   93.70   16.50
   6  10 -12  149.10   20.40
   6  10 -12  104.30   13.50
  -6 -10  12  186.10   21.50
   5  10 -12    1.50    6.40
   5  10 -12   25.20   10.50
  -5 -10  12   12.60   10.00
   4  10 -12   74.60   10.70
   4  10 -12  100.10   16.30
  -4 -10  12  113.90   16.40
   3  10 -12    4.50    6.70
   3  10 -12    2.60   10.50
  -3 -10  12    1.00    8.50
   2  10 -12   26.30    7.70
   2  10 -12   16.50   11.00
  -2 -10  12   32.40   10.60
   1  10 -12   82.80   12.30
   1  10 -12   99.90   18.00
  -1 -10  12  111.60   14.30
   0  10 -12   56.50   11.80
   0  10 -12  103.00   18.70
   0 -10  12   85.50   12.80
  -1  10 -12  136.40   16.70
   1 -10  12  165.20   12.60
  -2  10 -12    1.60   13.40
  -3  10 -12   57.90   16.40
   3 -10  12   85.90    9.10
   3 -10  12   53.20    9.00
  -4  10 -12  169.20   23.00
   4 -10  12  178.90   12.10
   4 -10  12  209.70   15.90
  -5  10 -12   20.70   15.20
  -6  10 -12  301.50   30.40
  -7  10 -12   22.80   14.60
  -8  10 -12    4.10   15.80
 -10  -9  12   16.90   13.30
  -9  -9  12    8.90   13.70
  -8  -9  12   69.90   19.20
  -7  -9  12  223.00   22.80
   6   9 -12  261.80   14.90
  -6  -9  12  393.80   28.90
   5   9 -12    0.90   10.00
   5   9 -12   12.70    6.10
  -5  -9  12    2.20   10.60
   4   9 -12    6.00    6.40
   4   9 -12   12.90   11.30
  -4  -9  12    9.10   10.20
   3   9 -12  178.30   21.60
   3   9 -12  201.00   16.20
  -3  -9  12  182.20   20.20
   2   9 -12   22.70    9.30
   2   9 -12   10.60   12.10
  -2  -9  12   11.50    9.70
   1   9 -12  182.60   17.10
   1   9 -12  196.60   23.30
  -1  -9  12  193.50   17.80
   0   9 -12    0.20   12.20
   0   9 -12    0.20    7.70
   0  -9  12    1.90    7.20
  -1   9 -12   34.70   10.40
  -1   9 -12   18.50   13.60
   1  -9  12   18.20    8.10
  -2   9 -12  123.20   19.20
   2  -9  12  105.60   11.80
  -3   9 -12   10.00   13.30
   3  -9  12   27.30    7.40
  -4   9 -12  510.40   35.00
   4  -9  12  510.90   20.10
   4  -9  12  565.00   19.80
  -5   9 -12   72.50   18.20
  -6   9 -12    0.00   12.40
  -7   9 -12   30.80   17.60
  -8   9 -12  150.10   21.40
 -11  -8  12    5.70   12.80
 -10  -8  12   58.70   17.30
  -9  -8  12   53.80   16.20
  -8  -8  12   26.80   13.50
  -7  -8  12   82.00   15.30
   6   8 -12  139.00   11.10
   6   8 -12  162.80   18.70
  -6  -8  12  204.50   20.70
   5   8 -12    8.40    5.90
   5   8 -12   12.10    9.60
  -5  -8  12    7.00   10.70
   4   8 -12    2.80    8.80
   4   8 -12    3.00    6.40
  -4  -8  12    0.10    8.20
  -4  -8  12    1.40   10.10
   3   8 -12  323.00   16.20
   3   8 -12  341.90   23.20
  -3  -8  12  354.60   20.50
  -3  -8  12  390.10   26.50
   2   8 -12   11.80    7.40
   2   8 -12   10.20   11.30
  -2  -8  12    6.50    9.10
   1   8 -12  101.50   13.40
   1   8 -12   67.00   15.10
  -1  -8  12   92.40   13.80
   0   8 -12  175.80   16.50
   0   8 -12  137.20   18.70
   0  -8  12  134.80   14.60
  -1   8 -12  101.10   18.60
   1  -8  12  111.90   13.80
  -2   8 -12   10.50   10.90
   2  -8  12    0.30    5.90
  -3   8 -12   39.50   13.80
   3  -8  12   47.00    7.60
  -4   8 -12  248.50   27.90
   4  -8  12  224.50   11.50
  -5   8 -12  101.30   18.90
  -6   8 -12    1.80   12.90
  -7   8 -12   92.00   19.00
  -8   8 -12  107.10   21.00
  -9   8 -12   39.30   15.80
  -9   8 -12   22.90   17.10
 -11  -7  12    1.60   11.30
 -10  -7  12  133.00   21.50
  -9  -7  12  170.10   21.20
  -8  -7  12  263.00   24.60
   7   7 -12    0.30    3.00
  -7  -7  12    7.50   13.10
   6   7 -12   13.10    7.50
  -6  -7  12   20.10   11.80
   5   7 -12   97.30    9.00
   5   7 -12  102.80   14.30
  -5  -7  12   95.50   13.40
  -5  -7  12   95.90   13.70
   4   7 -12    4.90    5.70
   4   7 -12    0.60    8.60
  -4  -7  12    0.60    8.80
  -4  -7  12    4.30    9.00
   3   7 -12   18.20    7.80
   3   7 -12   16.90   11.30
  -3  -7  12    7.80    9.20
  -3  -7  12   30.40   12.30
   2   7 -12   47.60   14.60
   2   7 -12   57.60   11.20
  -2  -7  12   77.20   15.40
  -2  -7  12   64.10   13.50
   1   7 -12   92.50   11.10
   1   7 -12   59.70   13.90
  -1  -7  12   62.20   10.50
  -1  -7  12   97.80   14.70
   0   7 -12  137.70   18.70
   0  -7  12  140.40   15.10
  -1   7 -12   28.80   11.70
   1  -7  12   30.80    9.60
  -2   7 -12  447.90   31.00
   2  -7  12  463.30   21.20
  -3   7 -12  649.30   35.00
   3  -7  12  640.70   24.10
  -4   7 -12    2.40   10.30
   4  -7  12    2.40    4.40
  -6   7 -12  207.60   22.80
  -7   7 -12   26.40   12.70
  -7   7 -12    1.10   13.70
  -8   7 -12   19.70   15.60
  -8   7 -12   10.50   11.70
  -9   7 -12   64.00   17.50
  -9   7 -12   44.70   17.30
 -11  -6  12   36.00   14.90
 -10  -6  12   49.50   14.60
  -9  -6  12   21.10   13.40
  -8  -6  12  189.80   21.20
  -7  -6  12    0.80   10.80
   6   6 -12    6.20    4.10
   6   6 -12   20.90    4.30
  -6  -6  12   10.50   12.00
   5   6 -12  273.20   22.60
  -5  -6  12  297.40   22.00
  -5  -6  12  255.90   21.40
   4   6 -12   10.20   10.60
  -4  -6  12   14.10    8.70
  -4  -6  12    1.70    8.40
   3   6 -12   70.50   12.30
   3   6 -12   79.20    7.60
  -3  -6  12   67.00   11.00
  -3  -6  12   46.50   11.00
   2   6 -12   92.10   13.90
   2   6 -12   76.20    9.70
  -2  -6  12  107.90   13.10
  -2  -6  12   71.80   12.60
   1   6 -12   34.10   11.90
  -1  -6  12   29.70   10.00
  -1  -6  12   50.60   13.00
   0   6 -12  221.00   18.20
   0  -6  12  186.40   13.80
   0  -6  12  222.60   18.80
  -1   6 -12   16.40   13.80
   1  -6  12   13.00    8.50
   1  -6  12    7.90   12.30
  -2   6 -12   44.80   13.10
   2  -6  12   69.60    9.00
  -3   6 -12   98.60   14.90
   3  -6  12  119.30    9.10
  -4   6 -12    2.30   11.70
   4  -6  12    2.50    4.20
  -5   6 -12  169.90   19.20
  -5   6 -12  156.40   18.00
  -6   6 -12  271.90   24.40
  -7   6 -12   25.70   14.30
  -7   6 -12   17.30   13.70
  -8   6 -12   53.40   16.40
  -8   6 -12   51.90   15.80
  -9   6 -12   14.00   12.30
  -9   6 -12    0.00   13.70
 -11  -5  12   58.70   17.80
 -10  -5  12    9.00   11.50
  -9  -5  12   55.80   15.40
  -8  -5  12    6.60   11.70
  -7  -5  12   32.10   11.80
  -6  -5  12   26.20   10.30
   5   5 -12  210.90   10.30
   5   5 -12  214.00   18.90
   5   5 -12  165.30   10.60
  -5  -5  12  203.50   18.70
  -5  -5  12  193.40   18.50
   4   5 -12    0.70    4.70
   4   5 -12   26.60    5.70
   4   5 -12    0.70    9.40
  -4  -5  12    0.70    7.70
  -4  -5  12   12.60    9.60
   3   5 -12   74.30   14.30
   3   5 -12   57.20    8.70
   3   5 -12   60.10    9.30
  -3  -5  12   79.80   14.00
  -3  -5  12   63.70   13.90
   2   5 -12  284.90   20.10
  -2  -5  12  219.90   18.20
  -2  -5  12  294.20   17.10
   1   5 -12   24.20   10.40
  -1  -5  12   31.40    9.60
  -1  -5  12   18.90    8.30
   0   5 -12   50.30   13.60
   0  -5  12   62.10   11.10
   0  -5  12   59.50   13.00
  -1   5 -12  234.00   18.60
   1  -5  12  245.50   18.80
   1  -5  12  219.90   13.80
  -2   5 -12  307.20   20.90
  -2   5 -12  321.70   23.50
   2  -5  12  227.10   21.40
   2  -5  12  290.60   16.20
  -3   5 -12  190.00   19.20
  -3   5 -12  166.00   19.60
   3  -5  12  164.80   12.80
  -4   5 -12   13.70    9.60
  -4   5 -12   11.10   10.70
   4  -5  12    5.50    5.50
  -5   5 -12  355.40   26.10
  -5   5 -12  372.40   27.80
  -6   5 -12  281.00   22.60
  -6   5 -12  268.00   25.00
  -7   5 -12   44.80   14.70
  -7   5 -12   45.20   13.10
  -8   5 -12  119.50   18.20
  -8   5 -12   95.30   17.60
  -9   5 -12   13.80   14.60
  -9   5 -12   21.20   15.00
 -12  -4  12   69.00   17.80
 -11  -4  12    8.40   13.10
 -10  -4  12    4.70   11.80
  -9  -4  12   70.50   17.10
  -8  -4  12   65.90   15.30
  -7  -4  12  121.70   16.90
  -6  -4  12   10.60   11.40
   5   4 -12  189.60    8.20
   5   4 -12  185.70    9.40
  -5  -4  12  183.00   17.30
  -5  -4  12  197.70   18.70
   4   4 -12    8.30   10.30
   4   4 -12   16.70    6.90
   4   4 -12   13.90    5.60
  -4  -4  12   19.70   10.30
  -4  -4  12   10.00   11.30
   3   4 -12   30.50    6.70
   3   4 -12   25.80   10.80
  -3  -4  12   17.40   10.80
  -3  -4  12   27.30   10.50
   2   4 -12  364.20   25.10
   2   4 -12  302.60   18.40
  -2  -4  12  317.90   21.60
  -2  -4  12  315.10   24.40
   1   4 -12   64.60   11.10
   1   4 -12   73.80    8.80
  -1  -4  12   63.20    9.80
  -1  -4  12   65.10   12.00
   0   4 -12   69.90   12.00
   0   4 -12   86.40   10.40
   0  -4  12   87.30   10.50
   0  -4  12   91.70   13.40
  -1   4 -12  839.60   32.10
  -1   4 -12  826.10   37.00
   1  -4  12  850.60   37.70
   1  -4  12  865.90   30.50
  -2   4 -12  728.80   36.00
  -2   4 -12  769.00   33.00
   2  -4  12  751.80   28.50
   2  -4  12  769.00   36.40
  -3   4 -12 1070.00   47.20
  -3   4 -12 1075.30   44.00
   3  -4  12 1014.80   52.40
   3  -4  12 1048.30   38.20
  -4   4 -12    4.40   11.60
  -4   4 -12    2.80    9.60
   4  -4  12    3.50    4.70
  -5   4 -12    9.50   10.60
  -5   4 -12   13.00   10.30
   5  -4  12    7.00    3.00
  -6   4 -12   60.50   15.20
  -6   4 -12   40.40   13.70
  -7   4 -12   15.30   11.20
  -7   4 -12   27.50   13.60
  -8   4 -12    8.00   12.20
  -8   4 -12    0.00   12.50
  -9   4 -12   19.90   12.90
  -9   4 -12    1.00   10.70
 -12  -3  12    4.80   12.80
 -11  -3  12   73.20   16.20
 -10  -3  12    6.90   11.50
  -9  -3  12   23.20   13.90
  -8  -3  12   43.80   14.00
  -7  -3  12  134.80   18.50
  -6  -3  12   42.80   12.40
   5   3 -12   98.80    7.40
   5   3 -12   77.50    6.30
  -5  -3  12   72.40   14.20
  -5  -3  12   94.80   16.20
   4   3 -12    2.80    3.90
   4   3 -12    0.00    8.10
   4   3 -12    0.00    6.60
  -4  -3  12    0.00    9.00
  -4  -3  12    4.30    8.50
   3   3 -12    3.00    5.00
   3   3 -12    1.40    8.50
  -3  -3  12    9.30    9.60
  -3  -3  12   10.80   10.70
   2   3 -12  119.70   11.90
   2   3 -12  117.90   16.20
   2   3 -12  122.40   15.00
  -2  -3  12  129.40   17.40
  -2  -3  12  127.90   15.90
   1   3 -12  992.30   40.30
   1   3 -12  956.90   36.10
   1   3 -12  950.90   34.30
  -1  -3  12  978.30   36.50
  -1  -3  12  976.20   40.50
   0   3 -12   27.20   11.20
   0   3 -12   40.60    9.20
   0   3 -12   50.70   10.10
   0  -3  12   25.90   11.50
   0  -3  12   39.30    9.60
  -1   3 -12    0.90    5.90
  -1   3 -12    4.30    7.70
  -1   3 -12    0.30    7.20
   1  -3  12    4.30    8.90
  -2   3 -12   68.60   12.70
  -2   3 -12   74.30   15.00
  -2   3 -12   98.80   11.30
   2  -3  12   71.60   16.10
   2  -3  12   82.40   11.30
  -3   3 -12  359.50   16.60
  -3   3 -12  381.40   23.80
  -3   3 -12  377.20   22.40
   3  -3  12  405.30   18.50
   3  -3  12  401.30   25.00
  -4   3 -12    2.00   10.90
  -4   3 -12   36.70    5.50
  -4   3 -12   31.20   10.20
   4  -3  12    8.30    6.10
   4  -3  12   17.90   16.10
  -5   3 -12   23.70   11.80
  -5   3 -12   14.20   11.20
   5  -3  12    6.90    4.60
  -6   3 -12  408.50   28.30
  -6   3 -12  472.90   28.20
  -7   3 -12  200.50   21.20
  -7   3 -12  207.80   21.70
  -8   3 -12   65.00   14.60
  -9   3 -12   15.90   10.80
  -9   3 -12    0.10    9.90
 -12  -2  12    4.80   12.90
 -11  -2  12  127.10   19.20
 -10  -2  12  134.60   17.10
  -9  -2  12   61.10   16.70
  -7  -2  12   29.00   10.60
  -6  -2  12  110.10   17.10
   5   2 -12   55.60    6.10
   5   2 -12   40.70   10.90
   5   2 -12   41.30    5.20
  -5  -2  12   41.60   12.20
  -5  -2  12   33.80   13.60
   4   2 -12    6.80    4.00
   4   2 -12    7.00    7.20
  -4  -2  12    0.60    8.00
  -4  -2  12    0.60    8.30
   3   2 -12   28.00    9.50
   3   2 -12   10.60    4.80
   3   2 -12    3.30    9.50
  -3  -2  12   17.90    8.70
  -3  -2  12    6.40    7.70
   2   2 -12   13.30    8.20
   2   2 -12   13.30    5.20
   2   2 -12   13.30    6.30
  -2  -2  12   18.00    8.60
  -2  -2  12   13.30    7.90
   1   2 -12 3483.50  103.40
   1   2 -12 3479.50  105.70
   1   2 -12 3540.30  109.20
  -1  -2  12 3501.70  105.40
  -1  -2  12 3545.50  110.70
   0   2 -12  643.30   24.00
   0   2 -12  641.70   24.50
   0   2 -12  608.80   27.40
   0  -2  12  638.60   28.70
   0  -2  12  652.90   24.80
  -1   2 -12  205.10   13.80
  -1   2 -12  203.70   19.00
  -1   2 -12  232.70   16.00
   1  -2  12  196.20   14.50
   1  -2  12  184.50   18.20
  -2   2 -12   13.90    7.10
  -2   2 -12    7.90    9.20
  -2   2 -12    7.00    9.90
   2  -2  12   13.50    7.80
   2  -2  12    9.40   10.40
  -3   2 -12   16.30    6.80
  -3   2 -12   32.80   11.90
  -3   2 -12   27.70   10.00
   3  -2  12   20.30   11.80
   3  -2  12    8.70    7.60
  -4   2 -12  519.90   28.50
  -4   2 -12  504.50   19.70
  -4   2 -12  469.40   26.20
   4  -2  12  361.00   20.90
   4  -2  12  462.50   28.70
  -5   2 -12   14.50   10.80
  -5   2 -12   12.80   10.20
  -5   2 -12   17.10    5.70
   5  -2  12    3.80    4.90
  -6   2 -12  113.30   15.90
  -6   2 -12  126.40    8.60
  -6   2 -12  124.10   16.50
  -7   2 -12   91.20   15.70
  -7   2 -12   93.60   16.30
  -8   2 -12   99.40   15.40
  -8   2 -12   65.00   14.40
  -9   2 -12   13.60   12.50
  -9   2 -12    0.10   10.80
 -12  -1  12    0.00   13.10
 -11  -1  12   72.60   16.40
 -10  -1  12   36.30   14.30
  -9  -1  12    3.60   10.00
  -8  -1  12    1.90   16.70
  -7  -1  12   25.20   11.10
  -6  -1  12  104.40   16.10
   5   1 -12    5.40    3.60
   5   1 -12    0.80    6.70
  -5  -1  12    0.80    7.30
   4   1 -12   36.20    5.90
   4   1 -12   49.10   11.50
  -4  -1  12   29.60   11.50
  -4  -1  12   41.90   11.20
   3   1 -12  126.40   14.90
   3   1 -12  126.70   10.20
  -3  -1  12  114.80   14.40
  -3  -1  12  130.80   17.00
   2   1 -12    0.00    9.70
   2   1 -12    3.50    5.70
   2   1 -12    8.10    8.00
  -2  -1  12   13.20    8.80
  -2  -1  12   21.00   10.50
   1   1 -12  790.70   33.70
   1   1 -12  771.00   30.80
   1   1 -12  814.80   36.20
  -1  -1  12  777.40   37.20
  -1  -1  12  787.30   33.80
   0   1 -12   42.00    9.30
   0   1 -12   32.10    8.80
   0   1 -12   39.70   11.60
   0  -1  12   37.20   11.70
   0  -1  12   41.20    9.70
  -1   1 -12  170.10   18.20
  -1   1 -12  168.50   15.20
  -1   1 -12  158.80   15.80
   1  -1  12  167.10   19.10
   1  -1  12  180.40   16.30
  -2   1 -12    1.10    9.50
  -2   1 -12    2.20    7.40
  -2   1 -12    7.30    6.70
   2  -1  12    9.20    9.80
   2  -1  12    0.00    6.90
  -3   1 -12  137.60   13.80
  -3   1 -12  149.90   12.00
  -3   1 -12  149.60   16.30
   3  -1  12  147.30   18.20
   3  -1  12  143.10   13.30
  -4   1 -12  654.30   25.90
  -4   1 -12  645.10   31.90
  -4   1 -12  713.00   32.70
   4  -1  12  674.40   35.60
   4  -1  12  514.90   27.40
  -5   1 -12  118.00   11.10
  -5   1 -12   93.50   15.90
  -5   1 -12  101.60   15.60
   5  -1  12   83.60   17.90
  -6   1 -12   24.00   11.30
  -6   1 -12   18.30    5.80
  -6   1 -12   32.80   12.20
  -7   1 -12   12.70   12.30
  -7   1 -12   37.40   12.60
  -8   1 -12   48.50   14.60
  -8   1 -12   59.00    5.90
  -8   1 -12   45.60   12.90
  -9   1 -12   53.70   14.40
  -9   1 -12   88.70   18.90
 -12   0  12   25.10   13.80
 -11   0  12    2.30   12.80
 -10   0  12    4.90   11.10
  -9   0  12   28.60   13.40
  -8   0  12   35.20   12.60
  -7   0  12   16.70   10.00
  -6   0  12  131.70   16.20
   5   0 -12   13.20    4.80
  -5   0  12   18.40   10.00
   4   0 -12    8.60    4.60
   4   0 -12    0.90    7.50
  -4   0  12    5.60    9.80
  -4   0  12   25.10   10.90
   3   0 -12  747.10   25.80
   3   0 -12  727.50   31.80
  -3   0  12  732.00   32.10
  -3   0  12  742.00   34.40
   2   0 -12   22.00   11.40
   2   0 -12   16.00    7.20
  -2   0  12   17.50   11.10
  -2   0  12   29.10   12.80
   1   0 -12   29.20    8.00
   1   0 -12   30.00    8.60
   1   0 -12   33.40    6.50
  -1   0  12   54.20   10.70
  -1   0  12   40.70    9.00
   0   0 -12  456.10   21.40
   0   0 -12  423.40   22.40
   0   0 -12  440.90   24.10
   0   0  12  448.80   22.80
   0   0  12  454.20   26.00
  -1   0 -12  137.30   15.80
  -1   0 -12  113.40   13.10
  -1   0 -12  147.50   14.90
   1   0  12  125.30   18.00
   1   0  12  143.50   14.70
  -2   0 -12  169.30   18.90
  -2   0 -12  167.30   17.00
  -2   0 -12  173.60   14.50
   2   0  12  170.20   19.60
   2   0  12  167.60   15.90
  -3   0 -12  168.20   14.00
  -3   0 -12  176.10   18.70
  -3   0 -12  151.90   17.00
   3   0  12  140.20   14.60
   3   0  12  171.60   21.00
  -4   0 -12  402.60   24.30
  -4   0 -12  394.60   25.00
  -4   0 -12  370.10   19.70
   4   0  12  355.50   28.00
  -5   0 -12   64.90    9.10
  -5   0 -12   77.60   14.20
  -5   0 -12   91.70   14.50
   5   0  12   65.50   15.80
  -6   0 -12   14.60    6.30
  -6   0 -12   28.60   11.20
  -6   0 -12   21.30   10.40
   6   0  12   21.10   12.20
  -7   0 -12   21.50   11.10
  -7   0 -12   17.10    5.70
  -7   0 -12   33.60   11.00
  -8   0 -12    4.00   12.00
  -8   0 -12   18.20    4.90
  -8   0 -12   14.60   10.40
  -9   0 -12   99.90   17.00
  -9   0 -12   98.80   15.60
 -12   1  12    0.70   10.30
 -11   1  12    0.30   12.00
 -10   1  12   26.90   14.70
  -9   1  12   67.60   14.70
  -8   1  12    0.40    9.70
  -7   1  12    0.90    9.10
   6  -1 -12  166.30    8.70
  -6   1  12  192.90   18.80
   5  -1 -12  104.50    9.70
  -5   1  12  110.70   15.20
   4  -1 -12   40.70    7.00
   4  -1 -12   31.50   10.60
  -4   1  12   40.00   12.00
   3  -1 -12  127.30   11.00
   3  -1 -12  154.80   15.90
  -3   1  12  136.10   16.90
  -3   1  12  154.40   17.10
   2  -1 -12    3.40    7.40
  -2   1  12    1.30    8.30
  -2   1  12    5.40    9.20
   1  -1 -12   22.40    6.90
   1  -1 -12   20.40    8.60
  -1   1  12   19.30    8.80
  -1   1  12    5.60    8.50
   0  -1 -12  685.90   30.80
   0  -1 -12  742.70   28.00
   0  -1 -12  699.10   29.10
   0   1  12  681.50   32.10
   0   1  12  729.50   29.70
  -1  -1 -12  424.60   22.30
  -1  -1 -12  404.70   20.20
  -1  -1 -12  401.40   19.60
   1   1  12  438.50   21.10
   1   1  12  372.30   23.80
  -2  -1 -12  584.80   26.80
  -2  -1 -12  626.90   26.30
  -2  -1 -12  589.60   24.20
   2   1  12  591.90   30.40
   2   1  12  647.70   26.20
  -3  -1 -12    8.40    6.30
  -3  -1 -12   10.30    9.30
  -3  -1 -12    7.10    8.20
   3   1  12    0.20    8.30
   3   1  12   22.50   12.10
  -4  -1 -12   22.80    7.20
  -4  -1 -12   28.00   10.50
  -4  -1 -12    7.70    8.60
   4   1  12   15.40    8.80
   4   1  12    0.50    9.00
  -5  -1 -12  164.20   17.60
  -5  -1 -12  143.30   12.70
  -5  -1 -12  145.50   16.40
   5   1  12  120.10   18.30
  -6  -1 -12    2.70    9.00
  -6  -1 -12    0.10    5.20
  -6  -1 -12    0.10    8.40
   6   1  12    0.10    9.00
   6   1  12    9.60    5.50
  -7  -1 -12    1.40    8.80
  -7  -1 -12    6.90    9.80
  -7  -1 -12    1.40    5.40
   7   1  12    1.40    9.90
  -8  -1 -12    0.10    4.70
  -8  -1 -12    6.90   10.00
  -8  -1 -12    0.10    8.20
  -9  -1 -12  112.50   10.20
  -9  -1 -12  105.30   15.00
  -9  -1 -12  135.70   19.10
 -11   2  12    7.80   13.20
 -10   2  12    1.10    9.60
  -9   2  12   20.70   12.80
  -8   2  12   20.30   11.60
  -7   2  12  160.70   19.50
   6  -2 -12  104.80    9.20
  -6   2  12  153.30   17.80
   5  -2 -12   34.20    6.90
  -5   2  12   40.50   11.60
   4  -2 -12   26.00    6.50
  -4   2  12   33.10   11.90
   3  -2 -12   11.70    8.10
   3  -2 -12   14.90    6.20
  -3   2  12   25.70   10.50
  -3   2  12   17.10    9.20
   2  -2 -12  339.40   18.20
   2  -2 -12  328.50   22.30
  -2   2  12  342.70   21.80
  -2   2  12  374.10   23.90
   1  -2 -12   87.30   10.50
   1  -2 -12   84.60   11.90
  -1   2  12   83.60   13.40
  -1   2  12   95.60   13.30
   0  -2 -12   35.60   10.00
   0   2  12   44.10   12.00
   0   2  12   26.90   11.30
  -1  -2 -12   98.70   12.70
  -1  -2 -12   83.50   12.20
  -1  -2 -12  105.60   14.20
   1   2  12  102.20   15.00
   1   2  12   98.90   13.80
  -2  -2 -12  222.70   17.90
  -2  -2 -12  187.10   16.70
  -2  -2 -12  196.90   15.40
   2   2  12  216.70   20.60
   2   2  12  186.40   16.60
  -3  -2 -12   99.00   13.30
  -3  -2 -12   87.70   14.00
  -3  -2 -12   80.70   14.30
   3   2  12   73.80   14.50
   3   2  12  110.40   18.40
  -4  -2 -12    3.80    7.10
  -4  -2 -12    1.70    8.60
  -4  -2 -12    3.70    8.10
   4   2  12    0.50    7.60
   4   2  12    2.70   11.20
  -5  -2 -12  438.80   21.40
  -5  -2 -12  405.00   26.10
  -5  -2 -12  402.60   23.40
   5   2  12  362.10   28.60
  -6  -2 -12   12.90    9.40
  -6  -2 -12   30.60   10.70
  -6  -2 -12   33.40    7.90
   6   2  12    0.30   10.90
   6   2  12    0.30    5.20
  -7  -2 -12   55.80    9.10
  -7  -2 -12   65.00   14.50
  -7  -2 -12   38.30   10.90
  -8  -2 -12   20.10    7.30
  -8  -2 -12   26.60   10.30
  -8  -2 -12   28.60   12.50
   8   2  12    0.00   11.30
  -9  -2 -12   20.00   10.90
  -9  -2 -12   20.00   11.40
  -9  -2 -12   39.20    7.80
 -11   3  12    3.40   11.80
 -10   3  12   16.50   12.40
  -9   3  12   24.60   12.70
  -8   3  12   12.40   11.40
   7  -3 -12  106.80    8.70
  -7   3  12   87.80   16.10
   6  -3 -12    9.50    6.10
  -6   3  12   31.90   11.40
  -6   3  12   33.50    6.00
   5  -3 -12    3.40    6.50
  -5   3  12    8.70    5.80
  -5   3  12    9.10    9.70
   4  -3 -12   36.50    7.30
  -4   3  12   71.90    7.80
  -4   3  12   57.40   11.40
   3  -3 -12  184.70   13.70
  -3   3  12  175.10   13.80
  -3   3  12  183.40   17.50
   2  -3 -12  674.70   28.70
   2  -3 -12  608.60   23.60
  -2   3  12  614.50   24.70
  -2   3  12  667.50   29.20
  -2   3  12  656.40   30.60
   1  -3 -12  292.40   19.80
   1  -3 -12  297.00   17.60
  -1   3  12  297.00   19.40
  -1   3  12  292.90   21.90
  -1   3  12  277.80   17.00
   0  -3 -12  195.70   16.50
   0  -3 -12  227.60   17.80
   0   3  12  241.80   29.40
   0   3  12  225.10   19.30
   0   3  12  233.30   21.20
  -1  -3 -12    0.50    7.70
  -1  -3 -12    0.00    7.60
   1   3  12    0.40    9.00
   1   3  12   10.40   10.40
   1   3  12    0.10    7.20
  -2  -3 -12    6.10    7.90
  -2  -3 -12    0.00    7.00
   2   3  12   14.60   10.20
   2   3  12    0.00    7.70
   2   3  12    0.00    8.00
  -3  -3 -12  104.50   14.00
  -3  -3 -12  109.10   12.80
  -3  -3 -12  127.60   15.20
   3   3  12   84.80   13.60
   3   3  12   96.70   15.80
  -4  -3 -12   19.50    7.80
  -4  -3 -12   11.80    8.40
  -4  -3 -12   11.80    8.60
   4   3  12    8.20    9.80
   4   3  12    0.90    7.70
  -5  -3 -12  149.80   13.90
  -5  -3 -12  174.30   17.80
  -5  -3 -12  121.00   13.70
   5   3  12   90.10   15.20
   5   3  12   97.00   17.30
  -6  -3 -12    4.30    6.90
  -6  -3 -12    0.10    7.70
  -6  -3 -12    4.30    9.90
   6   3  12    0.10   10.40
   6   3  12    0.80    6.20
  -7  -3 -12   21.50   11.20
  -7  -3 -12   17.20    8.90
  -7  -3 -12   25.00    8.60
  -8  -3 -12  114.90   16.80
  -8  -3 -12   96.70   12.30
  -8  -3 -12   97.70   11.60
 -11   4  12    5.00   11.70
 -10   4  12   38.00   14.40
  -9   4  12    9.60   10.60
  -8   4  12   92.30   15.60
  -8   4  12   81.10    7.10
   7  -4 -12   85.70    9.30
  -7   4  12  111.80   16.80
  -7   4  12   87.30    8.00
   6  -4 -12  109.20    9.80
  -6   4  12  155.90    9.90
  -6   4  12  110.80   23.90
   5  -4 -12   80.40   11.10
  -5   4  12   72.30   13.70
  -5   4  12   71.30    8.60
   4  -4 -12   13.80    7.10
  -4   4  12   33.30   10.90
  -4   4  12   29.90    6.30
   3  -4 -12    0.00    6.70
  -3   4  12    2.40   10.00
  -3   4  12    4.60    6.10
   2  -4 -12   60.00   11.20
  -2   4  12   70.10   17.30
  -2   4  12   82.20   12.00
  -2   4  12   80.40   15.00
   1  -4 -12   41.80    9.80
   1  -4 -12   35.20   10.80
  -1   4  12   21.70    9.20
  -1   4  12   46.10   12.80
  -1   4  12   44.70   11.40
   0  -4 -12  294.30   19.80
   0  -4 -12  277.00   17.80
   0   4  12  279.70   21.60
   0   4  12  250.20   17.90
   0   4  12  258.70   19.70
  -1  -4 -12    3.30    8.10
  -1  -4 -12    0.50    7.30
   1   4  12    0.50    7.80
   1   4  12   23.60   10.00
   1   4  12   10.70    8.50
  -2  -4 -12   49.40   11.20
  -2  -4 -12   65.70   11.40
   2   4  12   57.80   12.70
   2   4  12   45.70   11.20
  -3  -4 -12  306.60   19.70
  -3  -4 -12  342.70   21.10
   3   4  12  339.00   23.40
   3   4  12  373.00   26.40
  -4  -4 -12   59.10   13.90
  -4  -4 -12   41.90   11.00
   4   4  12   30.80   14.00
   4   4  12   21.00   12.30
  -5  -4 -12   52.60    9.60
  -5  -4 -12   41.80   11.80
  -5  -4 -12   56.40   10.00
   5   4  12    0.60   10.90
   5   4  12    7.80   10.00
  -6  -4 -12   10.60   11.40
  -6  -4 -12   10.00    8.20
  -6  -4 -12    1.10    7.70
   6   4  12    0.20    6.60
  -7  -4 -12    5.50    7.90
  -7  -4 -12    8.50   10.80
  -7  -4 -12   10.20    8.20
  -8  -4 -12    8.40   10.80
  -8  -4 -12   21.10    8.90
  -8  -4 -12    8.40    8.20
 -11   5  12    1.00   11.60
 -10   5  12   18.80   13.60
  -9   5  12    0.00   12.10
  -9   5  12    8.90    4.50
  -8   5  12   28.40    5.80
  -8   5  12   39.00   13.80
   7  -5 -12   39.10    9.00
  -7   5  12   40.70    6.90
  -7   5  12   32.10   12.60
   6  -5 -12   68.80   11.80
  -6   5  12   95.80   10.40
  -6   5  12   94.30   16.20
   5  -5 -12  192.20   15.60
  -5   5  12  207.80   13.10
   4  -5 -12  249.00   16.80
  -4   5  12  221.60   14.90
  -4   5  12  214.10   19.70
   3  -5 -12   88.00   10.40
  -3   5  12   73.10   13.30
  -3   5  12   70.90    9.90
   2  -5 -12   45.60    9.40
  -2   5  12   32.00   11.80
  -2   5  12   48.30   10.20
   1  -5 -12  119.50   13.50
  -1   5  12  123.50   14.40
  -1   5  12  119.20   16.30
  -1   5  12  120.90   16.20
   0  -5 -12    0.60    6.80
   0   5  12    0.60    7.30
   0   5  12    2.70    9.70
   0   5  12    0.20    8.60
  -1  -5 -12    0.10    8.10
   1   5  12    0.10    8.30
   1   5  12    5.50    9.00
  -2  -5 -12  129.30   15.70
   2   5  12   83.10   15.60
   2   5  12  104.00   16.20
  -3  -5 -12  243.10   21.30
  -3  -5 -12  246.80   22.50
   3   5  12  258.50   22.90
   3   5  12  260.60   23.70
  -4  -5 -12   15.30   10.00
  -4  -5 -12   13.50   10.60
   4   5  12   17.50   11.20
   4   5  12   16.30   11.00
  -5  -5 -12    0.30   10.20
   5   5  12    0.50    7.60
   5   5  12    0.50    9.30
  -6  -5 -12    5.40    9.10
   6   5  12    0.10    8.40
  -7  -5 -12    7.30   11.70
 -10   6  12    1.50   11.70
  -9   6  12    4.40   11.50
  -8   6  12   85.50   15.50
  -8   6  12   54.50    7.60
  -7   6  12  126.70   11.20
  -7   6  12  117.40   16.80
   6  -6 -12    1.40    7.70
  -6   6  12   14.50   12.20
  -6   6  12   14.30    6.70
   5  -6 -12  135.30   14.90
  -5   6  12   93.60   14.40
  -5   6  12  130.90   12.10
   4  -6 -12  121.40   14.00
  -4   6  12  129.10   19.80
  -4   6  12  124.30   12.60
   3  -6 -12    0.00    7.50
  -3   6  12    1.60    6.60
  -3   6  12    0.10    9.60
   2  -6 -12  100.50   13.10
  -2   6  12   98.40   16.30
  -2   6  12   97.40   12.90
   1  -6 -12  268.90   19.00
  -1   6  12  238.90   18.10
  -1   6  12  262.00   21.00
   0  -6 -12  428.70   23.00
   0   6  12  386.60   25.80
   0   6  12  382.70   26.10
  -1  -6 -12   53.10   12.10
   1   6  12   52.80   12.30
   1   6  12   58.90   13.00
  -2  -6 -12   25.40   10.60
   2   6  12   28.70   10.70
   2   6  12    5.40   10.00
  -3  -6 -12   34.70   12.00
   3   6  12   47.60   13.70
   3   6  12   43.60   14.60
  -4  -6 -12   18.30   10.10
   4   6  12    7.10   11.20
   4   6  12   21.20   11.50
  -5  -6 -12    6.70   10.00
   5   6  12    0.70    8.20
  -6  -6 -12    0.10    9.90
   6   6  12    0.10    8.20
  -7  -6 -12   40.90   15.20
  -9   7  12    0.40   10.40
  -9   7  12   10.60    6.30
   8  -7 -12   79.10   12.40
  -8   7  12  122.20   11.30
  -8   7  12  142.60   18.10
  -7   7  12  186.30   20.90
  -7   7  12  187.80   14.30
   6  -7 -12    0.00    9.00
  -6   7  12   22.00   11.70
  -6   7  12   17.00    7.70
   5  -7 -12    0.50    8.70
  -5   7  12    1.70   10.20
  -5   7  12    7.50    7.00
   4  -7 -12   19.20   10.00
  -4   7  12    7.60    7.50
  -4   7  12   18.90   11.10
   3  -7 -12  305.00   20.30
  -3   7  12  288.70   18.50
  -3   7  12  277.90   22.10
   2  -7 -12    8.50    8.70
  -2   7  12   16.70    8.70
  -2   7  12   10.20   11.50
   1  -7 -12  195.10   17.60
   0  -7 -12  316.10   22.10
   0   7  12  283.80   22.90
  -1  -7 -12    9.30   10.20
   1   7  12    8.30    9.10
   1   7  12    0.50   10.50
  -2  -7 -12    0.30    7.80
   2   7  12    0.30    9.30
   2   7  12    0.10   10.30
  -3  -7 -12   25.50   11.10
   3   7  12    8.40   10.80
   3   7  12   36.00   12.80
  -4  -7 -12   45.20   14.80
   4   7  12   66.20   18.00
   4   7  12   40.60   14.60
  -5  -7 -12    6.70    9.70
  -6  -7 -12   24.20   13.00
  -9   8  12    3.70   11.80
  -9   8  12    7.50    6.40
   8  -8 -12    0.30    8.50
  -8   8  12   54.60   15.00
  -8   8  12   19.60    7.60
   7  -8 -12    1.10    9.00
  -7   8  12   16.90    7.30
  -7   8  12   20.00   13.00
   6  -8 -12    0.10    8.70
  -6   8  12    9.90    7.40
  -6   8  12   11.80   11.40
   5  -8 -12   23.30   12.00
  -5   8  12   25.10   12.60
  -5   8  12   10.80    8.20
   4  -8 -12  184.70   18.10
  -4   8  12  173.70   19.10
  -4   8  12  198.80   15.80
   3  -8 -12  653.70   31.90
  -3   8  12  624.00   33.70
   2  -8 -12  177.30   17.80
  -2   8  12  159.40   18.00
   1  -8 -12    1.30    9.50
  -1   8  12    7.00   10.90
   0  -8 -12    0.10    9.00
   0   8  12    0.10   10.70
  -1  -8 -12  148.20   17.70
   1   8  12  122.10   18.10
   1   8  12  125.80   17.90
  -2  -8 -12   19.80   10.40
   2   8  12   20.20   12.30
   2   8  12   35.90   12.50
  -3  -8 -12   35.30   11.40
   3   8  12   12.70   12.50
   3   8  12   44.20   14.30
  -4  -8 -12   24.70   11.20
   4   8  12   13.60   12.10
   4   8  12    0.20   11.10
  -5  -8 -12    0.30    9.70
   5   8  12    0.30   10.90
  -8   9  12   19.60   13.90
  -8   9  12    0.10    6.70
   7  -9 -12    0.20    8.70
  -7   9  12   19.00   13.30
  -7   9  12   12.40    7.80
   6  -9 -12    0.60    8.90
  -6   9  12    7.80    7.80
  -6   9  12   10.30   12.10
   5  -9 -12    1.90   10.60
  -5   9  12    1.10   10.40
   4  -9 -12   23.80   12.20
  -4   9  12   48.20   13.60
   3  -9 -12   41.90   11.40
  -3   9  12   14.10   11.80
   2  -9 -12    0.80    8.90
  -2   9  12   11.20   12.70
  -1   9  12    9.00   11.50
   0  -9 -12    9.10    9.90
   0   9  12    0.10    9.70
  -1  -9 -12  170.40   17.90
   1   9  12  171.00   20.10
  -2  -9 -12   20.10   10.20
   2   9  12   24.50   12.10
   2   9  12   10.10   10.70
  -3  -9 -12   34.50   12.00
   3   9  12    0.10   10.60
   3   9  12    9.40   12.10
  -4  -9 -12   30.70   12.80
   4   9  12   14.70   12.00
   4   9  12    1.20   11.90
   7 -10 -12   75.40   17.30
  -7  10  12  161.30   19.80
   6 -10 -12   77.80   16.30
  -6  10  12   93.60   18.00
   5 -10 -12   32.10   13.60
  -5  10  12   66.50   15.30
   4 -10 -12    5.10   10.00
  -4  10  12    7.90   11.20
  -3  10  12   11.30   13.50
   2 -10 -12    0.10   10.20
  -2  10  12    0.10   10.40
   1 -10 -12    0.40   10.20
  -1  10  12    0.40   12.10
   0 -10 -12   13.30   11.30
   0  10  12   21.30   12.90
  -1 -10 -12  145.50   18.00
   1  10  12  130.50   18.30
  -2 -10 -12    0.10   11.60
   2  10  12   14.30   12.80
   2  10  12    0.10   12.80
  -3 -10 -12   16.20   12.10
   3  10  12    5.30   11.70
   3  10  12    5.70   12.70
   5 -11 -12    6.70   11.70
  -5  11  12    0.00   10.20
   4 -11 -12    0.50   10.00
  -4  11  12   20.90   13.30
   3 -11 -12   26.60   13.80
  -3  11  12   17.70   14.30
   2 -11 -12   47.10   12.50
  -2  11  12   35.60   13.40
   1 -11 -12   44.20   14.30
  -1  11  12   44.50   14.80
   0 -11 -12    3.00   12.40
   0  11  12    8.90   13.90
  -1 -11 -12  100.90   17.80
   1  11  12   94.80   18.30
   4  15 -13   17.00   12.50
  -4 -15  13    0.10   11.70
   3  15 -13  107.60   19.30
  -3 -15  13  167.50   20.20
   2  15 -13    2.00   13.90
  -2 -15  13    0.20    9.60
   1  15 -13   52.10   16.90
  -1 -15  13   46.50   13.50
   0  15 -13    8.00   13.70
   0 -15  13   10.70   10.30
  -1  15 -13   17.70   16.00
   1 -15  13    1.10    9.50
  -2  15 -13   12.10   16.10
   2 -15  13   19.40    7.80
   2 -15  13   12.90    9.80
   5  14 -13    3.00   11.40
  -5 -14  13    6.80   13.30
   4  14 -13   28.10   15.00
  -4 -14  13    5.70   12.60
   3  14 -13  206.10   25.40
  -3 -14  13  225.30   21.90
   2  14 -13   12.80   13.30
  -2 -14  13    0.10   10.00
   1  14 -13   11.10   15.10
  -1 -14  13   15.40   11.80
   0  14 -13   30.40   15.90
   0 -14  13   33.60   12.00
  -1  14 -13   18.70   16.10
   1 -14  13   10.90    9.50
   1 -14  13   35.80    8.60
  -2  14 -13    6.30   14.20
   2 -14  13    5.10    8.80
   2 -14  13   22.90    8.40
  -3  14 -13    8.40   16.40
   3 -14  13   34.00    8.70
   3 -14  13   12.60    9.20
  -4  14 -13   99.40   23.00
   4 -14  13  118.80   18.50
   4 -14  13  103.30   11.30
   7  13 -13    1.00   11.30
   7  13 -13   31.00   12.60
  -7 -13  13  103.20   19.20
   6  13 -13    0.90    8.50
   6  13 -13    0.90    8.90
  -6 -13  13    0.40   12.90
   5  13 -13   11.70   12.50
   5  13 -13    0.40    8.30
  -5 -13  13   22.80   13.90
   4  13 -13    0.00   11.10
   4  13 -13    0.00    9.00
  -4 -13  13    2.50   10.10
   3  13 -13  110.70   20.80
  -3 -13  13  153.40   18.60
   2  13 -13    6.20   12.10
  -2 -13  13    0.50    9.70
   1  13 -13    1.80   11.20
  -1 -13  13    6.50   10.10
   0  13 -13  141.00   21.20
   0 -13  13  156.90   16.80
  -1  13 -13   76.10   19.00
   1 -13  13   88.20   11.40
   1 -13  13   90.20   13.40
  -2  13 -13  285.10   29.20
   2 -13  13  272.80   19.40
   2 -13  13  276.80   17.70
  -3  13 -13    0.00   15.20
   3 -13  13    0.00    6.70
   3 -13  13    9.30    5.50
  -4  13 -13   18.40   18.30
   4 -13  13   28.20    7.40
   4 -13  13   11.00    7.10
  -5  13 -13   25.80   16.00
   5 -13  13   18.50    5.20
  -7 -12  13   13.40   13.70
   6  12 -13    2.80   12.70
   6  12 -13    0.40    7.60
  -6 -12  13   20.80   13.50
   5  12 -13   32.50   21.20
  -5 -12  13   47.70   15.10
   4  12 -13   55.80   11.80
  -4 -12  13   50.90   13.00
   3  12 -13    2.40    8.20
   3  12 -13   18.00   16.00
  -3 -12  13   17.50   11.50
   2  12 -13  220.00   24.70
  -2 -12  13  194.70   19.60
   1  12 -13   57.10   16.50
  -1 -12  13   81.40   13.90
   0  12 -13  100.90   18.40
   0 -12  13  127.10   14.30
  -1  12 -13   87.80   19.50
   1 -12  13   70.10   13.30
  -2  12 -13  312.00   31.20
   2 -12  13  256.90   19.00
   2 -12  13  305.40   17.60
  -3  12 -13    0.10   12.30
   3 -12  13   11.00    7.30
  -4  12 -13   44.80   16.20
   4 -12  13   50.70    6.80
   4 -12  13   31.90    7.30
  -5  12 -13  289.30   31.10
  -6  12 -13   40.10   16.40
  -8 -11  13    6.40   11.30
   7  11 -13    3.00    6.60
  -7 -11  13   69.00   15.00
   6  11 -13    4.20   10.30
   6  11 -13    0.00    6.60
  -6 -11  13   21.10   13.10
   5  11 -13    9.80    8.50
   5  11 -13   23.00   13.10
  -5 -11  13   41.40   13.00
   4  11 -13  127.70   14.60
   4  11 -13  132.20   20.10
   3  11 -13   29.30    9.50
   3  11 -13   11.10   13.70
  -3 -11  13   20.40   11.50
   2  11 -13  280.40   19.20
   2  11 -13  290.10   31.70
  -2 -11  13  285.30   22.00
   1  11 -13   72.20   13.60
   1  11 -13   95.40   19.50
  -1 -11  13   83.90   14.50
   0  11 -13    1.40   13.00
   0 -11  13    1.00    8.90
  -1  11 -13    9.10   12.80
   1 -11  13    5.70    7.90
  -2  11 -13    0.50   14.20
   2 -11  13   25.40    8.20
  -3  11 -13   93.30   19.60
   3 -11  13   96.50   11.40
   3 -11  13  120.30   10.80
  -4  11 -13   55.20   18.20
   4 -11  13   31.50    6.80
  -5  11 -13  242.30   26.60
  -6  11 -13  102.70   22.50
  -7  11 -13   43.90   17.60
   9  10 -13   46.10    5.00
  -9 -10  13   61.30   15.20
  -8 -10  13   95.50   19.30
  -7 -10  13    8.40   12.30
   6  10 -13    0.60    5.80
   6  10 -13    0.60    8.40
  -6 -10  13    0.20   11.40
   5  10 -13    2.30    7.20
   5  10 -13    0.90   11.20
  -5 -10  13   10.80   11.50
   4  10 -13  240.50   25.00
   4  10 -13  191.30   17.20
  -4 -10  13  238.80   22.40
   3  10 -13  119.90   12.60
   3  10 -13   99.40   17.50
  -3 -10  13  113.30   14.80
   2  10 -13  522.40   25.80
   2  10 -13  539.00   33.80
  -2 -10  13  533.50   28.30
   1  10 -13   25.00    8.30
   1  10 -13   21.20   13.50
  -1 -10  13   28.10    9.60
   0  10 -13  106.90   12.80
   0 -10  13  134.10   13.80
  -1  10 -13   74.30   17.20
   1 -10  13  105.90   13.10
  -2  10 -13  247.00   24.30
   2 -10  13  256.00   16.10
  -3  10 -13  796.00   40.70
   3 -10  13  828.10   28.60
  -4  10 -13    4.40   12.90
   4 -10  13    3.60    5.30
  -5  10 -13    5.50   14.20
  -6  10 -13    6.70   16.30
  -7  10 -13    5.10   14.20
  -9  -9  13   35.90   17.00
   8   9 -13  207.00    9.80
  -8  -9  13  180.90   21.30
  -7  -9  13    0.60   10.60
   6   9 -13    0.10   10.00
  -6  -9  13    0.10   10.10
   5   9 -13  110.90   17.80
   5   9 -13   69.20   10.20
  -5  -9  13   96.90   15.30
   4   9 -13  181.50   14.60
   4   9 -13  151.60   18.60
  -4  -9  13  164.80   18.20
   3   9 -13    0.00   10.90
   3   9 -13   11.40    7.00
  -3  -9  13    8.00   10.00
   2   9 -13   16.60    7.70
   2   9 -13   21.70   12.20
  -2  -9  13    0.10    8.90
   1   9 -13   71.00   12.80
   1   9 -13   78.10   18.60
  -1  -9  13   70.00   14.10
   0   9 -13   37.60   11.40
   0   9 -13   30.70   14.00
   0  -9  13   49.00   11.30
  -1   9 -13    0.60   15.00
   1  -9  13    0.50    7.50
  -2   9 -13  205.10   22.10
  -3   9 -13  485.50   32.90
   3  -9  13  467.00   20.00
  -4   9 -13    0.10   10.50
   4  -9  13    2.50    4.80
  -5   9 -13   42.60   15.80
  -6   9 -13   46.60   16.00
  -7   9 -13   19.80   17.50
  -8   9 -13   81.50   19.80
 -10  -8  13  156.60   21.60
  -9  -8  13    2.40   12.60
  -8  -8  13   88.70   18.10
   7   8 -13   34.20    5.50
  -7  -8  13   59.70   14.30
   6   8 -13    0.20    9.40
   6   8 -13    0.20    4.50
  -6  -8  13    0.20    9.20
   5   8 -13  253.50   16.50
   5   8 -13  275.70   24.90
  -5  -8  13  308.70   23.20
   4   8 -13  114.50   10.90
   4   8 -13   83.10   16.20
  -4  -8  13   94.80   14.00
   3   8 -13   27.20    7.90
   3   8 -13   23.00   12.00
  -3  -8  13   26.20   10.80
   2   8 -13  223.90   17.50
   2   8 -13  188.40   22.10
  -2  -8  13  211.80   19.90
   1   8 -13  523.00   24.10
   1   8 -13  576.50   30.20
  -1  -8  13  518.20   24.40
   0   8 -13   83.10   12.10
   0   8 -13  103.50   17.70
   0  -8  13  102.70   12.40
  -1   8 -13  603.00   32.80
   1  -8  13  586.90   25.40
  -2   8 -13   22.00   12.40
   2  -8  13   19.80    7.60
  -3   8 -13    6.90   12.80
   3  -8  13   14.90    7.40
  -4   8 -13   75.70   18.10
   4  -8  13   83.40    8.20
  -5   8 -13   28.60   16.20
  -6   8 -13   66.10   18.80
  -7   8 -13    0.00   11.70
  -7   8 -13    0.00   13.70
  -8   8 -13   47.30   14.70
  -8   8 -13   56.30   18.40
 -10  -7  13  189.80   23.10
  -9  -7  13   24.40   15.10
  -8  -7  13   62.80   17.30
  -7  -7  13    6.60   11.70
   6   7 -13   28.90    5.60
  -6  -7  13   49.60   13.80
   5   7 -13   21.80    9.80
   5   7 -13   38.70   12.80
  -5  -7  13   30.80   12.20
   4   7 -13   20.10    5.60
   4   7 -13    0.60   10.60
  -4  -7  13    0.60    8.30
   3   7 -13  233.90   13.90
   3   7 -13  189.30   18.10
  -3  -7  13  227.90   17.80
   2   7 -13  145.80   13.50
   2   7 -13  151.80   18.40
  -2  -7  13  175.70   16.80
   1   7 -13  146.30   18.40
   1   7 -13  157.70   14.40
  -1  -7  13  169.90   15.70
   0   7 -13   62.90   16.40
   0  -7  13   44.10   11.00
  -1   7 -13  649.30   35.20
   1  -7  13  699.30   28.50
  -2   7 -13    0.80   10.10
   2  -7  13    0.80    6.50
  -3   7 -13  187.70   23.00
   3  -7  13  213.50   13.00
  -4   7 -13   62.30   16.10
   4  -7  13   79.10    9.30
  -5   7 -13  108.50   17.70
  -6   7 -13    0.00   12.20
  -6   7 -13    0.00   11.70
  -7   7 -13   10.00   14.60
  -7   7 -13    0.00   11.60
  -8   7 -13   14.60   14.50
  -8   7 -13   12.70   14.60
 -11  -6  13    1.10   10.80
 -10  -6  13   91.70   16.90
  -9  -6  13  137.10   19.00
  -8  -6  13    4.10   10.90
  -7  -6  13   25.30   12.40
   6   6 -13   72.70    6.30
   6   6 -13   49.10    6.20
  -6  -6  13   57.40   15.30
   5   6 -13    6.00    4.90
   5   6 -13   12.50    6.00
   5   6 -13   18.10   11.90
  -5  -6  13   25.00   12.10
   4   6 -13  412.80   25.10
   4   6 -13  423.30   16.50
   4   6 -13  411.10   17.30
  -4  -6  13  431.50   24.30
   3   6 -13  882.10   41.70
   3   6 -13  781.10   31.90
  -3  -6  13  788.60   37.20
   2   6 -13   16.80   10.40
   2   6 -13    0.80    6.50
  -2  -6  13    0.80    8.30
   1   6 -13    3.30   11.20
  -1  -6  13   36.00    9.00
   0   6 -13   88.40   16.30
   0  -6  13  123.70   14.20
  -1   6 -13   67.70   15.80
   1  -6  13   92.00   12.20
  -2   6 -13  461.30   29.80
   2  -6  13  455.00   21.80
  -3   6 -13   34.50   12.90
  -3   6 -13   27.90   13.30
   3  -6  13   33.00    8.20
  -4   6 -13  183.90   24.40
  -4   6 -13  154.80   17.70
   4  -6  13  116.60   10.60
  -5   6 -13   16.00   12.10
  -5   6 -13    0.20   10.00
  -6   6 -13    0.30    9.00
  -6   6 -13    0.30   11.20
  -7   6 -13   78.00   17.50
  -7   6 -13   60.00   16.90
  -8   6 -13    1.50   13.30
  -8   6 -13   32.00   13.70
 -11  -5  13    1.40   11.90
 -10  -5  13   47.00   15.40
  -9  -5  13  105.90   17.60
  -8  -5  13   31.80   13.90
  -7  -5  13    3.90   11.60
  -6  -5  13    0.50   11.00
   5   5 -13  206.80   12.50
   5   5 -13  229.90   21.40
   5   5 -13  232.50   11.50
  -5  -5  13  219.50   20.20
   4   5 -13  342.60   17.40
   4   5 -13  345.70   27.30
   4   5 -13  327.10   20.30
  -4  -5  13  344.50   25.60
   3   5 -13  613.40   25.40
   3   5 -13  571.50   24.10
   3   5 -13  574.30   33.20
  -3  -5  13  586.40   29.80
   2   5 -13    0.20    9.40
   2   5 -13    0.20    6.00
  -2  -5  13    0.20    8.60
   1   5 -13  808.50   33.50
   1   5 -13  835.40   40.90
  -1  -5  13  800.70   36.00
   0   5 -13   40.10   11.00
   0   5 -13   37.10   13.70
   0  -5  13   30.40   10.20
  -1   5 -13  375.70   28.00
  -1   5 -13  365.90   24.30
   1  -5  13  354.10   21.70
  -2   5 -13  186.00   18.20
  -2   5 -13  188.60   16.40
   2  -5  13  166.10   12.60
  -3   5 -13   10.50   12.20
  -3   5 -13    2.10    8.50
   3  -5  13    1.10    6.10
  -4   5 -13  146.40   16.00
  -4   5 -13  158.60   17.70
   4  -5  13  105.80    9.40
  -5   5 -13   41.90   14.40
  -6   5 -13   17.10   14.00
  -6   5 -13   13.10   11.40
  -7   5 -13   83.60   16.20
  -7   5 -13   79.40   16.50
  -8   5 -13    6.20   13.60
  -8   5 -13    2.80   12.30
  -9   5 -13   66.00   17.10
 -11  -4  13   41.30   15.10
 -10  -4  13    0.20   10.30
  -9  -4  13   61.40   14.60
  -8  -4  13  102.30   16.90
  -7  -4  13   67.00   18.70
  -6  -4  13  335.40   25.00
   5   4 -13  630.90   20.60
   5   4 -13  655.70   19.40
  -5  -4  13  646.20   30.40
   4   4 -13   45.20   13.30
   4   4 -13   30.20    6.30
   4   4 -13   42.20    7.40
  -4  -4  13   30.70   11.10
   3   4 -13    5.70    6.60
   3   4 -13    7.10   11.20
  -3  -4  13    5.50    9.60
   2   4 -13  501.10   30.20
  -2  -4  13  474.60   27.60
   1   4 -13    7.90    9.60
   1   4 -13   15.60    7.20
  -1  -4  13    0.50    7.70
   0   4 -13  520.70   25.60
   0   4 -13  554.90   31.40
   0  -4  13  563.10   26.10
  -1   4 -13 1142.10   39.70
  -1   4 -13 1183.40   44.20
   1  -4  13 1171.30   37.80
  -2   4 -13  202.20   20.30
  -2   4 -13  182.60   16.10
   2  -4  13  165.00   13.70
  -3   4 -13    5.20    9.50
  -3   4 -13    3.30   10.20
   3  -4  13    0.10    5.90
  -4   4 -13    0.40    8.60
  -4   4 -13    0.40   10.00
   4  -4  13    0.40    4.40
  -5   4 -13    0.00    9.60
  -5   4 -13   11.00   11.90
   5  -4  13    0.00    2.70
  -6   4 -13    0.50   13.50
  -6   4 -13    1.90    9.90
  -7   4 -13   52.60   15.70
  -7   4 -13   50.90   13.80
  -8   4 -13   33.50   15.30
  -8   4 -13   30.70   14.90
  -9   4 -13   90.60   18.20
  -9   4 -13   51.20   16.90
 -11  -3  13   87.70   18.20
 -10  -3  13   52.60   15.40
  -9  -3  13   68.30   17.50
  -8  -3  13   47.50   13.80
  -6  -3  13  316.80   21.80
   5   3 -13  262.00   10.10
   5   3 -13  292.50   11.50
  -5  -3  13  253.10   20.00
   4   3 -13   99.80   14.50
   4   3 -13   84.30    7.70
  -4  -3  13   81.20   13.30
   3   3 -13  380.00   23.30
   3   3 -13  346.10   21.40
   3   3 -13  378.20   16.40
  -3  -3  13  377.80   21.90
   2   3 -13  676.00   25.20
   2   3 -13  691.40   31.80
   2   3 -13  682.70   33.50
  -2  -3  13  642.90   28.30
   1   3 -13   11.50    7.50
   1   3 -13   16.80   10.90
   1   3 -13    0.00    6.30
  -1  -3  13   16.00    8.60
   0   3 -13  474.20   25.20
   0   3 -13  521.10   31.20
   0   3 -13  529.00   26.10
   0  -3  13  520.40   25.90
  -1   3 -13  138.60   12.60
  -1   3 -13  146.10   14.10
  -1   3 -13  128.10   15.20
   1  -3  13  148.90   13.00
  -2   3 -13    1.70   10.50
  -2   3 -13   20.70    9.40
  -2   3 -13   25.80    6.70
   2  -3  13   14.40   11.50
  -3   3 -13  130.80   17.30
  -3   3 -13   83.90   11.10
  -3   3 -13   83.70   16.00
   3  -3  13  111.40   13.40
  -4   3 -13    9.20   10.70
  -4   3 -13    2.40    9.80
  -4   3 -13   11.60    5.40
   4  -3  13    2.40    5.40
  -5   3 -13   19.80   13.10
  -5   3 -13    2.30    9.70
  -6   3 -13    0.70   11.40
  -6   3 -13   17.20   12.40
  -7   3 -13   11.20   12.10
  -7   3 -13    4.80   12.40
  -8   3 -13  224.40   24.20
  -8   3 -13  187.40   21.70
  -9   3 -13   63.00   15.50
  -9   3 -13   84.90   16.00
 -11  -2  13   60.30   16.70
 -10  -2  13  121.90   20.20
  -9  -2  13  102.90   18.30
  -8  -2  13    0.00    9.80
  -6  -2  13   69.00   12.80
   5   2 -13    3.20    3.90
   5   2 -13    0.80    3.20
  -5  -2  13    4.80    9.60
   4   2 -13  444.80   17.60
   4   2 -13  419.50   25.00
  -4  -2  13  448.40   25.70
   3   2 -13  322.90   19.40
   3   2 -13  294.80   18.40
   3   2 -13  348.10   13.60
  -3  -2  13  336.30   18.80
   2   2 -13  130.30    9.70
   2   2 -13  122.50   13.20
   2   2 -13  103.60   10.50
  -2  -2  13  144.60   13.50
   1   2 -13  998.50   36.90
   1   2 -13 1011.40   39.70
   1   2 -13 1042.00   43.10
  -1  -2  13 1006.10   39.80
   0   2 -13  115.90   13.00
   0   2 -13  138.40   16.70
   0   2 -13  135.80   14.10
   0  -2  13  155.80   15.30
  -1   2 -13  137.60   18.70
  -1   2 -13  100.40   13.40
  -1   2 -13  128.70   15.90
   1  -2  13  111.40   14.50
  -2   2 -13  172.40   14.30
  -2   2 -13  181.30   18.90
  -2   2 -13  185.70   17.60
   2  -2  13  177.60   15.30
  -3   2 -13  209.90   13.00
  -3   2 -13  181.90   16.00
  -3   2 -13  208.10   19.20
   3  -2  13  211.80   14.90
  -4   2 -13   94.90   16.10
  -4   2 -13   77.00    9.40
  -4   2 -13   77.70   13.60
   4  -2  13   59.30   10.60
  -5   2 -13    0.10    4.90
  -5   2 -13    0.10    8.00
  -5   2 -13    8.20   11.70
  -6   2 -13   41.70   12.80
  -6   2 -13   39.70   12.40
  -6   2 -13   53.70    8.00
  -7   2 -13   37.30   19.20
  -7   2 -13   44.70   13.50
  -8   2 -13  253.10   23.00
  -8   2 -13  227.40   22.30
  -9   2 -13    1.10   10.90
 -11  -1  13   53.70   16.20
 -10  -1  13   99.30   16.40
  -9  -1  13   22.00   13.30
  -8  -1  13    7.30   10.20
  -7  -1  13   95.70   17.80
  -6  -1  13    0.30    9.00
   5   1 -13  237.30   10.40
  -5  -1  13  248.90   19.10
   4   1 -13  649.40   24.60
  -4  -1  13  684.80   34.10
   3   1 -13  486.00   21.20
   3   1 -13  473.70   26.70
  -3  -1  13  488.80   27.00
   2   1 -13  246.40   16.70
   2   1 -13  251.70   20.00
  -2  -1  13  227.30   16.80
   1   1 -13  405.10   23.40
   1   1 -13  366.30   21.40
   1   1 -13  347.90   18.40
  -1  -1  13  397.90   22.10
   0   1 -13    2.80    6.70
   0   1 -13    3.10    7.70
   0   1 -13    0.70    9.00
   0  -1  13    2.80    7.90
   0  -1  13    2.50   11.20
  -1   1 -13   17.70    8.80
  -1   1 -13   14.60    8.00
  -1   1 -13   16.50    9.60
   1  -1  13   17.60    8.50
   1  -1  13   26.00   13.40
  -2   1 -13  454.10   25.20
  -2   1 -13  440.90   20.80
  -2   1 -13  413.70   23.10
   2  -1  13  420.90   21.50
  -3   1 -13  159.10   13.50
  -3   1 -13  174.00   18.80
  -3   1 -13  143.20   15.90
   3  -1  13  182.90   15.70
  -4   1 -13   49.10    9.40
  -4   1 -13   45.10   13.10
  -4   1 -13   62.10   14.60
   4  -1  13   34.90   12.60
  -5   1 -13    7.10    5.50
  -5   1 -13    0.00    8.90
  -5   1 -13    4.40    9.60
  -6   1 -13   80.80    8.60
  -6   1 -13   94.40   15.10
  -6   1 -13   78.70   14.70
   6  -1  13   64.00    7.80
  -7   1 -13   16.50   11.10
  -7   1 -13    9.40    4.90
  -7   1 -13    0.10   10.30
  -8   1 -13   75.80   16.10
  -8   1 -13   94.40    6.50
 -11   0  13   27.60   13.00
 -10   0  13   38.90   14.20
  -9   0  13   44.20   14.50
  -8   0  13   12.70   13.00
  -7   0  13    4.50   11.70
  -6   0  13    2.40   10.30
   5   0 -13  362.80   17.10
  -5   0  13  459.20   28.30
   4   0 -13  509.30   19.80
  -4   0  13  473.80   26.90
   3   0 -13   31.80    7.40
   3   0 -13   18.70    9.30
  -3   0  13   22.00   10.30
   2   0 -13  208.40   17.30
   2   0 -13  199.30   12.90
  -2   0  13  233.70   17.40
   1   0 -13  103.10   13.10
   1   0 -13  126.80   12.10
   1   0 -13   82.00   12.80
  -1   0  13   94.90   13.20
   0   0 -13  307.20   19.20
   0   0 -13  293.80   20.20
   0   0 -13  312.90   18.20
   0   0  13  300.60   19.10
   0   0  13  354.30   26.90
  -1   0 -13  101.00   12.00
  -1   0 -13  137.10   12.90
  -1   0 -13  113.80   13.90
   1   0  13  119.40   12.70
   1   0  13  105.10   14.80
  -2   0 -13  403.90   22.70
  -2   0 -13  387.10   23.30
  -2   0 -13  396.20   20.40
   2   0  13  426.20   32.50
   2   0  13  438.70   22.20
  -3   0 -13   38.80    8.40
  -3   0 -13   45.40   11.90
  -3   0 -13   31.00   10.00
   3   0  13   28.70    8.80
  -4   0 -13    0.10    8.70
  -4   0 -13    0.10    9.30
  -4   0 -13    7.80    6.70
   4   0  13    0.10    6.50
  -5   0 -13    8.30    9.20
  -5   0 -13   13.50   10.30
  -5   0 -13    0.20    5.80
  -6   0 -13  170.60   19.60
  -6   0 -13  219.80   20.80
  -6   0 -13  189.70   13.00
  -7   0 -13   23.20   11.90
  -7   0 -13   20.90    6.10
  -7   0 -13   18.80   11.10
  -8   0 -13    1.20   12.50
  -8   0 -13    0.00    9.70
 -11   1  13    2.40   10.50
 -10   1  13   16.60   12.40
  -9   1  13  160.10   20.60
  -8   1  13   97.70   16.20
  -7   1  13  219.40   20.30
   6  -1 -13   43.30    5.90
  -6   1  13   51.50   12.90
   5  -1 -13  360.10   17.40
  -5   1  13  361.70   25.00
   4  -1 -13  109.90   10.50
  -4   1  13   92.50   15.70
   3  -1 -13    0.50    5.50
   3  -1 -13    0.50   14.50
  -3   1  13   10.80   10.20
   2  -1 -13   82.80   14.00
   2  -1 -13   85.40   11.10
  -2   1  13   95.40   15.30
   1  -1 -13   23.20    7.60
   1  -1 -13    6.60    7.60
  -1   1  13   16.50    8.90
   0  -1 -13  423.80   23.20
   0  -1 -13  400.90   25.30
   0  -1 -13  417.30   24.40
   0   1  13  385.20   23.50
   0   1  13  455.60   33.90
  -1  -1 -13  133.20   19.20
  -1  -1 -13  113.50   16.20
  -1  -1 -13  125.00   16.10
   1   1  13  126.80   21.00
   1   1  13  133.30   17.30
  -2  -1 -13  193.50   16.90
  -2  -1 -13  184.70   15.10
  -2  -1 -13  184.20   16.30
   2   1  13  164.70   19.20
   2   1  13  199.50   16.40
  -3  -1 -13   26.90    9.20
  -3  -1 -13   53.80   12.40
  -3  -1 -13   15.00   10.50
   3   1  13   45.60   16.70
   3   1  13   33.10   10.80
  -4  -1 -13    0.50    8.40
  -4  -1 -13    0.50    6.30
  -4  -1 -13    0.50    7.60
   4   1  13    0.50    8.10
  -5  -1 -13   16.60   10.10
  -5  -1 -13   14.60    7.20
  -5  -1 -13   18.40   10.20
  -6  -1 -13  127.40   18.20
  -6  -1 -13  104.10   12.60
  -6  -1 -13  116.30   16.30
  -7  -1 -13  120.10   17.50
  -7  -1 -13  112.20   10.20
  -7  -1 -13  127.90   15.90
  -8  -1 -13    9.10    9.80
  -8  -1 -13    8.20    5.80
  -8  -1 -13   18.20   13.00
 -11   2  13   29.20   14.40
 -10   2  13   23.30   12.70
  -9   2  13   58.80   15.30
  -8   2  13   83.60   16.90
  -7   2  13  369.90   26.20
   6  -2 -13  233.50   12.20
   5  -2 -13   97.40    9.40
  -5   2  13   79.30   13.10
   4  -2 -13  790.20   28.80
  -4   2  13  740.60   35.00
   3  -2 -13   63.90    8.80
  -3   2  13   54.90   12.00
   2  -2 -13   84.70   13.20
   2  -2 -13   89.10   10.70
  -2   2  13   74.60   12.70
   1  -2 -13   41.70    9.70
   1  -2 -13   43.90   11.20
  -1   2  13   38.30   12.10
   0  -2 -13  320.90   19.80
   0  -2 -13  336.80   18.50
   0   2  13  269.70   18.50
  -1  -2 -13   13.20    7.80
  -1  -2 -13    3.70    7.40
  -1  -2 -13    3.90    7.80
   1   2  13    1.10    8.30
   1   2  13    9.30    9.30
  -2  -2 -13  208.40   16.00
  -2  -2 -13  225.90   17.10
  -2  -2 -13  234.50   18.90
   2   2  13  220.00   21.20
   2   2  13  221.20   18.30
  -3  -2 -13    9.50    8.80
  -3  -2 -13    6.10    8.70
  -3  -2 -13    3.50    7.80
   3   2  13    2.80   10.90
   3   2  13    0.00    8.30
  -4  -2 -13  149.20   18.50
  -4  -2 -13  182.00   15.00
  -4  -2 -13  172.50   16.30
   4   2  13  171.30   23.40
   4   2  13  115.50   15.60
  -5  -2 -13   15.50    7.10
  -5  -2 -13   22.20   10.20
  -5  -2 -13   26.00    9.60
   5   2  13    0.20    7.50
  -6  -2 -13    4.10   10.60
  -6  -2 -13   10.10    9.30
  -6  -2 -13   15.60    7.70
  -7  -2 -13  425.90   25.10
  -7  -2 -13  468.80   29.10
  -7  -2 -13  373.70   20.90
  -8  -2 -13    2.50    9.30
  -8  -2 -13    0.60    6.10
  -8  -2 -13   15.60   13.30
 -11   3  13   95.10   18.40
 -10   3  13   12.80   11.90
  -9   3  13    0.90   10.90
  -8   3  13    0.00   10.10
  -7   3  13   33.00   13.30
   6  -3 -13   11.10    6.00
  -6   3  13   12.70   10.10
   5  -3 -13   29.70    8.50
  -5   3  13   49.50   12.70
  -4   3  13  641.70   25.30
  -4   3  13  682.00   31.90
   3  -3 -13   26.70    7.80
  -3   3  13   30.70   11.10
  -3   3  13   18.40    8.00
   2  -3 -13  199.00   15.90
  -2   3  13  198.00   19.30
  -2   3  13  197.60   16.80
   1  -3 -13   15.00    7.70
  -1   3  13    6.40   10.10
  -1   3  13   24.90    9.10
   0  -3 -13  195.40   16.60
   0  -3 -13  225.20   17.20
   0   3  13  212.10   16.20
   0   3  13  208.30   19.10
  -1  -3 -13   53.60   11.40
  -1  -3 -13   63.60   11.60
   1   3  13   59.50   12.00
  -2  -3 -13   67.20   11.50
  -2  -3 -13   77.70   12.00
   2   3  13   64.10   12.80
   2   3  13   66.80   15.40
  -3  -3 -13  170.10   15.10
  -3  -3 -13  196.80   17.30
  -3  -3 -13  189.40   16.40
   3   3  13  214.10   19.60
   3   3  13  220.00   21.60
  -4  -3 -13   14.80    8.30
  -4  -3 -13   12.80   10.20
  -4  -3 -13    7.10    8.90
   4   3  13   22.10   11.80
   4   3  13    0.00    8.60
  -5  -3 -13  101.40   15.10
  -5  -3 -13  102.70   13.50
  -5  -3 -13   85.00   11.70
   5   3  13   50.40   12.70
   5   3  13  110.50   19.00
  -6  -3 -13   20.10   11.50
  -6  -3 -13   24.20    9.10
  -6  -3 -13   30.00   10.20
  -7  -3 -13  314.10   20.80
  -7  -3 -13  348.20   24.80
  -7  -3 -13  296.00   18.20
 -10   4  13    0.10   10.00
  -9   4  13   26.90   14.40
  -8   4  13   69.90   16.50
   7  -4 -13    0.80    4.30
  -7   4  13    0.80    4.30
  -7   4  13   21.20   11.30
  -6   4  13  432.40   20.00
  -6   4  13  427.20   29.80
   5  -4 -13   65.00   14.00
  -5   4  13   86.30   11.00
  -5   4  13   75.80   16.00
   4  -4 -13   87.20   11.10
  -4   4  13   97.20   10.80
  -4   4  13   83.10   13.60
   3  -4 -13   14.00    7.60
  -3   4  13    8.60    9.80
  -3   4  13   27.60    8.60
   2  -4 -13   48.00    9.30
  -2   4  13   51.70    9.70
  -2   4  13   36.70   10.80
   1  -4 -13   32.40    8.90
  -1   4  13   31.40   11.60
  -1   4  13   21.40    9.30
   0  -4 -13  142.80   15.20
   0   4  13  152.10   17.80
   0   4  13  148.10   16.00
  -1  -4 -13   88.20   13.30
   1   4  13   95.70   15.40
  -2  -4 -13   22.10   10.70
   2   4  13   23.30   11.60
   2   4  13   14.50   12.60
  -3  -4 -13  219.20   19.50
  -3  -4 -13  190.80   18.30
   3   4  13  212.10   22.50
   3   4  13  204.10   21.50
  -4  -4 -13   65.60   11.40
  -4  -4 -13   36.90   12.30
   4   4  13   32.50   13.80
   4   4  13   47.60   14.00
  -5  -4 -13  394.10   23.00
  -5  -4 -13  414.80   27.20
   5   4  13  242.90   25.90
   5   4  13  270.10   25.10
  -6  -4 -13   18.50   12.20
  -6  -4 -13   15.30    9.10
  -6  -4 -13   19.60    9.00
  -7  -4 -13   34.00   12.10
  -7  -4 -13    6.60    8.40
  -7  -4 -13   17.90    9.00
 -10   5  13   30.40   13.20
  -9   5  13    7.40   11.50
  -8   5  13   15.10    5.30
  -8   5  13   22.80   12.10
   7  -5 -13    0.10    5.40
  -7   5  13    2.70   11.80
  -7   5  13    5.10    5.70
  -6   5  13  473.90   21.90
  -6   5  13  396.20   28.10
   5  -5 -13    0.20    7.40
  -5   5  13    3.60   10.70
  -5   5  13   15.00    6.90
   4  -5 -13    0.40    7.70
  -4   5  13    8.60    6.90
  -4   5  13    0.40   10.40
   3  -5 -13   52.40   11.00
  -3   5  13   42.80    9.40
   2  -5 -13    3.10    7.80
  -2   5  13    9.60    8.10
  -2   5  13    2.20    9.40
   1  -5 -13  208.50   16.90
  -1   5  13  177.00   16.30
  -1   5  13  174.70   19.10
   0  -5 -13    8.50    8.30
   0   5  13    0.40    9.60
  -1  -5 -13  371.80   23.30
   1   5  13  361.40   25.70
  -2  -5 -13   14.90   12.40
   2   5  13    8.20   10.50
  -3  -5 -13   40.50   11.40
   3   5  13   62.00   15.30
   3   5  13   81.60   16.00
  -4  -5 -13   59.00   12.10
   4   5  13   53.20   13.60
   4   5  13   62.50   13.90
   5   5  13  240.20   23.00
   5   5  13  146.00   20.40
  -6  -5 -13    7.40   10.40
  -9   6  13   28.10   11.70
  -8   6  13   79.10   15.30
  -8   6  13   78.70    8.80
   7  -6 -13    0.00    6.70
  -7   6  13   22.30    6.70
  -7   6  13   31.40   12.10
   6  -6 -13   56.10   12.10
  -6   6  13  104.90   17.00
  -6   6  13   97.50   10.50
   5  -6 -13   93.20   13.10
  -5   6  13   90.70   16.10
  -5   6  13   84.80   10.70
   4  -6 -13    0.20    8.70
  -4   6  13   23.60   12.80
  -4   6  13    1.80    7.60
   3  -6 -13   24.20    8.60
  -3   6  13    0.30    7.50
  -3   6  13   10.30   11.80
   2  -6 -13    2.40    7.50
  -2   6  13    0.30    7.70
  -2   6  13    0.30    9.30
   1  -6 -13  175.30   15.90
   0  -6 -13   12.70   10.10
   0   6  13    0.00   11.30
  -1  -6 -13  348.80   23.20
   1   6  13  404.30   27.30
  -2  -6 -13   13.50   10.30
   2   6  13    0.80   10.30
  -3  -6 -13   38.00   12.80
   3   6  13   38.10   14.50
   3   6  13   30.70   14.10
  -4  -6 -13   30.80   12.90
   4   6  13    9.00   11.30
   4   6  13    5.70   12.90
  -5  -6 -13    2.40    9.70
   5   6  13    0.00    9.20
  -6  -6 -13  109.60   16.80
   6   6  13   25.30   16.10
  -9   7  13    1.00   11.00
  -8   7  13  119.70   11.20
  -8   7  13  142.10   18.50
   7  -7 -13    0.50    7.10
  -7   7  13   37.40   12.30
  -7   7  13   11.70    6.80
   6  -7 -13    0.10    8.60
  -6   7  13    0.10   11.70
  -6   7  13    4.50    7.10
   5  -7 -13  252.90   21.20
  -5   7  13  231.50   22.20
  -5   7  13  223.40   16.80
   4  -7 -13    0.30    9.40
  -4   7  13    5.00    7.50
  -4   7  13   23.20   13.40
   3  -7 -13   10.20    9.20
  -3   7  13    0.00    6.80
  -3   7  13    0.00   10.10
   2  -7 -13   32.40    9.80
  -2   7  13   25.50   12.50
   1  -7 -13  127.90   16.10
  -1   7  13  147.60   18.50
   0  -7 -13   18.10   10.20
   0   7  13   30.60   12.70
  -1  -7 -13  115.90   16.00
   1   7  13  123.80   17.60
  -2  -7 -13   30.70   11.80
   2   7  13    0.10   10.40
  -3  -7 -13  174.80   20.00
   3   7  13  164.30   22.00
  -4  -7 -13    8.30   10.60
   4   7  13    0.00   10.90
   4   7  13    1.50   12.20
  -5  -7 -13   41.50   12.30
   5   7  13   41.50   13.50
  -8   8  13   31.00   13.80
  -8   8  13   22.70    8.30
   7  -8 -13    0.90    9.40
  -7   8  13   55.60   13.70
   6  -8 -13    0.00   10.20
  -6   8  13    1.60    7.30
  -6   8  13    0.00   12.00
   5  -8 -13   90.70   16.40
  -5   8  13  121.60   19.50
  -5   8  13   83.90   12.70
   4  -8 -13    0.10   10.00
  -4   8  13   11.00   11.40
   3  -8 -13   47.40   12.10
  -3   8  13   44.50   13.40
   2  -8 -13   10.60    9.90
  -2   8  13   22.50   11.80
   1  -8 -13  155.80   19.90
  -1   8  13  194.30   21.90
   0  -8 -13   26.20   10.70
   0   8  13   11.00   10.90
  -1  -8 -13    0.00    9.30
   1   8  13   17.90   11.60
  -2  -8 -13   23.60   12.30
   2   8  13   37.30   14.40
  -3  -8 -13   16.10   11.10
   3   8  13   18.40   10.50
  -4  -8 -13   34.80   12.20
   4   8  13    1.70   12.50
   4   8  13    1.70   12.60
   6  -9 -13    5.40   12.00
  -6   9  13    2.50   11.00
   5  -9 -13   96.30   16.20
  -5   9  13   83.10   15.90
   4  -9 -13    6.00   11.00
  -4   9  13    0.70   11.10
   3  -9 -13    4.70   10.60
  -3   9  13   19.80   11.80
   2  -9 -13   70.10   13.20
  -2   9  13   61.30   14.70
   1  -9 -13  135.30   16.00
  -1   9  13  139.20   18.60
   0  -9 -13   42.20   12.70
   0   9  13   31.90   14.30
  -1  -9 -13  190.20   20.30
   1   9  13  169.00   21.20
  -2  -9 -13   41.80   13.60
   2   9  13   32.50   15.20
  -3  -9 -13   71.90   14.50
   3   9  13   54.30   14.40
   5 -10 -13    0.00    9.90
  -5  10  13    0.00   12.50
   4 -10 -13   21.90   11.50
  -4  10  13    0.00   10.30
   3 -10 -13   16.30   10.90
  -3  10  13   27.80   13.80
   2 -10 -13   22.00   11.00
  -2  10  13   20.40   13.30
   1 -10 -13   13.10   11.20
  -1  10  13    0.30   12.00
   0 -10 -13  257.40   24.10
   0  10  13  177.20   23.30
  -1 -10 -13   78.10   15.40
   1  10  13   86.20   17.20
   4  14 -14  207.80   27.30
  -4 -14  14  275.10   26.80
   3  14 -14  139.20   22.30
  -3 -14  14  146.40   20.10
   2  14 -14    0.00   10.20
  -2 -14  14    0.00   10.10
   1  14 -14  303.30   30.80
  -1 -14  14  287.80   27.50
   0  14 -14   44.50   16.90
   0 -14  14   53.10   13.80
  -1  14 -14   62.50   18.40
   1 -14  14   89.60   13.50
   1 -14  14   55.70   10.30
  -2  14 -14    4.90   14.20
   2 -14  14   10.60    7.90
   2 -14  14    4.90    8.20
   5  13 -14    0.80    9.30
   5  13 -14   29.70   13.20
  -5 -13  14   49.50   14.40
   4  13 -14   66.70   18.70
  -4 -13  14   61.70   14.60
   3  13 -14    1.60   12.70
  -3 -13  14    2.20   11.60
   2  13 -14   12.00   14.20
   1  13 -14  350.50   30.60
  -1 -13  14  359.80   26.30
   0  13 -14   18.10   13.80
   0 -13  14   18.50   10.60
  -1  13 -14  173.40   23.00
   1 -13  14  185.00   17.60
  -2  13 -14   29.10   15.20
   2 -13  14   41.80    8.40
   2 -13  14   25.20    9.40
  -3  13 -14   89.90   20.40
   3 -13  14   91.20    9.60
   3 -13  14  108.60   11.40
  -4  13 -14   38.40   19.10
   4 -13  14   55.80    9.00
   4 -13  14   60.40    9.10
   7  12 -14    8.60   11.10
  -7 -12  14    3.20   13.60
   6  12 -14   15.10   12.10
  -6 -12  14    0.30   12.90
   5  12 -14   61.30   17.80
   5  12 -14   75.70   13.80
  -5 -12  14   87.90   16.80
   4  12 -14   15.50   13.00
   4  12 -14   11.90    8.60
  -4 -12  14    2.90   10.70
   3  12 -14  469.40   34.10
   3  12 -14  391.90   25.00
  -3 -12  14  457.60   29.10
   2  12 -14   28.50   13.70
  -2 -12  14   17.10   11.00
   1  12 -14   39.00   16.60
  -1 -12  14   33.20   12.00
   0  12 -14   11.90   12.80
   0 -12  14   10.20    8.90
  -1  12 -14   47.50   16.00
   1 -12  14   66.50   11.70
  -2  12 -14    0.20   13.20
   2 -12  14    0.20    8.00
  -3  12 -14   20.10   15.40
   3 -12  14   26.00    8.10
  -4  12 -14  121.30   21.40
   4 -12  14  137.60   11.00
  -5  12 -14   11.10   16.50
  -7 -11  14    2.70   12.30
   6  11 -14    0.00    8.70
  -6 -11  14    0.00   13.00
   5  11 -14   13.00   10.90
   5  11 -14    0.10    7.90
  -5 -11  14    3.90   12.80
   4  11 -14    0.60   11.10
   4  11 -14    0.60   10.70
  -4 -11  14    0.60   11.50
   3  11 -14  853.30   43.60
   3  11 -14  787.20   34.40
  -3 -11  14  802.30   37.00
   2  11 -14    7.00    7.80
   2  11 -14    0.10   11.70
  -2 -11  14    0.10    9.40
   1  11 -14    6.50   13.30
  -1 -11  14   10.90   10.50
   0  11 -14   38.70   15.20
   0 -11  14   58.00   12.30
  -1  11 -14   21.80   15.00
   1 -11  14   27.30   10.10
  -2  11 -14  124.70   21.20
   2 -11  14  133.30   13.50
  -3  11 -14   43.70   15.90
   3 -11  14   50.90   10.20
  -4  11 -14   16.70   15.80
   4 -11  14   33.90    7.60
   4 -11  14   65.50    7.90
  -5  11 -14   18.20   17.00
  -6  11 -14   12.50   15.70
  -8 -10  14    0.20   12.90
  -7 -10  14  161.30   23.40
   6  10 -14   38.30   14.30
  -6 -10  14   64.00   15.40
   5  10 -14  417.40   29.50
   5  10 -14  342.40   19.60
   4  10 -14   66.50   15.80
   4  10 -14   34.00    8.40
   3  10 -14  523.80   26.70
   3  10 -14  613.30   35.50
  -3 -10  14  563.30   31.30
   2  10 -14   33.50   12.70
   2  10 -14   65.70    9.50
  -2 -10  14   56.20   11.60
   1  10 -14    0.70   12.80
   1  10 -14    8.70    8.10
  -1 -10  14    4.70    9.30
   0  10 -14   18.80   14.70
   0 -10  14   22.10    9.60
  -1  10 -14    9.20   12.80
   1 -10  14    0.00    8.00
  -2  10 -14  323.10   29.00
   2 -10  14  318.60   19.80
  -3  10 -14    8.20   12.50
   3 -10  14    0.60    5.70
  -4  10 -14   77.20   17.20
   4 -10  14   93.50    8.20
  -5  10 -14   14.30   16.50
  -6  10 -14   54.40   16.10
  -9  -9  14   31.70   16.90
  -8  -9  14   12.90   11.70
   7   9 -14  165.30   11.80
  -7  -9  14  288.90   25.80
   6   9 -14   24.80   12.50
  -6  -9  14   18.80   11.50
   5   9 -14  597.90   29.60
   5   9 -14  702.30   41.30
  -5  -9  14  730.50   38.00
   4   9 -14    6.90    7.50
   4   9 -14    1.20   12.20
  -4  -9  14    2.20   10.20
   3   9 -14   31.50   16.80
   3   9 -14   45.40   10.90
  -3  -9  14   29.10   12.30
   2   9 -14  174.70   22.00
   2   9 -14  200.00   19.20
  -2  -9  14  217.90   18.40
   1   9 -14   16.50   13.90
   1   9 -14   30.60    9.70
  -1  -9  14   18.90   10.40
   0   9 -14   31.50   14.90
   0   9 -14   21.10    9.70
   0  -9  14   25.30    9.90
  -1   9 -14   14.90   13.00
   1  -9  14   19.40    9.50
  -2   9 -14  205.80   22.40
   2  -9  14  218.70   15.50
  -3   9 -14   42.90   15.30
   3  -9  14   59.50    9.00
  -4   9 -14  142.80   21.10
   4  -9  14  162.80   10.50
  -5   9 -14   19.70   14.50
  -6   9 -14  232.70   27.40
  -7   9 -14   17.40   15.10
  -7   9 -14   92.10   19.20
  -9  -8  14  183.90   22.30
  -8  -8  14   22.20   13.60
   7   8 -14   38.80    4.90
   7   8 -14   47.80    4.90
  -7  -8  14   45.20   15.20
   6   8 -14    0.60    9.60
   6   8 -14    0.60    4.50
  -6  -8  14    0.60    9.20
   5   8 -14  611.10   25.80
   4   8 -14  146.70   13.70
   4   8 -14  114.50   22.80
  -4  -8  14   88.50   16.00
   3   8 -14   18.30   14.40
   3   8 -14    6.70    6.50
  -3  -8  14   12.40   10.70
   2   8 -14  383.10   22.50
   2   8 -14  407.80   35.80
  -2  -8  14  395.20   25.70
   1   8 -14   35.70    9.80
  -1  -8  14   61.50   11.80
   0   8 -14  119.10   14.20
   0   8 -14  113.40   18.20
   0  -8  14  123.40   13.80
  -1   8 -14  117.40   18.60
   1  -8  14  119.20   12.40
  -2   8 -14  221.40   22.10
   2  -8  14  216.90   14.70
  -3   8 -14   83.10   17.60
   3  -8  14   94.40   10.50
  -4   8 -14    0.40   10.90
   4  -8  14   16.70    5.70
  -5   8 -14   96.30   19.40
  -6   8 -14   18.20   13.40
  -6   8 -14   35.90   17.20
  -7   8 -14   46.90   16.00
  -7   8 -14   65.70   17.10
 -10  -7  14    0.50   11.80
  -9  -7  14  329.50   28.60
  -8  -7  14    6.20   13.40
  -7  -7  14   22.30   12.80
   6   7 -14  160.00   10.00
  -6  -7  14  179.00   21.30
   5   7 -14   11.40    5.50
   5   7 -14   17.40   12.00
   5   7 -14    1.00    5.50
  -5  -7  14   13.20   10.30
   4   7 -14  387.90   29.80
   4   7 -14  444.60   22.40
  -4  -7  14  454.20   28.30
   3   7 -14   82.50   10.90
   3   7 -14   50.40   15.20
  -3  -7  14   52.80   12.80
   2   7 -14  214.70   15.10
   2   7 -14  196.80   20.40
  -2  -7  14  217.60   18.40
   1   7 -14    8.30    7.20
   1   7 -14    4.20   12.30
  -1  -7  14   26.70    9.70
   0   7 -14   47.00   16.00
   0  -7  14   38.30    9.30
  -1   7 -14  154.00   22.80
   1  -7  14  159.30   14.40
  -2   7 -14   18.70   12.60
   2  -7  14   15.40    9.10
  -3   7 -14  291.00   25.10
   3  -7  14  315.80   16.50
  -4   7 -14  137.80   17.80
  -4   7 -14  127.70   19.90
   4  -7  14  114.20   10.40
  -5   7 -14   82.50   15.40
  -5   7 -14   89.60   16.70
  -6   7 -14  102.40   17.50
  -6   7 -14   91.20   18.10
  -7   7 -14   77.70   16.20
  -7   7 -14   76.90   19.20
 -10  -6  14    0.20   13.30
  -9  -6  14  215.40   26.60
  -8  -6  14   39.10   13.20
  -7  -6  14  107.50   16.00
   6   6 -14   24.90    4.40
  -6  -6  14   44.20   13.40
   5   6 -14  219.00   22.80
   5   6 -14  188.50   13.40
   5   6 -14  205.90   12.60
  -5  -6  14  186.10   22.30
   4   6 -14  901.00   29.20
   4   6 -14  922.90   30.90
   4   6 -14  951.50   40.10
  -4  -6  14  958.70   37.40
   3   6 -14   40.80   12.70
   3   6 -14   25.40    7.60
   3   6 -14   25.70    9.20
  -3  -6  14    9.70   10.30
   2   6 -14    0.20    6.50
   2   6 -14    3.50   11.40
  -2  -6  14    0.20    9.00
   1   6 -14    7.20   10.00
   1   6 -14   16.30    7.80
  -1  -6  14   20.10    9.20
   0   6 -14   45.60   10.70
   0   6 -14   37.00   13.40
   0  -6  14   44.40   11.20
  -1   6 -14  137.10   20.30
  -1   6 -14  142.70   16.40
   1  -6  14  148.80   14.60
  -2   6 -14    0.00    8.90
  -2   6 -14    5.00   12.80
   2  -6  14    8.70    7.60
  -3   6 -14  620.90   32.40
  -3   6 -14  649.20   35.40
   3  -6  14  591.50   24.90
  -4   6 -14  375.00   24.40
  -4   6 -14  364.40   28.20
   4  -6  14  297.80   15.90
  -5   6 -14   35.60   14.20
  -5   6 -14   86.30   16.90
  -6   6 -14  311.40   27.50
  -6   6 -14  359.50   28.50
  -7   6 -14   70.60   18.40
  -7   6 -14  108.80   17.60
 -10  -5  14   11.90   13.20
  -9  -5  14   23.70   13.40
  -8  -5  14  374.00   29.60
  -7  -5  14   11.50   13.20
  -6  -5  14  133.90   18.30
   5   5 -14   56.00    5.80
  -5  -5  14   82.00   13.80
   4   5 -14  235.40   13.60
   4   5 -14  271.60   24.00
   4   5 -14  285.10   15.10
  -4  -5  14  214.80   21.80
   3   5 -14  123.50   16.10
   3   5 -14  127.20   10.60
   3   5 -14  140.10   11.60
  -3  -5  14  142.70   15.60
   2   5 -14   64.70    9.20
   2   5 -14   52.40   12.40
  -2  -5  14   72.90   12.20
   1   5 -14   67.10   12.80
   1   5 -14   82.30    9.80
  -1  -5  14   80.70   11.10
   0   5 -14  102.60   15.80
   0   5 -14  123.70   13.50
   0  -5  14  153.80   14.60
  -1   5 -14  218.10   17.90
  -1   5 -14  230.50   21.80
   1  -5  14  195.80   14.70
  -2   5 -14    2.30    9.20
  -2   5 -14   28.60   11.90
   2  -5  14    6.10    7.50
  -3   5 -14  184.90   28.50
  -3   5 -14  186.80   19.80
   3  -5  14  174.10   15.00
  -4   5 -14   76.10   21.70
  -4   5 -14   82.40   15.70
   4  -5  14   55.60    8.60
  -5   5 -14   11.90   12.40
  -5   5 -14   29.20   12.40
  -6   5 -14  237.30   23.20
  -6   5 -14  272.40   26.80
  -7   5 -14   18.30   10.80
  -7   5 -14   18.30   13.50
  -8   5 -14    4.60   14.30
  -8   5 -14   18.00   13.30
 -10  -4  14   27.70   15.80
  -9  -4  14    2.00   12.60
  -8  -4  14  212.30   21.40
  -7  -4  14   39.10   12.80
   5   4 -14   14.90    4.50
   5   4 -14   17.80    4.70
  -5  -4  14   25.40   11.00
   4   4 -14    7.30    6.10
   4   4 -14    6.00    8.00
   4   4 -14    6.10   11.90
  -4  -4  14    1.20   11.10
   3   4 -14  137.90   16.20
   3   4 -14  141.00   10.90
  -3  -4  14  169.80   16.10
   2   4 -14    5.00    6.80
   2   4 -14    1.20    9.20
  -2  -4  14    1.20    9.20
   1   4 -14  207.40   14.30
   1   4 -14  144.10   16.70
  -1  -4  14  209.50   16.90
   0   4 -14   18.20   10.40
   0   4 -14   23.10    8.60
   0  -4  14   46.60    9.60
  -1   4 -14  174.20   17.80
  -1   4 -14  175.90   21.60
   1  -4  14  189.60   15.80
  -2   4 -14  547.30   28.00
  -2   4 -14  592.80   32.30
   2  -4  14  590.10   25.90
  -3   4 -14  141.70   18.10
  -3   4 -14  184.50   18.20
   3  -4  14  175.50   13.80
  -4   4 -14   72.30   15.40
   4  -4  14   30.10    7.50
  -5   4 -14  353.30   28.90
  -5   4 -14  337.80   25.80
  -6   4 -14   33.20   12.50
  -6   4 -14   31.00   13.90
  -7   4 -14  157.00   19.30
  -7   4 -14  153.30   18.40
  -8   4 -14   90.90   19.10
  -8   4 -14   95.00   18.60
 -10  -3  14  189.30   22.30
  -9  -3  14   18.40   13.50
  -8  -3  14    5.10   11.90
  -7  -3  14   11.50   12.10
   5   3 -14   72.30    6.50
   5   3 -14   77.50    7.50
  -5  -3  14   69.40   14.20
   4   3 -14   60.70    8.30
  -4  -3  14   49.80   14.30
   3   3 -14   73.20   16.20
   3   3 -14   73.00    9.80
   3   3 -14   89.10   14.30
  -3  -3  14   88.40   15.50
   2   3 -14   69.90    9.40
   2   3 -14   83.70   12.20
   2   3 -14   89.90   14.10
  -2  -3  14   77.00   12.80
   1   3 -14   53.50   14.40
   1   3 -14   53.00   10.20
   1   3 -14   70.20   12.40
  -1  -3  14   65.20   12.80
   0   3 -14    0.40    6.80
   0   3 -14    0.20    9.50
   0   3 -14    3.60    7.90
   0  -3  14    3.50    8.40
  -1   3 -14  163.70   13.70
  -1   3 -14  215.00   19.60
  -1   3 -14  189.90   15.50
   1  -3  14  153.60   13.40
  -2   3 -14  433.70   28.00
  -2   3 -14  386.70   23.60
  -2   3 -14  395.50   20.30
   2  -3  14  376.50   20.90
  -3   3 -14   10.30   12.20
  -3   3 -14    0.80    8.70
  -3   3 -14   11.80    7.30
   3  -3  14   10.90   12.20
  -4   3 -14   50.20   14.80
  -4   3 -14   56.10    7.80
   4  -3  14   34.20    8.40
  -5   3 -14  117.90   17.60
  -5   3 -14  119.20   16.40
  -6   3 -14    1.60   10.40
  -6   3 -14   14.70   11.30
  -7   3 -14  392.30   29.70
  -7   3 -14  367.40   28.10
  -8   3 -14   50.30   15.10
  -8   3 -14   61.10   15.30
 -10  -2  14  349.30   28.60
  -9  -2  14    0.00   11.00
  -8  -2  14  100.70   16.10
  -7  -2  14   28.40   12.40
  -6  -2  14    0.60   16.60
   5   2 -14  306.10   12.90
  -5  -2  14  333.30   24.30
   4   2 -14   11.90    5.70
  -4  -2  14    7.70   11.00
   3   2 -14   28.80    6.10
   3   2 -14   30.50   10.10
  -3  -2  14   24.30   10.50
   2   2 -14    2.50    6.40
   2   2 -14   13.90    8.90
   2   2 -14    0.00   10.60
  -2  -2  14    9.50    8.70
   1   2 -14    0.10    8.40
   1   2 -14    0.20   10.50
   1   2 -14    0.10    6.30
  -1  -2  14    0.10    8.40
   0   2 -14  220.50   15.70
   0   2 -14  282.30   16.50
   0   2 -14  293.30   20.30
   0  -2  14  262.70   17.30
  -1   2 -14   98.60   16.20
  -1   2 -14   79.90   11.50
  -1   2 -14   75.10   12.00
   1  -2  14   71.00   11.50
  -2   2 -14  124.50   15.10
  -2   2 -14  136.00   17.20
  -2   2 -14  138.80   13.10
   2  -2  14  173.20   14.80
  -3   2 -14  604.10   24.30
  -3   2 -14  599.80   30.00
  -3   2 -14  632.00   29.10
   3  -2  14  609.20   26.00
  -4   2 -14   62.60    8.70
  -4   2 -14   49.10   13.30
   4  -2  14   33.90   10.20
  -5   2 -14   89.20    9.30
  -5   2 -14  109.60   15.40
  -6   2 -14   54.40    7.10
  -6   2 -14   73.70   14.80
  -6   2 -14   47.50   13.80
   6  -2  14   42.40    6.50
  -7   2 -14  272.80   26.40
  -7   2 -14  332.90   26.60
  -8   2 -14    0.00   12.00
  -8   2 -14    0.00   13.40
 -10  -1  14   68.10   17.60
  -9  -1  14   42.70   14.40
  -8  -1  14   46.10   14.60
  -7  -1  14    3.10   12.50
  -6  -1  14  160.60   18.70
   5   1 -14  174.10   10.80
  -5  -1  14  202.90   21.50
   4   1 -14  251.50   12.90
  -4  -1  14  276.30   21.80
   3   1 -14   53.00    6.90
  -3  -1  14   56.30   10.70
   2   1 -14   57.80   14.30
   2   1 -14   56.90    9.40
   2   1 -14   49.60   11.00
  -2  -1  14   49.70   12.50
   1   1 -14   84.50   15.70
   1   1 -14   98.90   12.90
   1   1 -14   96.50   15.00
  -1  -1  14   81.00   13.70
   0   1 -14  145.60   15.60
   0   1 -14  163.70   18.30
   0   1 -14  185.40   15.60
   0  -1  14  167.10   16.60
  -1   1 -14   40.80    9.90
  -1   1 -14   46.80    9.40
  -1   1 -14   38.10   11.30
   1  -1  14   51.30   10.20
  -2   1 -14  100.40   12.50
  -2   1 -14   72.60   15.30
  -2   1 -14   74.90   12.70
   2  -1  14   96.50   13.30
  -3   1 -14  750.20   35.20
  -3   1 -14  753.10   33.20
  -3   1 -14  727.60   28.90
   3  -1  14  732.10   31.20
  -4   1 -14  139.00   16.90
  -4   1 -14  113.60   16.10
  -4   1 -14  127.80   12.10
  -5   1 -14  482.10   29.90
  -5   1 -14  475.50   22.80
  -5   1 -14  542.30   31.90
  -6   1 -14    0.00   11.80
  -6   1 -14    0.80   10.70
  -6   1 -14   13.90    5.70
   6  -1  14    4.30    4.60
  -7   1 -14   53.80   10.50
  -7   1 -14   61.50   13.80
  -7   1 -14   43.40   14.50
 -10   0  14    1.20   11.80
  -9   0  14  152.50   19.80
  -8   0  14    3.90   10.50
  -7   0  14   57.00   13.20
  -6   0  14  149.40   18.00
   5   0 -14   10.00    4.90
  -5   0  14   27.40   10.80
   4   0 -14   47.30    6.90
  -4   0  14   47.30   11.60
  -3   0  14  144.60   16.80
   2   0 -14   18.90   10.20
   2   0 -14   16.70    7.50
  -2   0  14   15.20   11.00
   1   0 -14   91.00   10.70
   1   0 -14   96.50   14.40
   1   0 -14  110.00   13.20
  -1   0  14   93.10   13.10
   0   0 -14  142.20   14.50
   0   0 -14  174.10   17.90
   0   0 -14  133.80   15.00
   0   0  14  117.30   14.20
  -1   0 -14  421.20   27.40
  -1   0 -14  442.30   24.80
  -1   0 -14  433.60   24.40
   1   0  14  455.60   25.00
  -2   0 -14  214.70   17.10
  -2   0 -14  213.80   20.00
  -2   0 -14  214.90   18.40
   2   0  14  208.50   19.10
  -3   0 -14   45.20   11.20
  -3   0 -14   45.00   11.90
  -3   0 -14   47.40   10.20
   3   0  14   39.20   11.30
  -4   0 -14   33.80    8.40
  -4   0 -14   45.90   11.70
  -4   0 -14   50.60   12.90
   4   0  14   15.80    9.10
  -5   0 -14  362.70   19.10
  -5   0 -14  408.30   26.30
  -5   0 -14  399.50   24.10
  -6   0 -14   50.20   13.30
  -6   0 -14   56.00    8.70
  -6   0 -14   57.90   13.80
  -7   0 -14   17.30    6.80
  -7   0 -14    7.40   12.10
  -7   0 -14    4.10   10.00
 -10   1  14    4.50   12.90
  -9   1  14  121.00   18.70
  -8   1  14   41.90   13.90
  -7   1  14  131.50   18.20
  -6   1  14  291.10   23.40
   5  -1 -14    6.00    5.70
   4  -1 -14  107.30   10.60
  -4   1  14  129.40   17.40
   3  -1 -14   18.50    6.40
  -3   1  14    2.40   10.50
   2  -1 -14    6.40    6.40
  -2   1  14    9.10    9.80
   1  -1 -14    0.10    6.50
   1  -1 -14    0.10    8.10
  -1   1  14    0.10    9.10
   0  -1 -14   47.80    8.80
   0  -1 -14   52.40    9.50
   0  -1 -14   54.70   10.90
   0   1  14   42.20    9.80
  -1  -1 -14  864.20   37.80
  -1  -1 -14  835.50   39.60
  -1  -1 -14  864.50   38.10
   1   1  14  865.10   38.80
  -2  -1 -14  207.90   17.80
  -2  -1 -14  194.50   19.90
  -2  -1 -14  199.70   16.60
   2   1  14  185.90   18.20
  -3  -1 -14  115.20   15.90
  -3  -1 -14  125.30   15.80
   3   1  14   88.10   14.80
  -4  -1 -14  185.20   19.00
  -4  -1 -14  179.20   15.00
  -4  -1 -14  210.30   18.40
   4   1  14  156.30   18.10
  -5  -1 -14   65.80   12.50
  -5  -1 -14   55.10    8.90
  -5  -1 -14   45.80   11.90
  -6  -1 -14  175.20   19.40
  -6  -1 -14  162.90   17.90
  -6  -1 -14  175.00   13.90
  -7  -1 -14    7.30    7.10
  -7  -1 -14   11.00   12.70
 -10   2  14    7.40   13.00
  -9   2  14   14.60   13.00
  -8   2  14   38.20   12.90
  -7   2  14   78.30   17.10
  -6   2  14  101.00   17.00
   5  -2 -14    5.80    6.70
  -5   2  14    7.20   12.20
  -4   2  14  135.80   18.50
   3  -2 -14   83.80   10.90
  -3   2  14   82.50   15.50
   2  -2 -14   82.20   11.40
  -2   2  14   68.20   14.20
   1  -2 -14  407.50   21.50
  -1   2  14  376.30   24.50
   0  -2 -14  128.00   15.00
   0   2  14  123.60   17.00
  -1  -2 -14  276.30   19.20
  -1  -2 -14  259.50   19.10
   1   2  14  280.20   20.50
  -2  -2 -14   48.30   12.70
  -2  -2 -14   47.80   11.00
  -2  -2 -14   35.70   11.80
   2   2  14   51.90   12.80
  -3  -2 -14  165.70   20.90
  -3  -2 -14  194.10   19.00
  -3  -2 -14  178.20   16.00
   3   2  14  195.20   20.70
  -4  -2 -14   18.50   10.70
  -4  -2 -14    2.80    9.70
  -4  -2 -14   13.30    8.80
   4   2  14    1.10    9.60
  -5  -2 -14    3.90    9.60
  -5  -2 -14    0.10    8.90
  -5  -2 -14    0.10    6.90
   5   2  14    0.10    6.60
  -6  -2 -14  333.90   28.40
  -6  -2 -14  355.70   26.90
  -6  -2 -14  321.60   23.30
  -7  -2 -14    0.60    9.70
  -7  -2 -14   16.50   12.90
  -7  -2 -14    0.60    7.10
 -10   3  14   43.30   14.40
  -9   3  14    0.00   13.00
  -8   3  14   43.80   13.60
  -7   3  14   37.90   14.60
   6  -3 -14    3.30    6.20
  -6   3  14   73.50   14.90
   5  -3 -14   11.70    7.70
  -5   3  14   16.10   11.90
   4  -3 -14  173.70   14.10
  -4   3  14  156.10   17.50
   3  -3 -14   52.10    9.60
  -3   3  14   55.30   12.30
   2  -3 -14   34.70    8.80
  -2   3  14   45.50   11.00
   1  -3 -14  377.30   21.40
  -1   3  14  383.20   25.30
   0  -3 -14    5.90    8.40
   0   3  14    0.70   10.00
  -1  -3 -14  142.30   15.10
   1   3  14  137.00   16.30
  -2  -3 -14  853.20   35.80
   2   3  14  857.90   37.50
  -3  -3 -14    0.10    7.60
  -3  -3 -14   15.80    9.80
   3   3  14    0.00    9.10
  -4  -3 -14  120.20   14.40
  -4  -3 -14  115.70   15.00
  -4  -3 -14  145.90   17.20
   4   3  14   86.00   16.00
  -5  -3 -14    0.00    7.90
  -5  -3 -14    0.00    7.90
  -5  -3 -14    0.50   10.40
  -6  -3 -14  169.90   16.80
  -6  -3 -14  206.40   21.80
  -6  -3 -14  201.10   16.60
  -9   4  14   43.50   14.70
  -8   4  14   18.10   14.20
  -7   4  14   45.30   13.20
   6  -4 -14    1.80    6.40
  -6   4  14   11.70   11.80
   5  -4 -14  132.00   14.70
  -5   4  14  122.80   18.60
  -5   4  14  153.30   13.30
   4  -4 -14  161.20   15.90
  -4   4  14  148.20   19.70
  -4   4  14  171.30   14.70
   3  -4 -14    3.10    7.80
  -3   4  14    0.00   10.10
  -3   4  14    0.00    7.00
   2  -4 -14    5.10    8.10
  -2   4  14   29.80   13.20
  -2   4  14    0.00    7.00
   1  -4 -14  142.80   14.20
  -1   4  14  173.10   18.60
  -1   4  14  133.60   15.00
   0  -4 -14   84.40   12.10
   0   4  14  105.80   15.30
  -1  -4 -14    0.70    7.90
   1   4  14    8.40   11.20
  -2  -4 -14  745.30   34.50
   2   4  14  695.40   35.20
  -3  -4 -14   56.60   12.40
   3   4  14   75.00   14.70
  -4  -4 -14  262.00   22.10
   4   4  14  185.70   21.40
  -5  -4 -14   18.10   12.70
  -6  -4 -14   80.10   16.40
  -9   5  14    3.20   12.30
  -8   5  14    8.20   11.60
  -7   5  14   31.20   12.10
  -7   5  14    5.20    5.60
   6  -5 -14    0.10    7.10
  -6   5  14    7.10    6.60
  -6   5  14    0.10   12.30
   5  -5 -14  178.10   17.40
  -5   5  14  186.00   20.80
  -5   5  14  198.70   15.20
   4  -5 -14   28.20   10.00
  -4   5  14   27.40    8.80
  -4   5  14   34.20   13.30
   3  -5 -14   39.30   10.30
  -3   5  14    8.40   12.00
  -3   5  14   14.30    8.20
   2  -5 -14    0.00    7.60
  -2   5  14    0.00    6.70
  -2   5  14    1.00    9.70
   1  -5 -14   14.00    8.80
  -1   5  14    9.20   11.40
   0  -5 -14  634.20   30.00
   1   5  14    5.10   10.60
  -2  -5 -14  246.10   18.80
   2   5  14  204.30   20.80
  -3  -5 -14   45.70   13.00
   3   5  14   19.90   12.20
  -4  -5 -14  142.90   18.40
   4   5  14  110.50   20.30
  -5  -5 -14   12.40   10.60
   8  -6 -14   13.50    6.90
  -8   6  14   21.90   12.80
  -8   6  14    0.00    5.40
  -7   6  14    6.90   12.00
  -7   6  14    6.50    6.90
  -6   6  14   13.10   12.60
  -6   6  14    0.00    5.90
   5  -6 -14   47.90   11.60
  -5   6  14   52.00   14.20
  -5   6  14   20.10    8.40
   4  -6 -14    8.70    8.90
  -4   6  14   12.60    8.50
  -4   6  14   20.50   13.30
   3  -6 -14   38.90   11.30
  -3   6  14   32.90   12.50
  -3   6  14   54.60   10.90
   2  -6 -14   29.70    9.90
  -2   6  14    3.90   11.30
   1  -6 -14    0.00    8.00
  -1   6  14    6.20   11.70
   0  -6 -14  535.30   29.20
   0   6  14  572.70   32.90
  -1  -6 -14   20.90   10.30
   1   6  14   10.50   11.70
  -2  -6 -14   49.20   12.50
   2   6  14   16.70   12.10
  -3  -6 -14    0.20    9.40
   3   6  14    0.20    8.90
  -4  -6 -14    3.60    9.40
   4   6  14    1.30   10.50
   7  -7 -14    0.30    7.40
  -7   7  14   32.00    8.10
  -7   7  14    8.90   11.60
   6  -7 -14    0.30    8.50
  -6   7  14    0.10   11.30
   5  -7 -14    0.10    8.60
  -5   7  14    0.10    7.10
  -5   7  14    0.70   12.90
   4  -7 -14   70.50   12.60
  -4   7  14   72.80   12.10
  -4   7  14   71.70   15.30
   3  -7 -14    1.50    9.70
  -3   7  14    0.20    9.00
   2  -7 -14   61.40   12.50
  -2   7  14   53.70   13.60
   1  -7 -14   11.20   11.80
  -1   7  14    0.00   11.20
   0  -7 -14  153.50   17.20
   0   7  14  155.80   19.50
  -1  -7 -14    2.10    9.50
   1   7  14    2.00   11.20
  -2  -7 -14  136.80   17.30
   2   7  14  134.90   19.70
  -3  -7 -14   11.80   10.30
   3   7  14   11.90   12.00
   6  -8 -14    0.00    8.50
  -6   8  14    0.00    7.70
  -6   8  14   13.60   12.80
   5  -8 -14   29.00   12.90
  -5   8  14   32.70   14.30
   4  -8 -14  101.70   16.60
  -4   8  14  154.00   20.50
   3  -8 -14   12.70   11.30
  -3   8  14    0.60   11.20
  -2   8  14  268.50   24.50
   1  -8 -14   48.10   12.70
  -1   8  14   79.20   17.10
   0  -8 -14   18.60   10.90
   0   8  14   25.60   12.60
  -1  -8 -14   86.10   16.00
   1   8  14  102.30   19.60
  -2  -8 -14    4.30   10.90
   2   8  14    0.30   12.60
   4  -9 -14   11.10   12.50
  -4   9  14    6.10   12.50
   3  -9 -14    1.70   11.10
  -3   9  14    0.00   10.00
   2  -9 -14  107.30   17.20
  -2   9  14   88.20   18.60
   1  -9 -14    2.70   10.20
  -1   9  14    0.00   10.20
   0  -9 -14   74.00   15.20
   0   9  14   71.10   16.50
   4  13 -15    0.30   11.10
  -4 -13  15   26.20   13.40
   3  13 -15    0.10   12.30
  -3 -13  15    0.10   10.70
   2  13 -15   31.90   16.90
  -2 -13  15   27.80   11.90
   1  13 -15    3.00   14.10
  -1 -13  15    4.90    9.40
   0  13 -15    0.30   13.00
   0 -13  15    0.30    8.30
  -1  13 -15    0.20   15.40
   1 -13  15   15.00    9.90
  -2  13 -15   89.80   21.40
   2 -13  15   85.70   13.00
   5  12 -15    3.90    8.50
   5  12 -15    3.90   12.70
  -5 -12  15   28.00   13.80
   4  12 -15   40.10   11.80
   4  12 -15   47.10   17.60
  -4 -12  15   64.90   15.40
   3  12 -15    2.90   11.00
  -3 -12  15    0.60    9.50
   2  12 -15   11.80   14.20
   1  12 -15    2.50   13.50
  -1 -12  15    6.70   11.30
   0  12 -15    0.00    9.90
   0 -12  15    0.00    9.60
  -1  12 -15   36.60   15.70
   1 -12  15   46.60   11.90
  -2  12 -15   41.10   16.90
   2 -12  15   58.90   10.60
  -3  12 -15   23.10   15.90
   3 -12  15   24.70    8.90
   3 -12  15   44.60    7.70
   6  11 -15    6.20   12.10
  -6 -11  15    9.90   13.10
   5  11 -15   16.30   14.80
  -5 -11  15   17.90   11.90
   4  11 -15  119.40   21.10
   4  11 -15  114.10   14.50
  -4 -11  15  108.50   17.40
   3  11 -15   14.20   14.00
   3  11 -15   10.80    9.40
  -3 -11  15    1.90   11.80
   2  11 -15  111.00   21.60
  -2 -11  15   62.60   14.20
   1  11 -15    6.60   13.10
  -1 -11  15   21.90   11.20
   0  11 -15   78.60   17.60
   0 -11  15   75.50   12.40
  -1  11 -15    7.60   12.10
   1 -11  15    2.90    8.70
  -2  11 -15    0.70   12.70
   2 -11  15    0.70    7.60
  -3  11 -15    6.30   13.90
  -4  11 -15    5.70   14.70
   4 -11  15    0.80    5.10
  -7 -10  15  188.50   22.80
   6  10 -15  121.50   19.40
  -6 -10  15  117.80   18.30
   5  10 -15    6.50   13.10
   5  10 -15    5.10    7.50
  -5 -10  15   20.70   12.70
   4  10 -15   84.70   10.70
   4  10 -15   55.20   14.30
  -4 -10  15   79.30   13.20
   3  10 -15    0.20   10.90
   3  10 -15    0.20    6.20
  -3 -10  15    0.20   10.20
   2  10 -15  169.50   15.90
   2  10 -15  158.00   21.20
  -2 -10  15  157.60   18.00
   1  10 -15   77.60   16.80
  -1 -10  15   92.00   14.00
   0  10 -15   39.30   17.20
   0 -10  15   22.60   10.40
  -1  10 -15    0.30   11.10
   1 -10  15    1.70    8.50
  -2  10 -15  130.90   21.50
   2 -10  15  127.60   13.20
  -3  10 -15  149.80   22.70
   3 -10  15  150.80   13.60
  -4  10 -15  102.90   20.80
   4 -10  15  127.20   11.00
  -5  10 -15   69.10   19.10
  -8  -9  15    6.90   15.00
   7   9 -15  129.10    8.80
  -7  -9  15  130.60   18.90
   6   9 -15   40.60   15.10
  -6  -9  15   59.80   14.80
   5   9 -15    8.10   12.40
   5   9 -15    0.00    6.10
  -5  -9  15   18.20   11.60
   4   9 -15   81.40   16.40
   4   9 -15  125.10   13.10
  -4  -9  15   93.80   16.60
   3   9 -15   14.50   14.00
   3   9 -15    6.40    7.00
  -3  -9  15    4.10   10.70
   2   9 -15   14.00   12.30
   2   9 -15   18.50    9.00
  -2  -9  15   18.30   10.20
   1   9 -15    0.00   10.70
   1   9 -15    7.50    7.50
  -1  -9  15    0.00    9.00
   0   9 -15   96.20   19.30
   0  -9  15  132.20   15.70
  -1   9 -15   37.90   17.00
   1  -9  15   53.80   11.40
  -2   9 -15   39.80   16.50
   2  -9  15   57.60   10.20
  -3   9 -15  195.20   23.50
   3  -9  15  173.20   13.50
  -4   9 -15   78.50   18.50
   4  -9  15   66.10    8.50
  -5   9 -15   37.90   16.70
  -6   9 -15   11.20   14.30
  -8  -8  15    6.90   13.10
  -7  -8  15    7.50   11.60
   6   8 -15    2.20    4.40
  -6  -8  15    9.60   12.00
   5   8 -15   17.20    6.40
   5   8 -15   33.50    6.50
   5   8 -15   41.10   14.30
  -5  -8  15   15.50   12.00
   4   8 -15   92.50   17.30
   4   8 -15  107.50   11.70
   3   8 -15    4.40   11.10
   3   8 -15   20.80    7.80
  -3  -8  15    9.10   11.00
   2   8 -15   17.50   12.60
   2   8 -15   38.10   10.50
  -2  -8  15   21.70   10.40
   1   8 -15   83.30   16.50
   1   8 -15   72.10   11.90
  -1  -8  15   74.50   13.20
   0   8 -15  542.70   34.90
   0  -8  15  612.30   29.50
  -1   8 -15  116.00   20.20
   1  -8  15  152.50   15.70
  -2   8 -15    0.00   12.40
   2  -8  15    0.00    7.00
  -3   8 -15    1.10   11.70
   3  -8  15    1.10    6.80
  -4   8 -15   84.20   19.00
  -4   8 -15  102.10   18.20
   4  -8  15   82.00    9.60
  -5   8 -15   81.50   19.70
  -5   8 -15   81.20   18.10
  -6   8 -15   22.60   14.70
  -6   8 -15   13.60   12.50
  -9  -7  15   33.40   14.90
  -8  -7  15   22.30   14.50
  -7  -7  15    1.60   12.10
   6   7 -15   68.00    6.40
  -6  -7  15   90.60   17.20
   5   7 -15    5.00   10.90
   5   7 -15   19.70    6.30
   5   7 -15   23.50    6.70
  -5  -7  15    9.50   11.30
   4   7 -15    8.60   11.40
   4   7 -15   11.50    6.40
  -4  -7  15   26.50   12.30
   3   7 -15  176.40   14.50
   3   7 -15  158.00   13.40
   3   7 -15  159.50   21.00
  -3  -7  15  167.10   19.00
   2   7 -15  174.50   15.60
   2   7 -15  159.50   21.50
   2   7 -15  172.60   16.40
  -2  -7  15  172.80   19.60
   1   7 -15  117.70   14.30
   1   7 -15   71.70   16.30
  -1  -7  15  125.70   15.80
   0   7 -15  324.20   21.10
   0   7 -15  318.00   27.30
   0  -7  15  386.00   21.40
  -1   7 -15   11.30    9.90
  -1   7 -15    2.50   12.80
   1  -7  15   11.90    8.30
  -2   7 -15   14.80   14.30
  -2   7 -15   47.00   12.80
   2  -7  15   19.70    8.50
  -3   7 -15   92.40   16.10
  -3   7 -15   74.00   18.30
   3  -7  15   92.90   11.20
  -4   7 -15  394.20   28.50
  -4   7 -15  444.10   32.60
   4  -7  15  367.10   18.30
  -5   7 -15  173.20   20.10
  -5   7 -15  147.60   20.40
  -6   7 -15   95.70   20.20
  -6   7 -15   88.10   17.20
  -9  -6  15    1.20   12.70
  -8  -6  15   28.20   13.30
  -7  -6  15    6.10   13.80
   6   6 -15   75.30    5.40
  -6  -6  15   82.40   15.80
   5   6 -15   11.80    5.80
   5   6 -15   15.20    6.70
   5   6 -15   40.10   14.40
  -5  -6  15   35.60   14.60
   4   6 -15   87.10   17.40
   4   6 -15   79.40    9.50
   4   6 -15   95.20   10.40
  -4  -6  15   97.10   15.30
   3   6 -15  201.50   14.80
   3   6 -15  211.30   15.10
   3   6 -15  212.60   23.50
  -3  -6  15  228.10   19.80
   2   6 -15  211.70   21.20
   2   6 -15  285.10   17.10
  -2  -6  15  268.40   20.20
   1   6 -15   23.30    9.00
   1   6 -15   18.90   12.60
  -1  -6  15   24.40   10.20
   0   6 -15    3.40    8.30
   0   6 -15   21.30   13.60
   0  -6  15    7.00    8.50
  -1   6 -15   59.40   12.60
  -1   6 -15   60.50   15.40
   1  -6  15   67.80   11.20
  -2   6 -15  187.00   22.30
  -2   6 -15  176.50   17.80
   2  -6  15  193.40   14.50
  -3   6 -15    6.60   11.90
  -3   6 -15    8.60   12.20
   3  -6  15    0.10    6.70
  -4   6 -15  388.20   24.90
  -4   6 -15  416.80   30.20
   4  -6  15  296.40   16.00
  -5   6 -15   45.70   13.90
  -5   6 -15   13.60   12.90
  -6   6 -15   35.90   15.60
  -6   6 -15   43.50   16.90
  -9  -5  15    1.70   13.40
  -8  -5  15   69.80   17.00
  -7  -5  15   31.00   14.10
  -6  -5  15   57.90   15.00
   5   5 -15   10.60    5.00
   5   5 -15    0.50    4.10
  -5  -5  15    1.60    9.40
   4   5 -15   55.70    8.60
   4   5 -15   40.50   13.80
   4   5 -15   67.30    9.40
  -4  -5  15   46.90   14.60
   3   5 -15  104.00   17.60
   3   5 -15  139.40   12.40
  -3  -5  15  117.60   16.70
   2   5 -15   67.40    9.60
   2   5 -15   78.10   14.90
  -2  -5  15   73.40   12.50
   1   5 -15   96.00   16.70
   1   5 -15  103.50   13.10
  -1  -5  15  115.80   15.10
   0   5 -15    0.00   10.00
   0   5 -15    0.00    8.00
   0  -5  15    1.60    7.80
  -1   5 -15  150.40   16.00
  -1   5 -15  182.20   20.70
   1  -5  15  154.90   14.30
  -2   5 -15  187.90   18.50
  -2   5 -15  150.30   19.20
   2  -5  15  182.20   15.00
  -3   5 -15   64.50   16.80
  -4   5 -15   26.70   12.60
  -4   5 -15    4.70   11.90
   4  -5  15    0.10    6.10
  -5   5 -15    3.60   10.60
  -5   5 -15    0.10   13.20
  -6   5 -15    0.00   10.20
  -6   5 -15    9.60   11.60
  -7   5 -15   19.90   13.00
  -7   5 -15    8.50   14.50
 -10  -4  15   10.60   15.50
  -9  -4  15    4.80   14.30
  -8  -4  15   77.10   15.50
  -7  -4  15   13.60   11.80
  -6  -4  15   95.20   18.10
   5   4 -15   35.00    5.00
  -5  -4  15   25.70   12.70
   4   4 -15  297.30   14.60
   4   4 -15  289.10   23.20
   4   4 -15  267.90   15.40
  -4  -4  15  295.10   22.80
   3   4 -15  102.80   16.10
   3   4 -15   66.30    9.30
  -3  -4  15   64.90   13.60
   2   4 -15   27.60    7.10
   2   4 -15   35.30   13.10
  -2  -4  15   46.70   10.80
   1   4 -15   23.80   12.30
   1   4 -15   36.10    8.90
  -1  -4  15   45.50   10.40
   0   4 -15   20.80    8.90
   0   4 -15    0.10   10.20
   0  -4  15    2.70    8.60
  -1   4 -15   75.80   16.80
  -1   4 -15   89.80   14.10
   1  -4  15   87.40   13.20
  -2   4 -15  423.40   26.60
  -2   4 -15  419.70   30.20
   2  -4  15  424.90   24.00
  -3   4 -15   63.40   16.20
  -3   4 -15   68.30   17.20
   3  -4  15   71.50   11.90
  -4   4 -15   35.30   13.70
  -4   4 -15   49.30   13.30
   4  -4  15   15.60    7.80
  -5   4 -15    0.00    9.10
  -5   4 -15    0.00   11.30
  -6   4 -15   33.00   12.90
  -6   4 -15   57.60   16.20
  -7   4 -15    8.60   13.30
  -7   4 -15   34.70   14.50
 -10  -3  15    3.30   13.90
  -9  -3  15   38.60   14.50
  -8  -3  15   36.10   12.50
  -7  -3  15   26.50   14.40
  -6  -3  15   38.90   13.70
   5   3 -15    1.20    4.00
  -5  -3  15    1.20   11.80
   4   3 -15  123.10   11.60
  -4  -3  15  138.90   19.60
   3   3 -15   20.70    7.60
   3   3 -15   16.80   11.30
  -3  -3  15   27.60   12.50
   2   3 -15  364.10   19.60
   2   3 -15  358.10   27.40
  -2  -3  15  374.10   24.50
   1   3 -15  216.30   21.50
   1   3 -15  217.20   17.80
   1   3 -15  249.70   16.70
  -1  -3  15  244.20   19.00
   0   3 -15   25.40    9.00
   0   3 -15   11.60   13.30
   0   3 -15   19.90    9.10
   0  -3  15   27.50   10.60
  -1   3 -15  132.70   18.50
  -1   3 -15  156.10   14.60
  -1   3 -15  136.60   15.10
   1  -3  15  149.90   15.00
  -2   3 -15   27.70   10.80
  -2   3 -15   17.20    7.50
  -2   3 -15   15.20   12.90
   2  -3  15   23.40    9.40
  -3   3 -15    8.60    7.30
  -3   3 -15   25.30   12.40
  -3   3 -15   22.60   12.10
   3  -3  15    9.80    8.40
  -4   3 -15    1.40   10.30
  -4   3 -15    1.60   10.80
  -5   3 -15   11.30   10.30
  -5   3 -15    1.40   12.00
  -6   3 -15   83.90   17.00
  -6   3 -15   77.10   15.60
  -7   3 -15   14.80   13.40
  -7   3 -15    0.60    8.40
 -10  -2  15   31.10   15.70
  -9  -2  15   35.40   14.20
  -8  -2  15   12.50   11.70
  -7  -2  15   24.90   13.00
  -6  -2  15    7.00   12.30
   5   2 -15   36.30    5.30
  -5  -2  15   50.90   12.30
   4   2 -15   45.30    7.70
  -4  -2  15   46.10   12.70
   3   2 -15    0.20    5.70
  -3  -2  15    0.20    8.30
   2   2 -15   42.60    9.30
   2   2 -15   27.80   12.80
  -2  -2  15   35.50   12.30
   1   2 -15  149.20   29.50
   1   2 -15  154.10   17.00
   1   2 -15  153.30   14.90
  -1  -2  15  165.50   18.10
   0   2 -15   46.20   11.00
   0   2 -15   38.10   20.00
   0   2 -15   63.50   11.20
   0  -2  15   47.20   11.40
  -1   2 -15  167.40   18.80
  -1   2 -15  205.30   24.40
  -1   2 -15  183.00   17.10
   1  -2  15  208.50   16.80
  -2   2 -15   78.70   17.00
  -2   2 -15   59.50   11.10
  -2   2 -15   69.00   14.00
   2  -2  15   47.30   11.90
  -3   2 -15  233.20   17.00
  -3   2 -15  243.70   22.40
   3  -2  15  216.40   17.90
  -4   2 -15   87.30   10.60
  -4   2 -15   67.50   14.10
  -4   2 -15   65.90   13.40
   4  -2  15   35.30   10.40
  -5   2 -15    0.70    5.70
  -5   2 -15    2.10   11.70
  -5   2 -15    3.60   11.60
  -6   2 -15  131.00   19.20
  -6   2 -15  147.10   14.70
  -6   2 -15  128.60   18.10
  -7   2 -15    8.00   12.70
  -7   2 -15    0.30   10.80
 -10  -1  15    9.80   14.90
  -9  -1  15   17.20   13.00
  -8  -1  15    0.00   11.30
  -7  -1  15   91.50   16.30
  -6  -1  15   17.40   10.40
   5   1 -15  165.50   11.70
  -5  -1  15  212.70   21.30
   4   1 -15  422.10   19.80
  -4  -1  15  449.50   28.80
   3   1 -15   47.10    7.90
  -3  -1  15   50.10   11.80
   2   1 -15   34.40    8.60
  -2  -1  15   31.70   11.80
   1   1 -15   10.00    7.80
   1   1 -15    0.00    8.40
   1   1 -15    4.80   17.00
  -1  -1  15    0.00    8.40
   0   1 -15    0.50    7.20
   0   1 -15    0.50    8.00
   0  -1  15   13.00    8.40
  -1   1 -15    8.90    9.40
  -1   1 -15   15.50    9.00
   1  -1  15   15.20    9.00
  -2   1 -15   35.40   14.20
  -2   1 -15   56.20   11.80
   2  -1  15   77.10   12.50
  -3   1 -15  197.30   22.00
  -3   1 -15  262.60   17.30
  -3   1 -15  250.40   22.50
   3  -1  15  240.70   18.60
  -4   1 -15  189.60   14.90
  -4   1 -15  202.30   21.10
  -4   1 -15  216.30   19.50
   4  -1  15  133.60   15.80
  -5   1 -15    2.70    6.50
  -5   1 -15    0.60    9.00
  -5   1 -15   19.30   12.50
  -6   1 -15   32.30    7.90
  -6   1 -15   35.00   13.30
  -6   1 -15   34.00   13.30
  -9   0  15   21.50   12.80
  -8   0  15    0.70   10.20
  -7   0  15   71.10   15.10
  -6   0  15   57.10   13.60
   5   0 -15   25.50    6.60
  -5   0  15    9.70   11.70
   4   0 -15  293.60   15.10
   3   0 -15  132.80   11.50
  -3   0  15  132.80   15.30
   2   0 -15   44.10    9.50
  -2   0  15   72.90   14.20
   1   0 -15   79.90   11.50
  -1   0  15   54.00   12.20
   0   0 -15   97.90   12.90
   0   0 -15   88.30   11.10
   0   0  15  110.00   13.20
  -1   0 -15  186.90   16.10
  -1   0 -15  217.90   16.30
   1   0  15  214.10   17.60
  -2   0 -15   22.50    9.00
  -2   0 -15   28.80   10.70
   2   0  15   16.20    9.50
  -3   0 -15   17.30   10.10
  -3   0 -15   16.20   11.80
   3   0  15   15.20    9.70
  -4   0 -15   59.10   13.50
  -4   0 -15   63.30   10.40
  -4   0 -15   92.90   15.50
   4   0  15   43.70   11.70
  -5   0 -15   39.00    8.70
  -5   0 -15   36.00   11.70
  -5   0 -15   40.50   12.30
  -6   0 -15   27.80   11.60
  -6   0 -15    7.40    7.30
  -6   0 -15   28.50   11.90
  -9   1  15   20.20   12.90
  -8   1  15   45.00   14.20
  -7   1  15  244.10   22.90
  -6   1  15   60.30   13.50
   5  -1 -15    0.30    5.20
  -5   1  15    3.60   10.10
  -4   1  15   16.60   11.30
   3  -1 -15   85.80   10.80
  -3   1  15   83.90   15.30
   2  -1 -15  233.80   16.40
  -2   1  15  227.60   19.60
   1  -1 -15   98.50   11.40
  -1   1  15   68.60   12.40
   0  -1 -15  248.50   17.10
   0   1  15  217.70   19.10
  -1  -1 -15  341.70   22.00
  -1  -1 -15  312.40   21.20
   1   1  15  346.80   22.90
  -2  -1 -15   91.80   13.30
  -2  -1 -15   93.30   13.00
   2   1  15   96.00   14.40
  -3  -1 -15    0.50    7.50
  -3  -1 -15    0.50    9.40
  -3  -1 -15   13.90    9.90
   3   1  15    0.50    8.20
  -4  -1 -15    0.60    9.30
  -4  -1 -15    0.00   10.40
  -4  -1 -15    0.00    7.20
   4   1  15    0.00    8.80
  -5  -1 -15   36.50   11.90
  -5  -1 -15   38.10   13.50
  -6  -1 -15    1.10    6.80
  -6  -1 -15    1.10    9.40
  -6  -1 -15    1.10   10.20
  -9   2  15   12.30   12.60
  -8   2  15   85.50   16.50
  -7   2  15   46.80   13.40
  -6   2  15  139.70   19.20
   5  -2 -15   31.80    7.90
  -5   2  15   51.60   13.70
   4  -2 -15    0.00    6.00
  -4   2  15    9.20   10.30
   3  -2 -15  446.10   20.60
  -3   2  15  445.10   26.30
   2  -2 -15  370.10   19.80
  -2   2  15  392.70   26.00
   1  -2 -15    0.00    7.30
  -1   2  15    0.00    9.30
   0  -2 -15    9.00    9.30
   0   2  15    1.20   10.00
  -1  -2 -15   26.10   10.40
   1   2  15    7.70   10.00
  -2  -2 -15    3.70   11.20
   2   2  15   15.80    9.50
  -3  -2 -15   22.20    9.30
  -3  -2 -15   48.00   11.60
   3   2  15   43.40   12.40
  -4  -2 -15    0.00    8.90
  -4  -2 -15    0.00    7.50
  -4  -2 -15    8.80   11.10
  -5  -2 -15   20.40   12.60
  -5  -2 -15   21.10   11.20
  -5  -2 -15   16.20    8.40
  -9   3  15   51.90   17.30
  -8   3  15   24.50   14.50
   7  -3 -15    1.20    3.90
  -7   3  15    1.20   10.40
  -6   3  15    5.80   12.10
   5  -3 -15   14.30    8.10
  -5   3  15   20.90   13.00
   4  -3 -15    0.10    7.70
  -4   3  15    1.40    9.70
   3  -3 -15  380.30   21.90
  -3   3  15  409.80   27.00
   2  -3 -15   89.10   12.50
  -2   3  15   83.90   16.20
   1  -3 -15   25.50    9.00
  -1   3  15    4.70   10.80
   0  -3 -15   12.40    8.90
   0   3  15    5.70   10.30
  -1  -3 -15  109.50   14.50
   1   3  15   89.50   15.50
  -2  -3 -15   89.90   15.30
   2   3  15  105.00   16.80
  -3  -3 -15    3.90    9.20
   3   3  15    0.10    8.30
  -4  -3 -15   73.30   14.00
   4   3  15   28.80   12.60
  -5  -3 -15   35.60   10.60
  -5  -3 -15   22.20    9.30
   5   3  15    1.00    9.60
  -8   4  15    1.10   10.30
  -7   4  15   84.30   15.70
   6  -4 -15   47.90   10.80
  -6   4  15  103.10   16.60
   5  -4 -15  214.20   17.30
  -5   4  15  235.40   22.60
   4  -4 -15   70.40   11.40
  -4   4  15   65.60   14.70
   3  -4 -15   39.60    9.80
  -3   4  15   52.80   13.40
   2  -4 -15   12.50    8.90
  -2   4  15   13.30   11.80
   1  -4 -15   86.10   13.60
  -1   4  15   79.80   15.50
   0  -4 -15    2.60    8.90
   0   4  15    0.30   10.30
  -1  -4 -15   80.20   14.10
  -2  -4 -15   96.80   15.70
   2   4  15   62.10   14.90
  -3  -4 -15    1.70    8.60
   3   4  15    0.00    8.20
  -4  -4 -15  169.80   19.50
   4   4  15  175.40   22.00
  -7   5  15   60.20   15.80
  -6   5  15    4.80   11.60
   5  -5 -15  139.90   15.10
  -5   5  15  106.80   12.10
  -5   5  15  134.80   18.20
   4  -5 -15   13.10   10.10
  -4   5  15   16.00    7.40
  -4   5  15    0.10   10.80
   3  -5 -15    0.10    7.40
  -3   5  15    0.90    8.10
  -3   5  15    0.10   11.40
   2  -5 -15   68.00   12.40
  -2   5  15   48.10   13.10
   1  -5 -15  134.60   15.90
  -1   5  15  155.40   18.60
   0   5  15   35.30   13.30
  -1  -5 -15   49.90   12.70
   1   5  15   35.30   11.80
  -2  -5 -15   55.60   12.00
   2   5  15   42.70   13.30
  -3  -5 -15    1.60   10.70
   3   5  15    0.30   10.00
   4   5  15   93.70   18.10
  -7   6  15    0.10   12.80
   6  -6 -15   12.40   10.40
  -6   6  15   96.40   16.70
  -6   6  15   45.60    9.60
   5  -6 -15    1.00    8.80
  -5   6  15    4.90   11.60
  -5   6  15    1.00    6.40
   4  -6 -15   31.70   11.20
  -4   6  15   31.00   10.10
  -4   6  15   36.40   14.90
   3  -6 -15    5.10    9.10
  -3   6  15    5.00   10.30
   2  -6 -15   62.20   13.20
  -2   6  15   68.50   15.80
  -1   6  15   21.80   13.10
   0  -6 -15   71.60   13.40
   0   6  15   66.00   14.70
  -1  -6 -15    0.90    8.90
   1   6  15    6.10   11.40
  -2  -6 -15   30.30   11.40
   2   6  15   60.20   16.10
  -3  -6 -15    0.50   11.30
   3   6  15    0.50   10.60
   5  -7 -15    0.90    9.50
  -5   7  15    0.90   12.20
  -5   7  15   18.00    8.60
   4  -7 -15  105.40   15.60
  -4   7  15  105.10   17.60
   3  -7 -15    0.00    9.60
  -3   7  15   37.90   14.70
  -2   7  15   11.70   13.30
   1  -7 -15    7.20    9.30
  -1   7  15    0.40   10.80
   0  -7 -15   19.90   10.40
   0   7  15   36.50   14.20
  -1  -7 -15   13.00   11.70
   1   7  15    0.90   11.80
   3  -8 -15    0.00   10.60
  -3   8  15    4.20   13.00
   2  -8 -15    9.40   10.20
  -2   8  15    0.20   11.80
   3  12 -16   33.30   17.10
  -3 -12  16   18.40   12.30
   2  12 -16   53.10   18.50
  -2 -12  16   65.60   14.40
   1  12 -16   57.80   18.50
  -1 -12  16   86.70   16.10
   0  12 -16  202.80   25.60
   0 -12  16  219.80   20.30
  -1  12 -16    7.20   16.60
   1 -12  16    4.70    8.70
   5  11 -16   62.10   15.10
   5  11 -16   30.20   11.10
  -5 -11  16   82.10   16.00
   4  11 -16  118.10   20.00
   4  11 -16  117.60   13.90
  -4 -11  16  119.30   17.70
   3  11 -16    0.70   11.00
   3  11 -16    0.70    9.40
  -3 -11  16    0.70    9.90
   2  11 -16  249.10   27.60
   1  11 -16  142.20   20.60
  -1 -11  16  124.30   16.20
   0  11 -16   12.20   14.20
   0 -11  16   15.20   10.40
  -1  11 -16  218.00   28.70
   1 -11  16  221.10   19.10
  -2  11 -16   18.00   15.90
   2 -11  16   24.00    9.50
  -3  11 -16   42.50   18.60
   3 -11  16   30.90    8.90
   6  10 -16  274.60   26.80
  -6 -10  16  313.30   26.30
   5  10 -16   60.10   12.00
   5  10 -16   84.70   20.30
  -5 -10  16   83.90   17.30
   4  10 -16    0.30   11.10
   4  10 -16    2.60    8.10
  -4 -10  16    0.30   11.30
   3  10 -16   57.10   10.60
   3  10 -16   53.90   16.20
  -3 -10  16   49.20   13.90
   2  10 -16  199.50   24.60
  -2 -10  16  234.60   21.50
   1  10 -16    8.10   13.10
  -1 -10  16   22.70   11.60
   0  10 -16   33.80   16.80
   0 -10  16    4.80   10.10
  -1  10 -16  336.40   30.10
   1 -10  16  296.70   21.30
  -2  10 -16   20.90   14.80
   2 -10  16   36.10    9.50
  -3  10 -16   87.60   17.80
   7   9 -16   35.80    5.00
  -7  -9  16   20.70   14.00
   6   9 -16  435.80   19.50
   6   9 -16  400.90   34.20
  -6  -9  16  444.10   31.20
   5   9 -16   50.30    8.90
   5   9 -16   56.90   15.40
   5   9 -16   37.60    8.80
  -5  -9  16   42.90   14.30
   4   9 -16   40.60   14.40
   4   9 -16   17.80    8.00
  -4  -9  16   75.60   15.40
   3   9 -16  129.70   19.70
  -3  -9  16  140.00   21.30
   2   9 -16    4.30   11.70
   2   9 -16   17.10    8.50
  -2  -9  16   15.40   11.20
   1   9 -16  455.10   33.20
  -1  -9  16  447.80   27.20
   0   9 -16   36.60   13.90
   0  -9  16   51.80   10.70
  -1   9 -16  116.90   19.60
   1  -9  16  106.20   13.30
  -2   9 -16    9.90   13.60
   2  -9  16    0.40    7.70
  -3   9 -16   76.50   19.50
  -4   9 -16    6.70   13.10
  -4   9 -16   32.30   12.80
   4  -9  16    2.00    5.80
  -7  -8  16   18.20   14.30
   6   8 -16  191.50   11.10
  -6  -8  16  187.90   22.80
   5   8 -16   12.40    6.80
   5   8 -16    0.00    5.30
   5   8 -16    0.00   10.50
  -5  -8  16    7.70   12.60
   4   8 -16   20.60    7.80
   4   8 -16   18.40    7.70
   4   8 -16   22.80   14.10
  -4  -8  16    7.50   10.80
   3   8 -16    0.10    6.90
   3   8 -16    1.80    7.10
   3   8 -16    6.80   12.20
  -3  -8  16   30.60   12.60
   2   8 -16    7.80    8.40
   2   8 -16    6.00   11.90
   2   8 -16    0.10    7.50
  -2  -8  16    4.80   10.10
   1   8 -16  929.30   45.20
   1   8 -16  872.30   36.20
   1   8 -16  801.50   36.30
  -1  -8  16  823.60   37.70
   0   8 -16   16.10   10.30
   0   8 -16    0.00   12.80
   0  -8  16    1.40    9.40
  -1   8 -16   78.10   13.80
  -1   8 -16   61.00   16.80
   1  -8  16   63.50   11.60
  -2   8 -16   94.40   18.10
  -2   8 -16  102.50   16.30
   2  -8  16   81.00   11.70
  -3   8 -16    0.00    8.70
  -3   8 -16    6.80   13.10
  -4   8 -16  138.30   19.10
  -4   8 -16  125.70   20.40
   4  -8  16  102.30   10.60
  -5   8 -16   27.90   15.00
  -5   8 -16   15.30   13.40
  -8  -7  16  244.60   25.30
  -7  -7  16    0.10   12.10
   6   7 -16    8.80    4.20
  -6  -7  16    8.00   10.70
   5   7 -16  327.60   16.20
   5   7 -16  327.00   27.70
   5   7 -16  292.30   17.70
  -5  -7  16  348.90   27.90
   4   7 -16   30.70   14.30
   4   7 -16   31.20    7.90
   4   7 -16   29.80    8.70
  -4  -7  16   23.60   13.40
   3   7 -16  285.10   17.00
   3   7 -16  294.20   17.80
   3   7 -16  309.70   25.50
  -3  -7  16  324.00   23.70
   2   7 -16    9.40    7.50
   2   7 -16   12.20   11.20
   2   7 -16    9.50    8.10
  -2  -7  16    0.20    9.70
   1   7 -16  593.50   28.50
   1   7 -16  576.10   35.30
  -1  -7  16  576.20   30.00
   0   7 -16   35.30    9.80
   0   7 -16   18.60   12.30
   0  -7  16   43.90   11.00
  -1   7 -16   28.80   15.00
  -1   7 -16   24.50   11.10
   1  -7  16   14.80    9.10
  -2   7 -16   75.00   14.30
  -2   7 -16   53.60   15.20
   2  -7  16   65.60   10.60
  -3   7 -16    1.20   11.20
  -3   7 -16    7.10   14.30
  -4   7 -16  126.60   17.00
  -4   7 -16  171.60   23.70
   4  -7  16  105.00   11.10
  -5   7 -16   27.50   12.40
  -5   7 -16    0.10   12.10
  -8  -6  16   61.60   17.50
  -7  -6  16   62.60   17.00
   6   6 -16    2.20    3.30
  -6  -6  16    6.80   11.30
   5   6 -16  307.50   21.00
   5   6 -16  278.00   13.80
  -5  -6  16  290.20   23.70
   4   6 -16   32.70   13.30
   4   6 -16   50.60    8.20
  -4  -6  16   37.40   12.50
   3   6 -16  521.50   25.20
   3   6 -16  486.80   24.40
   3   6 -16  522.70   35.20
  -3  -6  16  497.60   30.70
   2   6 -16   12.90   11.50
   2   6 -16   17.70    8.40
  -2  -6  16   19.40   11.10
   1   6 -16  178.90   16.30
   1   6 -16  151.50   20.10
  -1  -6  16  174.80   17.90
   0   6 -16  355.60   23.90
   0   6 -16  375.50   29.30
   0  -6  16  331.40   23.60
  -1   6 -16   30.80   16.50
  -1   6 -16   27.30   11.90
   1  -6  16   23.50    9.90
  -2   6 -16    1.20   11.60
   2  -6  16   15.70    8.40
  -3   6 -16   13.10   14.10
  -3   6 -16   15.10   11.50
   3  -6  16    0.30    7.40
  -4   6 -16  162.60   22.70
  -4   6 -16  125.30   18.80
  -5   6 -16  123.80   21.30
  -5   6 -16  142.10   20.30
  -8  -5  16    5.30   12.00
  -7  -5  16  475.90   31.30
  -6  -5  16    0.40   10.10
   5   5 -16   29.00    5.60
   5   5 -16    0.80    4.50
  -5  -5  16    0.80   11.30
   4   5 -16    5.80    6.20
   4   5 -16    1.20    5.30
   4   5 -16    1.20   10.50
  -4  -5  16    0.20   10.00
   3   5 -16  303.90   16.90
   3   5 -16  293.80   24.80
  -3  -5  16  299.50   23.00
   2   5 -16   54.40   10.50
   2   5 -16   52.90   14.10
  -2  -5  16   59.60   12.80
   1   5 -16   16.20   13.30
   1   5 -16   17.70    9.20
  -1  -5  16   25.70   10.10
   0   5 -16  590.50   34.90
   0   5 -16  524.60   27.30
   0  -5  16  556.00   27.50
  -1   5 -16    0.80    8.70
  -1   5 -16    0.80    9.60
   1  -5  16    0.80    8.20
  -2   5 -16   55.20   14.70
  -2   5 -16   28.50   13.60
   2  -5  16   10.00    7.90
  -3   5 -16   11.90   13.00
  -3   5 -16   13.40   10.00
   3  -5  16    4.60    7.60
  -4   5 -16  142.50   20.40
  -4   5 -16  151.40   19.30
   4  -5  16  104.40   12.00
  -5   5 -16  217.30   22.70
  -5   5 -16  187.70   24.60
  -9  -4  16   59.80   18.90
  -8  -4  16   11.00   11.50
  -7  -4  16  416.90   31.50
  -6  -4  16    4.40   12.10
   5   4 -16  259.20   12.50
   5   4 -16  268.60   13.90
  -5  -4  16  266.70   22.60
   4   4 -16  302.80   15.80
   4   4 -16  340.00   17.20
  -4  -4  16  291.50   23.10
   3   4 -16   24.10   13.10
   3   4 -16    3.60    6.80
  -3  -4  16    7.10   11.40
   2   4 -16  329.50   20.60
   2   4 -16  346.30   28.20
  -2  -4  16  345.10   24.70
   1   4 -16    2.70   11.10
   1   4 -16   16.90    9.00
  -1  -4  16   29.50   11.80
   0   4 -16   47.50   14.60
   0   4 -16   28.70    9.90
   0  -4  16   54.00   11.10
  -1   4 -16    8.10   12.00
  -1   4 -16   19.20   10.20
   1  -4  16   21.60    9.80
  -2   4 -16   39.30   11.00
  -2   4 -16   17.50   12.00
   2  -4  16   22.30    9.30
  -3   4 -16  121.60   20.00
  -3   4 -16  170.80   19.50
   3  -4  16  125.00   14.70
  -4   4 -16  150.00   18.10
  -4   4 -16  109.60   18.00
  -5   4 -16   55.20   16.00
  -5   4 -16   72.80   15.20
  -9  -3  16  183.70   26.10
  -8  -3  16    8.90   11.30
  -7  -3  16   97.40   16.90
  -6  -3  16   57.50   15.10
   5   3 -16   80.20    8.20
   5   3 -16   65.00    7.20
  -5  -3  16   72.90   14.70
   4   3 -16    0.60    5.10
  -4  -3  16    0.60    9.60
   3   3 -16    3.80    6.60
   3   3 -16    0.30    9.50
  -3  -3  16    4.30    9.50
   2   3 -16  248.50   16.50
   2   3 -16  238.50   23.50
  -2  -3  16  233.00   20.80
   1   3 -16   58.90   11.20
   1   3 -16   49.40   15.10
  -1  -3  16   55.60   12.50
   0   3 -16   20.10   13.00
   0   3 -16    1.30    8.20
   0   3 -16   18.60    8.70
   0  -3  16    2.70    8.90
  -1   3 -16  102.40   16.10
  -1   3 -16  100.80   13.40
  -1   3 -16   92.00   11.80
   1  -3  16   89.80   12.70
  -2   3 -16   99.50   18.50
  -2   3 -16  111.30   15.20
  -2   3 -16  113.00   13.70
   2  -3  16  116.90   14.60
  -3   3 -16  121.20   12.90
  -3   3 -16  105.10   16.20
  -3   3 -16  121.10   15.80
   3  -3  16   95.20   13.40
  -4   3 -16    1.40    8.90
  -4   3 -16    1.40   11.70
   4  -3  16    1.40    6.80
  -5   3 -16  121.60   18.20
  -5   3 -16  159.70   19.40
  -9  -2  16  215.70   24.00
  -8  -2  16    0.40   13.80
  -7  -2  16   37.50   13.70
  -6  -2  16  285.70   23.90
   5   2 -16    0.10    4.40
  -5  -2  16    0.10    9.90
   4   2 -16   34.10    6.80
  -4  -2  16   35.60   12.60
   3   2 -16    0.00    6.00
  -3  -2  16   11.30   11.30
   2   2 -16   98.80   15.40
   2   2 -16   99.00   11.50
  -2  -2  16   99.40   14.20
   1   2 -16   62.90   10.50
   1   2 -16   39.40   11.80
  -1  -2  16   38.50   11.60
   0   2 -16   60.10   12.30
   0   2 -16   64.60   11.70
   0   2 -16   86.70   15.00
   0  -2  16   71.60   12.80
  -1   2 -16   24.80    9.90
  -1   2 -16   17.40   11.30
  -1   2 -16   21.00    8.80
   1  -2  16   11.80    9.60
  -2   2 -16   99.80   13.70
  -2   2 -16   86.40   16.10
  -2   2 -16  116.80   22.80
   2  -2  16   91.90   13.50
  -3   2 -16   76.80   14.10
  -3   2 -16   81.10   16.30
  -3   2 -16   97.80   12.60
   3  -2  16   62.00   12.40
  -4   2 -16   92.40   11.50
  -4   2 -16   78.10   15.30
  -4   2 -16  113.20   16.80
   4  -2  16   82.00   13.50
  -5   2 -16  144.00   19.40
  -5   2 -16  195.30   21.60
  -5   2 -16  177.20   13.60
  -9  -1  16   25.00   15.60
  -8  -1  16  122.70   19.30
  -7  -1  16   11.60   12.20
  -6  -1  16  102.70   16.60
   5   1 -16   66.50    8.30
  -5  -1  16   89.30   15.80
   4   1 -16  204.80   14.70
  -4  -1  16  236.20   23.00
   3   1 -16  146.60   12.50
   2   1 -16   31.00    8.90
  -2  -1  16   16.20   11.60
   1   1 -16  175.20   15.40
   1   1 -16  145.10   19.40
  -1  -1  16  140.40   17.20
   0   1 -16  152.20   18.40
   0   1 -16  117.70   13.70
   0  -1  16  124.20   15.50
  -1   1 -16    0.50    9.30
  -1   1 -16    0.00    6.50
  -1   1 -16    5.50    9.90
   1  -1  16    2.10    8.70
  -2   1 -16    0.30   10.20
  -2   1 -16    0.30   11.10
  -2   1 -16    0.30    7.40
   2  -1  16    0.30    8.50
  -3   1 -16   98.80   16.30
  -3   1 -16  107.80   16.30
  -3   1 -16   92.20   12.50
   3  -1  16  105.30   15.30
  -4   1 -16  192.30   15.80
  -4   1 -16  220.30   19.70
  -4   1 -16  196.40   21.00
   4  -1  16  152.90   17.70
  -5   1 -16   65.80   15.00
  -5   1 -16   89.00   16.70
  -5   1 -16   63.40    9.80
  -8   0  16  253.90   25.00
  -7   0  16   25.60   13.80
  -6   0  16   29.80   14.40
   5   0 -16    0.00    5.10
  -5   0  16    0.00   10.00
   4   0 -16  107.90   11.50
  -4   0  16  130.20   19.20
   3   0 -16  319.10   18.10
  -3   0  16  302.10   23.00
   2   0 -16    0.10    7.20
  -2   0  16    0.90   10.10
   1   0 -16  272.50   19.40
  -1   0  16  250.40   22.80
   0   0 -16   74.50   13.50
   0   0 -16   87.60   12.00
   0   0  16  111.90   14.60
  -1   0 -16    0.10   10.90
  -1   0 -16    9.00    9.50
   1   0  16    3.30    9.70
  -2   0 -16  150.00   16.50
  -2   0 -16  162.60   17.90
  -2   0 -16  166.00   16.10
   2   0  16  177.40   17.20
  -3   0 -16  101.10   16.40
  -3   0 -16  129.10   14.40
  -3   0 -16  118.50   15.90
   3   0  16   98.40   14.80
  -4   0 -16   79.60   11.50
  -4   0 -16   99.50   16.10
  -4   0 -16  122.50   17.10
   4   0  16   32.90   11.30
  -5   0 -16    7.20   12.20
  -5   0 -16    6.20   10.00
  -5   0 -16    0.10    7.10
  -8   1  16  321.60   27.50
  -7   1  16   15.60   12.20
  -6   1  16   10.60   12.70
   5  -1 -16    1.50    6.20
  -5   1  16    4.30   10.80
   4  -1 -16    0.10    6.60
  -4   1  16   11.60   12.20
   3  -1 -16  436.40   21.70
  -3   1  16  441.60   28.60
   2  -1 -16   91.20   12.40
  -2   1  16   94.00   15.90
   1  -1 -16  211.00   16.70
  -1   1  16  199.50   20.00
   0  -1 -16   26.80    9.30
   0   1  16   19.70   10.70
  -1  -1 -16    5.80    8.80
  -1  -1 -16    9.20    9.70
   1   1  16    3.90   10.10
  -2  -1 -16  319.50   22.70
  -2  -1 -16  344.70   25.20
   2   1  16  359.00   23.70
  -3  -1 -16   30.40   11.40
  -3  -1 -16    1.90    8.80
   3   1  16   30.30   11.80
  -4  -1 -16   42.50   13.00
  -4  -1 -16   32.00   12.50
  -4  -1 -16   23.20    9.90
   4   1  16   12.10   10.90
  -8   2  16   54.10   16.30
  -7   2  16   20.90   13.40
  -6   2  16   96.30   17.00
  -5   2  16   14.70   11.50
   4  -2 -16   22.40    8.30
  -4   2  16   23.70   13.60
   3  -2 -16  264.30   17.20
  -3   2  16  240.50   22.90
   2  -2 -16  310.80   19.30
  -2   2  16  346.20   23.60
   1  -2 -16   50.80   10.30
  -1   2  16   38.90   12.40
   0  -2 -16    0.10    8.80
   0   2  16    2.60   10.60
  -1  -2 -16   13.90   10.80
   1   2  16   10.50   10.30
  -2  -2 -16  150.10   17.80
   2   2  16  162.70   19.60
  -3  -2 -16   37.40   12.60
  -3  -2 -16   32.60   10.90
   3   2  16   30.00   13.30
  -4  -2 -16   17.60   11.20
  -4  -2 -16   36.20   11.20
   4   2  16    0.10   10.80
  -7   3  16   98.60   19.20
  -6   3  16   19.60   11.00
   5  -3 -16    5.00    8.00
  -5   3  16   32.00   12.70
   4  -3 -16  121.70   13.00
  -4   3  16   94.20   16.70
   3  -3 -16  135.90   14.30
  -3   3  16  122.60   17.30
   2  -3 -16  249.40   19.40
  -2   3  16  228.30   24.20
   1  -3 -16   20.90    8.80
  -1   3  16   21.80   10.70
   0  -3 -16   52.60   11.90
   0   3  16   24.50   12.70
  -1  -3 -16    8.70   10.50
   1   3  16   19.00   11.30
  -2  -3 -16    6.80   10.00
   2   3  16   10.10   12.30
  -3  -3 -16  491.80   29.10
   3   3  16  404.10   28.20
  -6   4  16    0.20   11.90
   5  -4 -16   48.00   11.00
  -5   4  16   64.20   16.50
   4  -4 -16   95.90   12.90
  -4   4  16   95.60   15.60
   3  -4 -16    0.00    7.50
  -3   4  16    0.00   10.70
   2  -4 -16  128.80   14.00
  -2   4  16  163.30   18.00
   1  -4 -16  134.20   15.30
  -1   4  16  112.40   17.20
   0  -4 -16   14.20   10.40
   0   4  16   28.70   13.00
  -1  -4 -16    4.90    9.80
   1   4  16    0.80   11.00
  -2  -4 -16    0.40    8.60
   2   4  16    0.40    9.60
   5  -5 -16   15.50   10.20
  -5   5  16   16.50   12.00
   4  -5 -16  182.80   17.30
  -4   5  16  216.00   22.70
   3  -5 -16   27.80   10.90
  -3   5  16    6.60   11.80
   2  -5 -16   22.80   10.50
  -2   5  16   22.30   13.00
   1  -5 -16   82.80   16.60
  -1   5  16   68.60   16.60
   0  -5 -16    6.50    9.00
   0   5  16    0.30   10.20
  -1  -5 -16  168.80   18.90
   1   5  16  124.00   20.00
   4  -6 -16  166.00   18.50
  -4   6  16  159.00   21.00
   3  -6 -16  165.40   17.50
  -3   6  16  144.40   19.10
  -2   6  16    2.00   13.30
   1  -6 -16   28.10   10.60
  -1   6  16   20.50   11.70
   0  -6 -16    0.60   10.20
   0   6  16    0.30   12.40
   1  11 -17   96.50   18.90
   4  10 -17    5.10    9.70
   4  10 -17   35.30   14.20
  -4 -10  17   30.20   13.00
   3  10 -17    0.20   11.30
   3  10 -17    0.20    8.20
  -3 -10  17   11.00   11.40
   2  10 -17    2.90   13.30
  -2 -10  17   11.30   11.00
   1  10 -17  139.80   22.60
  -1 -10  17  133.00   17.90
   0  10 -17   84.30   18.50
   0 -10  17   74.30   13.20
  -1  10 -17    0.00   12.60
   1 -10  17    0.00    8.30
   5   9 -17   40.60   10.30
   5   9 -17   29.90   16.50
   5   9 -17   38.90    9.00
  -5  -9  17   39.30   13.80
   4   9 -17   58.50   11.20
   4   9 -17   73.00   20.10
   4   9 -17   66.70   11.10
  -4  -9  17   50.70   15.70
   3   9 -17    1.30    8.30
   3   9 -17    0.30    7.90
   3   9 -17    5.60   14.20
  -3  -9  17    0.30   10.10
   2   9 -17   64.60   12.30
   2   9 -17   40.10   15.50
   1   9 -17   16.30   14.50
   1   9 -17   25.30   11.20
  -1  -9  17   34.00   12.60
   0   9 -17  238.30   28.00
   0  -9  17  173.60   19.10
  -1   9 -17    8.30    9.70
  -1   9 -17    9.20   13.30
   1  -9  17    0.00    8.40
  -2   9 -17    0.20   10.80
  -2   9 -17   15.90   12.10
   2  -9  17    2.70    7.70
   6   8 -17    0.20    4.20
  -6  -8  17    7.70   12.40
   5   8 -17   34.70   14.70
   5   8 -17   47.90    9.30
  -5  -8  17   92.60   18.00
   4   8 -17    7.90   13.90
   4   8 -17    5.90    6.90
   4   8 -17    6.90    7.10
  -4  -8  17    8.60   11.50
   3   8 -17   10.80    7.90
   3   8 -17   13.70   14.20
  -3  -8  17   15.30   11.20
   2   8 -17  142.50   20.70
   2   8 -17  173.20   16.20
   2   8 -17  182.30   16.10
  -2  -8  17  160.10   18.60
   1   8 -17    0.40   10.90
   1   8 -17    0.40    8.80
  -1  -8  17    0.40    8.70
   0   8 -17  357.70   29.60
   0   8 -17  335.90   23.60
   0  -8  17  349.90   22.90
  -1   8 -17    0.00   10.00
  -1   8 -17   16.40   13.40
   1  -8  17    0.00    7.70
  -2   8 -17   49.10   18.30
  -2   8 -17   76.00   15.30
   2  -8  17   61.90   11.30
  -3   8 -17   12.10   11.10
  -3   8 -17   10.20   13.50
   3  -8  17    0.40    7.10
   6   7 -17   82.30    6.90
  -6  -7  17  125.80   19.30
   5   7 -17   49.70    8.20
   5   7 -17   62.80   16.50
   5   7 -17   61.40    7.90
  -5  -7  17   87.80   16.40
   4   7 -17    0.40    9.70
   4   7 -17   15.30    7.30
   4   7 -17    0.40    6.20
  -4  -7  17    7.20   12.40
   3   7 -17   11.30    7.90
   3   7 -17    0.20   11.10
   3   7 -17    0.20    6.50
  -3  -7  17   14.90   12.40
   2   7 -17  207.80   24.50
   2   7 -17  271.70   18.70
   2   7 -17  267.50   18.80
  -2  -7  17  255.10   21.90
   1   7 -17    6.60    8.80
   1   7 -17    8.60   12.10
  -1  -7  17    0.20    9.60
   0   7 -17   75.30   13.70
   0   7 -17   65.40   16.80
   0  -7  17   67.50   13.20
  -1   7 -17    6.40   10.30
  -1   7 -17    5.90   14.10
   1  -7  17    0.80    8.60
  -2   7 -17   50.00   15.70
  -2   7 -17   64.00   13.80
   2  -7  17   55.70   11.20
  -3   7 -17   17.50   11.80
  -3   7 -17    1.00   12.70
   3  -7  17    1.90    8.00
  -7  -6  17   26.80   15.20
  -6  -6  17   74.20   15.90
   5   6 -17    5.80    6.00
   5   6 -17    8.20    5.50
  -5  -6  17    8.60   12.40
   4   6 -17   27.50    6.70
   4   6 -17   40.50   14.20
   4   6 -17   16.60    6.70
  -4  -6  17    0.60   11.30
   3   6 -17    0.00    6.70
   3   6 -17   17.00    7.80
   3   6 -17   20.40   12.30
  -3  -6  17   12.40   10.60
   2   6 -17  298.10   27.00
   2   6 -17  295.20   20.40
  -2  -6  17  355.70   25.10
   1   6 -17   39.70   12.80
   1   6 -17   67.70   11.30
  -1  -6  17   49.70   11.50
   0   6 -17    9.70    8.70
   0   6 -17    8.60   13.50
   0  -6  17    0.40    8.00
  -1   6 -17   51.30   16.60
   1  -6  17   39.40   11.30
  -2   6 -17    6.30   11.90
  -2   6 -17    1.70   10.30
   2  -6  17    0.00    7.90
  -3   6 -17  187.30   20.70
  -3   6 -17  177.30   24.20
   3  -6  17  177.90   16.40
  -4   6 -17   59.20   14.60
  -4   6 -17   41.80   13.50
   4  -6  17   19.80    7.70
  -7  -5  17   49.10   15.60
  -6  -5  17   36.10   14.00
   5   5 -17    2.80    5.00
  -5  -5  17   25.90   12.60
   4   5 -17   19.00    7.30
   4   5 -17   28.40   15.20
   4   5 -17   30.10    8.50
  -4  -5  17   41.80   14.80
   3   5 -17    0.20   11.00
   3   5 -17    5.40    7.10
  -3  -5  17   17.60   11.10
   2   5 -17   74.60   16.80
   2   5 -17   52.60   10.10
  -2  -5  17   31.10   12.30
   1   5 -17  221.60   23.90
   1   5 -17  212.40   18.10
  -1  -5  17  204.80   20.50
   0   5 -17    2.60    7.40
   0   5 -17    2.60   10.50
   0  -5  17   10.90    9.70
  -1   5 -17  105.30   18.00
  -1   5 -17   92.60   14.00
   1  -5  17  105.00   13.60
  -2   5 -17   78.40   14.30
  -2   5 -17   63.50   15.50
   2  -5  17   71.80   11.70
  -3   5 -17  308.80   27.80
  -3   5 -17  347.00   25.50
   3  -5  17  269.20   19.40
  -4   5 -17   58.50   14.10
  -4   5 -17   39.00   16.40
  -7  -4  17    2.40   10.90
  -6  -4  17   27.60   12.50
   5   4 -17    8.70    5.40
  -5  -4  17   21.70   12.80
   4   4 -17   24.00    7.50
   4   4 -17   11.50   10.40
  -4  -4  17   16.50   12.00
   3   4 -17   45.30    8.70
   3   4 -17   26.90   13.20
  -3  -4  17   30.10   12.00
   2   4 -17    0.30   10.90
   2   4 -17    1.00    7.60
  -2  -4  17    0.30    9.30
   1   4 -17  211.10   23.90
   1   4 -17  207.90   18.60
  -1  -4  17  236.40   21.20
   0   4 -17    1.60   11.80
   0   4 -17   14.90    9.90
   0  -4  17   21.30   10.50
  -1   4 -17    0.00    8.70
  -1   4 -17    9.50   12.80
   1  -4  17    1.30    9.30
  -2   4 -17   59.00   13.20
  -2   4 -17   65.30   15.30
   2  -4  17   77.90   12.70
  -3   4 -17  168.50   18.10
  -3   4 -17  156.40   19.80
   3  -4  17  131.50   14.00
  -4   4 -17   51.20   16.90
  -4   4 -17   43.10   13.50
   4  -4  17    8.40    8.70
  -7  -3  17   12.60   12.70
  -6  -3  17   12.00   12.50
   5   3 -17    1.80    4.70
  -5  -3  17    2.10   12.40
   4   3 -17   62.00   13.10
  -4  -3  17   73.60   15.40
   3   3 -17   25.60    8.90
  -3  -3  17   31.60   13.90
   2   3 -17  149.80   14.40
   2   3 -17  178.70   22.80
  -2  -3  17  156.80   17.90
   1   3 -17  416.50   28.20
   1   3 -17  406.10   22.30
  -1  -3  17  440.40   26.00
   0   3 -17    0.00   11.20
   0   3 -17    3.90    8.70
   0  -3  17    0.00    9.10
  -1   3 -17  121.10   18.40
  -1   3 -17  107.00   13.30
  -1   3 -17  123.00   14.70
   1  -3  17  127.20   14.30
  -2   3 -17    0.00    9.40
  -2   3 -17   10.70   11.50
  -2   3 -17    0.00    6.80
   2  -3  17    0.00    8.70
  -3   3 -17    3.10   10.30
  -3   3 -17    8.90    9.80
   3  -3  17    0.30    8.60
  -4   3 -17  321.50   27.90
  -4   3 -17  329.20   25.20
   4  -3  17  210.80   19.20
  -7  -2  17   92.40   17.50
  -6  -2  17   11.90   11.10
   5   2 -17    5.80    5.20
  -5  -2  17    1.20   10.00
   4   2 -17    0.50    5.90
  -4  -2  17    5.30   11.80
   3   2 -17   90.50   10.90
  -3  -2  17   90.10   15.60
   2   2 -17   73.60   10.80
   1   2 -17   85.00   12.90
   1   2 -17   76.80   16.10
  -1  -2  17  102.80   15.20
   0   2 -17    0.00   11.70
   0   2 -17    0.00    8.50
   0  -2  17    0.00    9.50
  -1   2 -17  131.50   19.00
  -1   2 -17  126.00   18.50
   1  -2  17  147.90   16.70
  -2   2 -17   10.10    9.50
  -2   2 -17    0.20    6.60
  -2   2 -17    6.50   12.70
   2  -2  17    3.30    8.50
  -3   2 -17   59.70   10.80
  -3   2 -17   84.50   14.50
  -3   2 -17   85.60   16.70
   3  -2  17   57.90   11.90
  -4   2 -17  220.70   17.10
  -4   2 -17  181.80   20.10
  -4   2 -17  193.50   22.90
   4  -2  17  151.60   17.90
  -7  -1  17   35.70   15.30
  -6  -1  17    5.70   11.90
   5   1 -17    0.10    5.80
  -5  -1  17    3.60   10.80
   4   1 -17   90.60   10.30
  -4  -1  17   80.30   15.80
   3   1 -17  181.70   15.00
  -3  -1  17  221.70   23.00
   2   1 -17   63.80    9.90
  -2  -1  17   66.90   13.30
   1   1 -17   28.90   10.10
  -1  -1  17   35.20   12.20
   0   1 -17   78.80   13.30
   0   1 -17   67.40   16.00
   0  -1  17   53.80   13.00
  -1   1 -17    0.80   12.20
   1  -1  17   13.60   10.00
  -2   1 -17   40.10   12.70
  -2   1 -17   31.60   13.90
   2  -1  17   24.30   11.10
  -3   1 -17  190.00   19.40
  -3   1 -17  179.90   16.50
  -3   1 -17  174.60   21.80
   3  -1  17  157.20   18.40
  -7   0  17  148.10   20.40
  -6   0  17   11.90   11.90
   5   0 -17    1.70    5.90
  -5   0  17    0.10   11.60
   4   0 -17   45.60    8.60
  -4   0  17   49.10   14.00
   3   0 -17   72.50   11.20
  -3   0  17   61.40   15.50
   2   0 -17   94.70   11.90
  -2   0  17   66.50   12.90
   1   0 -17  106.60   14.70
  -1   0  17  139.20   18.90
   0   0 -17  199.50   18.00
   0   0  17  221.80   20.80
  -1   0 -17   96.30   17.20
  -1   0 -17   93.50   15.50
   1   0  17   92.10   16.80
  -2   0 -17  154.40   18.70
  -2   0 -17  183.80   21.90
   2   0  17  171.30   18.60
  -3   0 -17   30.40   11.70
  -3   0 -17   55.30   14.10
   3   0  17   58.80   14.20
  -6   1  17    4.80   11.90
  -5   1  17   10.10   12.30
   4  -1 -17   20.30    8.50
  -4   1  17   11.70   13.00
   3  -1 -17   24.20    8.60
  -3   1  17   18.40   12.40
   2  -1 -17  194.80   16.70
  -2   1  17  202.80   21.40
   1  -1 -17   12.40    8.60
  -1   1  17   20.00   11.80
   0  -1 -17   25.40   10.40
   0   1  17   22.10   11.60
  -1  -1 -17  137.30   15.60
   1   1  17  140.90   17.40
  -2  -1 -17   62.30   14.10
  -2  -1 -17   40.60   11.60
   2   1  17   45.10   12.90
  -3  -1 -17   61.00   13.60
  -3  -1 -17   47.90   13.30
   3   1  17   38.50   13.00
  -6   2  17    3.10   13.20
   5  -2 -17   13.70    9.00
  -5   2  17   37.80   14.80
   4  -2 -17    3.20    7.20
  -4   2  17    0.20   11.10
   3  -2 -17  189.40   16.10
  -3   2  17  227.00   21.50
   2  -2 -17  288.20   20.00
  -2   2  17  326.90   25.40
   1  -2 -17   23.30   10.00
  -1   2  17   32.50   12.60
   0  -2 -17   87.40   13.60
   0   2  17   73.00   14.80
  -1  -2 -17   28.50   10.50
   1   2  17   18.40   11.70
  -2  -2 -17   26.10   11.30
   2   2  17   38.40   15.30
   5  -3 -17    3.30    8.60
  -5   3  17   21.50   13.70
   4  -3 -17   42.90   10.10
  -4   3  17   40.40   13.10
   3  -3 -17   48.60    9.90
  -3   3  17   32.10   13.00
   2  -3 -17    1.30    7.60
  -2   3  17   12.00   12.10
   1  -3 -17    0.10    8.80
  -1   3  17    0.10   10.70
   0  -3 -17   46.80   11.10
   0   3  17   49.20   12.40
  -1  -3 -17   10.00   10.50
   1   3  17   19.80   12.20
   4  -4 -17   58.80   11.70
  -4   4  17   57.70   14.20
   3  -4 -17   12.70    9.20
  -3   4  17   14.80   13.90
   2  -4 -17   43.40   10.70
  -2   4  17   51.10   13.30
   1  -4 -17   27.80   10.60
  -1   4  17   14.20   12.10
   3   8 -18    0.00    7.80
   3   8 -18    9.30    8.40
   3   8 -18    0.00   13.80
  -3  -8  18   19.20   12.50
   2   8 -18    0.80    7.80
   2   8 -18    0.80   13.90
  -2  -8  18    0.80   10.30
   1   8 -18  110.80   15.30
   1   8 -18  101.50   20.20
  -1  -8  18   97.60   16.00
   0   8 -18  151.60   23.60
   0   8 -18  118.00   16.80
   0  -8  18  129.50   16.10
   4   7 -18  196.30   16.10
   4   7 -18  140.20   20.90
   4   7 -18  152.30   13.70
  -4  -7  18  148.00   20.50
   3   7 -18   44.90   15.60
   3   7 -18   27.80    8.60
   3   7 -18   54.00   10.10
  -3  -7  18   32.00   13.00
   2   7 -18    2.00    8.20
   2   7 -18    3.30   11.80
   2   7 -18    0.00    8.90
  -2  -7  18   11.10   11.60
   1   7 -18    0.40   12.20
   1   7 -18    0.40    8.40
  -1  -7  18    0.40    9.70
   0   7 -18   18.40   13.40
   0  -7  18    0.00    8.50
  -1   7 -18   19.90   14.00
  -1   7 -18   21.20   11.30
   1  -7  18    0.30    8.60
   5   6 -18    3.40    5.50
   5   6 -18    2.90    6.40
  -5  -6  18   16.70   12.80
   4   6 -18   61.60   10.30
   4   6 -18   80.00   17.80
   4   6 -18   74.60   10.10
  -4  -6  18  101.00   16.90
   3   6 -18   71.30   11.20
   3   6 -18  115.90   19.30
  -3  -6  18   65.70   14.30
   2   6 -18    9.30    7.80
   2   6 -18   20.50   12.50
  -2  -6  18    1.30   10.50
   1   6 -18   29.80   14.10
   1   6 -18   38.90   10.20
  -1  -6  18   21.70   10.80
   0   6 -18   28.10   11.20
   0   6 -18   22.30   13.50
   0  -6  18   20.20    9.40
  -1   6 -18   38.20   14.10
  -1   6 -18   32.90   12.00
   1  -6  18   50.10   11.60
   5   5 -18    1.00    5.30
   5   5 -18    4.90    6.60
  -5  -5  18   14.60   13.30
   4   5 -18   14.20    7.10
   4   5 -18    5.40    6.80
  -4  -5  18   10.60   13.30
   3   5 -18    0.00    6.70
   3   5 -18    0.00   12.10
  -3  -5  18    0.00   10.70
   2   5 -18   18.70    8.60
   2   5 -18   22.50   13.50
  -2  -5  18   22.10   11.90
   1   5 -18    9.30    8.80
   1   5 -18    9.70   13.50
  -1  -5  18   16.10   11.30
   0   5 -18   29.80   10.90
   0   5 -18   27.30   14.20
   0  -5  18   15.20   10.80
  -1   5 -18   99.40   14.80
  -1   5 -18  102.60   18.20
   1  -5  18  105.90   14.70
  -2   5 -18   68.80   15.00
  -2   5 -18   48.70   16.30
   2  -5  18   57.50   11.70
   5   4 -18   21.50    6.50
   5   4 -18    0.00    4.90
  -5  -4  18    5.70   12.90
   4   4 -18    3.60    6.50
   4   4 -18    3.30    6.80
  -4  -4  18    4.10   11.80
   3   4 -18   94.90   17.20
   3   4 -18   72.20    9.80
  -3  -4  18   70.40   15.50
   2   4 -18  259.40   24.70
   2   4 -18  242.20   17.90
  -2  -4  18  272.80   22.90
   1   4 -18   79.50   18.00
   1   4 -18   68.30   12.20
  -1  -4  18   48.70   15.30
   0   4 -18    4.80   12.60
   0   4 -18   12.10    9.60
   0  -4  18    9.60   10.60
  -1   4 -18   38.40   12.00
  -1   4 -18   39.60   14.50
   1  -4  18   42.10   11.10
  -2   4 -18    0.30    9.70
  -2   4 -18   17.50   12.80
   2  -4  18    0.30    8.40
   5   3 -18   70.60    8.50
   5   3 -18   33.70    6.90
  -5  -3  18   56.80   14.50
   4   3 -18    5.80    6.60
  -4  -3  18    1.10   10.30
   3   3 -18   82.20   11.10
  -3  -3  18   76.80   16.10
   2   3 -18  374.20   29.90
   2   3 -18  370.40   21.90
  -2  -3  18  383.60   27.00
   1   3 -18  124.10   14.90
   1   3 -18   94.00   17.60
  -1  -3  18  116.40   19.40
   0   3 -18    9.90   11.50
   0   3 -18    4.50    8.40
   0  -3  18    7.40   10.20
  -1   3 -18    4.20   13.60
  -1   3 -18   19.90    9.80
   1  -3  18   20.70   10.10
  -2   3 -18   72.60   14.80
  -2   3 -18   87.80   18.30
   2  -3  18   55.30   12.70
   5   2 -18  134.30   11.40
  -5  -2  18  113.50   17.90
   4   2 -18   21.30    7.80
  -4  -2  18   25.70   13.80
   3   2 -18    0.10    7.20
  -3  -2  18   10.40   11.40
   2   2 -18   49.00   10.50
  -2  -2  18   49.40   14.30
   1   2 -18   26.70   12.60
   1   2 -18   12.00    8.30
  -1  -2  18    2.10   10.50
   0   2 -18    0.10    8.90
   0   2 -18    8.10   13.30
   0  -2  18    6.40    9.80
  -1   2 -18    0.00    9.40
  -1   2 -18    0.00    8.70
   1  -2  18    3.20    9.60
   5   1 -18   87.20    9.80
  -5  -1  18  100.50   19.10
   4   1 -18   10.40    7.20
  -4  -1  18   26.20   12.50
   3   1 -18   16.10    7.60
  -3  -1  18    1.10   10.90
   2   1 -18   12.60    8.10
  -2  -1  18   26.30   12.20
   1   1 -18   29.90    9.60
  -1  -1  18   24.10   12.30
   0   1 -18   43.30   14.20
   0  -1  18   22.20   11.30
  -1   1 -18    3.20    9.20
  -1   1 -18    0.00   11.40
   1  -1  18    0.00    8.50
   4   0 -18   13.70    8.10
  -4   0  18   14.30   14.00
   3   0 -18    8.60    7.70
  -3   0  18    4.50   10.70
   2   0 -18    4.80    8.60
  -2   0  18   10.30   11.80
   1   0 -18   16.60    9.00
  -1   0  18   24.00   11.50
   0   0 -18   52.20   11.10
   0   0  18   71.30   14.10
   3  -1 -18    4.60    7.20
  -3   1  18   18.50   12.30
   2  -1 -18   14.80    9.20
  -2   1  18    0.00   11.20
   1  -1 -18    0.80    7.90
  -1   1  18    6.30    9.80
   0   0   0    0.00    0.00
;
_shelx_hkl_checksum              596
_platon_squeeze_void_probe_radius 1.20
loop_
_space_group_symop_operation_xyz
'x, y, z'
'-x, -y, -z'
loop_
_atom_site_label
_atom_site_type_symbol
_atom_site_fract_x
_atom_site_fract_y
_atom_site_fract_z
_atom_site_U_iso_or_equiv
_atom_site_adp_type
_atom_site_occupancy
_atom_site_site_symmetry_order
_atom_site_calc_flag
_atom_site_refinement_flags_posn
_atom_site_refinement_flags_adp
_atom_site_refinement_flags_occupancy
_atom_site_disorder_assembly
_atom_site_disorder_group
Zn1 Zn 0.70303(3) 0.55321(3) 0.72709(2) 0.02738(11) Uani 1 1 d . . . . .
Zn2 Zn 0.87820(4) 0.58133(3) 0.56708(3) 0.03931(13) Uani 1 1 d . . . . .
Zn3 Zn 0.57770(3) 0.33743(3) 0.67491(3) 0.03138(12) Uani 1 1 d . . . . .
Zn4 Zn 0.48274(4) 0.70579(3) 0.73480(3) 0.03691(12) Uani 1 1 d . . . . .
Zn5 Zn 0.86896(4) 0.58910(3) 0.93594(3) 0.04118(13) Uani 1 1 d . . . . .
O1 O 0.9651(2) 0.64708(18) 0.50116(17) 0.0439(7) Uani 1 1 d . . . . .
O2 O 0.9070(3) 0.5264(2) 0.4108(2) 0.0725(11) Uani 1 1 d . . . . .
O3 O 0.9477(2) 0.64534(19) 0.04909(16) 0.0495(8) Uani 1 1 d . . . . .
O4 O 0.8991(5) 0.5251(3) 0.0835(2) 0.129(2) Uani 1 1 d . . . . .
O5 O 1.5097(2) 1.22460(16) 0.61099(18) 0.0439(7) Uani 1 1 d . . . . .
O6 O 1.5213(3) 1.21063(18) 0.74778(19) 0.0613(9) Uani 1 1 d . . . . .
O7 O 1.4145(2) 0.79585(16) 0.67640(17) 0.0443(7) Uani 1 1 d . . . . .
O8 O 1.5120(4) 0.8921(2) 0.7820(2) 0.0914(14) Uani 1 1 d . . . . .
O9 O 0.3457(3) 0.7171(2) 0.8089(3) 0.0913(13) Uani 1 1 d . . . . .
N1 N 0.7939(2) 0.4650(2) 0.55539(18) 0.0329(7) Uani 1 1 d . . . . .
N2 N 0.7329(2) 0.45277(18) 0.61637(18) 0.0316(7) Uani 1 1 d . . . . .
N3 N 0.6746(2) 0.37720(18) 0.59193(18) 0.0324(7) Uani 1 1 d . . . . .
N4 N 0.7406(3) 0.6517(2) 0.57982(19) 0.0350(7) Uani 1 1 d . . . . .
N5 N 0.6812(2) 0.64349(19) 0.64307(18) 0.0324(7) Uani 1 1 d . . . . .
N6 N 0.5973(3) 0.69436(19) 0.64047(19) 0.0343(7) Uani 1 1 d . . . . .
N7 N 0.9455(3) 0.6080(2) 0.6954(2) 0.0372(8) Uani 1 1 d . . . . .
N8 N 0.8829(2) 0.5917(2) 0.75449(18) 0.0340(7) Uani 1 1 d . . . . .
N9 N 0.9446(3) 0.6097(2) 0.83422(19) 0.0400(8) Uani 1 1 d . . . . .
N10 N 0.4764(3) 0.43577(19) 0.68503(19) 0.0341(7) Uani 1 1 d . . . . .
N11 N 0.5228(2) 0.51654(18) 0.70149(18) 0.0300(7) Uani 1 1 d . . . . .
N12 N 0.4439(3) 0.57242(19) 0.70554(19) 0.0355(7) Uani 1 1 d . . . . .
N13 N 0.6810(2) 0.37744(18) 0.78986(18) 0.0318(7) Uani 1 1 d . . . . .
N14 N 0.7267(2) 0.45845(19) 0.80880(18) 0.0332(7) Uani 1 1 d . . . . .
N15 N 0.7862(2) 0.47225(19) 0.88865(18) 0.0333(7) Uani 1 1 d . . . . .
N16 N 0.6036(3) 0.7127(2) 0.8394(2) 0.0430(8) Uani 1 1 d . . . . .
N17 N 0.6774(3) 0.65184(19) 0.83965(18) 0.0339(7) Uani 1 1 d . . . . .
N18 N 0.7423(3) 0.6678(2) 0.91602(19) 0.0435(8) Uani 1 1 d . . . . .
C1 C 0.7739(3) 0.3953(2) 0.4899(2) 0.0362(9) Uani 1 1 d . . . . .
H1 H 0.805841 0.386272 0.438636 0.043 Uiso 1 1 calc R U . . .
C2 C 0.6985(3) 0.3401(2) 0.5120(2) 0.0379(9) Uani 1 1 d . . . . .
H2 H 0.668821 0.286697 0.478381 0.046 Uiso 1 1 calc R U . . .
C3 C 0.6933(4) 0.7086(3) 0.5358(3) 0.0437(10) Uani 1 1 d . . . . .
H3 H 0.717088 0.726401 0.487769 0.052 Uiso 1 1 calc R U . . .
C4 C 0.6046(4) 0.7354(3) 0.5744(3) 0.0443(10) Uani 1 1 d . . . . .
H4 H 0.556822 0.775606 0.557671 0.053 Uiso 1 1 calc R U . . .
C5 C 1.0469(3) 0.6370(3) 0.7381(3) 0.0502(11) Uani 1 1 d . . . . .
H5 H 1.107135 0.653483 0.712924 0.060 Uiso 1 1 calc R U . . .
C6 C 1.0457(3) 0.6378(3) 0.8239(3) 0.0518(11) Uani 1 1 d . . . . .
H6 H 1.105117 0.655066 0.868212 0.062 Uiso 1 1 calc R U . . .
C7 C 0.3662(3) 0.4399(3) 0.6786(2) 0.0406(10) Uani 1 1 d . . . . .
H7 H 0.313449 0.393076 0.667369 0.049 Uiso 1 1 calc R U . . .
C8 C 0.3465(3) 0.5257(3) 0.6917(3) 0.0442(10) Uani 1 1 d . . . . .
H8 H 0.277283 0.548108 0.691227 0.053 Uiso 1 1 calc R U . . .
C9 C 0.7112(3) 0.3401(3) 0.8570(2) 0.0411(10) Uani 1 1 d . . . . .
H9 H 0.690697 0.283373 0.860908 0.049 Uiso 1 1 calc R U . . .
C10 C 0.7776(3) 0.3993(2) 0.9192(2) 0.0376(9) Uani 1 1 d . . . . .
H10 H 0.810721 0.390372 0.973112 0.045 Uiso 1 1 calc R U . . .
C11 C 0.6211(5) 0.7668(3) 0.9153(3) 0.0700(16) Uani 1 1 d . . . . .
H11 H 0.581439 0.814904 0.932444 0.084 Uiso 1 1 calc R U . . .
C12 C 0.7090(5) 0.7396(3) 0.9652(3) 0.0752(17) Uani 1 1 d . . . . .
H12 H 0.739456 0.765905 1.021941 0.090 Uiso 1 1 calc R U . . .
C13 C 1.1586(3) 0.8389(2) 0.3266(2) 0.0301(8) Uani 1 1 d . . . . .
C14 C 1.2147(3) 0.8704(2) 0.4093(2) 0.0307(8) Uani 1 1 d . . . . .
H14 H 1.207559 0.838136 0.452238 0.037 Uiso 1 1 calc R U . . .
C15 C 1.2817(3) 0.9480(2) 0.4321(2) 0.0313(8) Uani 1 1 d . . . . .
C16 C 1.2898(4) 0.9947(3) 0.3667(2) 0.0439(10) Uani 1 1 d . . . . .
H16 H 1.332713 1.047185 0.379403 0.053 Uiso 1 1 calc R U . . .
C17 C 1.2359(4) 0.9652(3) 0.2840(3) 0.0586(13) Uani 1 1 d . . . . .
H17 H 1.242894 0.997609 0.241214 0.070 Uiso 1 1 calc R U . . .
C18 C 1.1706(4) 0.8872(3) 0.2628(3) 0.0518(12) Uani 1 1 d . . . . .
H18 H 1.134988 0.867454 0.206036 0.062 Uiso 1 1 calc R U . . .
C19 C 1.0869(3) 0.7551(2) 0.3052(2) 0.0274(8) Uani 1 1 d . . . . .
C20 C 1.0545(3) 0.7163(2) 0.3713(2) 0.0275(8) Uani 1 1 d . . . . .
H20 H 1.077444 0.742941 0.429422 0.033 Uiso 1 1 calc R U . . .
C21 C 0.9890(3) 0.6389(2) 0.3525(2) 0.0293(8) Uani 1 1 d . . . . .
C22 C 0.9539(3) 0.5994(2) 0.2656(2) 0.0343(9) Uani 1 1 d . . . . .
H22 H 0.910700 0.547021 0.252430 0.041 Uiso 1 1 calc R U . . .
C23 C 0.9827(3) 0.6373(2) 0.1988(2) 0.0335(9) Uani 1 1 d . . . . .
C24 C 1.0493(3) 0.7153(2) 0.2198(2) 0.0305(8) Uani 1 1 d . . . . .
H24 H 1.068678 0.741095 0.174921 0.037 Uiso 1 1 calc R U . . .
C25 C 0.9508(3) 0.6002(3) 0.4244(2) 0.0365(9) Uani 1 1 d . . . . .
C26 C 0.9410(3) 0.5981(3) 0.1053(2) 0.0442(10) Uani 1 1 d . . . . .
C27 C 1.3446(3) 0.9770(2) 0.5219(2) 0.0292(8) Uani 1 1 d . . . . .
C28 C 1.3873(3) 1.0626(2) 0.5539(2) 0.0320(8) Uani 1 1 d . . . . .
H28 H 1.375830 1.103518 0.518699 0.038 Uiso 1 1 calc R U . . .
C29 C 1.4464(3) 1.0883(2) 0.6370(2) 0.0306(8) Uani 1 1 d . . . . .
C30 C 1.4621(3) 1.0282(2) 0.6903(2) 0.0367(9) Uani 1 1 d . . . . .
H30 H 1.498000 1.045925 0.747300 0.044 Uiso 1 1 calc R U . . .
C31 C 1.4244(3) 0.9414(2) 0.6592(2) 0.0354(9) Uani 1 1 d . . . . .
C32 C 1.3662(3) 0.9175(2) 0.5758(2) 0.0349(9) Uani 1 1 d . . . . .
H32 H 1.340587 0.859616 0.555019 0.042 Uiso 1 1 calc R U . . .
C33 C 1.4950(3) 1.1799(2) 0.6684(3) 0.0388(9) Uani 1 1 d . . . . .
C34 C 1.4518(4) 0.8737(3) 0.7124(3) 0.0451(10) Uani 1 1 d . . . . .
loop_
_atom_site_aniso_label
_atom_site_aniso_U_11
_atom_site_aniso_U_22
_atom_site_aniso_U_33
_atom_site_aniso_U_23
_atom_site_aniso_U_13
_atom_site_aniso_U_12
Zn1 0.0357(2) 0.0240(2) 0.0218(2) 0.00628(17) 0.00022(17) -0.00233(17)
Zn2 0.0489(3) 0.0372(3) 0.0323(2) 0.0059(2) 0.0134(2) -0.0092(2)
Zn3 0.0387(2) 0.0224(2) 0.0298(2) 0.00343(17) -0.00147(18) -0.00696(18)
Zn4 0.0443(3) 0.0289(2) 0.0398(3) 0.0132(2) 0.0036(2) 0.0060(2)
Zn5 0.0561(3) 0.0373(3) 0.0247(2) 0.00821(19) -0.0124(2) -0.0130(2)
O1 0.0511(17) 0.0498(17) 0.0347(15) 0.0147(13) 0.0128(13) -0.0035(14)
O2 0.097(3) 0.068(2) 0.0496(19) 0.0204(17) 0.0042(18) -0.049(2)
O3 0.068(2) 0.0504(18) 0.0248(13) 0.0104(13) -0.0140(13) -0.0073(15)
O4 0.245(6) 0.074(3) 0.041(2) 0.0095(19) -0.043(3) -0.090(3)
O5 0.0540(17) 0.0243(14) 0.0484(16) 0.0062(13) -0.0056(14) -0.0105(13)
O6 0.089(2) 0.0349(17) 0.0475(18) -0.0043(14) -0.0097(17) -0.0205(16)
O7 0.0569(17) 0.0237(14) 0.0505(16) 0.0116(13) -0.0063(14) 0.0060(13)
O8 0.137(4) 0.050(2) 0.070(2) 0.0244(18) -0.057(2) -0.020(2)
O9 0.087(3) 0.068(2) 0.126(3) 0.005(2) 0.063(3) 0.007(2)
N1 0.0363(17) 0.0379(18) 0.0249(15) 0.0075(14) 0.0050(14) 0.0001(14)
N2 0.0395(17) 0.0247(16) 0.0272(15) 0.0006(13) 0.0026(14) -0.0083(14)
N3 0.0415(17) 0.0240(16) 0.0295(16) 0.0029(13) 0.0015(14) -0.0022(14)
N4 0.0459(19) 0.0344(18) 0.0279(16) 0.0136(14) 0.0069(15) -0.0011(15)
N5 0.0388(17) 0.0347(18) 0.0267(16) 0.0117(14) 0.0064(14) 0.0048(14)
N6 0.0423(18) 0.0313(18) 0.0325(16) 0.0155(14) 0.0030(14) 0.0020(15)
N7 0.0352(17) 0.0377(19) 0.0393(18) 0.0093(15) 0.0068(15) -0.0038(14)
N8 0.0378(17) 0.0367(18) 0.0267(15) 0.0078(14) 0.0003(14) -0.0021(14)
N9 0.0414(19) 0.042(2) 0.0324(17) 0.0098(15) -0.0092(15) -0.0075(16)
N10 0.0389(18) 0.0275(17) 0.0334(16) 0.0056(14) -0.0006(14) -0.0063(14)
N11 0.0358(17) 0.0191(15) 0.0336(16) 0.0043(13) 0.0020(14) -0.0013(13)
N12 0.0382(18) 0.0312(18) 0.0380(17) 0.0093(14) 0.0052(15) 0.0022(15)
N13 0.0390(17) 0.0234(16) 0.0312(16) 0.0081(13) -0.0028(14) -0.0056(14)
N14 0.0420(18) 0.0270(17) 0.0276(16) 0.0077(13) -0.0072(14) -0.0040(14)
N15 0.0411(18) 0.0316(17) 0.0246(15) 0.0078(13) -0.0059(14) -0.0059(14)
N16 0.058(2) 0.0355(19) 0.0348(18) 0.0044(15) 0.0049(16) 0.0102(17)
N17 0.0440(18) 0.0313(17) 0.0240(15) 0.0057(13) -0.0041(14) 0.0024(15)
N18 0.064(2) 0.0352(19) 0.0265(16) 0.0025(15) -0.0051(16) 0.0021(17)
C1 0.046(2) 0.038(2) 0.0235(18) 0.0040(17) 0.0051(17) 0.0077(19)
C2 0.047(2) 0.029(2) 0.033(2) -0.0031(17) 0.0017(18) 0.0010(18)
C3 0.054(3) 0.046(3) 0.033(2) 0.0156(19) 0.005(2) -0.006(2)
C4 0.052(3) 0.042(2) 0.041(2) 0.021(2) -0.003(2) 0.000(2)
C5 0.035(2) 0.055(3) 0.062(3) 0.018(2) 0.005(2) -0.007(2)
C6 0.040(2) 0.061(3) 0.049(3) 0.015(2) -0.013(2) -0.010(2)
C7 0.037(2) 0.040(2) 0.042(2) 0.0060(19) 0.0009(18) -0.0070(18)
C8 0.032(2) 0.045(3) 0.054(3) 0.012(2) -0.0014(19) 0.0017(19)
C9 0.048(2) 0.037(2) 0.039(2) 0.0188(19) -0.0023(19) -0.0070(19)
C10 0.048(2) 0.036(2) 0.0290(19) 0.0180(17) -0.0064(18) -0.0058(19)
C11 0.111(4) 0.056(3) 0.036(2) -0.009(2) 0.001(3) 0.035(3)
C12 0.115(5) 0.058(3) 0.038(3) -0.016(2) -0.009(3) 0.024(3)
C13 0.036(2) 0.028(2) 0.0256(18) 0.0073(15) 0.0015(16) -0.0036(16)
C14 0.0357(19) 0.026(2) 0.0289(18) 0.0056(16) 0.0023(16) -0.0049(16)
C15 0.036(2) 0.026(2) 0.0307(19) 0.0064(16) -0.0004(16) 0.0017(16)
C16 0.060(3) 0.028(2) 0.041(2) 0.0092(18) -0.001(2) -0.0132(19)
C17 0.089(4) 0.050(3) 0.035(2) 0.020(2) -0.004(2) -0.025(3)
C18 0.077(3) 0.042(3) 0.031(2) 0.0093(19) -0.006(2) -0.018(2)
C19 0.0305(18) 0.0257(19) 0.0244(17) 0.0055(15) -0.0009(15) -0.0026(15)
C20 0.0311(18) 0.0269(19) 0.0210(17) 0.0009(15) -0.0017(15) -0.0024(16)
C21 0.0265(18) 0.035(2) 0.0277(18) 0.0106(16) 0.0027(15) -0.0006(16)
C22 0.037(2) 0.036(2) 0.0273(19) 0.0106(16) -0.0065(16) -0.0115(17)
C23 0.039(2) 0.032(2) 0.0250(18) 0.0037(16) -0.0041(16) -0.0042(17)
C24 0.035(2) 0.033(2) 0.0218(17) 0.0078(15) -0.0017(15) -0.0029(17)
C25 0.0281(19) 0.054(3) 0.027(2) 0.0152(19) -0.0021(16) -0.0054(19)
C26 0.053(3) 0.042(3) 0.032(2) 0.0071(19) -0.0126(19) -0.010(2)
C27 0.0326(19) 0.0194(18) 0.0317(19) 0.0017(15) -0.0022(16) -0.0051(15)
C28 0.037(2) 0.0224(19) 0.035(2) 0.0085(16) -0.0018(17) 0.0002(16)
C29 0.0345(19) 0.0167(18) 0.037(2) 0.0021(15) -0.0018(16) -0.0029(15)
C30 0.044(2) 0.027(2) 0.035(2) 0.0051(17) -0.0087(17) -0.0001(17)
C31 0.040(2) 0.0219(19) 0.041(2) 0.0050(17) -0.0030(18) 0.0003(17)
C32 0.043(2) 0.0154(18) 0.041(2) 0.0028(16) -0.0084(18) -0.0039(16)
C33 0.037(2) 0.024(2) 0.050(3) 0.0006(19) -0.0019(19) -0.0034(17)
C34 0.055(3) 0.032(2) 0.045(2) 0.0109(19) -0.013(2) 0.006(2)
loop_
_atom_type_symbol
_atom_type_description
_atom_type_scat_dispersion_real
_atom_type_scat_dispersion_imag
_atom_type_scat_source
C C 0.0033 0.0016 'International Tables Vol C Tables 4.2.6.8 and 6.1.1.4'
H H 0.0000 0.0000 'International Tables Vol C Tables 4.2.6.8 and 6.1.1.4'
N N 0.0061 0.0033 'International Tables Vol C Tables 4.2.6.8 and 6.1.1.4'
O O 0.0106 0.0060 'International Tables Vol C Tables 4.2.6.8 and 6.1.1.4'
Zn Zn 0.2839 1.4301 'International Tables Vol C Tables 4.2.6.8 and 6.1.1.4'
loop_
_geom_angle_atom_site_label_1
_geom_angle_atom_site_label_2
_geom_angle_atom_site_label_3
_geom_angle
_geom_angle_site_symmetry_1
_geom_angle_site_symmetry_3
_geom_angle_publ_flag
N5 Zn1 N14 178.09(11) . . ?
N5 Zn1 N17 91.34(11) . . ?
N14 Zn1 N17 90.56(11) . . ?
N5 Zn1 N2 89.91(11) . . ?
N14 Zn1 N2 88.18(11) . . ?
N17 Zn1 N2 178.29(11) . . ?
N5 Zn1 N11 89.90(11) . . ?
N14 Zn1 N11 90.34(11) . . ?
N17 Zn1 N11 89.62(11) . . ?
N2 Zn1 N11 91.55(11) . . ?
N5 Zn1 N8 90.06(12) . . ?
N14 Zn1 N8 89.74(12) . . ?
N17 Zn1 N8 89.44(12) . . ?
N2 Zn1 N8 89.39(11) . . ?
N11 Zn1 N8 179.05(11) . . ?
O1 Zn2 N1 141.19(12) . . ?
O1 Zn2 N7 109.44(12) . . ?
N1 Zn2 N7 102.35(12) . . ?
O1 Zn2 N4 102.79(12) . . ?
N1 Zn2 N4 94.28(12) . . ?
N7 Zn2 N4 97.61(12) . . ?
O1 Zn2 C25 28.64(11) . . ?
N1 Zn2 C25 112.78(12) . . ?
N7 Zn2 C25 133.77(12) . . ?
N4 Zn2 C25 108.33(12) . . ?
O5 Zn3 N10 115.51(12) 1_445 . ?
O5 Zn3 N3 104.21(12) 1_445 . ?
N10 Zn3 N3 98.64(12) . . ?
O5 Zn3 N13 133.89(12) 1_445 . ?
N10 Zn3 N13 99.16(12) . . ?
N3 Zn3 N13 99.23(12) . . ?
O7 Zn4 N16 132.69(12) 1_455 . ?
O7 Zn4 N12 128.08(12) 1_455 . ?
N16 Zn4 N12 99.21(13) . . ?
O7 Zn4 O9 85.64(15) 1_455 . ?
N16 Zn4 O9 96.33(16) . . ?
N12 Zn4 O9 87.48(13) . . ?
O7 Zn4 N6 86.89(12) 1_455 . ?
N16 Zn4 N6 94.13(13) . . ?
N12 Zn4 N6 91.37(12) . . ?
O9 Zn4 N6 169.53(15) . . ?
O3 Zn5 N15 134.13(12) 1_556 . ?
O3 Zn5 N9 113.77(13) 1_556 . ?
N15 Zn5 N9 102.65(12) . . ?
O3 Zn5 N18 103.50(13) 1_556 . ?
N15 Zn5 N18 99.22(13) . . ?
N9 Zn5 N18 96.02(14) . . ?
C25 O1 Zn2 103.5(2) . . ?
C26 O3 Zn5 111.3(2) . 1_554 ?
C33 O5 Zn3 106.2(2) . 1_665 ?
C34 O7 Zn4 113.7(2) . 1_655 ?
N2 N1 C1 107.7(3) . . ?
N2 N1 Zn2 119.4(2) . . ?
C1 N1 Zn2 132.3(3) . . ?
N3 N2 N1 110.1(3) . . ?
N3 N2 Zn1 123.4(2) . . ?
N1 N2 Zn1 125.2(2) . . ?
N2 N3 C2 107.3(3) . . ?
N2 N3 Zn3 119.3(2) . . ?
C2 N3 Zn3 133.3(3) . . ?
N5 N4 C3 107.7(3) . . ?
N5 N4 Zn2 119.1(2) . . ?
C3 N4 Zn2 133.2(3) . . ?
N4 N5 N6 109.6(3) . . ?
N4 N5 Zn1 126.1(2) . . ?
N6 N5 Zn1 123.9(2) . . ?
N5 N6 C4 107.1(3) . . ?
N5 N6 Zn4 122.4(2) . . ?
C4 N6 Zn4 130.5(3) . . ?
N8 N7 C5 107.5(3) . . ?
N8 N7 Zn2 118.5(2) . . ?
C5 N7 Zn2 133.9(3) . . ?
N7 N8 N9 108.9(3) . . ?
N7 N8 Zn1 125.1(2) . . ?
N9 N8 Zn1 125.8(2) . . ?
C6 N9 N8 107.4(3) . . ?
C6 N9 Zn5 135.8(3) . . ?
N8 N9 Zn5 116.8(2) . . ?
N11 N10 C7 108.3(3) . . ?
N11 N10 Zn3 117.6(2) . . ?
C7 N10 Zn3 134.1(3) . . ?
N10 N11 N12 109.2(3) . . ?
N10 N11 Zn1 125.6(2) . . ?
N12 N11 Zn1 125.1(2) . . ?
N11 N12 C8 107.4(3) . . ?
N11 N12 Zn4 121.1(2) . . ?
C8 N12 Zn4 131.4(3) . . ?
C9 N13 N14 108.2(3) . . ?
C9 N13 Zn3 133.2(2) . . ?
N14 N13 Zn3 118.5(2) . . ?
N13 N14 N15 108.6(3) . . ?
N13 N14 Zn1 125.5(2) . . ?
N15 N14 Zn1 125.8(2) . . ?
C10 N15 N14 107.9(3) . . ?
C10 N15 Zn5 133.6(2) . . ?
N14 N15 Zn5 118.5(2) . . ?
C11 N16 N17 108.5(4) . . ?
C11 N16 Zn4 130.6(3) . . ?
N17 N16 Zn4 120.7(2) . . ?
N18 N17 N16 109.2(3) . . ?
N18 N17 Zn1 124.5(2) . . ?
N16 N17 Zn1 125.7(2) . . ?
N17 N18 C12 107.5(4) . . ?
N17 N18 Zn5 119.1(2) . . ?
C12 N18 Zn5 133.4(3) . . ?
N1 C1 C2 107.6(3) . . ?
N1 C1 H1 126.2 . . ?
C2 C1 H1 126.2 . . ?
N3 C2 C1 107.3(3) . . ?
N3 C2 H2 126.3 . . ?
C1 C2 H2 126.3 . . ?
N4 C3 C4 107.2(3) . . ?
N4 C3 H3 126.4 . . ?
C4 C3 H3 126.4 . . ?
N6 C4 C3 108.4(4) . . ?
N6 C4 H4 125.8 . . ?
C3 C4 H4 125.8 . . ?
N7 C5 C6 108.0(4) . . ?
N7 C5 H5 126.0 . . ?
C6 C5 H5 126.0 . . ?
N9 C6 C5 108.2(4) . . ?
N9 C6 H6 125.9 . . ?
C5 C6 H6 125.9 . . ?
N10 C7 C8 106.8(3) . . ?
N10 C7 H7 126.6 . . ?
C8 C7 H7 126.6 . . ?
N12 C8 C7 108.3(4) . . ?
N12 C8 H8 125.8 . . ?
C7 C8 H8 125.8 . . ?
N13 C9 C10 108.0(3) . . ?
N13 C9 H9 126.0 . . ?
C10 C9 H9 126.0 . . ?
N15 C10 C9 107.3(3) . . ?
N15 C10 H10 126.3 . . ?
C9 C10 H10 126.3 . . ?
N16 C11 C12 107.7(4) . . ?
N16 C11 H11 126.1 . . ?
C12 C11 H11 126.1 . . ?
N18 C12 C11 107.1(4) . . ?
N18 C12 H12 126.5 . . ?
C11 C12 H12 126.5 . . ?
C14 C13 C18 117.6(3) . . ?
C14 C13 C19 121.7(3) . . ?
C18 C13 C19 120.6(3) . . ?
C13 C14 C15 123.6(3) . . ?
C13 C14 H14 118.2 . . ?
C15 C14 H14 118.2 . . ?
C16 C15 C14 116.7(3) . . ?
C16 C15 C27 122.1(3) . . ?
C14 C15 C27 121.3(3) . . ?
C17 C16 C15 121.2(4) . . ?
C17 C16 H16 119.4 . . ?
C15 C16 H16 119.4 . . ?
C16 C17 C18 120.9(4) . . ?
C16 C17 H17 119.5 . . ?
C18 C17 H17 119.5 . . ?
C13 C18 C17 119.9(4) . . ?
C13 C18 H18 120.0 . . ?
C17 C18 H18 120.0 . . ?
C24 C19 C20 118.0(3) . . ?
C24 C19 C13 121.1(3) . . ?
C20 C19 C13 120.9(3) . . ?
C21 C20 C19 121.5(3) . . ?
C21 C20 H20 119.2 . . ?
C19 C20 H20 119.2 . . ?
C20 C21 C22 119.3(3) . . ?
C20 C21 C25 120.7(3) . . ?
C22 C21 C25 119.9(3) . . ?
C23 C22 C21 120.5(3) . . ?
C23 C22 H22 119.8 . . ?
C21 C22 H22 119.8 . . ?
C22 C23 C24 119.0(3) . . ?
C22 C23 C26 121.2(3) . . ?
C24 C23 C26 119.8(3) . . ?
C19 C24 C23 121.8(3) . . ?
C19 C24 H24 119.1 . . ?
C23 C24 H24 119.1 . . ?
O2 C25 O1 120.4(4) . . ?
O2 C25 C21 121.8(3) . . ?
O1 C25 C21 117.7(3) . . ?
O2 C25 Zn2 73.3(2) . . ?
O1 C25 Zn2 47.84(17) . . ?
C21 C25 Zn2 163.1(3) . . ?
O4 C26 O3 120.3(4) . . ?
O4 C26 C23 121.7(4) . . ?
O3 C26 C23 117.9(4) . . ?
C32 C27 C28 117.3(3) . . ?
C32 C27 C15 120.4(3) . . ?
C28 C27 C15 122.2(3) . . ?
C29 C28 C27 121.6(3) . . ?
C29 C28 H28 119.2 . . ?
C27 C28 H28 119.2 . . ?
C30 C29 C28 119.5(3) . . ?
C30 C29 C33 120.0(3) . . ?
C28 C29 C33 120.4(3) . . ?
C29 C30 C31 120.4(3) . . ?
C29 C30 H30 119.8 . . ?
C31 C30 H30 119.8 . . ?
C32 C31 C30 118.8(3) . . ?
C32 C31 C34 120.1(3) . . ?
C30 C31 C34 121.0(3) . . ?
C31 C32 C27 122.3(3) . . ?
C31 C32 H32 118.8 . . ?
C27 C32 H32 118.8 . . ?
O6 C33 O5 121.4(3) . . ?
O6 C33 C29 121.0(4) . . ?
O5 C33 C29 117.6(3) . . ?
O8 C34 O7 123.3(4) . . ?
O8 C34 C31 121.0(4) . . ?
O7 C34 C31 115.5(3) . . ?
loop_
_geom_bond_atom_site_label_1
_geom_bond_atom_site_label_2
_geom_bond_distance
_geom_bond_site_symmetry_2
_geom_bond_publ_flag
Zn1 N5 2.121(3) . ?
Zn1 N14 2.153(3) . ?
Zn1 N17 2.180(3) . ?
Zn1 N2 2.192(3) . ?
Zn1 N11 2.216(3) . ?
Zn1 N8 2.218(3) . ?
Zn2 O1 1.968(3) . ?
Zn2 N1 2.022(3) . ?
Zn2 N7 2.035(3) . ?
Zn2 N4 2.062(3) . ?
Zn2 C25 2.581(4) . ?
Zn3 O5 1.950(3) 1_445 ?
Zn3 N10 2.016(3) . ?
Zn3 N3 2.037(3) . ?
Zn3 N13 2.040(3) . ?
Zn4 O7 1.987(3) 1_455 ?
Zn4 N16 2.048(3) . ?
Zn4 N12 2.074(3) . ?
Zn4 O9 2.155(3) . ?
Zn4 N6 2.156(3) . ?
Zn5 O3 1.936(3) 1_556 ?
Zn5 N15 2.014(3) . ?
Zn5 N9 2.019(3) . ?
Zn5 N18 2.052(3) . ?
O1 C25 1.272(4) . ?
O2 C25 1.222(5) . ?
O3 C26 1.267(5) . ?
O4 C26 1.202(5) . ?
O5 C33 1.272(5) . ?
O6 C33 1.243(5) . ?
O7 C34 1.279(5) . ?
O8 C34 1.215(5) . ?
N1 N2 1.325(4) . ?
N1 C1 1.339(4) . ?
N2 N3 1.319(4) . ?
N3 C2 1.354(5) . ?
N4 N5 1.327(4) . ?
N4 C3 1.340(5) . ?
N5 N6 1.329(4) . ?
N6 C4 1.336(5) . ?
N7 N8 1.332(4) . ?
N7 C5 1.345(5) . ?
N8 N9 1.350(4) . ?
N9 C6 1.334(5) . ?
N10 N11 1.330(4) . ?
N10 C7 1.343(5) . ?
N11 N12 1.331(4) . ?
N12 C8 1.340(5) . ?
N13 C9 1.325(5) . ?
N13 N14 1.329(4) . ?
N14 N15 1.341(4) . ?
N15 C10 1.331(5) . ?
N16 C11 1.310(5) . ?
N16 N17 1.342(4) . ?
N17 N18 1.325(4) . ?
N18 C12 1.349(5) . ?
C1 C2 1.361(5) . ?
C1 H1 0.9300 . ?
C2 H2 0.9300 . ?
C3 C4 1.353(6) . ?
C3 H3 0.9300 . ?
C4 H4 0.9300 . ?
C5 C6 1.350(6) . ?
C5 H5 0.9300 . ?
C6 H6 0.9300 . ?
C7 C8 1.359(6) . ?
C7 H7 0.9300 . ?
C8 H8 0.9300 . ?
C9 C10 1.363(5) . ?
C9 H9 0.9300 . ?
C10 H10 0.9300 . ?
C11 C12 1.379(7) . ?
C11 H11 0.9300 . ?
C12 H12 0.9300 . ?
C13 C14 1.377(5) . ?
C13 C18 1.389(5) . ?
C13 C19 1.504(5) . ?
C14 C15 1.398(5) . ?
C14 H14 0.9300 . ?
C15 C16 1.386(5) . ?
C15 C27 1.495(5) . ?
C16 C17 1.364(5) . ?
C16 H16 0.9300 . ?
C17 C18 1.390(6) . ?
C17 H17 0.9300 . ?
C18 H18 0.9300 . ?
C19 C24 1.377(5) . ?
C19 C20 1.393(5) . ?
C20 C21 1.385(5) . ?
C20 H20 0.9300 . ?
C21 C22 1.391(5) . ?
C21 C25 1.499(5) . ?
C22 C23 1.379(5) . ?
C22 H22 0.9300 . ?
C23 C24 1.399(5) . ?
C23 C26 1.494(5) . ?
C24 H24 0.9300 . ?
C27 C32 1.390(5) . ?
C27 C28 1.393(5) . ?
C28 C29 1.385(5) . ?
C28 H28 0.9300 . ?
C29 C30 1.384(5) . ?
C29 C33 1.496(5) . ?
C30 C31 1.391(5) . ?
C30 H30 0.9300 . ?
C31 C32 1.384(5) . ?
C31 C34 1.500(5) . ?
C32 H32 0.9300 . ?
loop_
_platon_squeeze_void_nr
_platon_squeeze_void_average_x
_platon_squeeze_void_average_y
_platon_squeeze_void_average_z
_platon_squeeze_void_volume
_platon_squeeze_void_count_electrons
_platon_squeeze_void_content
1 -0.012 -0.001 0.000 1214 308 ' '
2 0.500 0.500 0.500 30 0 ' '
