#------------------------------------------------------------------------------
#$Date: 2020-02-14 00:18:46 +0200 (Fri, 14 Feb 2020) $
#$Revision: 248124 $
#$URL: file:///home/coder/svn-repositories/cod/cif/4/51/74/4517408.cif $
#------------------------------------------------------------------------------
#
# This file is available in the Crystallography Open Database (COD),
# http://www.crystallography.net/
#
# All data on this site have been placed in the public domain by the
# contributors.
#
data_4517408
loop_
_publ_author_name
'Chen, Wei'
'Liu, Haiyu'
'Fan, Ruiqing'
'Wang, Ping'
'Sun, Tiancheng'
'Yang, Yulin'
_publ_section_title
;
 Formation and Encapsulation of Lead Halide Perovskites in Lanthanide
 Metal-Organic Frameworks for Tunable Emission.
;
_journal_name_full               'ACS applied materials &amp; interfaces'
_journal_paper_doi               10.1021/acsami.9b23617
_journal_year                    2020
_chemical_formula_moiety         'C30 H24 N Nd O11'
_chemical_formula_sum            'C30 H24 N Nd O11'
_chemical_formula_weight         718.74
_space_group_crystal_system      triclinic
_space_group_IT_number           2
_space_group_name_Hall           '-P 1'
_space_group_name_H-M_alt        'P -1'
_atom_sites_solution_hydrogens   mixed
_atom_sites_solution_primary     direct
_audit_creation_date             2019-05-29
_audit_creation_method
;
Olex2 1.2
(compiled 2018.05.29 svn.r3508 for OlexSys, GUI svn.r5506)
;
_cell_angle_alpha                65.9520(10)
_cell_angle_beta                 72.572(2)
_cell_angle_gamma                88.782(2)
_cell_formula_units_Z            2
_cell_length_a                   11.0203(7)
_cell_length_b                   11.5372(7)
_cell_length_c                   12.5800(8)
_cell_measurement_reflns_used    9051
_cell_measurement_temperature    293(2)
_cell_measurement_theta_max      30.54
_cell_measurement_theta_min      2.57
_cell_volume                     1384.23(15)
_computing_cell_refinement       'SAINT V8.38A (?, 2016)'
_computing_data_reduction        'SAINT V8.38A (?, 2016)'
_computing_molecular_graphics    'Olex2 (Dolomanov et al., 2009)'
_computing_publication_material  'Olex2 (Dolomanov et al., 2009)'
_computing_structure_refinement  'XL (Sheldrick, 2008)'
_computing_structure_solution    'XS (Sheldrick, 2008)'
_diffrn_ambient_temperature      293
_diffrn_measured_fraction_theta_full 0.946
_diffrn_measured_fraction_theta_max 0.963
_diffrn_measurement_device_type  'CCD area detector'
_diffrn_measurement_method       'phi and omega scans'
_diffrn_radiation_monochromator  graphite
_diffrn_radiation_type           MoK\a
_diffrn_radiation_wavelength     0.71073
_diffrn_reflns_av_R_equivalents  0.0322
_diffrn_reflns_av_unetI/netI     0.0360
_diffrn_reflns_Laue_measured_fraction_full 0.946
_diffrn_reflns_Laue_measured_fraction_max 0.963
_diffrn_reflns_limit_h_max       15
_diffrn_reflns_limit_h_min       -15
_diffrn_reflns_limit_k_max       16
_diffrn_reflns_limit_k_min       -16
_diffrn_reflns_limit_l_max       17
_diffrn_reflns_limit_l_min       -17
_diffrn_reflns_number            22617
_diffrn_reflns_point_group_measured_fraction_full 0.946
_diffrn_reflns_point_group_measured_fraction_max 0.963
_diffrn_reflns_theta_full        26.500
_diffrn_reflns_theta_max         30.545
_diffrn_reflns_theta_min         2.566
_exptl_absorpt_coefficient_mu    1.941
_exptl_absorpt_correction_T_max  0.7461
_exptl_absorpt_correction_T_min  0.5394
_exptl_absorpt_correction_type   multi-scan
_exptl_crystal_colour            orange
_exptl_crystal_colour_primary    orange
_exptl_crystal_density_diffrn    1.724
_exptl_crystal_description       block
_exptl_crystal_F_000             718
_exptl_crystal_size_max          0.3
_exptl_crystal_size_mid          0.28
_exptl_crystal_size_min          0.26
_refine_diff_density_max         1.466
_refine_diff_density_min         -1.032
_refine_diff_density_rms         0.090
_refine_ls_extinction_method     none
_refine_ls_goodness_of_fit_ref   1.129
_refine_ls_hydrogen_treatment    constr
_refine_ls_matrix_type           full
_refine_ls_number_parameters     401
_refine_ls_number_reflns         8161
_refine_ls_number_restraints     0
_refine_ls_restrained_S_all      1.129
_refine_ls_R_factor_all          0.0278
_refine_ls_R_factor_gt           0.0239
_refine_ls_shift/su_max          0.001
_refine_ls_shift/su_mean         0.000
_refine_ls_structure_factor_coef Fsqd
_refine_ls_weighting_details
'w=1/[\s^2^(Fo^2^)+(0.0342P)^2^+0.8166P] where P=(Fo^2^+2Fc^2^)/3'
_refine_ls_weighting_scheme      calc
_refine_ls_wR_factor_gt          0.0638
_refine_ls_wR_factor_ref         0.0739
_reflns_Friedel_coverage         0.000
_reflns_number_gt                7591
_reflns_number_total             8161
_reflns_threshold_expression     'I > 2\s(I)'
_cod_data_source_file            am9b23617_si_002.cif
_cod_data_source_block           Ndtpob
_cod_database_code               4517408
_shelx_shelxl_version_number     2018/3
_shelx_space_group_comment
;
The symmetry employed for this shelxl refinement is uniquely defined
by the following loop, which should always be used as a source of
symmetry information in preference to the above space-group names.
They are only intended as comments.
;
_shelx_estimated_absorpt_t_max   0.632
_shelx_estimated_absorpt_t_min   0.594
_olex2_refinement_description
;
1. Fixed Uiso
 At 1.2 times of:
  All C(H) groups
 At 1.5 times of:
  All C(H,H,H) groups, All O(H,H) groups
2. Others
 Fixed Sof: O11A(0.5) H11A(0.5) H11B(0.5) O11B(0.5) H11C(0.5) H11D(0.5)
3.a Rotating group:
 O11A(H11A,H11B), O11B(H11C,H11D)
3.b Aromatic/amide H refined with riding coordinates:
 C2(H2), C4(H4), C6(H6), C9(H9), C10(H10), C11(H11), C12(H12), C16(H16),
 C17(H17), C18(H18), C19(H19), C23(H23), C24(H24), C25(H25), C26(H26), C28(H28)
3.c Idealised Me refined as rotating group:
 C29(H29A,H29B,H29C), C30(H30A,H30B,H30C)
;
_shelx_res_file
;
TITL 1 in P1 #1 New: P-1
    1.res
    created by SHELXL-2018/3 at 14:38:00 on 29-May-2019
CELL 0.71073 11.0203 11.5372 12.58 65.952 72.572 88.782
ZERR 2 0.0007 0.0007 0.0008 0.001 0.002 0.002
LATT 1
SFAC C H N Nd O
UNIT 60 48 2 2 22

L.S. 5
PLAN  -20
SIZE 0.26 0.28 0.3
BOND $H
CONF
htab
fmap 2
acta 53
REM <olex2.extras>
REM <HklSrc "%.\\1.hkl">
REM </olex2.extras>

WGHT    0.034200    0.816600
FVAR       0.33746
ND1   4    0.818180    0.452075    0.021425    11.00000    0.01683    0.01654 =
         0.02106   -0.00734   -0.00520    0.00177
O1    5   -0.016157    0.351414    0.475499    11.00000    0.04246    0.04080 =
         0.03160   -0.02378   -0.02001    0.01897
O2    5   -0.049402    0.060444    0.298798    11.00000    0.02437    0.03140 =
         0.03528   -0.01809   -0.00781   -0.00130
O3    5    0.342351    0.146051    0.355460    11.00000    0.02037    0.05519 =
         0.04418   -0.03083   -0.01011    0.00568
O4    5   -0.045984    0.469620    0.135790    11.00000    0.02413    0.02827 =
         0.02088   -0.01107   -0.00586    0.00035
O5    5    0.101755    0.520318    0.199208    11.00000    0.02339    0.04580 =
         0.02730   -0.01638   -0.00718   -0.00104
O6    5   -0.062341    0.272296    0.055822    11.00000    0.02880    0.01948 =
         0.04566   -0.01259   -0.01458    0.00606
O7    5    0.144810    0.324148    0.020619    11.00000    0.03140    0.01857 =
         0.04997   -0.01348   -0.01641    0.00267
O8    5    0.663241    0.381326    0.212234    11.00000    0.03030    0.06481 =
         0.03415   -0.02070    0.00367   -0.01207
O9    5    0.462065    0.407225    0.219487    11.00000    0.04688    0.05824 =
         0.04159   -0.00526   -0.01554    0.01211
O10   5    0.676907    0.297938    0.011005    11.00000    0.03916    0.04376 =
         0.05535   -0.02548   -0.01691   -0.00544
PART 1
O11A  5    0.629262    0.550614   -0.024761    10.50000    0.03412    0.03948 =
         0.05261   -0.01903   -0.02148    0.01105
AFIX   7
H11A  2    0.617294    0.539842   -0.085914    10.50000   -1.50000
H11B  2    0.642314    0.633712   -0.052312    10.50000   -1.50000
AFIX   0
PART 0
PART 2
O11B  5    0.680191    0.598754   -0.090228    10.50000    0.03894    0.02993 =
         0.04803   -0.01095   -0.02432    0.00953
AFIX   7
H11C  2    0.704506    0.678153   -0.109642    10.50000   -1.50000
H11D  2    0.602009    0.585789   -0.040900    10.50000   -1.50000
AFIX   0
PART 0
N1    3    0.525755    0.236062   -0.047463    11.00000    0.03282    0.04514 =
         0.04481   -0.02452   -0.01293   -0.00059
C1    1    0.033162    0.268751    0.423508    11.00000    0.02980    0.02561 =
         0.02019   -0.00991   -0.00780    0.00600
C2    1   -0.037470    0.205562    0.384279    11.00000    0.02419    0.02665 =
         0.02594   -0.01040   -0.00900    0.00459
AFIX  43
H2    2   -0.122450    0.218055    0.390121    11.00000   -1.20000
AFIX   0
C3    1    0.023816    0.122720    0.335828    11.00000    0.02476    0.02150 =
         0.02407   -0.00790   -0.00776   -0.00017
C4    1    0.149539    0.101385    0.328390    11.00000    0.02554    0.02670 =
         0.03040   -0.01476   -0.00776    0.00317
AFIX  43
H4    2    0.188975    0.045571    0.296039    11.00000   -1.20000
AFIX   0
C5    1    0.215405    0.165946    0.370777    11.00000    0.02042    0.03034 =
         0.02759   -0.01196   -0.00543    0.00114
C6    1    0.159269    0.249612    0.418343    11.00000    0.02835    0.02818 =
         0.02916   -0.01373   -0.01034    0.00197
AFIX  43
H6    2    0.204459    0.292044    0.446183    11.00000   -1.20000
AFIX   0
C7    1   -0.112803    0.422174    0.445972    11.00000    0.02767    0.02657 =
         0.02550   -0.01486   -0.00745    0.00488
C8    1   -0.115645    0.487997    0.326513    11.00000    0.02298    0.02385 =
         0.02402   -0.01384   -0.00521    0.00312
C9    1   -0.215544    0.561767    0.307325    11.00000    0.03267    0.03248 =
         0.03660   -0.01756   -0.01146    0.01142
AFIX  43
H9    2   -0.220272    0.604309    0.228265    11.00000   -1.20000
AFIX   0
C10   1   -0.307945    0.572401    0.404848    11.00000    0.03324    0.04506 =
         0.05334   -0.03081   -0.00986    0.01728
AFIX  43
H10   2   -0.373289    0.623016    0.390840    11.00000   -1.20000
AFIX   0
C11   1   -0.302704    0.507910    0.522325    11.00000    0.03661    0.04726 =
         0.04164   -0.02960   -0.00128    0.00864
AFIX  43
H11   2   -0.363905    0.515734    0.587690    11.00000   -1.20000
AFIX   0
C12   1   -0.207032    0.432013    0.542917    11.00000    0.03956    0.04086 =
         0.02743   -0.01931   -0.00330    0.00603
AFIX  43
H12   2   -0.205323    0.386666    0.622727    11.00000   -1.20000
AFIX   0
C13   1   -0.013146    0.490996    0.215568    11.00000    0.02286    0.02135 =
         0.02072   -0.00930   -0.00665    0.00392
C14   1    0.018164    0.019040    0.209988    11.00000    0.02891    0.02130 =
         0.03424   -0.01350   -0.01481    0.00355
C15   1    0.070590    0.107723    0.088978    11.00000    0.02415    0.01685 =
         0.03315   -0.01158   -0.01173    0.00339
C16   1    0.139835    0.066461    0.001152    11.00000    0.03217    0.02601 =
         0.03724   -0.01655   -0.01100    0.00458
AFIX  43
H16   2    0.176992    0.125400   -0.079806    11.00000   -1.20000
AFIX   0
C17   1    0.153723   -0.062384    0.033844    11.00000    0.04222    0.03059 =
         0.05308   -0.02803   -0.01970    0.01192
AFIX  43
H17   2    0.200127   -0.089762   -0.024927    11.00000   -1.20000
AFIX   0
C18   1    0.097750   -0.150118    0.155060    11.00000    0.05644    0.02035 =
         0.05903   -0.01956   -0.02940    0.01284
AFIX  43
H18   2    0.105634   -0.236546    0.176809    11.00000   -1.20000
AFIX   0
C19   1    0.030123   -0.109802    0.244010    11.00000    0.05200    0.01880 =
         0.03876   -0.00743   -0.01928    0.00356
AFIX  43
H19   2   -0.006528   -0.168509    0.325143    11.00000   -1.20000
AFIX   0
C20   1    0.048840    0.246095    0.052602    11.00000    0.02809    0.01547 =
         0.02912   -0.00785   -0.00780    0.00511
C21   1    0.397370    0.157033    0.436571    11.00000    0.02118    0.03160 =
         0.03207   -0.01387   -0.00743    0.00354
C22   1    0.502622    0.246704    0.391902    11.00000    0.02059    0.03042 =
         0.02634   -0.01240   -0.00438    0.00269
C23   1    0.569894    0.241826    0.471757    11.00000    0.02682    0.04164 =
         0.03910   -0.01977   -0.01164    0.00263
AFIX  43
H23   2    0.642630    0.299198    0.442917    11.00000   -1.20000
AFIX   0
C24   1    0.529640    0.152759    0.593099    11.00000    0.04789    0.05515 =
         0.03851   -0.01864   -0.02358    0.01340
AFIX  43
H24   2    0.575302    0.150310    0.645172    11.00000   -1.20000
AFIX   0
C25   1    0.421508    0.067630    0.636490    11.00000    0.05255    0.04974 =
         0.03153   -0.00437   -0.01107    0.00777
AFIX  43
H25   2    0.392623    0.009649    0.718611    11.00000   -1.20000
AFIX   0
C26   1    0.355613    0.068425    0.557512    11.00000    0.03182    0.03594 =
         0.04127   -0.00620   -0.00177   -0.00352
AFIX  43
H26   2    0.284034    0.009712    0.586038    11.00000   -1.20000
AFIX   0
C27   1    0.544124    0.351623    0.264047    11.00000    0.03024    0.03603 =
         0.02690   -0.01385   -0.00257   -0.00152
C28   1    0.627271    0.310064   -0.067963    11.00000    0.03357    0.03730 =
         0.04314   -0.02035   -0.01142    0.00185
AFIX  43
H28   2    0.663332    0.374889   -0.146236    11.00000   -1.20000
AFIX   0
C29   1    0.459346    0.139692    0.071401    11.00000    0.08230    0.07960 =
         0.05103   -0.01545   -0.01372   -0.03888
AFIX 137
H29A  2    0.494754    0.060594    0.081389    11.00000   -1.50000
H29B  2    0.370284    0.128755    0.079981    11.00000   -1.50000
H29C  2    0.468275    0.164822    0.132886    11.00000   -1.50000
AFIX   0
C30   1    0.466040    0.262851   -0.142860    11.00000    0.06705    0.08160 =
         0.06872   -0.02902   -0.03603   -0.00607
AFIX 137
H30A  2    0.508286    0.340663   -0.212388    11.00000   -1.50000
H30B  2    0.377238    0.271762   -0.111453    11.00000   -1.50000
H30C  2    0.473326    0.193746   -0.167476    11.00000   -1.50000
AFIX   0
HKLF 4




REM  1 in P1 #1 New: P-1
REM wR2 = 0.0739, GooF = S = 1.129, Restrained GooF = 1.129 for all data
REM R1 = 0.0239 for 7591 Fo > 4sig(Fo) and 0.0278 for all 8161 data
REM 401 parameters refined using 0 restraints

END

WGHT      0.0257      0.7600

REM Instructions for potential hydrogen bonds
EQIV $2 -x+1, -y+1, -z
HTAB O11A O9_$2
HTAB O11A N1_$2
EQIV $5 -x, -y, -z+1
HTAB C19 O1_$5
HTAB C26 O2_$5
HTAB C28 O5_$2
HTAB C29 O3

REM Highest difference peak  1.466,  deepest hole -1.032,  1-sigma level  0.090
Q1    1   0.5419  0.6401 -0.0617  11.00000  0.05    1.47
Q2    1   0.8366  0.4455  0.0846  11.00000  0.05    0.84
Q3    1   0.8084  0.4684 -0.0416  11.00000  0.05    0.70
Q4    1   0.7248  0.1625  0.1523  11.00000  0.05    0.63
Q5    1   0.3819  0.3999  0.1114  11.00000  0.05    0.53
Q6    1   0.9028  0.5017 -0.0120  11.00000  0.05    0.52
Q7    1   0.7808  0.3369  0.0935  11.00000  0.05    0.51
Q8    1   0.3987  0.0942  0.0713  11.00000  0.05    0.49
Q9    1   0.6426  0.5896 -0.1277  11.00000  0.05    0.46
Q10   1   0.5920  0.2392  0.0435  11.00000  0.05    0.45
Q11   1   0.7074  0.2949  0.2422  11.00000  0.05    0.45
Q12   1   0.5119  0.1807  0.0109  11.00000  0.05    0.43
Q13   1   0.7392  0.3960  0.0512  11.00000  0.05    0.42
Q14   1   0.8822  0.5362 -0.0320  11.00000  0.05    0.41
Q15   1   0.8660  0.3598  0.0180  11.00000  0.05    0.41
Q16   1   0.5969  0.7007 -0.0598  11.00000  0.05    0.39
Q17   1   0.0833  0.1213  0.3332  11.00000  0.05    0.38
Q18   1   0.4356  0.2161  0.4118  11.00000  0.05    0.38
Q19   1  -0.0034  0.2351  0.3976  11.00000  0.05    0.38
Q20   1  -0.0628  0.4873  0.2761  11.00000  0.05    0.37
;
_shelx_res_checksum              62681
_shelx_hkl_file
;
  -4   0   0   58.37    2.75
  -4   0   0   61.83    2.90
   4   0   0   61.61    2.77
  -5   0   0  447.09   18.86
   5   0   0  491.88   18.84
  -7   0   0   42.63    2.28
  -7   0   0   37.81    2.38
   7   0   0   39.84    2.26
  -8   0   0  515.34   21.13
  -8   0   0  497.39   20.51
   8   0   0  505.68   20.53
  -9   0   0   85.70    4.34
  -9   0   0   85.19    4.52
   9   0   0   87.09    4.37
 -10   0   0    9.31    1.26
 -10   0   0    8.23    1.28
 -11   0   0  109.63    5.54
  11   0   0  109.56    5.56
 -12   0   0    3.19    0.87
 -12   0   0    4.26    1.03
  12   0   0    5.06    1.10
 -13   0   0   66.11    3.99
  13   0   0   57.05    4.27
 -14   0   0  110.06    5.80
  14   0   0   95.93    5.68
  15  -1   0   40.30    3.25
 -15   1   0   44.48    3.40
  14  -1   0  168.83    8.48
 -14   1   0  177.22    8.47
  13  -1   0   12.60    1.72
 -13   1   0   14.86    1.78
 -13   1   0   12.52    1.63
  12  -1   0   61.75    3.80
 -12   1   0   57.84    3.88
 -12   1   0   69.90    3.86
  11  -1   0  273.44   11.93
 -11   1   0  283.09   11.91
 -11   1   0  262.44   12.20
  10  -1   0   39.97    2.57
 -10   1   0   39.00    2.52
 -10   1   0   37.16    2.76
   9  -1   0  124.99    6.17
  -9   1   0  117.29    6.03
  -9   1   0  122.01    5.69
   8  -1   0  441.93   17.91
  -8   1   0  445.05   17.88
  -8   1   0  428.50   18.26
   7  -1   0   17.13    1.29
  -7   1   0   15.37    1.41
  -7   1   0   14.88    1.19
   5  -1   0  355.86   14.25
   5  -1   0  337.74   13.81
  -5   1   0  331.42   13.77
  -5   1   0  344.99   14.10
   4  -1   0    9.80    0.80
   4  -1   0   10.88    0.83
   4  -1   0    8.87    0.69
  -4   1   0    8.82    0.83
  -4   1   0   10.48    0.72
  -1  -1   0   91.68    3.74
   1   1   0   90.27    3.73
   1   1   0   93.93    3.76
  -4  -1   0   35.37    1.80
  -4  -1   0   33.38    1.81
   4   1   0   34.33    1.75
   4   1   0   36.34    1.81
  -5  -1   0  110.06    4.88
  -5  -1   0  108.98    4.93
   5   1   0  112.75    4.89
   5   1   0  111.87    5.06
  -6  -1   0  322.36   13.18
  -6  -1   0  305.26   13.23
   6   1   0  328.33   13.16
   6   1   0  331.25   13.19
  -7  -1   0  149.61    6.83
  -7  -1   0  150.65    6.75
   7   1   0  159.59    6.77
  -8  -1   0  297.11   12.41
  -8  -1   0  284.24   12.46
   8   1   0  304.06   12.40
  -9  -1   0   -0.45    0.42
   9   1   0    0.35    0.44
 -10  -1   0  261.60   10.94
 -10  -1   0  230.08   10.83
  10   1   0  255.40   10.88
 -11  -1   0  202.06    9.00
 -11  -1   0  177.65    8.81
  11   1   0  206.16    8.98
 -12  -1   0    3.30    0.83
 -12  -1   0    3.65    1.00
  12   1   0    2.93    0.91
 -14  -1   0   93.72    5.24
  14   1   0   79.33    4.94
  15  -2   0   24.40    2.54
 -15   2   0   24.44    2.55
  14  -2   0  115.74    6.12
 -14   2   0  100.95    6.09
 -14   2   0  118.33    6.08
  13  -2   0    0.50    0.66
 -13   2   0   -0.18    0.59
  12  -2   0  131.97    6.60
 -12   2   0  125.51    6.93
 -12   2   0  140.30    6.56
  11  -2   0  159.82    7.42
 -11   2   0  149.17    7.80
 -11   2   0  159.84    7.32
  10  -2   0    6.47    1.04
 -10   2   0    7.16    1.30
   9  -2   0  187.06    8.13
  -9   2   0  179.53    8.59
  -9   2   0  179.70    8.02
   8  -2   0  182.16    8.06
  -8   2   0  188.90    8.58
  -8   2   0  182.59    8.00
   7  -2   0  166.97    7.26
  -7   2   0  163.72    7.19
  -7   2   0  169.59    7.71
   5  -2   0   30.53    1.78
  -5   2   0   34.69    2.12
  -5   2   0   35.18    1.80
   3  -2   0  274.87   10.96
  -3   2   0  252.65   10.80
  -3   2   0  271.50   11.02
  -3   2   0  267.14   10.67
  -1  -2   0    6.28    0.50
  -1  -2   0    5.71    0.36
   1   2   0    5.54    0.38
   1   2   0    5.22    0.47
  -4  -2   0   10.27    0.83
  -4  -2   0   10.45    0.97
   4   2   0   12.24    0.86
   4   2   0   11.60    0.82
   6   2   0    1.45    0.40
   6   2   0    1.86    0.41
  -7  -2   0  140.60    6.44
  -7  -2   0  142.54    6.45
   7   2   0  147.29    6.41
  -8  -2   0  192.53    8.38
  -8  -2   0  182.89    8.32
   8   2   0  192.01    8.31
  -9  -2   0    3.37    0.78
  -9  -2   0    1.68    0.66
   9   2   0    3.93    0.75
 -10  -2   0  221.57   10.04
  10   2   0  228.54   10.00
 -11  -2   0  182.41    8.77
 -11  -2   0  208.87    9.14
  11   2   0  195.54    8.95
 -12  -2   0   22.14    2.20
 -12  -2   0   21.96    1.85
  12   2   0   22.33    2.16
 -13  -2   0  140.39    7.22
 -14  -2   0   34.37    3.00
  14   2   0   32.60    2.79
  14  -3   0  101.90    5.66
 -14   3   0  106.13    6.00
 -14   3   0   91.88    6.97
  13  -3   0    1.05    0.79
 -13   3   0    1.24    0.79
 -13   3   0    0.39    0.79
  12  -3   0  190.99    8.90
 -12   3   0  188.58    8.70
  11  -3   0   95.74    4.89
 -11   3   0   83.14    5.30
 -11   3   0   94.91    4.75
  10  -3   0    4.75    0.97
 -10   3   0    4.40    1.17
 -10   3   0    4.93    1.09
   9  -3   0  237.31    9.88
  -9   3   0  222.56   10.48
  -9   3   0  218.39    9.71
   8  -3   0   16.55    1.37
  -8   3   0   17.21    1.77
  -8   3   0   17.76    1.39
   7  -3   0  108.89    5.03
  -7   3   0  109.92    4.98
  -7   3   0  108.09    5.53
   6  -3   0  445.24   18.19
  -6   3   0  458.03   18.79
   5  -3   0    1.92    0.40
   5  -3   0    1.81    0.38
  -5   3   0    1.08    0.48
  -1  -3   0    5.42    0.41
  -1  -3   0    5.11    0.50
  -3  -3   0  127.88    5.45
  -3  -3   0  124.82    5.23
   3   3   0  124.38    5.45
   3   3   0  131.19    5.30
   3   3   0  124.32    5.46
  -4  -3   0  296.01   12.04
  -4  -3   0  303.94   12.06
   4   3   0  273.40   11.96
   4   3   0  287.31   12.00
   4   3   0  309.12   11.90
  -5  -3   0  454.75   17.77
   5   3   0  419.12   17.67
   5   3   0  444.13   17.71
  -6  -3   0   53.86    2.86
  -6  -3   0   56.56    2.96
   6   3   0   56.07    2.83
   6   3   0   50.45    2.79
   6   3   0   58.56    2.85
  -7  -3   0  444.55   18.30
  -7  -3   0  469.23   18.45
   7   3   0  471.41   18.31
   7   3   0  412.46   18.17
  -8  -3   0  315.39   13.03
  -8  -3   0  307.23   12.78
   8   3   0  277.43   12.60
   8   3   0  315.41   12.81
  -9  -3   0   14.48    1.54
  -9  -3   0   13.58    1.33
   9   3   0   13.69    1.44
   9   3   0   12.97    1.24
 -10  -3   0  284.90   12.69
 -10  -3   0  318.80   13.09
  10   3   0  264.82   12.47
  10   3   0  330.63   13.00
 -11  -3   0   56.36    3.62
  11   3   0   54.69    3.42
 -12  -3   0   77.46    4.61
  12   3   0   68.84    4.20
 -13  -3   0  158.93    8.07
 -14  -3   0    9.99    1.66
  14   3   0    8.54    1.43
  14  -4   0   53.39    3.65
 -14   4   0   45.71    3.96
  13  -4   0    9.90    1.56
 -13   4   0   11.77    2.04
 -13   4   0   14.79    1.70
  12  -4   0  202.20    9.37
 -12   4   0  205.05    9.17
 -12   4   0  196.05   10.09
  11  -4   0   12.09    1.41
 -11   4   0    9.86    1.31
 -11   4   0    9.52    1.70
  10  -4   0   67.51    3.82
 -10   4   0   67.87    3.74
 -10   4   0   67.39    4.41
   9  -4   0  355.32   14.56
  -9   4   0  345.64   14.43
  -9   4   0  338.01   15.31
   8  -4   0    1.44    0.47
  -8   4   0    0.08    0.58
  -8   4   0    0.26    0.38
   7  -4   0  221.11    9.58
  -7   4   0  226.20    9.53
  -7   4   0  229.01   10.34
   6  -4   0  101.01    4.69
   6  -4   0  101.01    4.66
  -6   4   0  103.23    4.66
  -6   4   0  103.55    5.34
   5  -4   0  111.59    5.02
  -5   4   0  115.39    5.68
   3  -4   0  128.77    5.66
   3  -4   0  140.88    5.76
   0  -4   0  155.50    6.54
   0  -4   0  155.98    6.36
   0  -4   0  163.59    6.40
   0   4   0  158.28    6.83
   0   4   0  146.75    6.34
  -1  -4   0   84.74    3.96
  -1  -4   0   96.79    3.94
  -1  -4   0   85.54    3.77
   1   4   0   89.38    4.16
  -3  -4   0  110.27    4.80
  -3  -4   0  115.87    5.12
   3   4   0  121.07    5.18
   3   4   0  113.47    5.18
   3   4   0  113.04    4.89
  -5  -4   0  336.97   13.77
   5   4   0  314.56   13.62
   5   4   0  346.85   13.84
  -6  -4   0    8.64    0.96
   6   4   0    8.13    0.90
   6   4   0    8.34    0.90
  -7  -4   0  246.78   10.64
   7   4   0  230.16   10.33
   7   4   0  260.21   10.48
  -8  -4   0  170.68    7.79
   8   4   0  173.03    7.60
   8   4   0  162.89    7.41
  -9  -4   0    2.44    0.77
   9   4   0    2.31    0.56
   9   4   0    2.42    0.76
 -10  -4   0  232.01   10.20
  10   4   0  231.16    9.95
  10   4   0  202.50    9.39
 -11  -4   0    8.11    1.42
  11   4   0    7.93    1.01
  11   4   0    9.12    1.38
 -12  -4   0  116.14    6.25
  12   4   0  115.37    6.03
 -13  -4   0  150.13    7.98
  13   4   0  159.40    8.34
  14  -5   0   27.24    2.56
 -14   5   0   30.20    2.79
 -14   5   0   18.13    2.68
  13  -5   0   72.32    4.42
 -13   5   0   66.87    4.95
 -13   5   0   69.25    4.07
 -12   5   0  118.99    7.00
 -12   5   0  119.52    5.97
  11  -5   0    1.00    0.69
 -11   5   0   -0.12    0.50
 -11   5   0    0.25    0.68
  10  -5   0  240.71   10.51
 -10   5   0  232.75   11.40
   9  -5   0  343.68   14.51
  -9   5   0  343.13   15.49
  -9   5   0  345.72   14.38
   8  -5   0   24.88    1.87
  -8   5   0   22.56    1.74
  -8   5   0   22.91    2.34
   7  -5   0  410.52   16.71
   7  -5   0  402.46   16.67
  -7   5   0  400.99   17.63
  -7   5   0  415.66   16.66
   6  -5   0  243.09   10.23
   6  -5   0  239.04   10.23
  -6   5   0  240.55   10.20
  -6   5   0  252.27   11.17
   5  -5   0  160.19    7.16
   5  -5   0  169.83    7.22
  -5   5   0  172.99    8.05
   3  -5   0    3.08    0.50
   3  -5   0    2.45    0.50
  -3   5   0    2.10    0.67
   0  -5   0  289.99   11.71
   0  -5   0  284.36   11.45
   0  -5   0  287.65   11.49
   0   5   0  256.63   11.41
   0   5   0  309.94   12.18
  -1  -5   0  169.00    7.45
  -1  -5   0  170.15    7.18
  -1  -5   0  176.90    7.20
   1   5   0  185.03    7.75
  -3  -5   0   31.08    1.84
   3   5   0   26.99    1.83
   3   5   0   27.61    1.58
  -4  -5   0  272.72   11.84
   4   5   0  283.31   11.56
   4   5   0  292.15   11.87
  -5  -5   0   76.14    4.04
   5   5   0   80.12    3.80
   5   5   0   84.89    4.02
  -6  -5   0  121.28    5.89
   6   5   0  123.01    5.62
   6   5   0  127.87    5.74
  -7  -5   0  257.69   11.17
   7   5   0  252.08   10.83
   7   5   0  256.65   10.85
  -8  -5   0   23.99    2.03
   8   5   0   24.05    1.74
   8   5   0   22.23    1.80
  -9  -5   0  100.31    5.37
   9   5   0   99.33    4.83
   9   5   0  103.92    5.14
 -10  -5   0  123.28    6.29
  10   5   0  117.60    5.88
  10   5   0  113.82    5.41
  11   5   0   -0.55    0.48
 -12  -5   0   76.62    4.79
  12   5   0   72.56    4.41
 -13  -5   0   47.27    3.74
  13   5   0   44.98    3.29
  14  -6   0    2.86    1.09
 -14   6   0    2.94    1.00
  13  -6   0   98.85    5.52
 -13   6   0   86.80    6.22
 -13   6   0  102.73    5.27
  12  -6   0   99.71    5.38
 -12   6   0   91.37    6.22
 -12   6   0  100.63    5.17
  11  -6   0   -0.17    0.62
 -11   6   0    0.44    0.83
 -11   6   0    0.08    0.61
  10  -6   0  121.49    6.07
 -10   6   0  120.99    5.87
 -10   6   0  124.07    7.07
   9  -6   0   53.08    3.20
  -9   6   0   54.90    4.06
  -9   6   0   51.62    3.07
   8  -6   0  140.86    6.54
   8  -6   0  143.36    6.58
  -8   6   0  143.89    6.49
  -8   6   0  137.38    7.65
   7  -6   0  335.15   14.38
   7  -6   0  354.42   14.43
  -7   6   0  340.04   14.35
  -7   6   0  358.25   15.62
   6  -6   0   25.48    1.78
   6  -6   0   27.78    1.82
  -6   6   0   26.38    2.47
   5  -6   0  183.45    8.09
   5  -6   0  188.85    8.17
  -5   6   0  197.52    9.17
   4  -6   0  437.03   17.69
   4  -6   0  422.95   17.56
  -4   6   0  450.43   18.64
   3  -6   0   45.05    2.35
   3  -6   0   47.87    2.51
  -3   6   0   47.50    3.08
   1  -6   0  471.71   19.52
  -1   6   0  497.97   20.11
   0  -6   0  179.14    7.64
   0  -6   0  174.16    7.31
   0   6   0  176.75    8.02
  -1  -6   0  491.77   19.90
  -2  -6   0  333.86   13.94
  -2  -6   0  338.24   14.34
   2   6   0  370.08   14.61
  -3  -6   0  249.12   10.86
  -3  -6   0  262.83   11.31
   3   6   0  275.76   10.99
   3   6   0  280.57   11.45
  -4  -6   0  344.21   14.65
  -4  -6   0  340.29   14.20
   4   6   0  365.25   14.68
   4   6   0  353.07   14.27
  -5  -6   0   77.25    4.17
   5   6   0   84.35    4.15
   5   6   0   79.96    3.86
  -6  -6   0  191.32    8.77
   6   6   0  198.21    8.58
   6   6   0  192.44    8.38
  -7  -6   0  107.25    5.55
   7   6   0  106.69    5.16
   7   6   0  110.83    5.22
  -8  -6   0   13.59    1.63
   8   6   0   11.07    1.31
   8   6   0   12.66    1.30
  -9  -6   0  347.84   15.39
   9   6   0  359.61   15.11
 -10  -6   0  169.24    8.50
  10   6   0  178.30    8.18
 -11  -6   0    0.76    0.89
  11   6   0   -1.00    0.56
 -12  -6   0  137.00    7.27
  12   6   0  124.68    6.60
  13   6   0   16.27    1.88
  14  -7   0    9.15    1.63
 -14   7   0    9.34    1.52
 -14   7   0    5.83    1.91
  13  -7   0   97.82    5.61
 -13   7   0   97.82    5.27
  12  -7   0   54.11    3.58
 -12   7   0   47.69    4.34
 -12   7   0   52.87    3.37
  11  -7   0   42.44    3.01
 -11   7   0   42.10    2.75
 -11   7   0   36.10    3.64
  10  -7   0  307.49   13.18
 -10   7   0  298.36   14.49
 -10   7   0  301.27   12.95
   9  -7   0   20.51    1.77
   9  -7   0   20.25    1.85
  -9   7   0   19.36    1.76
  -9   7   0   18.90    2.50
   8  -7   0  242.92   10.53
   8  -7   0  240.82   10.54
  -8   7   0  239.67   10.46
  -8   7   0  245.35   11.87
   7  -7   0  706.09   28.10
   7  -7   0  704.01   28.15
  -7   7   0  672.86   28.01
  -7   7   0  708.32   29.51
   6  -7   0    7.61    0.99
   6  -7   0    6.00    0.88
  -6   7   0    4.34    1.31
   5  -7   0  222.23    9.67
   5  -7   0  221.61    9.56
  -5   7   0  233.42   10.78
   4  -7   0  146.65    6.58
   4  -7   0  146.62    6.43
  -4   7   0  148.20    7.50
   3  -7   0   93.00    4.32
   3  -7   0   95.89    4.54
  -3   7   0   96.07    5.25
   1  -7   0  374.54   15.70
  -1   7   0  389.54   16.32
   0  -7   0  181.61    7.81
   0  -7   0  182.63    8.21
   0   7   0  200.59    8.74
  -1  -7   0  396.86   16.25
  -1  -7   0  394.67   16.70
   1   7   0  425.63   17.12
  -2  -7   0   55.86    2.80
  -2  -7   0   55.41    3.18
   2   7   0   63.80    3.50
  -3  -7   0   93.89    4.41
  -3  -7   0   99.46    4.92
   3   7   0  103.95    5.07
  -4  -7   0  170.73    7.92
  -4  -7   0  167.85    7.39
   4   7   0  178.91    7.96
   4   7   0  175.12    7.47
  -5  -7   0    4.39    0.66
  -5  -7   0    4.82    0.97
   5   7   0    3.21    0.64
   5   7   0    4.15    0.85
  -6  -7   0  241.46   11.09
   6   7   0  245.17   10.57
   6   7   0  260.27   10.89
  -7  -7   0  136.89    6.77
   7   7   0  124.68    6.16
   7   7   0  141.31    6.40
  -8  -7   0    9.11    1.43
   8   7   0    7.76    1.23
   8   7   0    6.74    1.07
  -9  -7   0  121.86    6.52
   9   7   0  122.19    5.73
 -10  -7   0   34.83    3.03
  10   7   0   32.73    2.53
 -11  -7   0   32.83    2.98
  11   7   0   27.09    2.45
 -12  -7   0   87.30    5.37
  12   7   0   78.87    4.70
  13  -8   0  111.63    6.13
 -13   8   0  107.64    5.70
 -13   8   0  108.40    7.31
  12  -8   0   65.48    4.03
 -12   8   0   60.32    3.71
 -12   8   0   50.10    5.45
  11  -8   0    9.96    1.58
 -11   8   0   15.02    1.67
 -11   8   0   11.87    2.29
  10  -8   0   54.63    3.49
 -10   8   0   55.07    4.57
 -10   8   0   54.08    3.31
   9  -8   0    4.77    0.99
   9  -8   0    3.59    0.92
  -9   8   0    5.04    1.60
  -9   8   0    5.10    1.01
   8  -8   0  225.88    9.83
   8  -8   0  226.46    9.82
  -8   8   0  220.06   11.25
  -8   8   0  212.22    9.68
   7  -8   0  305.84   13.25
   7  -8   0  309.49   13.21
  -7   8   0  322.12   14.77
   6  -8   0    0.23    0.48
   6  -8   0    0.47    0.52
  -6   8   0    0.09    0.82
   5  -8   0  246.90   10.70
   5  -8   0  249.51   10.55
  -5   8   0  249.93   11.99
   4  -8   0   29.11    2.07
   4  -8   0   29.78    1.88
  -4   8   0   30.64    2.80
   3  -8   0  232.38   10.31
   3  -8   0  233.06   10.04
  -3   8   0  256.80   11.36
   2  -8   0  769.14   31.60
  -2   8   0  809.69   32.49
   1  -8   0   85.25    4.00
   1  -8   0   84.82    4.39
  -1   8   0   92.46    4.99
   0  -8   0  140.70    6.83
   0  -8   0  147.65    6.39
   0   8   0  159.31    7.43
  -1  -8   0  302.83   13.43
   1   8   0  331.79   13.93
  -2  -8   0  126.84    6.35
   2   8   0  140.67    6.69
  -3  -8   0  307.81   13.19
  -3  -8   0  318.22   13.87
   3   8   0  345.93   14.11
  -4  -8   0  379.13   16.29
  -4  -8   0  392.36   17.00
   4   8   0  436.59   17.16
  -5  -8   0  138.55    6.40
  -5  -8   0  141.01    7.08
   5   8   0  155.81    7.08
   5   8   0  145.09    6.51
  -6  -8   0  256.87   11.17
  -6  -8   0  266.80   11.91
   6   8   0  280.64   11.71
   6   8   0  256.36   11.22
  -7  -8   0  101.75    5.58
  -7  -8   0   95.15    4.87
   7   8   0   98.90    4.95
   7   8   0  109.24    5.27
  -8  -8   0   41.07    3.24
   8   8   0   40.49    2.69
   8   8   0   46.39    2.85
  -9  -8   0  117.11    6.49
   9   8   0  113.37    5.88
   9   8   0  124.18    5.74
 -10  -8   0    2.13    1.04
  10   8   0    0.95    0.78
 -11  -8   0   85.07    5.35
  11   8   0   83.61    4.75
  13  -9   0   51.72    3.78
 -13   9   0   48.43    4.74
  12  -9   0   -0.74    0.65
 -12   9   0   -0.94    0.66
 -12   9   0   -0.88    0.97
  11  -9   0  111.42    5.87
 -11   9   0   98.37    7.04
 -11   9   0  109.44    5.57
  10  -9   0   86.20    4.73
  10  -9   0   87.84    4.70
 -10   9   0   80.66    4.51
 -10   9   0   79.28    5.95
   9  -9   0   12.51    1.53
   9  -9   0   13.76    1.56
  -9   9   0   12.51    1.57
  -9   9   0   12.97    2.44
   8  -9   0  112.92    5.63
   8  -9   0  110.67    5.59
  -8   9   0  110.00    5.52
  -8   9   0  111.14    7.01
   7  -9   0   44.36    2.87
   7  -9   0   47.19    2.95
  -7   9   0   47.85    4.07
   6  -9   0  212.01    9.71
   6  -9   0  233.08    9.66
  -6   9   0  213.79   11.03
   5  -9   0  299.31   13.19
   5  -9   0  317.08   13.03
  -5   9   0  314.10   14.52
   4  -9   0   81.25    4.36
   4  -9   0   84.82    4.13
  -4   9   0   86.72    5.33
   3  -9   0  335.42   14.79
   3  -9   0  360.31   14.49
  -3   9   0  360.66   15.88
   2  -9   0  323.00   13.37
   2  -9   0  328.01   13.84
   1  -9   0    0.23    0.52
   1  -9   0    0.65    0.41
  -1   9   0    0.66    0.76
   0  -9   0  208.38    8.95
   0  -9   0  208.61    9.54
   0   9   0  224.63   10.19
  -1  -9   0  248.57   10.53
  -1  -9   0  248.75   11.19
   1   9   0  265.80   11.70
  -2  -9   0    7.69    1.32
  -2  -9   0    7.74    0.92
   2   9   0    6.53    1.30
  -3  -9   0  278.09   12.99
  -3  -9   0  286.47   12.27
   3   9   0  330.62   13.42
  -4  -9   0   63.28    4.02
  -4  -9   0   65.81    3.36
   4   9   0   73.93    4.24
  -5  -9   0  107.02    5.99
  -5  -9   0  109.73    5.28
   5   9   0  129.35    6.15
  -6  -9   0  132.28    6.86
  -6  -9   0  120.75    5.92
   6   9   0  141.38    6.66
   6   9   0  129.58    6.06
  -7  -9   0   11.25    1.75
  -7  -9   0   11.94    1.38
   7   9   0   15.51    1.52
   7   9   0   14.94    1.73
  -8  -9   0   98.19    4.95
  -8  -9   0   92.78    5.67
   8   9   0  106.52    5.25
   8   9   0   97.45    5.00
  -9  -9   0  137.97    7.41
  -9  -9   0  130.43    6.45
 -10  -9   0   -0.47    0.62
 -10  -9   0    0.95    0.92
  10   9   0   -0.60    0.57
  12 -10   0    8.29    1.46
 -12  10   0    8.10    2.16
 -12  10   0    5.62    1.27
  11 -10   0  107.07    5.82
 -11  10   0  101.24    5.46
 -11  10   0  103.82    7.33
  10 -10   0   22.90    2.31
  10 -10   0   22.82    2.25
 -10  10   0   23.17    2.17
 -10  10   0   24.02    3.12
   9 -10   0   69.22    4.02
   9 -10   0   66.68    3.98
  -9  10   0   59.50    3.72
  -9  10   0   66.61    6.15
   8 -10   0  194.81    8.97
   8 -10   0  209.62    9.00
  -8  10   0  186.53   10.55
  -8  10   0  183.22    8.77
   7 -10   0   67.57    3.80
   7 -10   0   70.17    3.94
  -7  10   0   62.22    5.06
   6 -10   0  113.48    5.46
   6 -10   0  107.70    5.57
  -6  10   0  110.91    6.90
   5 -10   0  228.23    9.78
  -5  10   0  220.59   11.32
   4 -10   0   12.35    1.59
  -4  10   0    9.97    1.97
   3 -10   0  436.22   17.71
   3 -10   0  416.34   18.12
  -3  10   0  448.48   19.35
   2 -10   0  211.65   10.01
   2 -10   0  205.26    8.93
  -2  10   0  210.72   10.32
   1 -10   0    1.90    0.78
   1 -10   0    2.00    0.56
  -1  10   0    2.13    1.04
   0 -10   0  419.48   17.12
   0 -10   0  407.94   17.83
   0  10   0  440.37   18.57
  -1 -10   0   64.49    3.22
  -1 -10   0   59.54    3.83
   1  10   0   67.89    4.33
  -2 -10   0    8.01    1.38
  -2 -10   0    9.91    1.05
   2  10   0   12.12    1.78
  -3 -10   0  267.55   12.14
  -3 -10   0  271.75   11.23
  -4 -10   0    0.47    0.45
  -4 -10   0    0.84    0.73
  -5 -10   0  163.08    8.34
  -5 -10   0  158.31    7.31
   5  10   0  180.70    8.46
  -6 -10   0  125.75    6.81
  -6 -10   0  120.91    5.82
   6  10   0  135.35    6.68
  -7 -10   0   -0.19    0.60
  -7 -10   0   -0.46    0.50
   7  10   0   -1.00    0.62
  -8 -10   0   85.75    5.47
  -8 -10   0   79.98    4.41
   8  10   0   88.18    4.56
   8  10   0   94.25    4.93
  -9 -10   0   71.02    4.88
 -10 -10   0    1.88    1.12
  11 -11   0   77.12    4.70
 -11  11   0   70.26    4.24
 -11  11   0   74.92    6.39
  10 -11   0   -0.06    0.69
 -10  11   0   -1.00    0.65
 -10  11   0   -1.78    0.90
   9 -11   0  111.85    5.92
   9 -11   0  116.41    5.92
  -9  11   0  102.96    7.38
  -9  11   0  106.48    5.64
   8 -11   0  185.84    8.31
  -8  11   0  161.33    9.87
   7 -11   0    1.69    0.71
   7 -11   0    1.44    0.72
  -7  11   0    0.55    1.13
   6 -11   0   71.10    4.15
   6 -11   0   70.47    3.89
  -6  11   0   69.05    5.31
   5 -11   0  209.35    9.55
   5 -11   0  212.61    9.23
  -5  11   0  200.51   10.86
   4 -11   0   13.36    1.71
   4 -11   0   13.21    1.38
  -4  11   0   14.04    2.19
   3 -11   0  194.82    8.40
   3 -11   0  185.83    8.87
  -3  11   0  191.54    9.99
   2 -11   0   38.70    2.82
   2 -11   0   38.39    2.35
  -2  11   0   37.60    3.36
   1 -11   0   53.88    2.86
   1 -11   0   46.40    3.35
  -1  11   0   56.17    4.16
   0 -11   0  153.19    6.65
   0 -11   0  139.59    7.34
   0  11   0  157.92    8.15
  -1 -11   0   65.56    3.45
  -1 -11   0   66.69    4.24
   1  11   0   79.68    4.91
  -2 -11   0  143.02    6.34
  -2 -11   0  138.30    7.28
   2  11   0  149.94    8.79
  -3 -11   0  113.69    5.35
  -3 -11   0  109.07    6.30
   3  11   0  132.55    6.85
  -4 -11   0    9.42    1.74
  -4 -11   0    8.83    1.11
   4  11   0    8.33    1.56
  -5 -11   0  116.45    5.51
   5  11   0  125.33    6.66
  -6 -11   0   77.54    5.17
  -6 -11   0   82.57    4.11
   6  11   0   86.33    5.06
  -7 -11   0   15.18    2.34
   7  11   0   18.80    2.19
  -8 -11   0  113.65    6.80
  10 -12   0    0.03    0.81
  10 -12   0    0.39    0.84
 -10  12   0   -1.54    0.70
 -10  12   0    0.58    1.28
   9 -12   0  100.24    5.60
   9 -12   0  108.78    5.64
  -9  12   0   94.50    7.12
   8 -12   0   68.32    4.12
  -8  12   0   60.68    5.42
   7 -12   0    4.23    1.05
  -7  12   0    2.27    1.53
   6 -12   0  119.26    6.22
   6 -12   0  125.79    6.01
  -6  12   0  112.67    7.48
   5 -12   0   41.18    3.07
   5 -12   0   47.21    2.93
   4 -12   0   54.95    3.62
   4 -12   0   56.32    3.26
  -4  12   0   56.25    4.69
   3 -12   0  111.69    5.32
   3 -12   0  101.08    5.76
  -3  12   0  117.86    7.07
   2 -12   0   25.45    2.39
   2 -12   0   25.46    1.92
  -2  12   0   27.39    3.13
   1 -12   0  100.86    5.71
   1 -12   0  107.64    4.99
  -1  12   0  106.27    6.48
   0 -12   0   63.28    3.18
   0 -12   0   53.05    3.81
   0  12   0   58.94    4.48
  -1 -12   0   -0.46    0.39
  -1 -12   0    1.96    0.94
   1  12   0   -0.17    0.88
  -2 -12   0   83.33    5.27
  -2 -12   0   90.09    4.30
   2  12   0   98.59    5.90
  -3 -12   0   12.93    2.01
  -3 -12   0   15.05    1.34
   3  12   0   13.95    2.40
  -4 -12   0   30.75    3.08
  -4 -12   0   33.02    2.13
   4  12   0   39.17    3.45
  -5 -12   0  138.09    7.92
   5  12   0  158.84    8.08
  -6 -12   0   27.39    3.06
   6  12   0   36.02    3.15
  -7 -12   0   37.07    3.43
   7  12   0   27.44    2.96
   9 -13   0   69.42    5.01
   9 -13   0   82.05    4.68
  -9  13   0   74.50    6.32
   8 -13   0    2.96    0.96
   8 -13   0    3.11    1.07
  -8  13   0    0.88    1.30
   7 -13   0   63.91    4.18
   7 -13   0   55.52    3.72
  -7  13   0   52.04    5.09
   6 -13   0   97.30    5.69
   6 -13   0  111.99    5.58
  -6  13   0  108.84    7.40
   5 -13   0    4.81    1.08
   5 -13   0    4.71    1.16
  -5  13   0    5.45    1.87
   4 -13   0  121.32    6.60
   4 -13   0  127.79    6.09
  -4  13   0  129.91    8.05
   3 -13   0  135.53    6.14
   3 -13   0  117.93    6.68
  -3  13   0  130.65    7.97
   2 -13   0    0.69    0.58
   2 -13   0    0.11    0.78
  -2  13   0    0.25    1.34
   1 -13   0   72.54    4.58
   1 -13   0   75.01    3.76
  -1  13   0   67.19    5.97
   0 -13   0   50.25    3.85
   0 -13   0   54.01    3.01
   0  13   0   62.62    4.76
  -1 -13   0   79.80    4.02
   1  13   0   85.54    5.76
  -2 -13   0  213.70   10.90
   2  13   0  238.48   11.60
  -3 -13   0   35.04    3.29
   3  13   0   40.15    3.83
  -4 -13   0    7.50    1.67
   4  13   0    7.59    1.79
  -5 -13   0   73.03    5.25
   5  13   0   85.75    5.47
  -6 -13   0    0.27    1.05
   6  13   0   -0.98    1.00
   7 -14   0   51.51    3.43
  -7  14   0   42.23    4.48
   6 -14   0   30.79    2.93
  -6  14   0   39.88    4.31
   5 -14   0    0.53    0.64
  -5  14   0    0.99    1.09
   4 -14   0   89.85    4.64
  -4  14   0   82.49    6.40
   3 -14   0   77.96    4.14
  -3  14   0   74.59    5.94
   2 -14   0    2.47    0.80
   2 -14   0    2.12    1.05
  -2  14   0    3.32    1.60
   1 -14   0   94.35    5.77
  -1  14   0  103.72    6.87
   0 -14   0   18.48    2.40
   0  14   0   20.82    3.16
  -1 -14   0   19.22    2.54
   1  14   0   23.17    3.08
  -2 -14   0   38.64    3.48
   2  14   0   41.05    4.08
  -3 -14   0    1.45    1.19
   3  14   0    0.38    1.24
  -3  15   0   33.73    4.02
   2 -15   0    5.13    1.54
  -2  15   0    4.94    1.83
   1 -15   0   65.97    4.73
  -1  15   0   68.14    5.55
   2  14  -1   33.10    3.66
  -2 -14   1   28.29    2.98
  -1 -14   1   10.39    1.77
   0 -14   1   42.70    3.49
  -1  14  -1  121.00    7.74
   1 -14   1  118.70    6.75
   1 -14   1  123.66    5.89
  -2  14  -1   26.98    3.48
   2 -14   1   23.98    2.20
   2 -14   1   24.88    2.73
  -3  14  -1   24.09    3.37
   3 -14   1   22.32    2.11
   3 -14   1   23.02    2.53
  -4  14  -1   90.86    6.76
   4 -14   1  102.67    5.05
   4 -14   1   82.02    5.75
  -5  14  -1   15.89    2.81
   5 -14   1   18.82    2.06
  -6  14  -1   20.63    3.42
   6 -14   1   15.33    2.77
   5  13  -1   67.86    4.86
  -5 -13   1   70.36    4.94
   4  13  -1   22.94    2.87
  -4 -13   1   21.92    2.70
   3  13  -1   25.96    2.93
  -3 -13   1   21.31    2.71
   2  13  -1  129.44    7.45
  -2 -13   1  121.58    6.48
  -2 -13   1  116.46    6.81
   1  13  -1    5.84    1.70
  -1 -13   1    5.90    1.44
   0 -13   1   98.25    6.34
  -1  13  -1  161.98   10.13
   1 -13   1  172.08    7.52
   1 -13   1  156.60    8.20
  -2  13  -1    2.51    1.46
   2 -13   1    2.64    1.04
   2 -13   1    1.49    0.75
  -3  13  -1   84.31    6.10
   3 -13   1   83.96    4.44
   3 -13   1   79.80    4.91
  -4  13  -1   59.92    5.15
   4 -13   1   59.91    3.59
   4 -13   1   62.32    4.02
  -5  13  -1    1.01    1.41
   5 -13   1    2.88    1.03
   5 -13   1    1.58    0.77
  -6  13  -1  152.91    9.58
   6 -13   1  150.60    7.79
   6 -13   1  169.53    7.69
  -7  13  -1   87.97    6.90
   7 -13   1  109.92    5.56
   7 -13   1   97.65    5.46
  -8  13  -1   -0.68    1.10
   8 -13   1   -0.34    0.65
   8 -13   1   -0.88    0.80
   6  12  -1   14.84    2.30
  -6 -12   1   17.26    2.26
   5  12  -1   94.47    5.76
  -5 -12   1   99.06    5.97
   4  12  -1   28.32    2.98
  -4 -12   1   28.45    2.11
  -4 -12   1   24.88    2.75
   3  12  -1   38.62    3.38
  -3 -12   1   31.21    3.03
  -3 -12   1   30.58    2.23
   2  12  -1  241.76   11.45
  -2 -12   1  211.36   10.73
   1  12  -1   15.93    2.44
  -1 -12   1   15.62    1.51
  -1 -12   1   18.08    2.11
   0  12  -1  158.15    8.45
   0 -12   1  141.83    7.49
   0 -12   1  144.90    6.74
  -1  12  -1   82.81    5.61
   1 -12   1   76.23    4.67
  -2  12  -1    1.42    1.25
   2 -12   1    1.29    0.87
   2 -12   1    0.56    0.65
  -3  12  -1  140.86    8.25
   3 -12   1  130.07    6.92
   3 -12   1  144.06    6.55
  -4  12  -1   62.58    5.23
   4 -12   1   74.33    3.90
   4 -12   1   69.58    4.20
  -5  12  -1   28.50    3.53
   5 -12   1   27.98    2.40
   5 -12   1   30.32    2.37
  -6  12  -1  118.68    7.83
   6 -12   1  127.13    6.23
   6 -12   1  125.66    6.38
  -7  12  -1   23.56    3.48
   7 -12   1   26.12    2.33
   7 -12   1   26.84    2.34
  -8  12  -1   26.22    3.77
   8 -12   1   38.64    2.86
  -9  12  -1   61.60    5.55
   9 -12   1   63.40    4.05
   9 -12   1   72.48    4.27
 -10  12  -1   -1.55    0.67
 -10  12  -1   -0.93    0.98
  10 -12   1    0.21    0.71
  10 -12   1   -1.28    0.70
  -8 -11   1   70.34    5.03
  -7 -11   1   12.29    2.05
   6  11  -1   36.36    3.01
  -6 -11   1   34.33    3.20
  -6 -11   1   35.07    2.45
   5  11  -1  119.84    6.29
  -5 -11   1  104.96    6.29
  -5 -11   1  107.79    5.34
   4  11  -1    6.91    1.48
  -4 -11   1    6.56    0.96
  -4 -11   1    5.99    1.48
   3  11  -1   70.44    4.56
  -3 -11   1   62.27    4.19
  -3 -11   1   60.60    3.41
   2  11  -1   74.30    4.83
  -2 -11   1   73.54    3.76
  -2 -11   1   69.39    4.42
   1  11  -1    7.61    1.65
  -1 -11   1    5.72    0.88
  -1 -11   1    7.13    1.41
   0  11  -1  231.90   11.16
   0 -11   1  216.60   10.30
   0 -11   1  222.99    9.65
  -1  11  -1  130.56    7.41
   1 -11   1  125.10    6.53
   1 -11   1  132.45    6.04
  -2  11  -1   47.76    4.01
   2 -11   1   45.54    2.79
   2 -11   1   46.27    3.20
  -3  11  -1  140.93    8.08
   3 -11   1  145.12    6.64
   3 -11   1  137.54    6.90
  -4  11  -1   42.35    3.97
   4 -11   1   44.27    2.76
   4 -11   1   43.40    2.96
  -5  11  -1   55.21    4.66
   5 -11   1   53.38    3.24
   5 -11   1   56.42    3.51
  -6  11  -1  120.42    7.63
   6 -11   1  122.89    5.97
   6 -11   1  118.19    6.07
  -7  11  -1    0.80    1.18
   7 -11   1    0.75    0.77
   7 -11   1    0.40    0.62
  -8  11  -1  162.74    9.95
   8 -11   1  172.68    8.18
   8 -11   1  181.72    8.29
  -9  11  -1   86.99    6.65
  -9  11  -1   90.25    4.87
   9 -11   1   98.62    5.25
 -10  11  -1   -1.76    0.91
  10 -11   1    0.25    0.74
  10 -11   1   -1.07    0.66
 -11  11  -1   56.83    5.34
 -11  11  -1   58.93    3.69
  11 -11   1   65.84    4.21
  -9 -10   1   49.83    4.07
  -8 -10   1  109.92    5.56
  -8 -10   1  110.95    6.54
   7  10  -1    2.42    0.96
  -7 -10   1    2.00    1.11
   6  10  -1  126.15    6.12
  -6 -10   1  108.11    5.46
  -6 -10   1  105.96    6.37
   5  10  -1   93.03    5.17
  -5 -10   1   90.20    5.34
  -5 -10   1   86.96    4.48
   4  10  -1   -0.43    0.84
  -4 -10   1   -0.26    0.43
  -4 -10   1   -0.34    0.52
   3  10  -1  167.74    8.24
  -3 -10   1  153.71    7.88
  -3 -10   1  160.19    7.19
   2  10  -1   73.23    4.55
  -2 -10   1   70.48    3.61
  -2 -10   1   64.70    4.13
   1  10  -1  176.00    8.38
  -1 -10   1  154.86    7.07
  -1 -10   1  148.88    7.64
   0  10  -1  232.17   10.74
   0 -10   1  207.55    9.91
   0 -10   1  218.05    9.40
  -1  10  -1   51.59    3.90
   1 -10   1   50.07    3.25
   1 -10   1   50.34    2.85
  -2  10  -1  223.23   10.88
   2 -10   1  215.09    9.44
  -3  10  -1  342.20   15.50
   3 -10   1  336.87   13.90
   3 -10   1  317.88   14.17
  -4  10  -1   16.21    2.45
   4 -10   1   16.46    1.66
  -5  10  -1  153.51    8.59
   5 -10   1  152.51    7.02
   5 -10   1  149.97    7.15
  -6  10  -1   79.59    5.69
   6 -10   1   74.92    4.67
   6 -10   1   85.32    4.35
  -7  10  -1    4.01    1.43
   7 -10   1    3.37    0.86
   7 -10   1    3.78    0.93
  -8  10  -1  177.99    8.38
  -8  10  -1  178.52   10.31
   8 -10   1  192.84    8.66
   8 -10   1  191.39    8.60
  -9  10  -1   73.34    5.82
  -9  10  -1   77.41    4.26
   9 -10   1   85.53    4.63
   9 -10   1   79.70    4.43
 -10  10  -1    2.06    0.87
 -10  10  -1    4.04    1.82
  10 -10   1    3.50    1.11
  10 -10   1    2.37    0.92
 -11  10  -1   66.30    5.75
 -11  10  -1   68.06    3.97
  11 -10   1   71.94    4.44
 -12  10  -1   -0.01    1.11
 -12  10  -1   -0.74    0.70
  12 -10   1   -0.71    0.74
  10   9  -1    0.72    0.68
 -10  -9   1    0.23    0.94
 -10  -9   1   -0.08    0.82
   9   9  -1   59.21    3.74
  -9  -9   1   59.40    4.35
  -9  -9   1   61.73    3.74
   8   9  -1   28.81    2.35
  -8  -9   1   33.47    3.06
  -8  -9   1   31.91    2.37
   7   9  -1    3.50    0.90
   7   9  -1    4.81    0.97
  -7  -9   1    2.58    0.76
   6   9  -1  238.66   10.51
   6   9  -1  257.06   10.86
  -6  -9   1  239.38   11.19
  -6  -9   1  224.99   10.35
   5   9  -1  150.34    7.21
  -5  -9   1  141.70    7.32
  -5  -9   1  146.27    6.69
   4   9  -1    5.50    1.21
  -4  -9   1    4.04    1.09
  -4  -9   1    4.24    0.80
   3   9  -1  113.77    5.84
  -3  -9   1  103.12    5.61
  -3  -9   1  106.04    5.05
   2   9  -1    1.14    0.87
  -2  -9   1    0.84    0.73
  -2  -9   1    0.04    0.37
   1   9  -1  140.92    6.95
  -1  -9   1  121.03    5.85
   0   9  -1  470.03   19.58
   0  -9   1  443.75   18.37
   0  -9   1  445.15   18.86
   1  -9   1    0.31    0.53
   1  -9   1    0.88    0.49
  -2   9  -1  424.08   18.15
   2  -9   1  393.08   16.75
   2  -9   1  414.93   17.14
  -3   9  -1  238.31   11.39
   3  -9   1  223.76   10.21
   3  -9   1  241.70   10.05
  -4   9  -1   -0.95    0.67
   4  -9   1   -0.11    0.43
   4  -9   1   -0.21    0.46
  -5   9  -1  411.27   18.28
   5  -9   1  391.15   16.68
  -6   9  -1  101.42    6.38
   6  -9   1  102.27    5.05
   6  -9   1  101.01    5.06
  -7   9  -1   69.96    5.22
   7  -9   1   70.02    3.85
   7  -9   1   69.39    3.87
  -8   9  -1  243.29   10.90
  -8   9  -1  257.45   12.97
   8  -9   1  250.18   11.04
   8  -9   1  259.21   11.16
  -9   9  -1   68.98    5.42
  -9   9  -1   63.95    3.72
   9  -9   1   67.47    3.98
   9  -9   1   69.51    3.90
 -10   9  -1   48.98    5.45
 -10   9  -1   55.40    3.27
 -11   9  -1  109.77    5.45
 -11   9  -1   95.98    7.19
  11  -9   1  113.38    5.90
 -12   9  -1   -0.81    0.64
 -12   9  -1   -1.44    0.87
  12  -9   1   -0.15    0.71
  13  -9   1   72.36    4.67
 -11  -8   1   49.68    4.00
  10   8  -1   14.29    1.87
 -10  -8   1   12.45    2.03
   9   8  -1  167.12    7.94
  -9  -8   1  165.02    8.54
   8   8  -1   80.77    4.37
   8   8  -1   80.84    4.07
  -8  -8   1   75.85    4.27
   7   8  -1   88.95    4.66
   7   8  -1   94.40    4.64
  -7  -8   1   83.34    4.56
  -7  -8   1   88.85    5.16
   6   8  -1  178.38    8.17
   6   8  -1  191.86    8.36
  -6  -8   1  180.88    8.73
  -6  -8   1  176.24    8.10
   5   8  -1    8.92    1.18
   5   8  -1    8.35    1.33
  -5  -8   1   11.10    1.21
  -5  -8   1    8.06    1.35
   4   8  -1  405.00   16.07
  -4  -8   1  373.79   16.01
  -4  -8   1  347.11   15.38
   3   8  -1  630.38   24.33
  -3  -8   1  568.96   24.08
  -3  -8   1  561.18   23.54
   2   8  -1   45.82    3.03
  -2  -8   1   39.50    2.76
  -2  -8   1   42.81    2.41
   1   8  -1  188.46    8.59
  -1  -8   1  178.06    8.13
  -1  -8   1  172.07    7.69
   0   8  -1  325.65   13.97
   0  -8   1  303.88   13.32
   0  -8   1  316.53   12.99
  -1   8  -1    1.84    0.88
   1  -8   1    2.90    0.74
   1  -8   1    3.01    0.60
  -2   8  -1  292.12   13.09
   2  -8   1  281.78   12.16
   2  -8   1  288.49   11.94
  -3   8  -1  145.55    7.39
   3  -8   1  129.81    6.31
   3  -8   1  139.60    6.20
   4  -8   1  117.36    5.52
   4  -8   1  116.28    5.40
  -5   8  -1  454.22   20.00
   5  -8   1  453.59   18.59
   5  -8   1  452.15   18.53
  -6   8  -1  297.38   13.79
   6  -8   1  264.19   12.52
   6  -8   1  299.89   12.23
  -7   8  -1    8.86    1.93
   7  -8   1    7.29    1.11
   7  -8   1    9.58    1.14
  -8   8  -1   62.18    3.43
  -8   8  -1   59.81    4.77
   8  -8   1   66.35    3.66
   8  -8   1   62.09    3.48
  -9   8  -1   15.60    2.36
  -9   8  -1   15.44    1.54
   9  -8   1   16.48    1.72
   9  -8   1   14.11    1.61
 -10   8  -1  115.70    7.61
 -10   8  -1  128.46    6.02
  10  -8   1  127.37    6.30
 -11   8  -1   74.73    5.81
 -11   8  -1   76.79    4.21
  11  -8   1   81.40    4.62
 -12   8  -1    1.08    1.31
 -12   8  -1    0.44    0.66
  12  -8   1    1.97    0.92
 -13   8  -1   56.63    5.13
 -13   8  -1   61.01    3.75
  13  -8   1   68.48    4.30
  11   7  -1   54.32    3.66
 -11  -7   1   58.46    4.18
  10   7  -1   15.73    1.95
 -10  -7   1   22.47    2.30
   9   7  -1  153.76    7.47
  -9  -7   1  159.21    8.71
  -8  -7   1   62.53    4.03
   7   7  -1  174.46    7.42
   7   7  -1  152.67    7.50
  -7  -7   1  164.64    7.99
   6   7  -1  326.36   14.04
  -6  -7   1  344.33   14.56
   5   7  -1   83.79    4.23
   5   7  -1   80.50    4.04
  -5  -7   1   79.07    4.41
  -5  -7   1   76.33    3.97
   4   7  -1  107.64    5.12
   4   7  -1   98.73    4.79
  -4  -7   1   95.40    4.69
   3   7  -1   15.50    1.54
  -3  -7   1   11.72    1.40
  -3  -7   1   14.47    1.18
   2   7  -1    6.33    1.15
  -2  -7   1    5.92    0.92
  -2  -7   1    7.26    0.80
   1   7  -1  754.12   29.55
  -1  -7   1  696.15   29.09
   0   7  -1  181.66    8.26
   0  -7   1  178.11    7.76
   0  -7   1  165.52    7.43
  -1   7  -1  152.68    7.30
   1  -7   1  149.62    6.69
   1  -7   1  144.69    6.45
  -2   7  -1  147.37    7.19
   2  -7   1  141.72    6.25
   2  -7   1  140.28    6.40
  -3   7  -1   26.19    2.30
   3  -7   1   25.27    1.63
   3  -7   1   22.55    1.63
  -4   7  -1  216.30   10.14
   4  -7   1  207.25    8.95
   4  -7   1  207.86    9.00
  -5   7  -1  280.20   12.81
   5  -7   1  269.45   11.48
   5  -7   1  272.19   11.50
   6  -7   1   11.67    1.25
   6  -7   1   10.62    1.17
  -7   7  -1  315.47   13.37
  -7   7  -1  330.64   15.04
   7  -7   1  316.36   13.52
   7  -7   1  324.48   13.46
  -8   7  -1  163.70    7.47
  -8   7  -1  174.54    9.14
   8  -7   1  164.66    7.67
   8  -7   1  171.47    7.58
  -9   7  -1    6.90    1.05
  -9   7  -1    8.13    1.79
   9  -7   1    8.39    1.12
   9  -7   1    5.96    1.08
 -10   7  -1  125.60    7.59
 -10   7  -1  127.46    6.00
  10  -7   1  125.51    6.28
 -11   7  -1   55.33    3.34
 -11   7  -1   54.31    4.63
  11  -7   1   64.09    3.72
 -12   7  -1   62.26    3.59
 -12   7  -1   56.30    4.91
  12  -7   1   65.04    3.97
 -13   7  -1  121.11    7.89
  13  -7   1  130.06    6.73
 -14   7  -1    5.78    1.93
  14  -7   1    5.48    1.32
 -12  -6   1   80.96    5.26
  11   6  -1   11.49    1.67
 -11  -6   1   10.33    1.79
  10   6  -1   44.63    3.10
 -10  -6   1   45.91    3.49
   9   6  -1  156.39    6.73
   9   6  -1  159.03    7.54
  -9  -6   1  157.83    7.86
   8   6  -1    9.00    1.02
   8   6  -1    7.93    1.25
  -8  -6   1    9.08    1.39
   7   6  -1  337.93   14.70
   7   6  -1  369.44   14.46
  -7  -6   1  342.44   15.05
   6   6  -1  259.42   10.44
   6   6  -1  232.60   10.41
  -6  -6   1  236.85   10.75
   5   6  -1    0.32    0.44
  -5  -6   1    1.56    0.72
   4   6  -1  187.56    7.96
   4   6  -1  174.57    7.69
  -4  -6   1  169.95    7.63
  -4  -6   1  177.46    7.97
   3   6  -1   75.51    3.77
   3   6  -1   73.23    3.53
  -3  -6   1   66.28    3.41
  -3  -6   1   70.84    3.73
   2   6  -1  265.92   11.02
  -2  -6   1  243.88   10.78
  -1  -6   1  586.10   23.57
   0   6  -1   39.92    2.56
   0  -6   1   37.19    2.04
   0  -6   1   36.18    2.18
  -1   6  -1  349.67   14.22
   1  -6   1  313.33   13.59
   1  -6   1  326.78   13.54
  -3   6  -1    1.11    0.64
   3  -6   1    2.41    0.46
   3  -6   1    1.04    0.37
  -4   6  -1  226.50   10.30
   4  -6   1  212.56    9.21
   4  -6   1  219.73    9.24
  -5   6  -1  204.97    9.76
   5  -6   1  205.00    8.65
   5  -6   1  200.04    8.66
  -6   6  -1   45.09    3.43
   6  -6   1   44.24    2.49
   6  -6   1   45.29    2.56
  -7   6  -1  752.71   30.97
  -7   6  -1  727.97   29.42
   7  -6   1  734.81   29.47
  -8   6  -1  309.73   12.90
  -8   6  -1  313.89   14.43
   8  -6   1  302.72   13.07
   8  -6   1  311.98   12.98
  -9   6  -1    2.27    0.71
  -9   6  -1    4.02    1.26
   9  -6   1    2.73    0.79
 -10   6  -1  120.15    5.59
 -10   6  -1  108.62    6.83
  10  -6   1  119.84    5.86
 -11   6  -1   12.16    2.17
 -11   6  -1   13.40    1.46
  11  -6   1   13.17    1.69
 -12   6  -1   63.41    3.65
 -12   6  -1   62.63    4.95
  12  -6   1   66.94    4.04
 -13   6  -1   78.84    5.89
 -13   6  -1   80.61    4.48
  13  -6   1   89.03    5.01
 -14   6  -1    0.21    0.73
 -14   6  -1   -0.08    1.13
  14  -6   1    0.49    0.74
  13   5  -1   23.25    2.28
 -13  -5   1   24.61    2.74
  12   5  -1   72.48    4.59
 -12  -5   1   76.60    4.88
 -11  -5   1   -0.63    0.65
  10   5  -1  188.62    8.87
 -10  -5   1  192.37    9.18
   9   5  -1  187.96    7.76
   9   5  -1  185.95    8.62
  -9  -5   1  187.22    8.88
   8   5  -1   28.91    2.23
   8   5  -1   31.84    1.81
  -8  -5   1   32.82    2.48
   7   5  -1  587.53   22.59
   7   5  -1  548.82   22.94
  -7  -5   1  555.33   23.19
   6   5  -1   96.16    4.77
   6   5  -1  103.20    4.63
   5   5  -1   38.32    2.15
   5   5  -1   36.78    2.21
  -5  -5   1   35.36    2.35
   4   5  -1  474.81   18.19
   4   5  -1  430.55   18.05
  -4  -5   1  435.78   18.28
   3   5  -1   20.32    1.48
   3   5  -1   20.15    1.35
  -3  -5   1   18.76    1.32
  -3  -5   1   18.98    1.46
   0   5  -1   75.99    4.21
   0  -5   1   71.91    3.36
  -1   5  -1  351.55   14.70
   1  -5   1  346.95   14.14
  -2   5  -1  258.69   11.06
   2  -5   1  243.63   10.29
   2  -5   1  253.62   10.35
  -3   5  -1   83.04    4.49
   3  -5   1   83.85    3.79
   3  -5   1   81.89    3.78
  -5   5  -1   53.93    3.43
   5  -5   1   46.91    2.59
  -6   5  -1   38.98    2.91
  -6   5  -1   37.85    2.11
   6  -5   1   40.78    2.19
   6  -5   1   36.46    2.18
  -7   5  -1  686.95   28.50
  -7   5  -1  697.17   27.22
   7  -5   1  662.66   27.32
   7  -5   1  683.59   27.24
  -8   5  -1   46.54    2.67
  -8   5  -1   51.10    3.71
   8  -5   1   50.09    2.92
  -9   5  -1   44.79    2.57
   9  -5   1   40.75    2.68
 -10   5  -1  238.58   11.96
 -10   5  -1  247.27   10.66
  10  -5   1  259.69   10.97
 -11   5  -1    0.53    0.57
 -11   5  -1    2.87    1.18
  11  -5   1   -0.29    0.53
 -12   5  -1   86.07    4.62
 -12   5  -1   86.03    5.83
  12  -5   1   95.95    5.58
 -13   5  -1  138.18    6.47
 -13   5  -1  123.29    7.66
  13  -5   1  129.57    6.75
 -14   5  -1   -0.32    0.71
 -14   5  -1   -0.81    0.80
  14  -5   1   -1.34    0.59
  13   4  -1   51.19    3.64
 -13  -4   1   50.91    3.87
  12   4  -1   56.21    3.79
 -12  -4   1   59.96    4.09
  11   4  -1    4.02    1.00
  10   4  -1  161.84    7.84
 -10  -4   1  169.96    8.10
   9   4  -1   54.64    2.60
   9   4  -1   54.87    3.35
  -9  -4   1   53.45    3.42
   8   4  -1  142.43    6.26
   8   4  -1  145.96    6.84
   8   4  -1  147.95    6.23
  -8  -4   1  147.07    6.97
   7   4  -1  531.60   20.47
   7   4  -1  492.35   20.85
  -7  -4   1  511.36   21.06
   6   4  -1   58.19    3.03
   6   4  -1   61.18    3.27
   6   4  -1   66.52    3.04
  -6  -4   1   62.40    3.39
   5   4  -1  164.53    6.97
   5   4  -1  148.59    6.81
   5   4  -1  165.71    6.81
  -5  -4   1  158.68    7.10
   4   4  -1  688.57   27.36
   3   4  -1    2.49    0.52
   3   4  -1    2.62    0.46
   3   4  -1    2.04    0.47
  -3  -4   1    2.94    0.53
   1   4  -1  143.83    6.34
   1   4  -1  154.53    6.16
  -1  -4   1  142.67    6.05
  -1  -4   1  139.80    6.14
  -1  -4   1  140.72    6.04
   0   4  -1  167.67    7.07
   0   4  -1  149.10    6.60
   0  -4   1  159.27    6.64
   0  -4   1  160.64    6.71
   0  -4   1  163.13    6.67
  -3   4  -1   49.68    2.90
  -3   4  -1   44.72    2.22
   3  -4   1   50.51    2.31
   3  -4   1   44.97    2.30
  -4   4  -1  412.64   17.32
  -5   4  -1    2.07    0.68
  -5   4  -1    1.67    0.41
   5  -4   1    2.44    0.48
  -6   4  -1  247.38   11.20
   6  -4   1  257.68   10.31
   6  -4   1  239.43   10.33
  -7   4  -1  350.21   15.38
  -7   4  -1  351.82   14.32
   7  -4   1  352.72   14.48
  -8   4  -1   12.28    1.60
  -8   4  -1   13.41    1.17
   8  -4   1   15.72    1.30
  -9   4  -1  201.68    9.79
  -9   4  -1  200.06    8.66
   9  -4   1  199.52    8.84
 -10   4  -1  110.81    5.33
  10  -4   1  114.93    5.58
 -11   4  -1   19.04    1.69
 -11   4  -1   20.17    2.34
  11  -4   1   21.78    1.93
 -12   4  -1   76.31    5.16
 -12   4  -1   77.23    4.16
  12  -4   1   75.77    4.33
 -13   4  -1   71.87    3.93
 -13   4  -1   61.25    4.78
  13  -4   1   64.36    4.01
 -14   4  -1   32.56    3.49
 -14   4  -1   36.34    2.80
  14  -4   1   36.45    2.94
 -15   4  -1   30.96    3.26
 -15   4  -1   28.58    2.63
  15  -4   1   31.92    2.91
  13   3  -1  116.39    6.42
 -13  -3   1  126.65    6.74
  12   3  -1   52.57    3.65
 -12  -3   1   56.44    3.83
  11   3  -1   65.82    3.99
 -11  -3   1   66.76    4.13
  10   3  -1  198.54    8.51
  10   3  -1  209.11    9.49
 -10  -3   1  218.18    9.67
   9   3  -1    7.95    0.78
   9   3  -1    9.69    1.23
   9   3  -1    7.10    1.15
  -9  -3   1    7.93    1.25
   8   3  -1  387.99   15.54
   8   3  -1  393.79   16.15
   8   3  -1  370.10   15.54
  -8  -3   1  395.94   16.25
   7   3  -1  353.47   14.95
   7   3  -1  379.29   15.44
   7   3  -1  378.49   15.00
  -7  -3   1  377.52   15.52
   6   3  -1   91.83    4.48
   6   3  -1  104.09    4.45
   6   3  -1   90.19    4.16
  -6  -3   1   91.54    4.54
   3   3  -1    3.98    0.47
   3   3  -1    3.33    0.47
  -3  -3   1    3.14    0.50
   1   3  -1    7.84    0.72
   1   3  -1    7.46    0.61
  -1  -3   1    7.74    0.58
  -1  -3   1    6.85    0.56
  -1  -3   1    5.81    0.63
  -1  -3   1    6.41    0.57
   0   3  -1   11.61    0.94
   0   3  -1   10.66    0.73
   0   3  -1   12.03    0.74
   0  -3   1   12.64    0.94
   0  -3   1   11.30    0.77
   0  -3   1   11.80    0.78
   0  -3   1   13.05    0.79
  -2   3  -1  163.08    6.81
  -2   3  -1  151.90    6.78
  -2   3  -1  180.11    7.33
   2  -3   1  161.26    6.79
   2  -3   1  172.56    6.76
  -4   3  -1  443.54   17.56
  -5   3  -1   21.98    1.36
  -5   3  -1   24.56    1.90
   5  -3   1   25.00    1.40
   5  -3   1   25.92    1.49
  -6   3  -1  288.96   11.45
  -6   3  -1  285.55   12.29
   6  -3   1  267.16   11.52
  -7   3  -1  251.81   10.22
  -7   3  -1  246.27   11.08
   7  -3   1  240.71   10.31
  -8   3  -1   20.06    1.95
  -8   3  -1   18.87    1.40
   8  -3   1   18.01    1.46
  -9   3  -1  327.92   14.85
  -9   3  -1  335.26   13.87
   9  -3   1  342.28   14.04
 -10   3  -1    5.51    0.87
 -10   3  -1    5.72    1.36
  10  -3   1    5.60    1.01
 -11   3  -1   81.25    4.29
 -11   3  -1   82.59    5.77
  11  -3   1   85.03    4.49
 -12   3  -1  239.89   12.18
 -12   3  -1  266.07   11.23
  12  -3   1  261.98   11.43
 -13   3  -1    2.18    0.80
 -13   3  -1    0.81    0.74
  13  -3   1    1.18    0.78
 -14   3  -1   31.50    3.18
 -14   3  -1   36.51    2.83
  14  -3   1   36.76    2.92
 -15   3  -1  127.75    6.32
 -15   3  -1  109.60    6.91
  15  -3   1  113.78    6.35
  14   2  -1    4.08    1.14
 -14  -2   1    4.90    1.32
  13   2  -1   86.75    5.24
 -13  -2   1   98.16    5.50
  12   2  -1    0.83    0.70
  11   2  -1   71.14    3.64
  11   2  -1   88.16    4.61
 -11  -2   1   83.00    4.63
  10   2  -1  230.44    9.63
  10   2  -1  182.91    8.71
 -10  -2   1  225.65    9.66
 -10  -2   1  205.01    8.87
   9   2  -1    3.45    0.57
   9   2  -1    2.37    0.49
   9   2  -1    2.31    0.71
  -9  -2   1    2.67    0.57
  -9  -2   1    2.82    0.81
   8   2  -1  240.01   10.29
   8   2  -1  241.81    9.75
  -8  -2   1  228.95    9.88
   7   2  -1  383.91   14.98
   7   2  -1  368.70   15.28
  -7  -2   1  354.75   14.94
  -7  -2   1  371.39   15.33
   6   2  -1    9.18    0.78
   6   2  -1   12.09    1.06
   6   2  -1    9.87    1.08
  -6  -2   1   10.93    1.03
  -6  -2   1   11.59    0.86
   4   2  -1  103.88    4.56
   4   2  -1  110.85    4.79
   4   2  -1  112.70    4.60
  -4  -2   1  107.76    4.83
   3   2  -1  343.45   13.56
  -3  -2   1  339.32   13.74
   1   2  -1   63.68    2.86
   1   2  -1   70.95    2.96
   1   2  -1   69.30    2.92
  -1  -2   1   67.48    2.90
  -1  -2   1   61.73    2.92
  -2   2  -1    7.06    0.55
  -2   2  -1    8.94    0.79
  -2   2  -1    9.39    0.52
   2  -2   1    8.97    0.53
   2  -2   1    8.75    0.74
   2  -2   1    7.74    0.57
  -4   2  -1  131.36    5.43
  -4   2  -1  132.36    5.43
  -4   2  -1  131.91    5.98
   4  -2   1  140.26    5.47
   4  -2   1  118.75    5.48
  -7   2  -1  290.61   11.82
  -7   2  -1  291.56   12.58
   7  -2   1  282.15   11.90
  -8   2  -1   42.16    2.34
  -8   2  -1   45.19    3.00
   8  -2   1   41.43    2.44
  -9   2  -1  504.82   20.79
  -9   2  -1  522.01   21.74
   9  -2   1  515.96   21.35
 -10   2  -1   25.25    2.44
 -10   2  -1   27.97    1.91
  10  -2   1   26.23    2.00
 -11   2  -1   67.36    3.66
 -11   2  -1   63.65    4.33
  11  -2   1   66.97    3.79
 -12   2  -1  143.44    6.82
  12  -2   1  142.34    6.95
 -13   2  -1    4.44    1.24
 -13   2  -1    5.74    1.16
  13  -2   1    7.78    1.46
 -14   2  -1   73.88    5.05
 -14   2  -1   85.24    4.67
  14  -2   1   77.78    4.70
 -15   2  -1  125.53    6.41
  15  -2   1  112.11    6.36
  14   1  -1   64.58    4.28
 -14  -1   1   67.16    4.40
  13   1  -1  142.40    7.43
 -13  -1   1  153.49    7.59
  12   1  -1    0.13    0.61
 -12  -1   1    0.89    0.76
  11   1  -1  171.01    8.27
 -11  -1   1  165.93    7.77
 -11  -1   1  194.36    8.47
  10   1  -1   90.18    4.74
 -10  -1   1   84.34    4.36
 -10  -1   1   92.71    4.78
   9   1  -1   56.24    3.26
  -9  -1   1   53.36    3.00
  -9  -1   1   58.13    3.31
   8   1  -1  283.02   11.91
   8   1  -1  283.33   11.45
  -8  -1   1  279.72   11.90
  -8  -1   1  271.82   11.65
   7   1  -1  365.78   15.11
   7   1  -1  380.25   14.76
  -7  -1   1  360.63   15.11
  -7  -1   1  357.56   14.90
   6   1  -1    3.69    0.61
  -6  -1   1    2.57    0.55
  -6  -1   1    3.77    0.53
   4   1  -1   41.75    2.09
   4   1  -1   41.93    1.89
  -4  -1   1   38.57    1.89
   3   1  -1  261.90    9.81
   3   1  -1  251.25   10.01
  -3  -1   1  236.80   10.00
  -3  -1   1  245.92    9.96
  -3  -1   1  239.76    9.85
  -2   1  -1  116.14    4.56
  -2   1  -1  112.34    4.56
  -2   1  -1  106.25    4.74
  -2   1  -1  121.98    4.96
   2  -1   1  122.65    4.94
   2  -1   1  105.73    4.65
   2  -1   1  115.39    4.57
  -4   1  -1  116.92    4.96
  -4   1  -1  116.48    5.40
  -4   1  -1  138.37    5.10
   4  -1   1  114.22    5.02
   4  -1   1  122.71    5.36
   4  -1   1  110.14    4.95
  -5   1  -1  154.93    6.45
  -5   1  -1  158.34    6.98
   5  -1   1  153.05    6.54
  -7   1  -1   78.76    4.15
  -7   1  -1   76.37    3.59
   7  -1   1   73.29    3.61
  -8   1  -1  216.95    9.15
  -8   1  -1  214.56    9.80
   8  -1   1  216.17    9.21
  -9   1  -1  288.18   12.10
  -9   1  -1  284.25   12.79
   9  -1   1  293.97   12.19
 -10   1  -1    5.27    1.14
 -10   1  -1    4.76    0.90
  10  -1   1    3.64    0.80
 -11   1  -1  273.30   12.91
 -11   1  -1  288.77   12.26
  11  -1   1  294.46   12.36
 -12   1  -1   99.10    4.95
 -12   1  -1   88.77    5.41
  12  -1   1   94.10    4.99
 -13   1  -1    1.21    0.74
  13  -1   1    1.06    0.76
 -14   1  -1  109.71    6.25
  14  -1   1   98.45    5.61
  15  -1   1   11.06    1.92
  14   0  -1   40.90    3.34
 -14   0   1   50.50    3.59
  13   0  -1   17.19    2.01
 -13   0   1   13.32    1.92
  12   0  -1   13.15    1.74
 -12   0   1   15.29    1.80
  11   0  -1  244.16   10.70
 -11   0   1  220.17   10.32
 -11   0   1  248.72   10.70
  10   0  -1    3.13    0.82
 -10   0   1    3.57    0.90
   9   0  -1  157.96    7.04
  -9   0   1  142.37    6.83
  -9   0   1  152.23    7.03
   8   0  -1  523.43   20.84
  -8   0   1  519.04   20.81
  -8   0   1  489.20   20.68
   7   0  -1  112.10    4.88
   7   0  -1  109.39    5.11
  -7   0   1  107.71    5.02
  -7   0   1  107.78    5.08
   6   0  -1  234.06    9.84
   6   0  -1  239.59    9.64
  -6   0   1  236.24    9.84
  -6   0   1  227.25    9.74
   5   0  -1  100.75    4.53
   5   0  -1  107.11    4.54
  -5   0   1   98.73    4.43
  -5   0   1   95.99    4.50
   4   0  -1  205.55    8.03
   4   0  -1  195.55    8.18
  -4   0   1  193.58    8.18
  -4   0   1  197.17    8.08
   2   0  -1  179.49    7.28
  -2   0   1  180.80    7.25
  -4   0  -1  185.45    7.65
  -4   0  -1  177.26    7.26
   4   0   1  190.04    7.61
   4   0   1  172.69    7.27
   4   0   1  167.16    7.24
  -5   0  -1  222.76    9.45
  -5   0  -1  220.49    9.03
   5   0   1  220.78    9.05
  -7   0  -1    6.65    0.75
   7   0   1    6.96    0.78
  -8   0  -1  396.31   16.13
  -8   0  -1  389.68   16.63
   8   0   1  398.73   16.14
  -9   0  -1  368.12   16.14
  -9   0  -1  379.10   15.64
   9   0   1  389.80   15.68
 -10   0  -1    1.62    0.60
 -10   0  -1    2.49    0.84
  10   0   1    1.54    0.51
 -11   0  -1  198.72    9.86
 -11   0  -1  225.10    9.54
  11   0   1  214.43    9.49
 -12   0  -1   45.12    2.99
 -12   0  -1   39.91    3.11
  12   0   1   47.12    3.03
 -13   0  -1   25.42    2.42
 -13   0  -1   30.79    2.45
  13   0   1   29.65    2.37
 -14   0  -1  157.17    8.10
  14   0   1  144.93    7.48
  15   0   1    4.17    1.11
  14  -1  -1   95.61    5.75
 -14   1   1  111.52    5.88
  13  -1  -1   50.18    3.48
  12  -1  -1   38.16    2.86
 -12   1   1   39.94    2.84
 -12   1   1   35.79    2.63
  11  -1  -1  119.16    5.88
 -11   1   1  118.45    5.84
 -11   1   1  108.82    5.75
  10  -1  -1   42.00    2.73
 -10   1   1   38.97    2.63
 -10   1   1   38.67    2.62
   9  -1  -1  414.00   16.84
  -9   1   1  416.15   16.86
  -9   1   1  381.71   16.81
   8  -1  -1  521.53   20.92
  -8   1   1  518.73   20.88
  -8   1   1  499.96   20.98
   7  -1  -1   75.23    3.74
  -7   1   1   75.21    3.71
  -7   1   1   74.50    3.81
   5  -1  -1  382.02   15.39
   5  -1  -1  380.51   15.44
  -5   1   1  388.46   15.51
  -5   1   1  378.79   15.43
   4  -1  -1   88.83    4.01
  -4   1   1   92.05    4.03
  -4   1   1   91.92    4.06
  -1  -1  -1   28.26    1.22
  -1  -1  -1   28.54    1.36
  -1  -1  -1   27.37    1.13
   1   1   1   29.12    1.21
   1   1   1   27.52    1.35
   1   1   1   26.09    1.12
  -2  -1  -1    4.32    0.44
  -2  -1  -1    3.87    0.29
  -2  -1  -1    3.94    0.32
   2   1   1    5.51    0.36
   2   1   1    5.07    0.31
   2   1   1    5.11    0.45
  -3  -1  -1   44.21    2.25
  -3  -1  -1   42.52    2.09
  -3  -1  -1   48.86    2.07
   3   1   1   46.95    2.25
   3   1   1   46.64    2.05
   3   1   1   44.13    2.00
  -4  -1  -1   39.15    1.84
  -4  -1  -1   34.35    1.77
  -4  -1  -1   36.64    2.03
   4   1   1   39.43    2.04
   4   1   1   37.77    1.80
  -6  -1  -1  518.74   21.06
  -7  -1  -1   71.64    3.47
  -7  -1  -1   67.51    3.72
   7   1   1   74.15    3.46
  -8  -1  -1  405.44   16.64
  -8  -1  -1  399.45   17.00
   8   1   1  415.32   16.62
  -9  -1  -1   49.24    3.14
  -9  -1  -1   51.97    2.92
   9   1   1   51.42    2.88
 -10  -1  -1   60.50    3.32
 -10  -1  -1   51.36    3.43
  10   1   1   58.38    3.24
 -11  -1  -1  176.77    8.94
 -11  -1  -1  202.91    8.81
  11   1   1  198.49    8.74
 -12  -1  -1   31.69    2.41
 -12  -1  -1   26.91    2.38
  12   1   1   30.16    2.33
 -13  -1  -1  136.97    6.76
  13   1   1  128.59    6.61
 -14  -1  -1   96.19    5.35
  14   1   1   90.85    5.20
 -15  -1  -1    0.39    0.85
  15   1   1    0.44    0.70
  14  -2  -1   97.91    5.66
  13  -2  -1   12.88    1.77
 -13   2   1    8.86    1.47
 -13   2   1   13.05    1.63
  12  -2  -1  119.83    6.33
 -12   2   1  128.91    6.33
  11  -2  -1  180.23    8.27
 -11   2   1  183.56    8.19
 -11   2   1  163.38    8.31
  10  -2  -1   34.79    2.44
 -10   2   1   33.57    2.36
 -10   2   1   32.45    2.53
   9  -2  -1  349.39   14.43
  -9   2   1  335.04   14.34
  -9   2   1  342.10   14.69
   8  -2  -1  209.51    8.84
  -8   2   1  199.25    9.05
  -8   2   1  195.33    8.73
   7  -2  -1  214.50    9.16
  -7   2   1  213.50    9.13
   6  -2  -1  428.96   17.63
  -6   2   1  440.13   17.63
  -6   2   1  438.66   17.87
   4  -2  -1  100.16    4.39
   4  -2  -1   91.27    4.31
   4  -2  -1  103.01    4.48
  -4   2   1   98.21    4.36
  -4   2   1  103.81    4.55
   2  -2  -1   27.72    1.34
   2  -2  -1   24.84    1.27
  -2   2   1   25.56    1.27
  -2   2   1   26.50    1.32
   1  -2  -1   70.78    3.33
   1  -2  -1   79.12    3.22
   1  -2  -1   75.29    3.11
  -1   2   1   77.49    3.20
  -1   2   1   74.08    3.10
  -1   2   1   76.68    3.35
  -1  -2  -1  145.79    5.69
  -1  -2  -1  114.66    5.60
   1   2   1  144.29    5.49
   1   2   1  145.10    5.69
   1   2   1  126.69    5.63
  -2  -2  -1   79.00    3.65
  -2  -2  -1   82.70    3.52
  -2  -2  -1   82.66    3.34
   2   2   1   80.92    3.48
   2   2   1   88.18    3.36
   2   2   1   82.06    3.66
  -4  -2  -1   52.79    2.43
  -4  -2  -1   47.41    2.55
  -4  -2  -1   46.56    2.26
   4   2   1   50.79    2.55
   4   2   1   53.95    2.32
  -6  -2  -1  463.95   18.94
  -7  -2  -1   84.78    4.17
  -7  -2  -1   87.70    4.41
   7   2   1   90.02    4.12
  -8  -2  -1  233.04   10.22
   8   2   1  245.94   10.17
  -9  -2  -1    0.56    0.51
  -9  -2  -1    0.56    0.51
   9   2   1    1.47    0.52
 -10  -2  -1  233.48   10.20
 -10  -2  -1  217.96   10.34
  10   2   1  242.01   10.13
 -11  -2  -1  236.05   11.13
 -11  -2  -1  256.16   11.07
  11   2   1  254.45   10.94
 -12  -2  -1    3.23    0.95
 -12  -2  -1    4.28    1.03
  12   2   1    4.28    0.92
 -13  -2  -1  147.89    7.46
  13   2   1  141.53    7.11
 -14  -2  -1   95.11    5.25
  14   2   1   79.66    4.85
  14  -3  -1   96.09    5.54
  13  -3  -1    0.12    0.50
 -13   3   1   -0.44    0.57
  12  -3  -1  161.59    7.77
 -12   3   1  147.75    7.94
 -12   3   1  167.79    7.68
  11  -3  -1  132.74    6.30
 -11   3   1  119.80    6.56
 -11   3   1  122.43    6.15
  10  -3  -1   54.10    3.29
 -10   3   1   52.40    3.19
 -10   3   1   55.64    3.61
   9  -3  -1  378.69   15.57
  -9   3   1  364.86   15.46
  -9   3   1  369.64   15.99
   8  -3  -1  154.29    6.99
  -8   3   1  158.75    6.98
  -8   3   1  151.22    7.37
   7  -3  -1  134.75    6.14
  -7   3   1  137.85    6.13
  -7   3   1  135.68    6.51
   6  -3  -1  424.60   17.52
  -6   3   1  441.05   17.94
  -6   3   1  433.30   17.53
   5  -3  -1   18.75    1.27
   5  -3  -1   16.74    1.18
  -5   3   1   17.88    1.25
  -5   3   1   16.96    1.43
   4  -3  -1  289.27   12.29
  -4   3   1  298.22   12.30
  -4   3   1  322.48   12.71
   2  -3  -1   80.14    3.42
   2  -3  -1   76.68    3.74
   2  -3  -1   81.21    3.53
  -2   3   1   87.92    3.83
  -2   3   1   80.19    3.49
  -2   3   1   75.06    3.39
   0  -3  -1  208.84    9.26
   0   3   1  239.33    9.03
   1   3   1  269.35   10.49
   1   3   1  238.99   10.16
  -2  -3  -1   11.08    0.79
  -2  -3  -1   11.50    0.91
  -2  -3  -1   11.88    0.59
   2   3   1   10.15    0.86
   2   3   1   12.02    0.62
  -3  -3  -1  229.09    9.15
  -3  -3  -1  226.43    9.58
  -3  -3  -1  246.07    9.46
   3   3   1  215.15    9.56
   3   3   1  234.99    9.60
   4   3   1  638.99   25.48
  -6  -3  -1   33.70    2.04
  -6  -3  -1   31.68    2.12
   6   3   1   38.12    1.95
  -7  -3  -1  344.82   14.07
  -7  -3  -1  333.20   14.24
   7   3   1  338.81   13.88
  -8  -3  -1  230.27   10.00
   8   3   1  231.30    9.83
  -9  -3  -1    7.83    1.13
  -9  -3  -1    7.39    1.17
   9   3   1    8.32    1.07
 -10  -3  -1  123.78    6.33
 -10  -3  -1  127.54    6.25
  10   3   1  134.54    6.24
 -11  -3  -1  282.01   12.21
 -11  -3  -1  270.00   12.17
  11   3   1  274.36   11.97
 -12  -3  -1   26.72    2.26
 -12  -3  -1   28.83    2.45
  12   3   1   25.25    2.23
 -13  -3  -1  138.12    6.96
  13   3   1  125.51    6.58
 -14  -3  -1   32.66    2.95
  14   3   1   31.10    2.61
  14  -4  -1   61.02    4.04
 -14   4   1   54.95    3.80
  13  -4  -1    8.93    1.54
 -13   4   1   10.38    1.84
 -13   4   1    7.64    1.36
 -12   4   1   94.00    5.71
 -12   4   1   99.76    5.22
  11  -4  -1   48.61    3.20
 -11   4   1   47.09    3.59
 -11   4   1   47.43    3.07
  10  -4  -1  115.10    5.63
 -10   4   1  113.96    5.52
 -10   4   1  104.68    6.02
   9  -4  -1  339.94   14.17
  -9   4   1  339.86   14.11
  -9   4   1  324.99   14.72
   8  -4  -1    0.64    0.52
  -8   4   1   -0.29    0.56
  -8   4   1    0.11    0.45
   7  -4  -1  133.67    6.08
  -7   4   1  130.89    6.57
  -7   4   1  137.35    6.09
   6  -4  -1  344.90   14.63
   6  -4  -1  361.55   14.71
  -6   4   1  360.20   14.68
  -6   4   1  366.05   15.26
   5  -4  -1    3.93    0.59
   5  -4  -1    3.24    0.59
  -5   4   1    3.69    0.61
  -5   4   1    3.71    0.79
  -1  -4  -1  229.05    9.76
  -1  -4  -1  248.00    9.45
  -3  -4  -1  162.26    6.84
   3   4   1  150.93    6.95
   3   4   1  166.64    6.53
  -6  -4  -1   13.25    1.18
  -6  -4  -1   14.26    1.31
   6   4   1   13.84    1.27
   6   4   1   14.66    1.10
  -7  -4  -1  378.34   15.25
  -7  -4  -1  369.57   15.42
   7   4   1  331.62   15.21
   7   4   1  384.20   15.00
  -8  -4  -1  136.41    6.60
  -8  -4  -1  157.19    7.16
   8   4   1  124.46    6.43
   8   4   1  143.95    6.33
  -9  -4  -1   80.65    4.21
  -9  -4  -1   77.25    4.20
   9   4   1   77.24    3.95
   9   4   1   68.46    3.95
 -10  -4  -1  204.57    9.45
 -10  -4  -1  222.68    9.60
  10   4   1  231.03    9.89
  10   4   1  178.69    9.12
 -11  -4  -1   59.71    3.63
  11   4   1   58.13    3.32
  11   4   1   45.30    3.06
 -12  -4  -1   54.40    3.56
  12   4   1   50.79    3.22
  12   4   1   42.95    2.86
 -13  -4  -1  138.46    7.16
  13   4   1  130.75    6.74
 -14  -4  -1    9.37    1.72
  14   4   1    6.07    1.17
  14  -5  -1    5.10    1.21
 -14   5   1    2.20    1.13
 -14   5   1    3.85    1.11
  13  -5  -1   42.97    3.31
 -13   5   1   44.16    3.75
 -13   5   1   45.70    3.17
  12  -5  -1   91.19    5.04
 -12   5   1   86.77    4.77
 -12   5   1   83.07    5.47
  11  -5  -1    0.96    0.66
 -11   5   1   -0.08    0.68
 -11   5   1    0.70    0.80
  10  -5  -1  214.12    9.61
 -10   5   1  205.72   10.42
 -10   5   1  219.98    9.55
   9  -5  -1  362.47   14.99
  -9   5   1  362.13   14.91
  -9   5   1  339.26   15.67
   8  -5  -1   18.04    1.59
  -8   5   1   18.60    1.57
  -8   5   1   16.56    1.92
   7  -5  -1  522.32   21.69
   7  -5  -1  543.29   21.77
  -7   5   1  537.09   21.72
  -7   5   1  541.66   22.53
   6  -5  -1  121.43    5.63
   6  -5  -1  119.93    5.57
  -6   5   1  125.56    5.63
  -6   5   1  127.28    6.32
   5  -5  -1  143.80    6.48
   5  -5  -1  146.88    6.58
  -5   5   1  159.38    7.30
   3  -5  -1  166.57    7.23
  -3   5   1  182.71    8.00
   0  -5  -1  307.49   12.44
   0   5   1  278.92   12.16
   0   5   1  328.59   12.83
  -1  -5  -1   70.49    3.78
  -1  -5  -1   77.36    3.24
  -1  -5  -1   78.83    3.22
   1   5   1   77.59    3.84
  -2  -5  -1  489.05   19.67
  -3  -5  -1    0.91    0.36
   3   5   1    1.80    0.55
   3   5   1    2.27    0.36
  -4  -5  -1  380.87   15.76
  -4  -5  -1  378.43   15.26
   4   5   1  400.76   15.38
   4   5   1  378.93   15.89
  -5  -5  -1  289.15   12.00
   5   5   1  290.00   11.60
   5   5   1  274.65   12.08
  -6  -5  -1   61.10    3.30
   6   5   1   58.44    3.60
   6   5   1   59.44    2.97
  -7  -5  -1  602.04   24.41
  -7  -5  -1  605.31   24.31
   7   5   1  619.32   23.95
   7   5   1  558.72   24.19
  -8  -5  -1  131.72    6.23
  -8  -5  -1  128.87    6.23
   8   5   1  132.83    5.90
   8   5   1  115.54    5.99
  -9  -5  -1    7.03    1.20
   9   5   1    7.48    1.12
   9   5   1    6.91    1.03
 -10  -5  -1  217.51    9.95
  10   5   1  194.12    9.45
  10   5   1  236.33   10.19
 -11  -5  -1    3.42    0.98
  11   5   1    2.89    0.79
  11   5   1    3.02    0.84
 -12  -5  -1   85.43    5.14
  12   5   1   85.69    4.72
 -13  -5  -1  107.70    6.05
  13   5   1   96.11    5.41
  14  -6  -1   -0.22    0.67
 -14   6   1   -1.67    0.71
 -14   6   1   -0.02    0.98
  13  -6  -1   46.02    3.46
 -13   6   1   45.35    3.92
 -13   6   1   45.83    3.25
  12  -6  -1  138.12    6.96
 -12   6   1  135.77    7.78
 -12   6   1  134.18    6.73
  11  -6  -1   -0.64    0.52
 -11   6   1   -1.12    0.44
 -11   6   1    0.36    0.86
  10  -6  -1   99.39    5.30
 -10   6   1  106.59    6.21
 -10   6   1  106.28    5.29
   9  -6  -1  198.57    9.13
  -9   6   1  211.23   10.28
   8  -6  -1   81.14    4.15
   8  -6  -1   83.05    4.19
  -8   6   1   73.21    4.79
  -8   6   1   76.21    4.08
   7  -6  -1  573.79   22.68
   7  -6  -1  550.06   22.57
  -7   6   1  548.86   22.60
  -7   6   1  556.71   23.59
   6  -6  -1  255.72   11.06
   6  -6  -1  263.67   11.19
  -6   6   1  257.89   11.14
  -6   6   1  279.07   12.13
   5  -6  -1  103.21    4.96
   5  -6  -1  104.04    4.84
  -5   6   1  111.64    5.75
   4  -6  -1  327.32   13.64
   4  -6  -1  337.01   13.85
  -4   6   1  343.25   14.59
   3  -6  -1   43.13    2.22
   3  -6  -1   44.28    2.42
  -3   6   1   44.13    2.90
   2  -6  -1  259.18   10.83
   2  -6  -1  269.21   11.14
  -2   6   1  275.87   11.72
   0  -6  -1   49.74    2.53
   0  -6  -1   44.76    2.08
   0   6   1   41.98    2.09
   0   6   1   46.38    2.77
  -2  -6  -1  387.01   15.57
  -2  -6  -1  394.45   15.61
  -2  -6  -1  382.73   16.12
   2   6   1  411.56   16.41
  -3  -6  -1   10.04    1.08
  -3  -6  -1   10.73    0.73
  -3  -6  -1   11.48    0.79
   3   6   1   10.08    1.19
   3   6   1   12.44    0.87
  -4  -6  -1   62.36    3.41
   4   6   1   63.47    3.50
   4   6   1   66.34    3.01
  -5  -6  -1   91.79    4.62
   5   6   1   93.37    4.67
   5   6   1   91.02    4.16
  -6  -6  -1  282.66   12.33
   6   6   1  297.17   11.88
   6   6   1  281.89   12.31
  -7  -6  -1  228.34   10.29
   7   6   1  231.74   10.21
   7   6   1  235.36    9.85
  -8  -6  -1    1.74    0.72
   8   6   1    1.12    0.48
   8   6   1    1.14    0.53
  -9  -6  -1  180.33    8.46
   9   6   1  180.03    8.02
   9   6   1  172.28    8.08
 -10  -6  -1   61.14    4.00
  10   6   1   58.66    3.47
  10   6   1   65.03    3.64
 -11  -6  -1    3.60    1.14
  11   6   1    3.28    0.91
 -12  -6  -1   88.73    5.29
  12   6   1   80.18    4.63
 -13  -6  -1   67.88    4.56
  13   6   1   61.09    3.93
  13  -7  -1   53.06    3.77
 -13   7   1   48.62    4.31
  12  -7  -1    6.90    1.37
 -12   7   1    6.34    1.15
 -12   7   1    7.72    1.89
  11  -7  -1   62.75    3.93
 -11   7   1   56.29    4.47
 -11   7   1   57.96    3.58
  10  -7  -1  208.72    9.55
 -10   7   1  211.64   10.71
 -10   7   1  208.66    9.44
   9  -7  -1  168.67    7.82
  -9   7   1  171.07    7.78
  -9   7   1  165.27    8.86
   8  -7  -1   87.20    4.52
   8  -7  -1   89.25    4.57
  -8   7   1   83.62    5.39
  -8   7   1   87.58    4.50
   7  -7  -1  210.15    9.23
   7  -7  -1  206.08    9.54
  -7   7   1  207.99   10.35
  -7   7   1  209.59    9.18
   6  -7  -1    8.69    0.98
   6  -7  -1    7.57    1.06
  -6   7   1    7.61    1.48
   5  -7  -1  201.40    8.65
   5  -7  -1  205.96    8.85
  -5   7   1  199.82    9.66
   4  -7  -1  249.36   10.62
   4  -7  -1  262.36   10.91
  -4   7   1  258.15   11.68
   3  -7  -1   71.00    3.38
   3  -7  -1   68.47    3.61
  -3   7   1   76.02    4.27
   2  -7  -1  305.78   12.58
   2  -7  -1  296.89   12.70
  -2   7   1  312.99   13.37
   1  -7  -1  326.86   13.63
   1  -7  -1  335.82   14.09
  -1   7   1  359.37   14.69
   0  -7  -1  163.93    7.03
   0  -7  -1  169.41    7.56
   0   7   1  181.48    8.03
  -1  -7  -1  336.53   13.48
  -1  -7  -1  326.71   14.01
  -1  -7  -1  325.23   13.41
   1   7   1  358.40   14.44
  -2  -7  -1   95.73    4.07
  -2  -7  -1   89.71    4.61
  -2  -7  -1   91.50    4.03
   2   7   1  100.20    4.92
  -3  -7  -1  259.56   10.74
  -3  -7  -1  263.04   10.80
  -3  -7  -1  261.99   11.45
   3   7   1  284.93   11.71
  -4  -7  -1  535.32   22.31
  -4  -7  -1  510.17   21.60
   4   7   1  560.96   22.46
   4   7   1  574.85   21.73
  -5  -7  -1   67.99    3.82
  -5  -7  -1   63.76    3.20
   5   7   1   72.08    3.90
   5   7   1   68.84    3.29
  -6  -7  -1  210.00    9.53
   6   7   1  200.81    8.88
   6   7   1  220.59    9.53
  -7  -7  -1   62.36    3.98
   7   7   1   75.23    3.99
   7   7   1   69.03    3.54
  -8  -7  -1   38.38    2.78
   8   7   1   34.62    2.33
   8   7   1   38.74    2.64
  -9  -7  -1  393.36   17.19
   9   7   1  389.31   16.54
   9   7   1  407.67   16.73
 -10  -7  -1  104.41    6.85
  10   7   1  118.58    5.86
  10   7   1  128.52    5.90
 -11  -7  -1   22.07    2.48
  11   7   1   22.69    2.08
 -12  -7  -1  123.90    6.78
  12   7   1  110.79    5.95
  13  -8  -1   88.10    5.27
 -13   8   1   91.58    5.03
 -13   8   1   80.53    6.04
  12  -8  -1    7.27    1.37
 -12   8   1    4.57    1.18
 -12   8   1    5.06    1.68
  11  -8  -1   47.92    3.29
 -11   8   1   43.74    2.99
 -11   8   1   38.77    3.86
  10  -8  -1  137.07    6.74
 -10   8   1  130.47    7.84
 -10   8   1  137.15    6.63
   9  -8  -1    2.31    0.80
   9  -8  -1    2.71    0.83
  -9   8   1    1.28    1.04
  -9   8   1    4.64    0.98
   8  -8  -1   90.81    4.70
   8  -8  -1   90.50    4.79
  -8   8   1   92.37    5.17
  -8   8   1   87.89    5.76
   7  -8  -1  165.88    7.54
   7  -8  -1  166.96    7.67
  -7   8   1  171.91    8.81
  -7   8   1  160.90    7.59
   6  -8  -1   85.45    4.29
   6  -8  -1   88.51    4.48
  -6   8   1   84.25    5.37
   5  -8  -1  294.70   12.61
   5  -8  -1  298.51   12.38
  -5   8   1  296.65   13.74
   4  -8  -1   92.18    4.41
   4  -8  -1   94.60    4.71
  -4   8   1   98.72    5.50
   3  -8  -1   71.08    3.51
   3  -8  -1   70.77    3.83
  -3   8   1   81.72    4.64
   2  -8  -1  697.95   28.47
   2  -8  -1  692.54   28.00
  -2   8   1  734.62   29.26
   1  -8  -1  145.41    6.72
  -1   8   1  146.78    7.24
   0  -8  -1  278.03   12.11
   0  -8  -1  280.40   11.49
   0   8   1  295.42   12.65
  -1  -8  -1  294.57   12.83
  -1  -8  -1  289.77   12.13
   1   8   1  321.71   13.31
  -2  -8  -1    1.68    0.65
  -2  -8  -1    1.66    0.36
   2   8   1    2.33    0.79
  -3  -8  -1  267.72   11.80
  -3  -8  -1  265.79   11.02
   3   8   1  281.43   12.05
  -4  -8  -1  377.76   17.09
  -4  -8  -1  374.25   15.73
   4   8   1  424.18   16.79
  -5  -8  -1   37.05    2.68
   5   8   1   40.30    2.77
  -6  -8  -1  389.61   16.75
  -6  -8  -1  374.37   15.86
   6   8   1  410.69   16.70
   6   8   1  389.92   15.95
  -7  -8  -1  247.11   11.46
   7   8   1  262.63   11.31
   7   8   1  248.13   10.69
  -8  -8  -1    4.55    1.11
   8   8   1    3.25    0.71
   8   8   1    4.31    0.99
  -9  -8  -1  115.25    6.53
   9   8   1  126.74    6.10
   9   8   1  122.30    5.88
 -10  -8  -1   18.96    2.30
  10   8   1   17.57    1.84
  10   8   1   19.51    1.83
 -11  -8  -1   46.08    3.71
 -12  -8  -1  135.87    7.61
  12  -9  -1    0.39    0.81
 -12   9   1    0.10    0.77
 -12   9   1    2.55    1.52
  11  -9  -1   90.09    5.06
 -11   9   1   82.17    4.79
  10  -9  -1  106.84    5.60
  10  -9  -1  108.78    5.62
 -10   9   1  101.23    5.41
 -10   9   1   98.97    6.73
   9  -9  -1    1.53    0.86
   9  -9  -1    2.41    0.77
  -9   9   1    1.47    0.73
  -9   9   1    2.25    1.24
   8  -9  -1  113.31    5.63
   8  -9  -1  112.61    5.52
  -8   9   1  100.73    5.41
  -8   9   1  107.41    6.76
   7  -9  -1  103.68    5.32
   7  -9  -1  102.68    5.18
  -7   9   1  107.77    6.52
   6  -9  -1   24.86    1.93
   6  -9  -1   25.94    2.11
  -6   9   1   24.89    2.81
   5  -9  -1  257.67   10.93
   5  -9  -1  256.14   11.22
  -5   9   1  258.59   12.30
   4  -9  -1   45.30    2.83
   4  -9  -1   45.17    2.54
  -4   9   1   44.68    3.58
   3  -9  -1  199.76    9.10
   3  -9  -1  207.38    8.69
  -3   9   1  206.56   10.08
   2  -9  -1  532.86   21.57
   2  -9  -1  525.61   22.12
  -2   9   1  561.88   22.99
   1  -9  -1   54.92    2.69
   1  -9  -1   50.90    3.19
  -1   9   1   57.18    3.70
   0  -9  -1  171.45    8.14
   0   9   1  185.02    8.71
  -1  -9  -1  209.37    8.92
  -1  -9  -1  215.56    9.75
   1   9   1  228.08   10.22
   2   9   1    0.94    0.77
  -3  -9  -1  486.58   21.06
  -3  -9  -1  494.27   20.12
   3   9   1  537.26   21.42
  -4  -9  -1  259.76   12.04
  -4  -9  -1  256.51   11.09
   4   9   1  299.19   12.34
  -5  -9  -1   11.57    1.72
   5   9   1   15.06    1.83
  -6  -9  -1  113.06    5.31
  -6  -9  -1  118.31    6.29
   6   9   1  125.04    6.22
  -7  -9  -1    2.98    0.66
  -7  -9  -1    3.97    1.16
   7   9   1    2.45    0.91
   7   9   1    3.33    0.72
  -8  -9  -1   79.28    5.00
  -8  -9  -1   78.52    4.08
   8   9   1   89.43    4.71
   8   9   1   79.27    4.14
  -9  -9  -1  194.24    9.48
  -9  -9  -1  182.19    8.34
 -10  -9  -1    1.70    1.05
  10   9   1    0.32    0.57
 -11  -9  -1   85.56    5.57
  12 -10  -1    3.75    1.23
 -12  10   1    3.32    1.14
 -12  10   1    1.70    1.26
  11 -10  -1  149.47    7.50
 -11  10   1  145.24    7.24
 -11  10   1  144.63    8.97
  10 -10  -1   32.99    2.71
  10 -10  -1   32.90    2.66
 -10  10   1   29.72    2.57
 -10  10   1   29.23    3.56
   9 -10  -1   36.12    2.73
   9 -10  -1   35.33    2.71
  -9  10   1   35.36    2.74
  -9  10   1   32.52    3.65
   8 -10  -1  183.71    8.38
   8 -10  -1  181.44    8.22
  -8  10   1  162.49    9.52
  -8  10   1  174.93    8.24
   7 -10  -1   30.28    2.24
   7 -10  -1   28.42    2.37
  -7  10   1   26.23    3.16
   6 -10  -1   48.69    3.13
   6 -10  -1   47.75    2.91
  -6  10   1   48.02    4.08
   5 -10  -1   86.27    4.76
   5 -10  -1   93.32    4.85
  -5  10   1   91.76    5.84
   4 -10  -1    0.07    0.48
  -4  10   1    0.14    0.90
   3 -10  -1  446.79   19.76
   3 -10  -1  473.21   18.70
  -3  10   1  461.95   20.21
   2 -10  -1  264.33   11.49
   2 -10  -1  287.97   12.78
  -2  10   1  285.08   13.03
   1 -10  -1   -0.01    0.32
  -1  10   1   -0.54    0.75
   0 -10  -1  165.20    7.08
   0 -10  -1  159.32    7.86
   0  10   1  176.53    8.53
  -1 -10  -1  268.31   11.94
  -1 -10  -1  257.51   10.98
   1  10   1  281.46   12.47
  -2 -10  -1   10.13    1.45
  -2 -10  -1   14.76    1.28
   2  10   1   11.78    1.78
  -3 -10  -1  238.20   10.92
  -3 -10  -1  239.23    9.84
  -4 -10  -1   34.24    2.82
  -5 -10  -1  112.03    6.18
  -5 -10  -1  114.93    5.22
  -6 -10  -1  187.45    8.01
  -6 -10  -1  187.05    9.18
  -7 -10  -1   29.39    3.28
  -7 -10  -1   30.81    1.97
  -8 -10  -1   54.85    3.97
  -8 -10  -1   52.70    2.97
  -9 -10  -1   73.82    5.14
   9  10   1   87.49    5.26
 -10 -10  -1    1.22    1.01
  11 -11  -1   83.93    4.98
 -11  11   1   78.81    6.25
  10 -11  -1    9.22    1.47
  10 -11  -1    8.55    1.59
 -10  11   1   10.13    2.22
   9 -11  -1  107.88    5.76
  -9  11   1  106.04    5.66
  -9  11   1  103.78    7.12
   8 -11  -1  144.20    6.88
   8 -11  -1  145.35    7.06
  -8  11   1  135.93    6.88
  -8  11   1  129.83    9.27
   7 -11  -1   29.92    2.28
   7 -11  -1   27.89    2.43
  -7  11   1   25.12    3.22
   6 -11  -1   98.55    4.81
   6 -11  -1   88.96    5.05
  -6  11   1   90.28    6.19
   5 -11  -1   78.31    3.98
   5 -11  -1   70.75    4.23
  -5  11   1   73.54    5.29
   4 -11  -1   11.87    1.60
   4 -11  -1   12.92    1.31
  -4  11   1   12.46    2.04
   3 -11  -1  259.79   10.77
   3 -11  -1  238.47   11.32
  -3  11   1  264.70   12.45
   2 -11  -1   72.20    4.30
   2 -11  -1   74.25    3.65
  -2  11   1   75.15    5.03
   1 -11  -1   20.29    1.48
   1 -11  -1   19.98    2.05
  -1  11   1   20.55    2.53
   0 -11  -1  170.54    7.40
   0 -11  -1  170.03    8.36
   0  11   1  183.17    9.06
  -1 -11  -1   20.87    2.19
  -1 -11  -1   22.88    1.49
   1  11   1   27.40    2.71
  -2 -11  -1  119.76    6.49
  -2 -11  -1  119.92    5.39
   2  11   1  134.68    6.99
  -3 -11  -1  158.44    8.17
   3  11   1  169.76    8.49
  -4 -11  -1    0.76    0.98
   4  11   1    0.85    0.90
  -5 -11  -1  113.53    6.64
  -5 -11  -1  125.90    5.59
   5  11   1  130.25    6.82
  -6 -11  -1   33.57    3.10
  -6 -11  -1   33.91    2.06
   6  11   1   35.50    2.98
  -7 -11  -1    2.45    1.24
   7  11   1    3.33    1.11
  -8 -11  -1  147.91    8.09
  -9 -11  -1   35.37    3.42
  10 -12  -1   10.00    1.60
  10 -12  -1   10.72    1.99
 -10  12   1   10.66    2.55
   9 -12  -1   70.32    4.23
   9 -12  -1   66.36    4.25
  -9  12   1   67.68    4.22
  -9  12   1   65.02    5.59
   8 -12  -1   53.49    3.39
   8 -12  -1   48.20    3.39
  -8  12   1   43.74    4.51
   7 -12  -1    6.83    1.16
   7 -12  -1    5.17    1.15
  -7  12   1    4.02    1.68
   6 -12  -1   80.84    4.77
   6 -12  -1   83.30    4.48
  -6  12   1   86.25    6.20
   5 -12  -1   49.55    2.97
   5 -12  -1   45.01    3.28
  -5  12   1   47.88    4.31
   4 -12  -1   60.13    3.87
   4 -12  -1   64.17    3.41
  -4  12   1   59.79    4.82
   3 -12  -1  236.16   10.98
   3 -12  -1  242.34   10.24
  -3  12   1  238.88   12.04
   2 -12  -1   11.80    1.24
   2 -12  -1   10.24    1.56
  -2  12   1   13.03    2.25
   1 -12  -1   41.24    2.34
   1 -12  -1   40.31    3.10
  -1  12   1   38.60    3.59
   0 -12  -1  224.96   11.03
   0 -12  -1  239.49   10.00
   0  12   1  255.01   11.93
  -1 -12  -1    0.74    0.42
  -1 -12  -1    0.08    0.77
   1  12   1    1.34    1.05
  -2 -12  -1  178.24    7.63
  -2 -12  -1  175.62    8.96
   2  12   1  191.59    9.51
  -3 -12  -1  131.53    5.81
  -3 -12  -1  116.81    6.95
   3  12   1  145.91    7.55
   4  12   1    0.32    1.05
  -5 -12  -1   87.48    5.68
   5  12   1  101.95    5.95
  -6 -12  -1   56.45    4.46
   6  12   1   68.79    4.57
  -7 -12  -1   21.61    2.81
   7  12   1   25.20    2.82
  -8 -12  -1  108.44    6.63
   8  12   1  102.75    7.50
   9 -13  -1   80.05    4.98
   9 -13  -1   92.17    4.97
  -9  13   1   75.48    4.73
  -9  13   1   81.12    6.43
   8 -13  -1   50.80    3.42
  -8  13   1   41.17    4.50
   7 -13  -1   28.36    2.36
   7 -13  -1   23.81    2.47
  -7  13   1   26.36    3.53
   6 -13  -1  106.73    5.33
   6 -13  -1   95.73    5.60
  -6  13   1  101.09    6.91
   5 -13  -1    4.20    1.17
   5 -13  -1    3.56    0.91
  -5  13   1    5.61    1.80
   4 -13  -1   70.00    3.71
   4 -13  -1   63.91    4.24
  -4  13   1   67.17    5.30
   3 -13  -1   69.53    3.63
   3 -13  -1   64.33    4.33
  -3  13   1   68.14    5.36
   2 -13  -1   -1.28    0.60
   2 -13  -1   -0.89    0.43
  -2  13   1    0.48    0.74
   1 -13  -1  175.42    8.99
   1 -13  -1  184.32    7.96
  -1  13   1  191.94   10.02
   0 -13  -1   93.98    5.64
   0 -13  -1   94.89    4.50
   0  13   1  103.39    6.44
  -1 -13  -1    3.63    1.18
  -1 -13  -1    3.83    0.64
   1  13   1    6.42    1.75
  -2 -13  -1  122.60    7.74
   2  13   1  133.98    7.60
  -3 -13  -1   44.38    3.70
   3  13   1   46.67    3.99
  -4 -13  -1   18.20    2.56
   4  13   1   19.40    2.66
  -5 -13  -1   93.46    6.00
   5  13   1   98.50    6.03
  -6 -13  -1   32.99    3.35
   6  13   1   28.11    2.97
   7 -14  -1   30.07    2.86
   7 -14  -1   38.07    2.76
  -7  14   1   32.60    4.03
   6 -14  -1   77.08    4.27
   6 -14  -1   73.32    4.64
  -6  14   1   67.79    5.81
   5 -14  -1    0.49    0.94
   5 -14  -1    0.76    0.62
   4 -14  -1   93.87    4.74
  -4  14   1   90.14    6.61
   3 -14  -1   35.22    2.44
  -3  14   1   36.02    3.97
   2 -14  -1    4.62    1.50
   2 -14  -1    4.87    1.45
  -2  14   1    6.05    1.91
   1 -14  -1  148.72    8.06
  -1  14   1  161.35    9.13
   0 -14  -1   48.60    3.85
   0  14   1   52.22    4.56
  -1 -14  -1   44.99    3.84
   1  14   1   54.27    4.55
  -2 -14  -1  123.99    7.36
   2  14   1  143.68    8.18
  -3 -14  -1    3.06    1.17
   3  14   1    6.33    1.79
  -4 -14  -1   38.69    3.64
   4  14   1   43.24    3.93
   4 -15  -1  153.69    8.07
  -4  15   1  148.09    9.32
   3 -15  -1   96.54    5.97
  -3  15   1  107.77    7.31
   2 -15  -1    2.20    1.15
  -2  15   1    2.87    1.53
   1 -15  -1   74.95    5.10
  -1  15   1   82.40    6.09
   0 -15  -1   10.20    1.90
   0  15   1   10.90    2.43
  -1 -15  -1   25.14    2.86
   1  15   1   26.71    3.39
  -2 -15  -1   84.72    5.66
   2  15   1   86.96    6.29
   0  14  -2    3.36    1.47
   0 -14   2    0.94    0.90
  -1  14  -2   75.21    5.78
   1 -14   2   64.93    4.51
   1 -14   2   70.58    4.02
  -2  14  -2   35.74    3.90
   2 -14   2   34.00    2.64
   2 -14   2   32.57    2.93
  -3  14  -2   29.93    3.83
   3 -14   2   32.06    2.60
  -4  14  -2   95.19    6.97
   4 -14   2   93.53    5.50
   3  13  -2   -1.62    0.86
  -3 -13   2   -0.75    0.84
  -2 -13   2   75.27    5.02
  -1 -13   2   36.91    2.54
  -1 -13   2   31.60    2.99
   0  13  -2   42.39    4.02
   0 -13   2   33.12    3.11
   0 -13   2   41.59    2.79
  -1  13  -2  159.35    9.07
   1 -13   2  143.60    7.75
   1 -13   2  156.26    7.23
  -2  13  -2   52.92    4.66
   2 -13   2   51.88    3.24
   2 -13   2   48.59    3.62
  -3  13  -2   31.58    3.73
   3 -13   2   34.90    2.59
   3 -13   2   32.17    2.71
  -4  13  -2   59.60    5.27
   4 -13   2   55.19    3.83
   4 -13   2   67.67    3.84
  -5  13  -2   -0.60    1.12
   5 -13   2   -0.43    0.73
   5 -13   2   -1.60    0.69
  -6  13  -2   94.16    7.12
   6 -13   2   90.54    5.26
   6 -13   2  105.18    5.51
  -7  13  -2   69.66    6.13
   7 -13   2   68.74    4.30
   7 -13   2   81.67    4.62
   5  12  -2  103.26    6.16
  -5 -12   2  115.76    6.59
   4  12  -2   19.64    2.50
  -4 -12   2   21.23    2.61
  -4 -12   2   16.42    1.86
   3  12  -2   40.61    3.49
  -3 -12   2   38.17    3.36
  -3 -12   2   41.24    2.74
   2  12  -2  182.24    9.42
  -2 -12   2  173.07    8.03
   1  12  -2   44.15    3.84
  -1 -12   2   37.75    3.29
  -1 -12   2   42.44    2.78
   0  12  -2   30.75    3.43
   0 -12   2   29.81    2.71
   0 -12   2   32.00    2.30
  -1  12  -2  127.18    7.55
   1 -12   2  115.97    6.40
   1 -12   2  124.68    5.97
  -2  12  -2    9.51    2.11
   2 -12   2   10.30    1.49
   2 -12   2    9.83    1.56
  -3  12  -2   59.69    5.74
   3 -12   2   65.17    4.06
   3 -12   2   69.31    3.79
  -4  12  -2   20.84    3.09
   4 -12   2   18.17    2.02
   4 -12   2   23.33    2.12
  -5  12  -2    9.26    2.34
   5 -12   2    7.84    1.30
  -6  12  -2  133.82    8.70
   6 -12   2  154.89    7.02
   6 -12   2  129.46    6.83
  -7  12  -2   38.10    4.40
   7 -12   2   46.41    3.07
  -8  12  -2   13.46    2.82
   8 -12   2   15.05    1.98
  -9  12  -2   59.83    3.70
  -9  12  -2   59.85    5.67
   9 -12   2   61.92    3.87
   9 -12   2   71.58    4.25
  -7 -11   2   31.83    3.21
  -6 -11   2   28.92    2.98
  -6 -11   2   25.29    2.27
   5  11  -2   90.68    5.29
  -5 -11   2   91.28    4.72
  -5 -11   2   86.38    5.49
   4  11  -2   20.27    2.39
  -4 -11   2   20.34    2.41
  -4 -11   2   23.72    1.98
   3  11  -2   76.00    4.88
  -3 -11   2   70.54    4.63
   2  11  -2  125.71    7.09
  -2 -11   2  130.99    6.14
  -2 -11   2  122.42    6.67
   1  11  -2    0.38    0.87
  -1 -11   2   -0.74    0.71
   0  11  -2  164.81    8.73
   0 -11   2  154.73    7.84
   0 -11   2  163.95    7.82
  -1  11  -2  199.42   10.07
   1 -11   2  175.80    8.88
   1 -11   2  197.50    8.65
  -2  11  -2    1.43    1.26
   2 -11   2    2.18    0.89
   2 -11   2    3.35    0.87
  -3  11  -2  111.08    6.98
   3 -11   2  104.83    5.73
   3 -11   2  120.22    5.62
  -4  11  -2   31.01    3.44
   4 -11   2   31.20    2.29
   4 -11   2   24.99    2.22
  -5  11  -2   67.71    5.20
   5 -11   2   68.40    3.91
   5 -11   2   64.92    3.89
   6 -11   2  102.05    5.52
   6 -11   2  117.19    5.69
  -7  11  -2    1.95    1.19
   7 -11   2   -0.11    0.62
   7 -11   2    0.07    0.56
  -8  11  -2   80.56    6.43
   8 -11   2   86.41    4.62
  -9  11  -2  112.08    7.99
  -9  11  -2  105.51    5.64
   9 -11   2  127.18    6.26
   9 -11   2  117.88    6.06
 -10  11  -2   -0.38    0.73
 -10  11  -2   -1.06    1.01
  10 -11   2   -0.50    0.72
  10 -11   2    0.09    0.65
 -11  11  -2   98.14    7.49
  11 -11   2   97.24    5.64
  -8 -10   2   46.76    3.24
  -8 -10   2   45.02    3.82
  -7 -10   2    0.49    0.94
  -7 -10   2   -0.27    0.69
  -6 -10   2   75.76    4.84
  -6 -10   2   70.89    4.05
   5  10  -2  171.58    7.83
  -5 -10   2  136.46    7.50
  -4 -10   2   -0.59    0.53
  -4 -10   2    0.99    0.85
   3  10  -2  169.22    8.20
  -3 -10   2  155.24    7.29
  -3 -10   2  154.99    7.90
   2  10  -2   31.19    2.77
  -2 -10   2   28.21    2.49
  -2 -10   2   27.37    2.09
   1  10  -2    9.55    1.72
  -1 -10   2    7.75    1.11
  -1 -10   2    6.17    1.27
   0  10  -2  356.23   15.45
   0 -10   2  334.93   14.11
   0 -10   2  318.00   14.48
  -1  10  -2  151.10    8.03
   1 -10   2  147.90    6.82
   1 -10   2  144.52    7.11
  -2  10  -2   12.96    2.21
   2 -10   2    8.24    1.49
   2 -10   2   13.58    1.51
  -3  10  -2  143.77    8.10
   3 -10   2  151.01    6.85
   3 -10   2  140.54    6.96
  -4  10  -2    6.11    1.70
   4 -10   2    5.91    1.08
   4 -10   2    5.57    1.14
  -5  10  -2  201.14   10.81
   5 -10   2  210.95    9.22
   5 -10   2  201.49    9.19
  -6  10  -2  250.21   13.02
   6 -10   2  249.31   11.15
   6 -10   2  267.01   11.28
  -7  10  -2    5.03    1.61
   7 -10   2    3.89    1.06
   7 -10   2    3.41    0.85
   8 -10   2  115.98    5.95
   8 -10   2  114.24    6.13
  -9  10  -2   75.58    6.19
  -9  10  -2   77.18    4.18
   9 -10   2   83.74    4.41
 -10  10  -2    4.25    1.00
 -10  10  -2    4.53    1.89
  10 -10   2    2.79    0.87
  10 -10   2    4.89    1.22
 -11  10  -2  155.13   10.01
  11 -10   2  169.55    8.19
 -12  10  -2   46.99    4.95
  12 -10   2   51.92    3.71
   9   9  -2   53.21    3.66
  -9  -9   2   59.49    4.36
   8   9  -2   89.66    4.89
  -8  -9   2   84.65    4.77
  -8  -9   2   84.67    5.40
   7   9  -2   -0.30    0.59
  -7  -9   2   -1.23    0.66
  -7  -9   2   -1.28    0.51
   6   9  -2  163.56    7.45
   6   9  -2  160.09    7.46
  -6  -9   2  158.29    8.02
  -6  -9   2  144.41    7.25
   5   9  -2  155.21    7.38
  -5  -9   2  153.20    7.69
  -5  -9   2  146.84    7.05
   4   9  -2   12.21    1.72
  -4  -9   2    9.67    1.36
  -4  -9   2   12.96    1.74
   3   9  -2  245.39   10.76
  -3  -9   2  229.14   10.54
  -3  -9   2  218.44    9.97
   2   9  -2   55.11    3.68
  -2  -9   2   54.24    3.05
  -2  -9   2   53.08    3.45
   1   9  -2  123.37    6.30
  -1  -9   2  106.36    5.28
  -1  -9   2  104.49    5.59
   0   9  -2  215.62   10.77
   0  -9   2  208.23    8.99
   0  -9   2  194.06    9.30
  -1   9  -2   67.70    4.46
   1  -9   2   63.79    3.70
   1  -9   2   65.74    3.50
  -2   9  -2   99.09    5.90
   2  -9   2   95.16    5.01
   2  -9   2  106.94    4.94
  -3   9  -2  168.35    9.08
   3  -9   2  178.81    8.00
   3  -9   2  181.79    7.91
  -4   9  -2   -0.74    0.81
   4  -9   2   -0.58    0.46
  -5   9  -2  170.39    9.33
   5  -9   2  173.00    7.82
   5  -9   2  175.64    7.89
  -6   9  -2   44.26    4.08
   6  -9   2   51.77    3.07
   6  -9   2   49.12    2.93
  -7   9  -2   50.05    4.30
   7  -9   2   50.38    3.16
   7  -9   2   49.09    2.97
  -8   9  -2  182.48   10.41
  -8   9  -2  178.78    8.27
   8  -9   2  192.75    8.47
   8  -9   2  196.05    8.69
  -9   9  -2   60.00    5.23
  -9   9  -2   60.01    3.44
   9  -9   2   65.52    3.88
   9  -9   2   63.74    3.60
 -10   9  -2   22.81    2.12
 -10   9  -2   18.37    3.12
  10  -9   2   21.87    2.25
 -11   9  -2  123.79    8.43
 -11   9  -2  128.30    6.20
  11  -9   2  137.12    6.83
 -12   9  -2    2.61    0.92
 -12   9  -2    3.15    1.73
  12  -9   2    2.69    1.01
  10   8  -2   -0.52    0.67
 -10  -8   2   -0.18    0.73
   9   8  -2   44.84    3.29
  -9  -8   2   48.12    3.37
  -9  -8   2   51.15    3.84
   8   8  -2    6.05    1.17
  -8  -8   2    5.82    1.07
  -8  -8   2    7.21    1.55
   7   8  -2   21.31    1.74
   7   8  -2   19.12    1.88
  -7  -8   2   20.99    1.99
  -7  -8   2   23.86    2.37
   6   8  -2  306.86   13.41
  -6  -8   2  309.96   13.37
  -6  -8   2  320.76   13.95
   5   8  -2   54.49    3.31
   5   8  -2   55.67    3.36
  -5  -8   2   53.70    3.58
  -5  -8   2   58.68    3.26
   4   8  -2  213.68    9.45
  -4  -8   2  205.93    9.53
  -4  -8   2  201.44    9.06
   3   8  -2  263.86   11.32
  -3  -8   2  249.55   11.17
  -3  -8   2  242.05   10.73
   2   8  -2   97.61    5.16
  -2  -8   2   89.74    4.54
   1   8  -2  332.90   13.92
  -1  -8   2  309.76   13.06
  -1  -8   2  296.20   13.30
   0   8  -2  479.34   19.78
   0  -8   2  456.11   18.82
   0  -8   2  451.75   19.06
  -1   8  -2    2.10    0.89
   1  -8   2    2.64    0.71
   1  -8   2    3.57    0.71
  -2   8  -2  313.88   14.03
   2  -8   2  311.43   12.90
   2  -8   2  300.79   12.98
  -3   8  -2  114.89    7.16
   3  -8   2  122.29    5.56
   3  -8   2  118.03    5.58
  -4   8  -2   -0.87    0.64
   4  -8   2   -0.31    0.38
   4  -8   2    0.35    0.45
  -5   8  -2  510.52   22.24
   5  -8   2  499.84   20.66
   5  -8   2  508.04   20.59
  -6   8  -2   55.72    4.40
   6  -8   2   55.20    3.21
   6  -8   2   55.89    3.09
  -7   8  -2  108.15    6.78
   7  -8   2  102.72    5.08
   7  -8   2  107.95    5.30
  -8   8  -2  219.08    9.73
  -8   8  -2  226.47   11.81
   8  -8   2  238.42    9.90
   8  -8   2  222.90   10.06
  -9   8  -2    3.90    1.62
  -9   8  -2    4.95    0.91
   9  -8   2    3.50    0.81
   9  -8   2    5.97    1.11
 -10   8  -2   73.15    5.69
  10  -8   2   69.58    4.16
 -11   8  -2  131.90    6.30
  11  -8   2  135.67    6.77
 -12   8  -2   -0.99    0.96
  12  -8   2   -0.19    0.73
 -13   8  -2   94.72    7.09
  13  -8   2  105.28    5.80
 -11  -7   2   27.48    2.93
  10   7  -2    8.98    1.53
 -10  -7   2    9.75    1.74
   9   7  -2  177.87    8.55
  -9  -7   2  180.45    8.98
   8   7  -2   41.54    2.93
  -8  -7   2   45.62    3.35
   7   7  -2   98.84    5.18
   7   7  -2   97.29    4.58
  -7  -7   2   95.53    5.33
   6   7  -2  312.74   13.71
   6   7  -2  349.73   14.56
  -6  -7   2  316.39   14.06
  -6  -7   2  309.26   13.65
   5   7  -2    3.18    0.78
   5   7  -2    2.87    0.73
  -5  -7   2    2.99    0.75
  -5  -7   2    2.81    0.87
   4   7  -2  102.18    4.95
   4   7  -2   94.66    4.79
  -4  -7   2   91.97    4.71
  -4  -7   2  100.65    5.07
   3   7  -2  605.76   24.03
   3   7  -2  600.28   23.79
  -3  -7   2  564.88   23.62
  -3  -7   2  574.09   23.95
   2   7  -2    6.77    1.13
  -2  -7   2    6.52    1.02
  -2  -7   2    5.89    0.89
   1   7  -2  287.72   12.17
  -1  -7   2  262.51   11.68
  -1  -7   2  275.25   11.52
   0   7  -2  377.78   15.37
   0  -7   2  339.32   14.51
   0  -7   2  344.80   14.68
  -1   7  -2   13.35    1.63
   1  -7   2   12.18    1.21
   1  -7   2   14.72    1.24
  -2   7  -2  241.45   11.06
   2  -7   2  239.11   10.10
   2  -7   2  235.80   10.12
  -3   7  -2   17.01    1.90
   3  -7   2   19.58    1.44
   3  -7   2   14.65    1.30
  -4   7  -2   91.27    5.35
   4  -7   2   87.41    4.30
   4  -7   2   87.25    4.23
  -5   7  -2  474.03   20.61
   5  -7   2  476.77   19.10
   5  -7   2  462.08   19.19
  -6   7  -2   20.74    2.39
   6  -7   2   18.92    1.49
   6  -7   2   20.09    1.67
  -7   7  -2  156.69    7.22
  -7   7  -2  170.74    8.99
   7  -7   2  170.07    7.57
   7  -7   2  167.24    7.33
  -8   7  -2  189.21    8.16
  -8   7  -2  190.88   10.02
   8  -7   2  185.59    8.21
   8  -7   2  183.74    8.42
  -9   7  -2    2.14    1.17
  -9   7  -2    2.34    0.68
   9  -7   2    0.74    0.66
 -10   7  -2  151.16    8.83
 -10   7  -2  151.84    6.89
  10  -7   2  152.32    7.27
 -11   7  -2   65.26    5.07
 -11   7  -2   61.13    3.72
  11  -7   2   54.74    4.14
 -12   7  -2   13.32    1.61
  12  -7   2   13.85    1.87
 -13   7  -2  130.95    6.42
 -13   7  -2  129.31    8.39
  13  -7   2  139.97    7.05
 -14   7  -2   46.54    4.72
 -14   7  -2   49.12    3.23
  14  -7   2   53.59    3.76
  11   6  -2    6.95    1.29
 -11  -6   2    9.67    1.74
  10   6  -2   41.31    3.20
 -10  -6   2   44.54    3.35
   9   6  -2  204.86    9.52
   8   6  -2   65.09    3.87
  -8  -6   2   66.56    4.12
   7   6  -2  161.02    6.74
   7   6  -2  157.40    7.41
  -7  -6   2  153.91    7.59
   6   6  -2  240.74   10.82
   6   6  -2  257.74   10.46
  -6  -6   2  249.84   11.11
   5   6  -2    5.02    1.01
   5   6  -2    4.87    0.87
  -5  -6   2    4.68    0.98
   4   6  -2  156.24    7.02
  -4  -6   2  159.73    7.23
  -4  -6   2  151.00    6.94
   3   6  -2  373.43   15.04
   3   6  -2  368.86   14.92
  -3  -6   2  335.59   14.76
  -3  -6   2  362.49   15.04
   2   6  -2   27.28    1.91
   2   6  -2   24.31    1.70
  -2  -6   2   20.57    1.58
  -2  -6   2   22.79    1.72
   0   6  -2  297.27   12.49
   0  -6   2  279.15   11.84
   0  -6   2  284.03   11.94
  -1   6  -2  156.42    7.34
   1  -6   2  150.52    6.63
   1  -6   2  149.95    6.66
  -2   6  -2   61.47    3.76
   2  -6   2   62.33    3.07
   2  -6   2   60.27    3.08
   3  -6   2   20.03    1.44
   3  -6   2   20.82    1.40
  -4   6  -2  350.55   15.11
   4  -6   2  321.49   13.91
   4  -6   2  345.49   13.87
  -5   6  -2  282.22   12.77
   5  -6   2  269.82   11.36
   5  -6   2  274.34   11.53
  -6   6  -2   42.81    3.36
   6  -6   2   42.21    2.52
   6  -6   2   42.55    2.34
  -7   6  -2  578.86   23.39
   7  -6   2  590.55   23.45
  -8   6  -2  117.71    7.03
  -8   6  -2  121.59    5.54
   8  -6   2  124.74    5.62
   8  -6   2  125.50    5.87
  -9   6  -2   32.71    3.30
  -9   6  -2   34.95    2.19
   9  -6   2   38.56    2.47
 -10   6  -2  143.10    8.33
 -10   6  -2  152.16    6.75
  10  -6   2  151.55    7.13
 -11   6  -2   47.67    4.22
 -11   6  -2   49.37    2.87
  11  -6   2   47.47    3.19
 -12   6  -2   17.12    2.71
 -12   6  -2   18.69    1.72
  12  -6   2   19.46    2.08
  13  -6   2   79.11    4.75
 -14   6  -2    0.26    0.73
 -14   6  -2    0.52    1.18
  14  -6   2    1.45    0.92
  12   5  -2   52.61    3.73
 -12  -5   2   56.70    4.12
  11   5  -2    4.61    1.27
 -11  -5   2    6.00    1.29
  10   5  -2   40.64    3.16
 -10  -5   2   42.83    3.28
   9   5  -2   95.96    5.13
  -9  -5   2   93.22    5.23
   8   5  -2    7.24    1.29
  -8  -5   2    6.11    1.17
   7   5  -2  385.07   14.95
   7   5  -2  355.80   15.72
  -7  -5   2  382.16   15.97
   6   5  -2   31.17    1.91
   6   5  -2   34.32    1.89
   6   5  -2   36.72    2.37
  -6  -5   2   35.84    2.47
   5   5  -2   10.85    1.23
   5   5  -2   11.42    0.99
  -5  -5   2   11.79    1.23
   4   5  -2  561.39   23.23
   4   5  -2  596.07   23.13
  -4  -5   2  572.90   23.38
   3   5  -2   14.06    1.22
   3   5  -2   14.64    1.20
  -3  -5   2   13.34    1.16
  -3  -5   2   14.12    1.22
   2   5  -2  214.11    9.13
   2   5  -2  220.23    9.03
  -2  -5   2  212.11    9.03
  -2  -5   2  200.31    8.89
   0   5  -2   24.62    1.81
   0  -5   2   22.08    1.45
   0  -5   2   21.27    1.45
  -1   5  -2  225.81    9.62
   1  -5   2  210.17    8.95
   1  -5   2  209.95    8.98
   2  -5   2  504.73   20.13
  -3   5  -2  143.24    6.81
   3  -5   2  131.01    5.83
   3  -5   2  136.50    5.97
  -5   5  -2  368.43   16.10
   5  -5   2  372.57   14.87
   5  -5   2  364.04   15.05
  -6   5  -2   90.04    5.27
  -6   5  -2   90.84    4.13
   6  -5   2   92.38    4.36
   6  -5   2   88.52    4.32
  -7   5  -2  740.69   31.25
  -7   5  -2  752.43   29.72
   7  -5   2  757.43   29.77
  -8   5  -2   88.98    5.56
  -8   5  -2   94.53    4.35
   8  -5   2   95.11    4.61
  -9   5  -2  169.62    7.46
  -9   5  -2  170.01    8.99
   9  -5   2  174.63    7.81
 -10   5  -2  263.30   11.17
 -10   5  -2  259.78   12.81
  10  -5   2  270.98   11.57
 -11   5  -2    3.83    0.80
 -11   5  -2    3.22    1.31
  11  -5   2    3.39    0.92
 -12   5  -2   85.82    4.36
 -12   5  -2   79.64    5.71
  12  -5   2   83.76    4.76
 -13   5  -2  139.81    8.47
  13  -5   2  151.22    7.37
  14  -5   2   -0.02    0.76
  13   4  -2   35.12    3.03
 -13  -4   2   41.75    3.49
  12   4  -2   45.60    3.50
 -12  -4   2   45.25    3.58
  11   4  -2    0.32    0.73
 -11  -4   2    1.79    0.90
  10   4  -2  149.43    7.21
 -10  -4   2  138.18    7.25
   9   4  -2   91.85    5.02
  -9  -4   2   95.41    5.16
   8   4  -2   87.53    4.68
  -8  -4   2   82.31    4.61
   7   4  -2  486.58   20.38
   7   4  -2  512.61   19.61
  -7  -4   2  485.30   20.47
   6   4  -2   76.87    3.36
   6   4  -2   80.30    4.01
   6   4  -2   72.83    3.53
  -6  -4   2   76.98    4.08
   5   4  -2   19.17    1.33
   5   4  -2   19.59    1.52
  -5  -4   2   20.09    1.62
   4   4  -2  520.37   21.04
   4   4  -2  545.31   20.79
   4   4  -2  496.19   20.80
  -4  -4   2  525.63   21.13
   3   4  -2    8.69    0.82
   3   4  -2    9.01    0.85
  -3  -4   2    5.96    0.70
  -3  -4   2    8.28    0.84
  -2  -4   2  700.44   27.89
   0   4  -2  103.66    4.69
   0  -4   2   98.80    4.31
   0  -4   2   89.39    4.29
  -3   4  -2   72.85    3.90
  -3   4  -2   66.69    3.05
   3  -4   2   67.70    3.27
   3  -4   2   72.37    3.14
  -5   4  -2   62.76    3.77
   5  -4   2   63.14    2.89
   5  -4   2   60.39    3.07
  -6   4  -2   90.05    4.08
  -6   4  -2   91.16    5.13
   6  -4   2   95.34    4.13
   6  -4   2   91.25    4.32
  -7   4  -2  485.13   18.86
  -7   4  -2  455.06   19.86
   7  -4   2  451.18   18.81
  -8   4  -2    0.21    0.65
  -8   4  -2   -0.05    0.32
   8  -4   2    1.81    0.52
  -9   4  -2  191.06    8.15
  -9   4  -2  184.78    9.46
   9  -4   2  192.82    8.44
 -10   4  -2  332.03   15.57
 -10   4  -2  346.45   14.11
  10  -4   2  343.26   14.42
 -11   4  -2    1.24    0.55
 -11   4  -2    0.43    0.77
  11  -4   2    0.84    0.62
 -12   4  -2  124.72    7.46
 -12   4  -2  129.68    6.12
  12  -4   2  131.16    6.42
 -13   4  -2   10.08    1.40
 -13   4  -2    7.21    1.79
  13  -4   2    7.39    1.34
 -14   4  -2   10.65    1.54
  14  -4   2   10.15    1.57
 -15   4  -2   84.01    6.24
 -15   4  -2   92.36    5.07
  15  -4   2   93.50    5.38
  13   3  -2   68.81    4.48
 -13  -3   2   73.90    4.74
  12   3  -2   57.53    4.38
 -12  -3   2   63.42    4.20
  11   3  -2   10.77    1.61
 -11  -3   2   11.87    2.67
  10   3  -2  149.26    7.36
 -10  -3   2  149.81    7.39
   9   3  -2   10.32    1.50
  -9  -3   2   11.60    1.54
  -8  -3   2  279.58   12.17
   7   3  -2  383.93   15.97
  -7  -3   2  381.05   16.01
   6   3  -2  178.38    7.03
   6   3  -2  163.68    7.28
   6   3  -2  178.92    7.78
  -6  -3   2  178.00    7.81
   5   3  -2  369.15   14.30
   5   3  -2  364.89   14.36
   5   3  -2  355.80   14.86
  -5  -3   2  354.69   14.90
   3   3  -2   29.80    1.55
   3   3  -2   29.19    1.57
  -3  -3   2   28.98    1.73
   0   3  -2  176.03    7.10
   0   3  -2  149.96    6.68
   0  -3   2  168.62    6.77
   0  -3   2  164.54    6.85
   0  -3   2  161.02    6.99
  -2   3  -2  154.38    6.76
   2  -3   2  154.12    6.11
   2  -3   2  140.36    6.26
  -5   3  -2   36.48    1.85
  -5   3  -2   39.52    2.64
  -5   3  -2   39.36    1.87
   5  -3   2   35.92    2.03
   5  -3   2   40.08    1.89
  -6   3  -2  327.87   14.30
  -6   3  -2  340.24   13.26
   6  -3   2  320.44   13.46
  -7   3  -2  517.34   21.54
  -7   3  -2  499.36   20.55
   7  -3   2  515.80   20.59
  -8   3  -2   -0.31    0.25
  -8   3  -2    0.20    0.57
   8  -3   2    0.01    0.34
  -9   3  -2  241.57   10.10
  -9   3  -2  234.45   11.30
   9  -3   2  245.46   10.36
 -10   3  -2  113.26    5.23
 -10   3  -2  105.67    6.29
  10  -3   2  116.44    5.49
 -11   3  -2   78.98    5.15
 -11   3  -2   78.95    4.00
  11  -3   2   76.64    4.22
 -12   3  -2  141.37    8.07
 -12   3  -2  150.35    6.88
  12  -3   2  151.57    7.17
 -13   3  -2   35.35    2.49
 -13   3  -2   33.08    3.35
  13  -3   2   32.64    2.64
 -14   3  -2   40.58    3.75
 -14   3  -2   44.22    3.04
  14  -3   2   42.84    3.16
 -15   3  -2   25.47    3.04
  15  -3   2   29.48    2.75
  13   2  -2   59.50    4.16
 -13  -2   2   68.65    4.44
 -12  -2   2   19.42    2.24
  11   2  -2  110.08    6.08
 -11  -2   2  126.18    6.30
  10   2  -2  265.53   12.02
 -10  -2   2  276.38   12.09
   9   2  -2    1.46    0.70
  -9  -2   2    2.09    0.75
   8   2  -2  215.06    9.65
  -8  -2   2  219.74    9.67
   7   2  -2  265.44   11.44
  -7  -2   2  268.80   11.45
   6   2  -2   78.68    3.03
   6   2  -2   64.31    3.54
  -6  -2   2   62.42    3.52
   5   2  -2  145.62    5.61
   5   2  -2  140.64    6.27
  -5  -2   2  135.40    6.24
   4   2  -2  166.51    6.44
   4   2  -2  161.04    6.93
  -4  -2   2  154.16    6.90
  -1   2  -2    9.67    0.54
  -1   2  -2    8.12    0.64
  -1   2  -2   10.13    0.84
   1  -2   2   10.70    0.71
   1  -2   2    9.29    0.56
   1  -2   2    9.14    0.77
   1  -2   2    9.13    0.68
  -2   2  -2   10.85    0.78
  -2   2  -2   13.01    1.04
  -2   2  -2   12.19    0.63
   2  -2   2   13.35    0.84
   2  -2   2   14.10    1.04
  -5   2  -2  136.71    5.59
  -5   2  -2  134.70    5.56
  -5   2  -2  135.52    6.39
   5  -2   2  130.61    5.75
  -7   2  -2  344.84   14.68
  -7   2  -2  335.51   13.86
   7  -2   2  333.75   13.83
  -8   2  -2    6.63    1.20
  -8   2  -2    7.06    0.76
   8  -2   2    6.36    0.88
  -9   2  -2  362.60   14.55
  -9   2  -2  345.47   15.63
   9  -2   2  356.04   14.79
 -10   2  -2   38.30    2.33
 -10   2  -2   36.55    3.07
  10  -2   2   39.84    2.51
 -11   2  -2  287.48   12.07
 -11   2  -2  269.88   13.29
  11  -2   2  294.53   12.29
 -12   2  -2  163.61    8.72
 -12   2  -2  169.78    7.62
  12  -2   2  163.10    7.74
 -13   2  -2    3.66    0.96
 -13   2  -2    1.04    0.84
  13  -2   2    2.94    1.32
 -14   2  -2   83.13    4.62
 -14   2  -2   78.43    5.42
  14  -2   2   81.46    4.74
 -15   2  -2   86.38    5.17
 -15   2  -2   68.10    5.16
  15  -2   2   77.11    4.72
  14   1  -2   27.85    2.72
 -14  -1   2   32.13    2.94
  13   1  -2  106.77    6.16
 -13  -1   2  120.85    6.39
 -12  -1   2    6.22    1.34
  11   1  -2  102.68    5.60
 -11  -1   2  106.91    5.64
  10   1  -2  215.17   10.09
 -10  -1   2  231.26   10.17
   9   1  -2   16.68    1.65
   9   1  -2   14.87    0.91
  -9  -1   2   14.33    1.48
  -9  -1   2   14.86    0.97
   8   1  -2  256.72   10.68
   8   1  -2  242.74    9.73
  -8  -1   2  229.67    9.81
  -8  -1   2  245.41   10.59
   7   1  -2  276.53   11.61
   7   1  -2  280.29   10.82
  -7  -1   2  257.14   10.88
  -7  -1   2  275.15   11.57
   6   1  -2  113.82    4.51
   6   1  -2  110.05    5.16
  -6  -1   2  107.73    5.13
   5   1  -2  424.75   17.13
   5   1  -2  437.18   16.46
  -5  -1   2  403.24   17.08
   4   1  -2  197.02    8.04
  -4  -1   2  182.87    7.98
   3   1  -2  195.68    7.88
  -3  -1   2  181.74    7.82
   1   1  -2  215.57    9.18
  -1  -1   2  243.77    9.28
  -2   1  -2   36.98    1.50
  -2   1  -2   33.74    1.72
  -2   1  -2   38.90    2.03
   2  -1   2   39.54    2.00
   2  -1   2   38.28    1.50
   2  -1   2   34.57    1.72
  -3   1  -2  265.09   11.73
   3  -1   2  324.04   12.20
  -4   1  -2  206.22    7.59
  -4   1  -2  191.58    8.24
  -4   1  -2  183.51    7.52
   4  -1   2  175.99    7.52
   4  -1   2  183.44    7.70
  -7   1  -2  309.49   12.58
  -7   1  -2  311.04   13.45
   7  -1   2  308.07   12.68
  -8   1  -2   81.75    4.66
  -8   1  -2   85.02    3.91
   8  -1   2   83.08    4.01
  -9   1  -2  465.21   20.09
  -9   1  -2  475.32   19.10
   9  -1   2  475.10   19.22
 -10   1  -2    2.22    0.93
 -10   1  -2    2.81    0.67
  10  -1   2    2.56    0.69
 -11   1  -2   80.28    4.18
 -11   1  -2   80.91    4.99
  11  -1   2   82.00    4.31
 -12   1  -2  136.31    6.30
  12  -1   2  124.69    6.34
 -13   1  -2   16.75    1.71
 -13   1  -2   13.68    1.99
  13  -1   2   14.48    1.73
 -14   1  -2  144.87    6.72
 -14   1  -2  112.91    7.07
  14  -1   2  134.58    6.71
 -15   1  -2   75.06    4.41
 -15   1  -2   65.99    4.78
  15  -1   2   67.10    4.33
  14   0  -2   34.07    3.05
 -14   0   2   39.02    3.23
  13   0  -2   62.16    4.13
 -13   0   2   64.12    4.17
  12   0  -2    4.62    1.27
  11   0  -2  154.29    7.28
 -11   0   2  156.13    7.25
 -11   0   2  128.57    6.48
  10   0  -2   71.10    4.17
 -10   0   2   71.22    3.57
 -10   0   2   77.45    4.21
   9   0  -2  176.92    8.08
   9   0  -2  172.19    7.35
  -9   0   2  168.76    7.53
  -9   0   2  184.21    8.09
   8   0  -2  477.23   19.24
   8   0  -2  459.97   18.54
  -8   0   2  455.02   18.72
  -8   0   2  471.07   19.18
   7   0  -2  143.35    6.59
  -7   0   2  145.35    6.55
  -7   0   2  144.17    6.18
   6   0  -2  147.43    6.01
   6   0  -2  140.46    6.47
  -6   0   2  145.76    6.48
  -6   0   2  147.89    6.13
   4   0  -2    2.92    0.27
  -4   0   2    2.05    0.43
  -3   0   2  270.89   11.26
  -3   0   2  285.36   10.87
   1   0  -2   11.32    0.67
   1   0  -2    9.69    0.52
  -1   0   2   10.75    0.64
  -1   0   2    9.66    0.51
  -1   0   2    8.50    0.58
  -1   0  -2  142.35    5.90
   1   0   2  142.13    5.73
   1   0   2  139.35    5.87
  -5   0  -2  263.95   10.92
  -5   0  -2  258.27   10.24
   5   0   2  242.03   10.23
  -7   0  -2  141.57    6.09
  -7   0  -2  142.76    6.79
   7   0   2  140.99    6.14
  -8   0  -2  288.73   11.99
  -8   0  -2  295.51   12.80
   8   0   2  287.99   12.03
  -9   0  -2  422.26   16.97
  -9   0  -2  411.06   17.78
   9   0   2  413.22   17.00
 -10   0  -2    3.75    0.76
 -10   0  -2    4.12    1.08
  10   0   2    3.91    0.78
 -11   0  -2   89.69    5.41
 -11   0  -2  102.58    4.90
  11   0   2   95.61    4.86
 -12   0  -2   62.78    3.54
 -12   0  -2   55.38    4.01
  12   0   2   62.43    3.61
 -13   0  -2    7.93    1.57
 -13   0  -2    5.43    1.07
  13   0   2    7.88    1.27
 -14   0  -2   86.72    4.79
 -14   0  -2   78.85    5.11
  14   0   2   79.72    4.71
 -15   0  -2    2.40    1.00
  15   0   2    3.53    1.04
  14  -1  -2   52.02    3.94
 -14   1   2   63.91    4.13
  13  -1  -2   22.50    2.38
 -13   1   2   18.38    2.19
  12  -1  -2   23.19    2.68
 -12   1   2   27.87    2.42
  11  -1  -2  244.99   11.27
 -11   1   2  255.94   11.25
  10  -1  -2   55.83    3.43
 -10   1   2   53.56    3.31
 -10   1   2   52.42    3.16
   9  -1  -2  224.39    9.81
  -9   1   2  227.36    9.76
  -9   1   2  208.38    9.45
  -8   1   2  886.10   35.22
   7  -1  -2   13.46    1.28
   7  -1  -2   13.94    1.05
  -7   1   2   14.87    1.30
  -7   1   2   12.96    1.13
   6  -1  -2  119.61    5.18
   6  -1  -2  118.38    5.47
  -6   1   2  120.47    5.45
  -6   1   2  120.15    5.30
   5  -1  -2  333.51   13.99
  -5   1   2  336.30   13.98
  -5   1   2  358.26   13.86
   4  -1  -2   66.74    3.00
   4  -1  -2   66.52    3.19
  -4   1   2   64.96    3.37
  -4   1   2   71.98    3.06
  -3  -1  -2    7.29    0.50
  -3  -1  -2    8.83    0.79
   3   1   2    7.68    0.50
   3   1   2    8.12    0.50
  -4  -1  -2   83.68    4.13
  -4  -1  -2   85.12    3.73
  -4  -1  -2   89.76    3.72
   4   1   2   86.38    3.70
   4   1   2   86.84    3.70
   4   1   2   92.57    4.16
  -7  -1  -2    1.27    0.52
  -7  -1  -2    1.23    0.39
   7   1   2    0.69    0.30
  -8  -1  -2  379.94   15.55
  -8  -1  -2  369.27   16.15
   8   1   2  393.30   15.54
  -9  -1  -2  178.49    8.74
  -9  -1  -2  191.64    8.20
   9   1   2  192.47    8.17
 -10  -1  -2   39.01    2.45
 -10  -1  -2   38.08    2.86
 -11  -1  -2  112.33    5.46
 -11  -1  -2  102.38    5.88
  11   1   2  113.21    5.41
 -12  -1  -2   11.46    1.48
 -12  -1  -2   14.23    1.85
  12   1   2   13.00    1.56
 -13  -1  -2   82.05    4.35
 -13  -1  -2   61.68    4.40
  13   1   2   75.36    4.20
 -14  -1  -2   90.07    5.61
 -14  -1  -2  104.44    6.12
  14   1   2  104.98    5.47
 -15  -1  -2    0.65    0.83
  15   1   2    0.50    0.80
  14  -2  -2   74.70    4.85
 -14   2   2   88.25    5.06
  13  -2  -2   13.64    1.91
 -13   2   2   10.45    1.69
 -12   2   2   60.91    3.71
 -12   2   2   51.51    3.31
  11  -2  -2  169.17    8.14
 -11   2   2  170.86    8.05
  10  -2  -2    3.84    0.87
 -10   2   2    2.98    0.83
 -10   2   2    2.77    0.76
   9  -2  -2  289.91   12.33
  -9   2   2  279.66   12.25
  -9   2   2  285.39   12.25
   8  -2  -2  402.31   16.40
  -8   2   2  379.99   16.70
  -8   2   2  397.92   16.33
  -7   2   2    1.15    0.46
  -7   2   2    1.39    0.46
   5  -2  -2  422.90   17.86
   5  -2  -2  449.33   17.83
  -5   2   2  457.64   17.91
   4  -2  -2  303.37   12.42
   4  -2  -2  289.24   12.40
  -4   2   2  324.17   12.48
   1   2   2  194.44    8.04
  -4  -2  -2   14.43    1.15
  -4  -2  -2   13.53    0.81
  -4  -2  -2   14.54    0.91
   4   2   2   13.00    1.08
   4   2   2   14.44    0.81
  -5  -2  -2  436.91   17.90
  -6  -2  -2  352.56   14.06
  -6  -2  -2  340.30   14.52
  -7  -2  -2   83.08    4.44
  -7  -2  -2   84.72    4.03
   7   2   2   89.32    3.97
  -8  -2  -2  363.12   15.09
  -8  -2  -2  359.59   15.61
   8   2   2  378.33   15.00
  -9  -2  -2   13.93    1.32
  -9  -2  -2   10.76    1.46
   9   2   2   15.98    1.30
 -10  -2  -2  117.78    6.26
  10   2   2  126.58    5.83
 -11  -2  -2  108.56    5.34
 -11  -2  -2   93.80    5.56
  11   2   2  110.16    5.26
 -12  -2  -2   -0.27    0.58
 -12  -2  -2    0.12    0.60
  12   2   2    0.83    0.57
 -13  -2  -2   86.06    5.22
 -13  -2  -2   97.88    5.18
  13   2   2   93.48    4.97
 -14  -2  -2   58.05    3.87
  14   2   2   57.46    3.71
 -15  -2  -2    4.99    1.35
  15   2   2    5.25    1.18
  14  -3  -2   68.25    4.52
 -14   3   2   70.38    4.43
  13  -3  -2    0.10    0.69
 -13   3   2   -0.45    0.69
  12  -3  -2  132.99    7.17
 -12   3   2  124.98    6.26
 -12   3   2  108.16    6.13
  11  -3  -2  144.27    7.01
 -11   3   2  131.57    6.94
 -11   3   2  146.13    6.91
  10  -3  -2    5.33    1.06
 -10   3   2    4.75    1.03
 -10   3   2    5.25    1.02
   9  -3  -2  437.10   17.96
  -9   3   2  432.01   17.88
  -9   3   2  421.94   18.12
  -8   3   2  313.42   13.19
  -8   3   2  311.37   13.41
   7  -3  -2    1.43    0.45
  -7   3   2    0.79    0.44
  -7   3   2    2.01    0.55
   6  -3  -2  323.06   13.76
  -6   3   2  340.28   13.82
  -6   3   2  339.26   13.99
   5  -3  -2  115.06    5.21
   5  -3  -2  109.25    5.13
  -5   3   2  117.31    5.21
  -5   3   2  119.75    5.39
   4  -3  -2  311.92   12.88
   4  -3  -2  306.52   12.81
  -4   3   2  338.62   13.12
  -4   3   2  306.41   12.86
  -3  -3  -2  221.01    8.66
  -3  -3  -2  211.01    8.96
  -3  -3  -2  200.83    8.33
   3   3   2  211.23    8.94
  -6  -3  -2  249.41   11.15
  -6  -3  -2  254.27   10.77
   6   3   2  273.69   10.60
  -7  -3  -2  194.49    9.21
  -7  -3  -2  212.77    8.88
   7   3   2  212.76    8.67
  -8  -3  -2  523.30   22.84
  -8  -3  -2  571.00   22.48
   8   3   2  568.52   22.26
  -9  -3  -2    2.07    0.75
  -9  -3  -2    0.86    0.55
   9   3   2    1.01    0.52
 -10  -3  -2  233.19   10.12
 -10  -3  -2  225.09   10.48
  10   3   2  226.37    9.88
 -11  -3  -2  113.40    5.59
 -11  -3  -2  100.46    5.75
  11   3   2  111.14    5.38
 -12  -3  -2   24.99    2.21
 -12  -3  -2   22.21    2.19
  12   3   2   25.77    2.02
 -13  -3  -2  125.16    6.70
 -13  -3  -2  134.29    6.70
  13   3   2  122.92    6.31
 -14  -3  -2   55.78    3.82
  14   3   2   52.12    3.48
  14  -4  -2   93.35    5.59
 -14   4   2   95.83    5.45
  13  -4  -2    5.82    1.30
 -13   4   2    4.23    1.22
 -13   4   2    3.72    1.12
  12  -4  -2  103.20    5.79
 -12   4   2  104.36    5.97
 -12   4   2  113.98    5.75
  11  -4  -2   55.14    3.56
 -11   4   2   59.95    3.58
 -11   4   2   52.69    3.74
  10  -4  -2  103.53    5.32
 -10   4   2  110.35    5.35
 -10   4   2   96.67    5.58
   9  -4  -2  271.47   11.73
  -9   4   2  263.86   12.06
  -9   4   2  273.69   11.68
   8  -4  -2  315.50   13.25
  -8   4   2  313.04   13.22
  -8   4   2  309.36   13.60
   7  -4  -2  170.77    7.55
  -7   4   2  172.69    7.57
  -7   4   2  166.21    7.88
   6  -4  -2  617.43   25.26
   6  -4  -2  619.69   25.20
  -6   4   2  649.47   25.66
   5  -4  -2   -0.07    0.30
   5  -4  -2    0.68    0.29
  -5   4   2    1.27    0.54
  -5   4   2    0.03    0.33
   2  -4  -2  167.75    7.03
   2  -4  -2  168.61    6.84
  -2   4   2  173.47    7.32
  -2   4   2  156.93    6.81
  -3  -4  -2   33.82    2.10
  -3  -4  -2   36.30    1.94
  -3  -4  -2   32.64    1.49
   3   4   2   37.68    1.55
   3   4   2   33.02    2.09
  -5  -4  -2  543.11   21.36
  -5  -4  -2  553.60   21.66
  -5  -4  -2  520.36   21.95
  -6  -4  -2   90.03    4.27
  -6  -4  -2   88.52    4.60
   6   4   2   87.76    3.97
  -7  -4  -2  405.60   16.77
  -7  -4  -2  393.96   17.12
   7   4   2  424.05   16.51
  -8  -4  -2  399.94   16.37
  -8  -4  -2  369.59   16.64
   8   4   2  410.98   16.09
  -9  -4  -2   17.72    1.62
  -9  -4  -2   16.25    1.74
   9   4   2   17.03    1.42
 -10  -4  -2   45.49    3.25
 -10  -4  -2   48.50    3.08
  10   4   2   48.41    2.86
 -11  -4  -2   21.55    2.18
 -11  -4  -2   21.53    2.13
  11   4   2   25.10    1.92
 -12  -4  -2   84.57    4.62
 -12  -4  -2   68.72    4.43
  12   4   2   75.14    4.15
 -13  -4  -2   74.20    4.65
 -13  -4  -2   88.62    4.97
  13   4   2   77.22    4.44
 -14  -4  -2   -0.05    0.88
  14   4   2    0.89    0.75
  14  -5  -2   24.12    2.54
  13  -5  -2   37.23    2.97
 -13   5   2   36.56    2.91
  12  -5  -2   89.77    5.30
 -12   5   2   97.63    5.77
 -12   5   2   98.12    5.25
  11  -5  -2    3.84    0.91
 -11   5   2    1.39    0.92
  10  -5  -2  232.45   10.09
 -10   5   2  218.28   10.55
 -10   5   2  214.28    9.90
   9  -5  -2  357.51   14.97
  -9   5   2  343.93   15.51
  -9   5   2  356.89   14.94
   8  -5  -2  141.44    6.68
  -8   5   2  143.02    6.70
  -8   5   2  147.26    7.25
   7  -5  -2   47.22    2.78
   7  -5  -2   47.28    2.72
  -7   5   2   44.36    3.08
  -7   5   2   45.07    2.70
   6  -5  -2  171.24    7.97
   6  -5  -2  179.80    7.92
  -6   5   2  193.57    8.58
  -6   5   2  184.41    8.01
   5  -5  -2    9.03    0.93
   5  -5  -2    7.40    0.88
  -5   5   2    7.87    1.17
  -5   5   2   10.32    1.01
   3  -5  -2    6.84    0.68
  -3   5   2    9.33    1.10
   2  -5  -2    3.56    0.47
  -3  -5  -2  215.41    8.95
  -3  -5  -2  226.46    9.55
   3   5   2  250.99    9.04
   3   5   2  214.15    9.82
  -5  -5  -2  655.60   25.74
  -6  -5  -2    4.59    0.78
  -6  -5  -2    3.70    0.83
   6   5   2    4.64    0.58
   6   5   2    3.52    0.80
  -7  -5  -2  332.51   13.55
  -7  -5  -2  313.41   13.80
   7   5   2  301.60   13.68
   7   5   2  332.60   13.12
  -8  -5  -2   62.47    3.51
  -8  -5  -2   57.59    3.61
   8   5   2   62.66    3.12
   8   5   2   53.88    3.46
  -9  -5  -2  181.13    8.55
  -9  -5  -2  187.68    8.34
   9   5   2  189.93    7.95
   9   5   2  157.97    8.21
 -10  -5  -2  237.87   10.39
 -10  -5  -2  229.81   10.52
  10   5   2  236.80    9.95
  10   5   2  204.42   10.16
 -11  -5  -2   18.96    1.94
 -11  -5  -2   19.87    2.09
  11   5   2   16.76    1.81
  11   5   2   17.60    1.64
 -12  -5  -2   59.25    4.33
  12   5   2   61.93    3.54
  12   5   2   52.81    3.51
 -13  -5  -2   66.91    4.27
  13   5   2   52.87    3.57
 -14  -5  -2    0.60    0.90
  14   5   2    2.51    0.81
  13  -6  -2   78.08    4.60
 -13   6   2   61.36    4.75
 -13   6   2   65.67    4.20
  12  -6  -2   86.02    5.00
 -12   6   2   89.70    4.90
 -12   6   2   81.25    5.40
  11  -6  -2   18.00    1.94
 -11   6   2   15.64    1.80
 -11   6   2   13.73    2.13
  10  -6  -2  207.76    9.54
 -10   6   2  206.65    9.46
 -10   6   2  210.96   10.27
   9  -6  -2  274.46   11.76
  -9   6   2  252.94   12.39
  -9   6   2  279.56   11.77
   8  -6  -2   -0.85    0.34
   8  -6  -2    0.95    0.54
  -8   6   2   -0.85    0.60
  -8   6   2   -0.77    0.56
   7  -6  -2  297.38   12.75
   7  -6  -2  295.80   12.65
  -7   6   2  300.18   12.73
  -7   6   2  305.78   13.48
   6  -6  -2  116.39    5.56
   6  -6  -2  118.27    5.45
  -6   6   2  122.60    6.21
  -6   6   2  112.79    5.50
   5  -6  -2  217.75    9.49
   5  -6  -2  225.93    9.70
  -5   6   2  232.99   10.34
   4  -6  -2  191.41    8.33
   4  -6  -2  200.73    8.59
  -4   6   2  203.68    9.15
   3  -6  -2  113.07    5.30
   3  -6  -2  115.75    5.06
  -3   6   2  120.19    5.81
  -1   6   2  460.37   18.17
   0  -6  -2   35.96    1.63
   0  -6  -2   36.19    2.08
   0   6   2   33.43    1.71
   0   6   2   36.26    2.36
  -3  -6  -2   87.43    3.50
  -3  -6  -2   80.07    4.09
  -3  -6  -2   83.14    3.45
   3   6   2   84.22    4.36
  -5  -6  -2  379.90   15.69
  -5  -6  -2  406.15   16.43
   5   6   2  383.94   16.61
   5   6   2  414.45   15.82
  -6  -6  -2  119.41    5.51
   6   6   2  102.90    5.54
   6   6   2  114.71    4.94
  -7  -6  -2  400.40   16.82
   7   6   2  398.30   15.94
   7   6   2  378.95   16.60
  -8  -6  -2   70.60    4.17
  -8  -6  -2   70.30    3.97
   8   6   2   64.94    3.94
   8   6   2   71.31    3.52
  -9  -6  -2   35.96    2.70
  -9  -6  -2   35.99    2.80
   9   6   2   38.13    2.33
   9   6   2   31.33    2.51
 -10  -6  -2  133.51    6.58
  10   6   2  131.95    6.09
  10   6   2  117.87    6.33
 -11  -6  -2   -0.78    0.55
  11   6   2   -0.73    0.44
  11   6   2   -0.57    0.54
 -12  -6  -2  145.55    7.37
  12   6   2  138.68    6.72
  12   6   2  130.90    6.70
 -13  -6  -2   27.53    2.82
  13   6   2   23.46    2.22
  13  -7  -2   83.62    5.17
 -13   7   2   81.39    5.71
 -13   7   2   93.68    5.10
  12  -7  -2  107.15    5.93
 -12   7   2  110.27    5.81
 -12   7   2  106.86    6.70
 -11   7   2   19.84    2.49
 -11   7   2   19.56    1.99
  10  -7  -2  187.06    8.73
 -10   7   2  180.35    9.54
 -10   7   2  191.19    8.69
   9  -7  -2   57.10    3.47
  -9   7   2   58.05    4.16
  -9   7   2   56.31    3.46
   8  -7  -2  179.24    8.18
   8  -7  -2  178.51    8.27
  -8   7   2  180.68    8.24
  -8   7   2  181.09    9.22
   7  -7  -2  850.38   33.96
   7  -7  -2  836.11   34.03
  -7   7   2  839.50   33.99
  -7   7   2  861.88   34.98
   6  -7  -2  493.81   20.48
   6  -7  -2  489.58   20.27
  -6   7   2  514.16   21.35
   5  -7  -2   97.85    4.84
   5  -7  -2   95.01    4.60
  -5   7   2  103.97    5.54
   4  -7  -2   92.17    4.61
   4  -7  -2   93.19    4.36
  -4   7   2   99.71    5.27
   3  -7  -2   30.39    2.00
   3  -7  -2   29.43    1.74
  -3   7   2   33.81    2.45
   2  -7  -2  537.45   22.00
  -2   7   2  551.30   22.57
   1  -7  -2  420.27   17.63
   1  -7  -2  424.70   17.13
  -1   7   2  451.78   18.20
   0  -7  -2   78.44    3.91
   0  -7  -2   77.99    3.33
   0   7   2   70.74    3.34
   0   7   2   85.97    4.34
  -1  -7  -2  676.91   27.20
  -2  -7  -2   71.63    2.96
  -2  -7  -2   69.63    2.94
  -2  -7  -2   67.56    3.63
   2   7   2   70.18    3.91
  -3  -7  -2   28.36    1.34
  -3  -7  -2   26.77    1.96
  -3  -7  -2   28.79    1.38
   3   7   2   29.64    2.20
  -4  -7  -2  494.65   19.60
  -4  -7  -2  478.62   19.53
  -4  -7  -2  500.25   20.43
   4   7   2  516.43   20.71
  -5  -7  -2   63.34    3.71
  -5  -7  -2   63.32    3.07
  -5  -7  -2   79.05    3.40
   5   7   2   65.13    3.90
   5   7   2   69.73    3.14
  -6  -7  -2  233.39   10.67
   6   7   2  245.19    9.93
   6   7   2  241.35   10.78
  -7  -7  -2  211.22    9.69
   7   7   2  213.41    9.77
   7   7   2  215.38    9.02
  -8  -7  -2    6.92    1.25
   8   7   2    5.99    1.12
   8   7   2    8.58    1.03
  -9  -7  -2  109.48    5.72
   9   7   2  105.65    5.03
   9   7   2   96.87    5.40
 -10  -7  -2   53.44    3.69
  10   7   2   53.13    3.13
 -11  -7  -2    8.12    1.56
  11   7   2    5.40    1.00
  11   7   2    6.21    1.18
 -12  -7  -2   93.56    5.70
  12   7   2   94.47    4.99
 -13  -7  -2   33.68    3.17
  13  -8  -2   74.95    4.69
 -13   8   2   65.01    5.14
 -13   8   2   70.43    4.43
  12  -8  -2   26.03    2.59
 -12   8   2   27.46    3.25
  11  -8  -2   53.92    3.51
 -11   8   2   51.07    3.44
 -11   8   2   48.25    4.26
  10  -8  -2  182.98    8.59
 -10   8   2  180.75    8.51
 -10   8   2  179.80    9.62
   9  -8  -2   96.22    4.98
   9  -8  -2   94.25    5.06
  -9   8   2   94.94    5.03
  -9   8   2   87.38    5.81
   8  -8  -2   48.65    3.06
   8  -8  -2   44.96    2.93
  -8   8   2   44.63    2.97
  -8   8   2   44.27    3.66
   7  -8  -2   39.89    2.59
  -7   8   2   39.04    3.33
   6  -8  -2   54.30    3.20
   6  -8  -2   53.96    3.00
  -6   8   2   50.58    3.92
   5  -8  -2  201.36    8.74
   5  -8  -2  203.30    9.04
  -5   8   2  204.97    9.86
   4  -8  -2  205.19    8.82
   4  -8  -2  204.62    9.17
  -4   8   2  215.32    9.96
   3  -8  -2    9.70    0.89
   3  -8  -2    6.76    1.01
  -3   8   2    7.83    1.26
   2  -8  -2  522.78   20.82
   2  -8  -2  499.76   21.30
  -2   8   2  547.27   22.03
   1  -8  -2   16.08    1.05
   1  -8  -2   16.31    1.42
  -1   8   2   15.27    1.74
   0  -8  -2  336.11   14.57
   0  -8  -2  340.60   13.86
   0   8   2  369.21   15.13
  -1  -8  -2  215.56    9.01
  -1  -8  -2  222.00    9.84
  -1  -8  -2  223.48    9.10
   1   8   2  239.55   10.30
  -2  -8  -2    7.89    1.06
  -2  -8  -2    8.42    0.60
   2   8   2   10.53    1.39
  -3  -8  -2  461.66   18.49
  -3  -8  -2  455.00   19.45
   3   8   2  493.77   19.82
  -4  -8  -2  672.41   27.15
  -4  -8  -2  680.59   28.19
  -4  -8  -2  685.10   27.21
   4   8   2  736.27   28.52
  -5  -8  -2    0.73    0.31
  -5  -8  -2    0.18    0.57
   5   8   2    0.02    0.60
  -6  -8  -2  422.31   17.63
  -6  -8  -2  435.88   18.60
   6   8   2  459.79   18.77
   6   8   2  446.57   17.72
  -7  -8  -2  182.52    8.68
   7   8   2  176.62    7.79
   7   8   2  188.48    8.69
  -8  -8  -2    2.25    0.96
   8   8   2    2.03    0.79
   8   8   2    0.83    0.50
  -9  -8  -2  155.06    8.00
   9   8   2  160.37    7.24
   9   8   2  166.24    7.85
 -10  -8  -2   47.57    3.79
  10   8   2   57.13    3.20
  10   8   2   54.99    3.53
 -11  -8  -2   56.25    4.12
 -12  -8  -2   93.64    5.70
  12   8   2   85.70    4.74
  12  -9  -2    4.13    1.05
 -12   9   2    2.23    1.34
 -12   9   2    2.12    0.98
  11  -9  -2  138.00    6.95
 -11   9   2  133.22    8.03
 -11   9   2  127.12    6.73
  10  -9  -2  170.22    8.16
 -10   9   2  161.12    9.16
 -10   9   2  162.91    7.94
   9  -9  -2    4.98    1.06
   9  -9  -2    3.17    0.94
  -9   9   2    2.64    0.95
  -9   9   2    3.75    1.43
   8  -9  -2  210.03    9.22
   8  -9  -2  209.29    9.39
  -8   9   2  202.00   10.41
  -8   9   2  188.34    9.33
   7  -9  -2  137.63    6.58
   7  -9  -2  128.53    6.28
  -7   9   2  129.81    6.44
  -7   9   2  135.78    7.56
   6  -9  -2   61.64    3.75
   6  -9  -2   60.66    3.64
  -6   9   2   60.61    4.39
   5  -9  -2  300.88   13.10
   5  -9  -2  309.17   12.76
  -5   9   2  303.63   14.01
   4  -9  -2   89.86    4.36
   4  -9  -2   88.31    4.72
  -4   9   2   99.32    5.59
   3  -9  -2  140.02    6.71
   3  -9  -2  144.97    6.25
   2  -9  -2  415.42   17.86
   2  -9  -2  428.09   17.27
  -2   9   2  447.01   18.65
   1  -9  -2   16.38    1.61
  -1   9   2   16.40    1.83
   0  -9  -2  398.04   16.44
   0  -9  -2  413.30   17.32
   0   9   2  431.25   17.87
  -1  -9  -2   92.14    4.07
  -1  -9  -2   95.69    4.60
  -1  -9  -2   94.12    4.94
   1   9   2  102.31    5.36
  -2  -9  -2   -0.08    0.18
  -2  -9  -2   -0.22    0.19
  -2  -9  -2   -0.59    0.45
   2   9   2   -0.47    0.53
  -3  -9  -2  472.80   19.73
  -3  -9  -2  465.81   18.56
  -3  -9  -2  456.27   18.56
   3   9   2  491.01   20.05
  -4  -9  -2  281.80   12.60
  -4  -9  -2  281.65   11.42
  -4  -9  -2  274.72   11.45
   4   9   2  307.99   12.93
  -5  -9  -2    0.44    0.30
   5   9   2   -0.45    0.53
  -6  -9  -2  224.35    9.61
  -6  -9  -2  232.73   10.77
   6   9   2  246.04   10.89
  -7  -9  -2   28.17    1.98
  -7  -9  -2   30.17    2.69
   7   9   2   33.61    2.07
   7   9   2   35.22    2.71
  -8  -9  -2    9.36    1.03
  -8  -9  -2    8.21    1.53
   8   9   2    9.22    1.57
   8   9   2    9.53    1.09
  -9  -9  -2   80.55    5.24
   9   9   2   85.32    4.24
   9   9   2   87.76    4.91
 -10  -9  -2   -0.16    0.77
  10   9   2   -1.26    0.66
  10   9   2   -0.19    0.47
 -11  -9  -2   49.29    3.95
  12 -10  -2    1.99    1.00
 -12  10   2    1.31    1.23
 -12  10   2    1.25    1.07
  11 -10  -2  124.40    6.50
 -11  10   2  116.47    7.66
  10 -10  -2  131.27    6.64
  10 -10  -2  129.61    6.74
 -10  10   2  124.36    6.55
   9 -10  -2    4.61    1.19
   9 -10  -2    5.55    1.14
  -9  10   2    4.74    1.11
  -9  10   2    4.97    1.64
   8 -10  -2  144.72    6.86
   8 -10  -2  140.92    7.00
  -8  10   2  140.52    8.17
  -8  10   2  135.30    6.87
   7 -10  -2   23.29    2.00
   7 -10  -2   24.73    2.18
  -7  10   2   25.50    2.98
   6 -10  -2  104.25    5.07
   6 -10  -2  101.49    5.36
  -6  10   2   97.92    6.23
   5 -10  -2  388.21   16.03
   5 -10  -2  380.47   16.46
  -5  10   2  394.98   17.58
   4 -10  -2   19.97    1.56
   4 -10  -2   20.41    1.93
  -4  10   2   22.39    2.43
   3 -10  -2  247.43   10.59
  -3  10   2  260.96   12.09
   2 -10  -2  223.23    9.39
  -2  10   2  227.44   10.84
   1 -10  -2   17.94    1.21
  -1  10   2   16.01    2.11
   0 -10  -2  438.47   17.83
   0 -10  -2  432.67   18.80
   0  10   2  473.42   19.49
  -1 -10  -2  221.12   10.28
  -1 -10  -2  224.95    9.24
   1  10   2  236.89   10.82
  -2 -10  -2   13.35    0.90
  -2 -10  -2   15.29    1.78
   2  10   2   12.94    2.15
  -3 -10  -2  441.15   18.32
  -3 -10  -2  423.31   16.95
  -3 -10  -2  421.73   16.92
  -4 -10  -2   52.65    2.43
  -4 -10  -2   48.72    3.53
  -4 -10  -2   56.10    2.46
  -5 -10  -2   98.90    4.28
  -5 -10  -2   96.79    5.54
   5  10   2  102.10    6.33
  -6 -10  -2  237.88   10.02
  -6 -10  -2  232.33   11.36
   6  10   2  266.98   11.62
  -7 -10  -2   25.54    2.52
   7  10   2   31.98    2.78
  -8 -10  -2   39.02    2.37
  -8 -10  -2   41.54    3.33
   8  10   2   44.21    3.24
  -9 -10  -2  108.47    6.34
 -10 -10  -2   -0.77    0.69
 -11 -10  -2   42.45    3.78
  11 -11  -2  121.28    6.32
 -11  11   2  112.07    6.08
 -11  11   2  104.28    7.35
  10 -11  -2   35.48    3.33
  10 -11  -2   35.69    2.86
 -10  11   2   30.53    3.66
 -10  11   2   30.91    2.79
   9 -11  -2   51.48    3.63
  -9  11   2   50.18    4.54
  -9  11   2   50.42    3.48
   8 -11  -2  214.66    9.48
   8 -11  -2  210.22    9.73
  -8  11   2  198.59   11.14
  -8  11   2  198.18    9.54
   7 -11  -2   18.30    1.79
   7 -11  -2   18.27    1.94
  -7  11   2   16.87    2.70
   6 -11  -2  104.99    5.09
   6 -11  -2   96.76    5.36
  -6  11   2   97.14    6.37
   5 -11  -2  224.14   10.41
   5 -11  -2  232.09    9.92
  -5  11   2  228.48   11.48
   4 -11  -2    0.66    0.48
   4 -11  -2   -0.08    0.63
  -4  11   2   -0.20    0.85
   3 -11  -2  211.84   10.11
   3 -11  -2  225.10    9.46
  -3  11   2  229.98   11.11
   2 -11  -2  146.38    6.28
   2 -11  -2  134.33    6.99
  -2  11   2  147.35    7.79
   1 -11  -2   25.15    2.21
   1 -11  -2   25.48    1.58
  -1  11   2   26.00    2.74
   0 -11  -2  189.75    7.95
   0 -11  -2  187.68    9.02
   0  11   2  196.82    9.64
  -1 -11  -2  157.07    7.97
  -1 -11  -2  161.07    6.82
   1  11   2  174.79    8.57
  -2 -11  -2   42.18    3.22
  -2 -11  -2   45.29    2.18
   2  11   2   50.09    3.65
  -3 -11  -2   66.96    3.09
  -3 -11  -2   68.67    4.40
   3  11   2   79.94    4.79
  -4 -11  -2    0.88    0.29
  -4 -11  -2   -0.24    0.79
   4  11   2    1.00    1.02
  -5 -11  -2  137.06    5.98
  -5 -11  -2  144.25    7.61
   5  11   2  158.29    7.82
  -6 -11  -2   96.13    6.03
   6  11   2  117.28    6.27
  -7 -11  -2   -0.72    0.83
   7  11   2   -0.48    0.78
  -8 -11  -2   59.13    4.53
   8  11   2   72.00    4.48
  -9 -11  -2   19.46    2.57
   9  11   2   18.55    2.44
 -10 -11  -2    4.76    1.35
  10 -12  -2   24.90    2.42
  10 -12  -2   22.66    2.38
 -10  12   2   17.91    2.33
 -10  12   2   20.88    3.21
   9 -12  -2   48.31    3.44
  -9  12   2   41.94    4.37
  -9  12   2   49.18    3.46
   8 -12  -2   72.77    4.53
   8 -12  -2   75.59    4.31
  -8  12   2   67.87    4.31
  -8  12   2   75.50    5.66
   7 -12  -2    8.31    1.44
   7 -12  -2    8.65    1.32
  -7  12   2    6.80    1.91
   6 -12  -2  134.32    6.94
   6 -12  -2  135.77    6.48
  -6  12   2  137.15    9.09
   5 -12  -2   56.30    3.18
   5 -12  -2   50.40    3.54
  -5  12   2   51.20    4.40
   4 -12  -2   32.05    2.73
  -4  12   2   35.35    3.53
   3 -12  -2  202.53    8.65
   3 -12  -2  199.16    9.47
  -3  12   2  197.89   10.33
   2 -12  -2   19.72    1.48
   2 -12  -2   18.94    2.07
  -2  12   2   21.19    2.72
   1 -12  -2  104.74    5.88
   1 -12  -2  110.83    4.93
  -1  12   2  112.20    6.64
   0 -12  -2  180.25    8.80
   0 -12  -2  178.40    7.56
   0  12   2  182.00    9.40
  -1 -12  -2    0.30    0.86
   1  12   2    0.63    0.92
  -2 -12  -2  222.29   10.83
  -2 -12  -2  223.37    9.30
   2  12   2  244.81   11.40
  -3 -12  -2  127.35    5.56
  -3 -12  -2  119.88    6.84
   3  12   2  136.88    7.32
  -4 -12  -2    0.38    0.93
   4  12   2   -0.64    0.75
  -5 -12  -2  112.54    6.80
   5  12   2  128.66    6.96
  -6 -12  -2   23.21    2.78
   6  12   2   25.99    2.88
  -7 -12  -2   24.32    2.91
   7  12   2   27.32    2.88
  -8 -12  -2  113.06    6.78
  -9 -12  -2   12.61    2.17
   9 -13  -2   63.39    3.92
   9 -13  -2   54.97    3.95
  -9  13   2   57.10    5.19
  -9  13   2   54.90    3.94
   8 -13  -2    7.64    1.41
   8 -13  -2    6.92    1.39
  -8  13   2    7.25    2.07
   7 -13  -2   30.91    2.46
   7 -13  -2   27.71    2.73
  -7  13   2   25.61    3.48
   6 -13  -2  177.81    7.93
   6 -13  -2  159.24    8.34
  -6  13   2  168.91    9.75
   5 -13  -2   35.55    3.01
   5 -13  -2   39.41    2.61
  -5  13   2   39.74    4.02
   4 -13  -2   56.33    3.92
   4 -13  -2   62.16    3.34
  -4  13   2   57.64    4.81
   3 -13  -2  256.20   10.59
   3 -13  -2  238.63   11.47
   2 -13  -2    2.10    0.98
   2 -13  -2    1.18    0.54
  -2  13   2    2.66    1.33
   1 -13  -2   52.42    3.83
   1 -13  -2   56.88    2.88
  -1  13   2   55.59    4.48
   0 -13  -2  160.48    6.85
   0 -13  -2  150.40    8.12
   0  13   2  171.51    9.00
  -1 -13  -2   39.61    3.36
   1  13   2   45.43    3.91
  -2 -13  -2  204.67   10.80
   2  13   2  239.79   11.42
  -3 -13  -2  153.88    8.41
   3  13   2  169.14    8.88
  -4 -13  -2    3.04    1.21
   4  13   2    3.57    1.50
  -5 -13  -2  138.91    7.89
   5  13   2  147.60    8.05
  -6 -13  -2   22.50    2.98
   6  13   2   33.96    3.29
  -7 -13  -2   22.91    2.91
   7  13   2   21.42    2.77
   7 -14  -2   38.01    3.24
  -7  14   2   40.02    4.16
   6 -14  -2   97.49    4.95
   6 -14  -2   83.94    5.32
  -6  14   2   88.25    6.56
   5 -14  -2    3.90    1.25
   5 -14  -2    4.19    0.93
  -5  14   2    8.29    2.20
   4 -14  -2   55.82    3.15
   4 -14  -2   53.90    4.48
  -4  14   2   46.80    4.42
   3 -14  -2  100.27    4.92
  -3  14   2  100.93    6.84
   2 -14  -2    0.48    0.52
  -2  14   2   -0.39    1.01
   1 -14  -2  109.08    7.54
  -1  14   2  150.21    8.28
   0 -14  -2   57.13    4.24
   0  14   2   60.66    4.91
  -1 -14  -2    4.17    1.37
   1  14   2    7.23    1.87
  -2 -14  -2   63.12    4.65
   2  14   2   72.02    5.23
  -3 -14  -2   19.76    2.66
   3  14   2   23.93    3.07
  -4 -14  -2   37.12    3.56
   4  14   2   39.79    3.82
  -5 -14  -2   74.43    5.28
   5  14   2   76.34    5.46
   5 -15  -2    5.78    1.18
   5 -15  -2    5.98    1.59
  -5  15   2    7.21    2.14
   4 -15  -2  189.88    9.54
   4 -15  -2  185.21    8.42
  -4  15   2  188.74   10.82
   3 -15  -2   79.76    5.13
  -3  15   2   77.80    6.07
   2 -15  -2    0.90    0.89
  -2  15   2    0.48    1.21
   1 -15  -2  154.94    8.43
  -1  15   2  162.68    9.42
   0 -15  -2   31.75    3.17
   0  15   2   30.62    3.65
  -1 -15  -2    6.87    1.63
   1  15   2    9.28    2.20
  -2 -15  -2   62.87    6.15
   2  15   2   65.47    5.20
  -3 -15  -2   -0.80    0.85
   3  15   2   -0.15    1.08
   2  13  -3   97.24    6.39
  -2 -13   3   92.57    5.92
  -2 -13   3  114.90    6.17
   1  13  -3   42.93    3.93
  -1 -13   3   34.88    3.21
  -1 -13   3   40.63    2.90
   0  13  -3   32.42    3.58
   0 -13   3   22.70    2.71
   0 -13   3   31.37    2.48
  -1  13  -3   78.86    5.80
   1 -13   3   71.83    5.16
   1 -13   3   75.70    4.31
  -2  13  -3   20.72    3.05
   2 -13   3   21.51    2.14
   2 -13   3   19.05    2.16
  -3  13  -3   51.90    4.83
   3 -13   3   53.22    3.41
   3 -13   3   47.93    3.51
  -4  13  -3   96.46    7.04
   4 -13   3  103.56    5.42
  -5  13  -3    1.94    1.53
   5 -13   3    2.01    0.94
   5 -13   3    1.18    0.86
  -6  13  -3   74.27    6.27
   6 -13   3   81.71    4.63
   6 -13   3   70.36    4.41
  -4 -12   3   35.04    3.19
  -4 -12   3   29.93    2.57
  -3 -12   3   19.82    2.04
  -3 -12   3   21.91    2.51
   2  12  -3  152.38    8.41
  -2 -12   3  143.54    7.86
  -2 -12   3  159.13    7.32
   1  12  -3   51.24    4.26
  -1 -12   3   43.35    3.05
   0  12  -3   26.56    3.10
   0 -12   3   26.26    2.21
   0 -12   3   20.48    2.49
  -1  12  -3   80.38    5.69
   1 -12   3   83.32    4.45
   1 -12   3   78.20    4.79
   2 -12   3    3.75    0.94
   2 -12   3    5.03    1.08
  -3  12  -3   37.17    3.97
   3 -12   3   37.84    2.86
   3 -12   3   42.08    2.87
  -4  12  -3   57.00    5.05
   4 -12   3   61.28    3.70
  -5  12  -3    9.15    2.25
   5 -12   3    7.21    1.31
   5 -12   3    7.94    1.39
  -6  12  -3  127.86    8.40
   6 -12   3  130.51    6.47
  -7  12  -3   85.24    6.87
   7 -12   3  103.78    5.35
   7 -12   3   86.83    4.89
  -8  12  -3    2.12    1.63
   8 -12   3    3.03    1.05
   8 -12   3    2.33    0.87
  -9  12  -3   38.06    4.44
   9 -12   3   43.72    3.29
  -6 -11   3    1.07    0.98
  -6 -11   3   -0.67    0.77
  -5 -11   3   67.17    3.94
  -5 -11   3   65.44    4.60
   4  11  -3    8.04    1.61
  -4 -11   3    8.47    1.31
  -4 -11   3    9.25    1.76
   3  11  -3   56.08    4.00
  -3 -11   3   55.37    3.43
   2  11  -3  128.83    7.06
  -2 -11   3  123.51    6.06
  -2 -11   3  115.09    6.51
   1  11  -3    0.27    0.95
  -1 -11   3    0.90    0.59
  -1 -11   3    1.09    0.83
   0  11  -3  104.43    6.36
   0 -11   3   93.03    5.48
   0 -11   3  107.64    5.27
  -1  11  -3   79.84    5.45
   1 -11   3   71.97    4.40
   1 -11   3   79.73    4.27
  -2  11  -3    3.43    1.45
   2 -11   3    3.40    1.04
   2 -11   3    3.91    0.92
  -3  11  -3  120.72    7.52
   3 -11   3  129.10    6.13
   3 -11   3  117.31    6.14
  -4  11  -3   36.95    3.94
   4 -11   3   44.01    2.97
   4 -11   3   41.59    2.86
   5 -11   3    5.80    1.06
   5 -11   3    5.77    1.11
  -6  11  -3  110.85    7.74
   6 -11   3  129.26    6.27
  -7  11  -3   20.79    3.03
   7 -11   3   19.86    1.85
   7 -11   3   19.76    2.11
  -8  11  -3   56.85    5.47
   8 -11   3   58.40    3.52
   8 -11   3   62.36    3.94
  -9  11  -3   50.84    3.12
  -9  11  -3   54.12    5.14
 -10  11  -3    9.70    2.60
  10 -11   3   12.01    1.77
  -7 -10   3    6.90    1.29
  -7 -10   3    6.50    1.47
  -6 -10   3   40.21    3.38
  -6 -10   3   38.48    2.86
   5  10  -3  141.47    7.08
  -5 -10   3  144.60    7.54
  -5 -10   3  138.65    6.85
  -4 -10   3    3.77    1.09
  -4 -10   3    4.49    0.99
   3  10  -3   76.52    4.70
  -3 -10   3   74.31    4.14
  -3 -10   3   73.90    4.57
   2  10  -3   78.34    4.81
  -2 -10   3   70.39    3.99
  -2 -10   3   69.03    4.34
   1  10  -3   13.80    2.12
  -1 -10   3   13.35    1.49
  -1 -10   3   12.52    1.74
   0  10  -3  202.27    9.98
   0 -10   3  185.60    9.09
   0 -10   3  202.57    8.89
  -1  10  -3   35.28    3.31
   1 -10   3   37.35    2.52
   1 -10   3   35.78    2.61
  -2  10  -3   73.48    5.14
   2 -10   3   71.30    4.10
   2 -10   3   75.81    4.06
  -3  10  -3  230.00   11.77
   3 -10   3  227.25   10.82
   3 -10   3  241.94   10.35
  -4  10  -3    0.37    0.88
   4 -10   3    1.00    0.71
   4 -10   3    2.01    0.81
  -5  10  -3   71.59    5.39
   5 -10   3   82.57    4.29
   5 -10   3   68.66    3.98
  -6  10  -3  158.03    9.28
   6 -10   3  151.00    7.27
   6 -10   3  164.81    7.60
  -7  10  -3    6.44    1.95
   7 -10   3    5.27    1.17
   7 -10   3    4.71    0.90
  -8  10  -3  144.43    9.18
  -8  10  -3  135.56    6.70
   8 -10   3  166.13    7.47
   8 -10   3  147.94    6.92
  -9  10  -3  135.20    6.64
  -9  10  -3  143.40    9.18
   9 -10   3  162.00    7.44
   9 -10   3  142.29    7.17
 -10  10  -3    2.05    1.58
  10 -10   3    0.34    0.83
 -11  10  -3   52.67    5.34
  11 -10   3   59.58    3.95
   8   9  -3  102.13    5.66
  -8  -9   3  102.54    5.61
  -8  -9   3  102.32    6.13
   7   9  -3   14.29    1.89
  -7  -9   3   15.64    1.91
  -7  -9   3   13.71    2.03
   6   9  -3   63.75    3.78
   6   9  -3   68.38    4.01
  -6  -9   3   67.65    4.43
  -6  -9   3   64.14    3.91
   5   9  -3   86.71    4.59
  -5  -9   3   80.05    4.92
  -5  -9   3   79.15    4.47
   4   9  -3   48.47    3.26
  -4  -9   3   45.44    2.97
  -4  -9   3   48.16    3.39
   3   9  -3  210.43    9.43
  -3  -9   3  186.43    9.16
  -3  -9   3  190.22    9.26
   2   9  -3   59.41    3.97
  -2  -9   3   57.60    3.69
  -2  -9   3   62.73    3.50
   1   9  -3   18.35    2.22
  -1  -9   3   15.83    1.58
  -1  -9   3   15.35    1.71
   0   9  -3  378.58   16.33
   0  -9   3  346.71   15.41
   0  -9   3  366.38   15.28
  -1   9  -3   31.53    2.95
   1  -9   3   30.86    2.21
   1  -9   3   33.04    2.35
  -2   9  -3  139.38    7.70
   2  -9   3  145.17    6.70
   2  -9   3  138.29    6.58
  -3   9  -3  174.49    9.12
   3  -9   3  176.16    7.93
   3  -9   3  164.37    7.76
  -4   9  -3    5.24    1.56
   4  -9   3    6.15    1.07
   4  -9   3    3.96    0.82
  -5   9  -3  231.31   12.13
   5  -9   3  252.91   10.67
   5  -9   3  239.04   10.44
  -6   9  -3  278.78   14.24
   6  -9   3  305.78   12.61
   6  -9   3  283.43   12.28
  -7   9  -3   -0.44    0.73
   7  -9   3   -0.59    0.54
   7  -9   3    0.28    0.43
  -8   9  -3   79.75    4.24
  -8   9  -3   90.16    6.46
   8  -9   3   89.62    4.44
   8  -9   3   89.36    4.81
  -9   9  -3   70.97    3.81
   9  -9   3   71.41    3.92
   9  -9   3   82.92    4.48
 -10   9  -3   62.88    5.63
 -10   9  -3   62.58    3.50
  10  -9   3   69.08    4.17
 -11   9  -3  132.89    9.00
  11  -9   3  146.32    7.26
 -12   9  -3   34.80    4.30
  12  -9   3   36.80    3.06
   9   8  -3  100.32    5.58
  -9  -8   3   99.34    5.62
  -9  -8   3   96.56    5.97
   8   8  -3  131.36    6.79
  -8  -8   3  133.45    6.79
  -8  -8   3  131.32    7.12
   7   8  -3   -0.57    0.56
  -7  -8   3   -0.52    0.54
  -7  -8   3    0.01    0.73
   6   8  -3  193.92    8.85
  -6  -8   3  187.75    8.77
  -6  -8   3  186.19    9.11
   5   8  -3   69.78    4.07
   5   8  -3   70.64    3.93
  -5  -8   3   70.23    4.03
  -5  -8   3   77.37    4.44
   4   8  -3   79.29    4.26
  -4  -8   3   72.98    4.35
  -4  -8   3   73.24    4.07
   3   8  -3  331.23   13.76
  -3  -8   3  299.23   13.28
  -3  -8   3  310.44   13.63
   2   8  -3   29.10    2.45
  -2  -8   3   26.97    2.03
  -2  -8   3   26.06    2.18
   1   8  -3  173.49    8.11
  -1  -8   3  159.76    7.55
  -1  -8   3  156.74    7.36
   0   8  -3  493.13   21.05
   0  -8   3  492.97   20.20
   0  -8   3  495.19   20.33
  -1   8  -3   37.27    3.09
   1  -8   3   42.21    2.60
   1  -8   3   42.25    2.59
  -2   8  -3  210.79   10.37
   2  -8   3  212.83    9.21
   2  -8   3  206.00    9.16
  -3   8  -3   98.81    5.93
   3  -8   3   98.97    4.80
   3  -8   3   98.39    4.87
  -4   8  -3   43.82    3.66
   4  -8   3   38.79    2.57
   4  -8   3   41.40    2.49
  -5   8  -3  341.48   15.84
   5  -8   3  337.44   14.07
   5  -8   3  338.17   14.30
  -6   8  -3  110.72    6.97
   6  -8   3  110.36    5.30
   6  -8   3  119.21    5.64
  -7   8  -3    0.48    0.94
   7  -8   3    0.54    0.65
   7  -8   3    0.08    0.43
  -8   8  -3  127.42    5.97
  -8   8  -3  133.87    8.11
   8  -8   3  137.29    6.51
   8  -8   3  131.92    6.09
  -9   8  -3    5.30    0.84
  -9   8  -3    7.46    1.89
   9  -8   3    8.04    1.07
   9  -8   3    7.16    1.21
 -10   8  -3   67.07    5.55
 -10   8  -3   59.67    3.35
  10  -8   3   67.40    4.01
 -11   8  -3   84.71    4.38
 -11   8  -3   82.55    6.48
  11  -8   3   94.38    5.09
 -12   8  -3   -0.15    1.00
  12  -8   3   -1.45    0.62
 -13   8  -3   27.20    3.73
  13  -8   3   31.89    2.84
 -10  -7   3   -0.88    0.78
   9   7  -3   51.25    3.63
  -9  -7   3   57.59    4.06
   8   7  -3   38.12    2.90
  -8  -7   3   39.65    3.18
   7   7  -3   16.68    1.80
  -7  -7   3   17.29    1.85
  -7  -7   3   14.50    1.97
   6   7  -3  318.84   13.72
   6   7  -3  312.66   13.08
  -6  -7   3  322.27   13.99
  -6  -7   3  314.03   13.68
   5   7  -3   20.75    1.69
   5   7  -3   21.04    1.88
  -5  -7   3   17.25    1.83
  -5  -7   3   23.12    2.07
   4   7  -3  118.57    5.89
   4   7  -3  125.56    5.85
  -4  -7   3  124.41    6.08
  -4  -7   3  114.47    5.77
   3   7  -3  164.10    7.30
   3   7  -3  160.26    7.34
  -3  -7   3  152.25    7.31
  -3  -7   3  149.20    7.10
   2   7  -3  110.85    5.62
  -2  -7   3  115.11    5.49
  -2  -7   3  107.16    5.28
   1   7  -3  148.61    7.06
  -1  -7   3  138.08    6.48
  -1  -7   3  141.41    6.61
   0   7  -3  155.03    7.64
   0  -7   3  157.52    7.04
   0  -7   3  157.54    7.09
  -1   7  -3   93.85    5.20
   1  -7   3   92.69    4.47
   1  -7   3   87.53    4.44
  -2   7  -3  434.64   18.74
   2  -7   3  431.26   17.69
   2  -7   3  434.55   17.78
  -3   7  -3   51.08    3.66
   3  -7   3   48.78    2.68
   3  -7   3   48.17    2.81
  -4   7  -3  134.59    7.18
   4  -7   3  123.48    5.77
   4  -7   3  130.25    6.02
  -5   7  -3  486.01   21.29
   5  -7   3  478.48   19.83
   5  -7   3  488.91   19.58
  -6   7  -3   22.29    2.54
   6  -7   3   18.57    1.42
   6  -7   3   17.81    1.65
  -7   7  -3  146.66    8.37
   7  -7   3  152.62    6.63
   7  -7   3  149.37    6.96
  -8   7  -3  269.86   13.39
  -8   7  -3  260.50   11.14
   8  -7   3  265.38   11.24
   8  -7   3  276.76   11.68
  -9   7  -3    4.97    0.79
  -9   7  -3    6.05    1.74
   9  -7   3    5.02    1.02
 -10   7  -3  126.40    8.05
 -10   7  -3  130.05    5.93
  10  -7   3  133.51    6.51
 -11   7  -3  119.10    5.43
 -11   7  -3  108.10    7.43
 -12   7  -3   13.22    1.69
 -12   7  -3    9.97    2.24
  12  -7   3   13.94    1.86
 -13   7  -3   82.96    6.57
  13  -7   3   96.98    5.35
 -14   7  -3   20.65    3.27
  14  -7   3   24.18    2.55
  11   6  -3    3.49    1.09
 -11  -6   3    4.74    1.41
  10   6  -3   33.67    3.03
 -10  -6   3   40.11    3.29
   9   6  -3  242.66   11.46
  -9  -6   3  260.46   11.80
   8   6  -3   25.86    2.29
  -8  -6   3   25.87    2.46
   7   6  -3   84.13    4.66
  -7  -6   3   85.27    4.85
   6   6  -3  201.68    8.59
   6   6  -3  218.05    9.21
  -6  -6   3  199.34    9.43
   5   6  -3    0.15    0.53
   5   6  -3    1.27    0.49
  -5  -6   3    1.33    0.69
  -5  -6   3    2.45    0.76
   4   6  -3  137.07    6.64
   4   6  -3  145.46    6.72
  -4  -6   3  146.61    6.69
  -4  -6   3  147.15    6.84
   3   6  -3  252.31   10.77
   3   6  -3  253.36   10.75
  -3  -6   3  233.00   10.63
  -3  -6   3  259.43   10.85
   2   6  -3  158.87    7.20
   2   6  -3  160.63    7.11
  -2  -6   3  155.29    7.04
  -2  -6   3  147.52    6.93
   1   6  -3  583.88   23.64
  -1  -6   3  567.73   23.25
  -1  -6   3  576.39   23.24
   0   6  -3  596.40   23.82
   0  -6   3  575.70   23.19
   0  -6   3  557.35   23.19
  -1   6  -3    3.87    0.93
   1  -6   3    3.62    0.69
   1  -6   3    4.01    0.66
  -2   6  -3  234.63   10.49
   2  -6   3  223.97    9.64
   2  -6   3  220.39    9.48
  -3   6  -3   11.08    1.58
   3  -6   3   12.13    1.03
   3  -6   3   11.78    1.14
  -4   6  -3  219.77   10.43
   4  -6   3  218.71    9.35
   4  -6   3  214.18    9.34
  -5   6  -3  472.02   20.30
   5  -6   3  450.38   18.95
   5  -6   3  473.21   18.85
  -6   6  -3   -0.06    0.47
   6  -6   3   -0.67    0.38
  -7   6  -3  292.96   12.25
  -7   6  -3  302.07   14.17
   7  -6   3  304.59   12.33
   7  -6   3  299.05   12.69
  -8   6  -3  272.93   11.35
  -8   6  -3  270.09   13.30
   8  -6   3  272.76   11.81
   8  -6   3  283.47   11.45
  -9   6  -3    5.05    0.75
  -9   6  -3    6.46    1.62
   9  -6   3    5.51    0.95
 -10   6  -3  156.86    9.14
 -10   6  -3  165.58    7.25
  10  -6   3  172.98    7.82
 -11   6  -3   69.78    5.44
 -11   6  -3   74.35    3.72
  11  -6   3   72.36    4.19
 -12   6  -3   10.63    2.30
 -12   6  -3   15.64    1.55
  12  -6   3   19.07    2.05
 -13   6  -3   87.98    6.59
 -13   6  -3   94.57    4.74
  13  -6   3   94.85    5.30
 -14   6  -3    1.20    0.81
 -14   6  -3    3.35    1.68
  14  -6   3    4.67    1.19
  11   5  -3    4.22    1.19
 -11  -5   3    4.55    1.31
  10   5  -3   55.11    3.86
 -10  -5   3   63.15    4.14
   9   5  -3  156.30    7.84
  -9  -5   3  162.82    8.66
   8   5  -3   21.64    2.05
  -8  -5   3   21.91    2.18
   7   5  -3  177.00    8.33
  -7  -5   3  181.31    8.46
   6   5  -3  131.74    6.31
   6   5  -3  128.82    5.39
   6   5  -3  125.36    5.56
  -6  -5   3  137.20    6.43
   5   5  -3   69.26    3.85
   5   5  -3   75.31    3.38
   5   5  -3   66.94    3.37
  -5  -5   3   76.69    3.99
   4   5  -3  166.12    7.50
   4   5  -3  167.74    7.17
  -4  -5   3  165.15    7.53
   3   5  -3  188.38    8.13
   3   5  -3  186.87    8.26
  -3  -5   3  193.48    8.29
  -3  -5   3  183.14    8.22
   2   5  -3  199.97    8.41
   2   5  -3  189.45    8.37
  -2  -5   3  189.22    8.29
  -2  -5   3  187.64    8.29
   0   5  -3    8.44    1.12
   0  -5   3   10.39    0.93
   0  -5   3    8.40    0.93
  -1   5  -3  334.08   13.86
   1  -5   3  310.21   13.25
  -2   5  -3  385.61   16.07
   2  -5   3  372.82   15.14
   2  -5   3  368.13   15.33
  -3   5  -3   -0.05    0.31
   3  -5   3    0.27    0.34
   3  -5   3    1.47    0.38
  -4   5  -3  446.89   18.77
   4  -5   3  441.02   17.44
   4  -5   3  421.66   17.71
  -5   5  -3  305.75   13.81
   5  -5   3  299.81   12.70
   5  -5   3  311.40   12.39
  -6   5  -3  120.88    5.30
  -6   5  -3  128.91    6.83
   6  -5   3  121.37    5.70
   6  -5   3  125.05    5.36
  -7   5  -3  802.52   33.45
  -7   5  -3  805.83   31.62
   7  -5   3  797.94   31.69
   7  -5   3  801.84   32.06
  -8   5  -3   87.78    5.58
  -8   5  -3   84.36    4.00
   8  -5   3   90.89    4.47
  -9   5  -3   20.44    2.61
  -9   5  -3   22.01    1.50
   9  -5   3   21.43    1.86
 -10   5  -3  208.22   11.01
 -10   5  -3  216.06    9.16
  10  -5   3  222.08    9.68
 -11   5  -3   38.78    3.75
 -11   5  -3   44.08    2.51
  11  -5   3   41.94    2.89
 -12   5  -3   90.70    6.39
 -12   5  -3  102.66    4.82
 -13   5  -3  171.91    7.81
 -13   5  -3  166.77    9.74
  13  -5   3  176.49    8.38
 -14   5  -3   -0.71    0.58
 -14   5  -3   -0.97    0.97
  14  -5   3    0.23    0.73
  12   4  -3   41.01    3.33
 -12  -4   3   46.23    3.61
 -11  -4   3    0.53    0.84
  10   4  -3  144.53    7.64
 -10  -4   3  164.29    7.91
   9   4  -3  109.16    5.76
  -9  -4   3  106.74    5.74
   8   4  -3   19.43    1.97
  -8  -4   3   21.80    2.06
   7   4  -3  256.76   12.07
  -7  -4   3  269.96   11.63
   6   4  -3   22.23    1.85
  -6  -4   3   23.39    1.92
   5   4  -3   31.68    2.21
   5   4  -3   31.56    1.57
   5   4  -3   31.51    1.61
  -5  -4   3   34.70    2.26
   4   4  -3  723.97   29.66
   4   4  -3  782.24   29.64
   4   4  -3  753.22   30.12
  -4  -4   3  748.67   30.10
   3   4  -3    2.17    0.55
   3   4  -3    2.25    0.49
   3   4  -3    2.05    0.46
  -3  -4   3    4.14    0.67
   2   4  -3  256.81   10.71
   2   4  -3  260.59   10.82
  -2  -4   3  250.50   10.75
  -2  -4   3  260.79   10.73
  -1  -4   3  488.79   19.68
   0   4  -3   88.31    4.24
   0  -4   3   83.01    3.82
   0  -4   3   81.53    3.94
   1  -4   3  426.70   17.03
  -2   4  -3  372.28   16.21
  -2   4  -3  434.51   17.25
   2  -4   3  415.07   16.61
   2  -4   3  420.82   16.35
  -3   4  -3   29.10    1.52
  -3   4  -3   32.20    2.35
   3  -4   3   33.49    1.87
   3  -4   3   32.33    1.62
  -4   4  -3  569.43   23.52
  -4   4  -3  631.00   24.91
  -5   4  -3  452.02   19.05
  -5   4  -3  420.26   17.61
   5  -4   3  470.33   17.70
   5  -4   3  441.15   18.04
  -6   4  -3   18.28    1.97
  -6   4  -3   19.54    1.14
   6  -4   3   18.74    1.45
   6  -4   3   18.94    1.16
  -7   4  -3  253.20   10.28
  -7   4  -3  252.90   11.82
   7  -4   3  251.18   10.68
  -8   4  -3   27.33    2.71
  -8   4  -3   29.01    1.83
  -9   4  -3  208.08    8.88
  -9   4  -3  206.46   10.52
   9  -4   3  221.30    9.35
 -10   4  -3  179.84    9.56
 -10   4  -3  185.19    7.94
  10  -4   3  187.92    8.35
 -11   4  -3    3.92    0.74
 -11   4  -3    4.41    1.41
  11  -4   3    5.90    1.05
 -12   4  -3  110.08    5.19
 -12   4  -3  103.32    6.74
  12  -4   3  108.43    5.60
 -13   4  -3   99.44    6.75
 -13   4  -3  111.24    5.29
  13  -4   3  105.31    5.65
 -14   4  -3   12.96    2.91
 -14   4  -3   17.00    1.78
  14  -4   3   13.98    1.87
 -15   4  -3   40.11    4.17
 -15   4  -3   45.71    3.11
  15  -4   3   43.86    3.25
  12   3  -3   65.65    4.40
 -12  -3   3   70.36    4.58
  11   3  -3   13.05    1.93
 -11  -3   3   14.56    1.96
  10   3  -3  130.37    6.72
 -10  -3   3  129.20    6.74
   9   3  -3   81.96    4.69
  -9  -3   3   83.52    4.66
   8   3  -3  113.97    5.82
  -8  -3   3  115.62    5.83
   7   3  -3  322.06   13.81
  -7  -3   3  323.48   13.78
   6   3  -3    0.59    0.50
  -6  -3   3    1.23    0.65
   5   3  -3  429.76   17.79
  -5  -3   3  435.45   17.77
   4   3  -3  623.73   25.06
   4   3  -3  660.07   25.73
  -4  -3   3  636.61   25.65
   3   3  -3   25.55    1.42
   3   3  -3   27.61    1.46
   3   3  -3   26.30    1.72
  -3  -3   3   26.61    1.66
  -2  -3   3  490.17   19.53
   1   3  -3  202.20    8.43
   1   3  -3  209.58    8.79
  -1  -3   3  198.52    8.29
  -1  -3   3  191.22    8.35
   0   3  -3  316.92   12.35
   0   3  -3  311.44   12.42
   0  -3   3  291.92   12.03
   0  -3   3  276.67   12.17
  -1   3  -3  222.36    9.81
  -1   3  -3  257.13   10.49
   1  -3   3  254.26    9.91
   1  -3   3  250.21   10.15
  -3   3  -3  177.80    7.89
  -3   3  -3  164.36    6.88
   3  -3   3  180.29    6.96
   3  -3   3  166.17    7.27
  -4   3  -3  292.76   12.11
  -4   3  -3  311.40   13.27
   4  -3   3  296.19   12.51
   4  -3   3  326.58   12.17
  -5   3  -3    0.93    0.21
  -5   3  -3    0.77    0.20
  -5   3  -3    0.75    0.46
   5  -3   3    1.07    0.36
   5  -3   3    1.52    0.27
  -6   3  -3  527.30   21.17
  -6   3  -3  538.75   21.16
  -6   3  -3  545.13   22.54
  -7   3  -3  277.95   11.34
  -7   3  -3  279.73   12.72
   7  -3   3  285.27   11.73
  -8   3  -3    8.55    1.50
   8  -3   3    9.47    1.06
  -9   3  -3  271.14   12.63
  -9   3  -3  260.22   11.07
   9  -3   3  275.71   11.47
 -10   3  -3  294.49   13.84
 -10   3  -3  287.76   12.22
  10  -3   3  304.90   12.63
 -11   3  -3    1.03    0.93
 -11   3  -3   -0.29    0.39
  11  -3   3   -0.20    0.38
 -12   3  -3  186.09   10.21
 -12   3  -3  199.24    8.73
  12  -3   3  208.56    9.14
 -13   3  -3    6.09    0.97
 -13   3  -3    7.71    1.80
  13  -3   3    6.17    1.41
 -14   3  -3   16.61    2.70
 -14   3  -3   20.03    1.88
  14  -3   3   19.97    2.00
  15  -3   3  157.55    7.93
  13   2  -3   79.78    5.11
 -13  -2   3   90.11    5.36
  12   2  -3   34.02    3.05
 -12  -2   3   42.63    3.31
  11   2  -3   40.07    3.16
 -11  -2   3   42.38    3.24
  10   2  -3  162.69    7.93
 -10  -2   3  160.66    7.86
   9   2  -3    6.30    1.19
  -9  -2   3    7.40    1.21
   8   2  -3  159.38    7.56
  -8  -2   3  160.82    7.53
   7   2  -3  274.92   11.96
  -7  -2   3  278.73   11.93
   6   2  -3    0.73    0.50
  -6  -2   3    1.03    0.53
   5   2  -3  657.35   26.03
  -5  -2   3  635.82   25.94
   4   2  -3  383.96   15.58
  -4  -2   3  376.21   15.51
   3   2  -3  257.63   10.82
   3   2  -3  260.76   10.27
  -3  -2   3  261.90   10.75
   0   2  -3  193.65    7.90
   0   2  -3  169.67    7.55
   0   2  -3  199.40    7.90
   0  -2   3  188.53    7.60
   0  -2   3  183.29    7.79
   0  -2   3  189.42    7.81
  -2   2  -3   21.52    1.04
  -2   2  -3   23.59    1.63
   2  -2   3   25.33    1.10
   2  -2   3   21.91    1.34
  -5   2  -3   35.74    2.46
  -5   2  -3   35.42    1.59
  -5   2  -3   33.81    1.59
   5  -2   3   32.77    1.87
  -6   2  -3   91.85    3.84
  -6   2  -3   87.21    3.78
  -6   2  -3   88.60    4.84
   6  -2   3   87.57    4.10
  -7   2  -3  398.36   16.95
  -7   2  -3  387.83   15.64
   7  -2   3  391.00   15.96
  -8   2  -3   92.49    5.31
  -8   2  -3   95.57    4.38
   8  -2   3   91.69    4.42
  -9   2  -3  247.40   10.43
  -9   2  -3  253.08   11.82
   9  -2   3  255.24   10.79
 -10   2  -3   99.99    4.64
 -10   2  -3   96.56    5.84
  10  -2   3  100.27    4.90
 -11   2  -3   94.25    6.04
 -11   2  -3  102.00    4.85
  11  -2   3  106.37    5.15
 -12   2  -3  189.65    9.97
 -12   2  -3  199.29    8.64
  12  -2   3  188.56    8.78
 -13   2  -3   42.43    2.67
 -13   2  -3   36.45    3.46
  13  -2   3   38.48    2.81
 -14   2  -3   42.30    3.93
  14  -2   3   44.14    3.16
 -15   2  -3   54.50    3.39
 -15   2  -3   47.66    4.26
  15  -2   3   47.13    3.53
  13   1  -3   67.23    4.46
 -13  -1   3   65.95    4.44
  12   1  -3   -0.16    0.70
 -12  -1   3   -0.08    0.77
  11   1  -3  178.49    9.29
 -11  -1   3  221.52   10.34
  10   1  -3  352.30   15.66
 -10  -1   3  371.25   15.66
   9   1  -3   17.03    1.84
  -9  -1   3   18.31    1.72
   8   1  -3  130.47    6.37
  -8  -1   3  130.61    6.30
   7   1  -3  243.86   10.79
  -7  -1   3  252.33   10.82
   6   1  -3   88.33    4.40
  -6  -1   3   86.92    4.33
   5   1  -3  174.60    7.53
  -5  -1   3  166.83    7.44
   4   1  -3   74.68    3.62
  -4  -1   3   73.17    3.54
   0   1  -3  187.94    8.26
   0   1  -3  207.96    8.43
   0   1  -3  209.32    8.44
   0  -1   3  223.38    8.64
   0  -1   3  196.24    8.17
   0  -1   3  197.36    8.37
   0  -1   3  208.93    8.38
  -1   1  -3  123.44    5.35
  -1   1  -3  133.86    5.60
  -1   1  -3  119.43    5.09
   1  -1   3  123.57    5.36
   1  -1   3  128.86    5.10
   1  -1   3  130.45    5.41
   1  -1   3  131.71    5.53
  -2   1  -3  246.51   10.19
  -2   1  -3  234.90    9.95
   2  -1   3  234.89    9.80
   2  -1   3  251.95   10.13
  -5   1  -3  280.10   12.10
  -5   1  -3  309.57   11.17
  -5   1  -3  266.65   11.06
   5  -1   3  262.24   11.34
  -6   1  -3  225.50    9.90
  -6   1  -3  209.50    8.79
  -6   1  -3  246.40    8.96
   6  -1   3  194.61    8.80
   6  -1   3  215.54    9.05
  -7   1  -3  152.39    6.38
  -7   1  -3  151.77    7.43
   7  -1   3  153.78    6.62
  -8   1  -3  105.85    5.69
  -8   1  -3  101.23    4.61
   8  -1   3  106.21    4.82
  -9   1  -3  310.65   14.00
  -9   1  -3  309.92   12.75
   9  -1   3  311.38   12.94
 -10   1  -3   85.39    5.26
 -10   1  -3   87.88    4.21
  10  -1   3   90.17    4.42
 -11   1  -3  347.64   17.16
 -11   1  -3  374.08   15.14
  11  -1   3  370.21   15.30
 -12   1  -3   49.27    3.95
 -12   1  -3   51.56    2.96
  12  -1   3   46.61    3.08
 -13   1  -3    7.86    1.21
 -13   1  -3    6.94    1.59
  13  -1   3    7.12    1.23
 -14   1  -3  154.94    7.14
 -14   1  -3  135.18    8.11
  14  -1   3  146.37    7.21
 -15   1  -3   68.99    5.35
 -15   1  -3   90.11    4.83
  15  -1   3   88.52    4.96
  13   0  -3   70.80    4.67
 -13   0   3   77.41    4.76
  12   0  -3    6.98    1.41
 -12   0   3    7.25    1.43
  11   0  -3   61.26    4.03
 -11   0   3   67.65    4.11
  10   0  -3   27.45    2.40
 -10   0   3   24.61    2.29
   9   0  -3   39.06    2.77
  -9   0   3   39.64    2.73
   8   0  -3  341.24   14.84
  -8   0   3  358.73   14.82
   7   0  -3   72.11    3.95
  -7   0   3   76.52    3.90
   6   0  -3  371.74   15.52
  -6   0   3  377.33   15.46
   5   0  -3  442.46   17.75
  -5   0   3  428.08   17.66
   4   0  -3   24.65    1.62
  -4   0   3   26.48    1.61
   1   0  -3  222.92    9.33
   1   0  -3  213.59    9.23
  -1   0   3  255.43    9.36
  -1   0   3  218.14    9.22
  -1   0   3  231.30    9.17
  -1   0   3  236.33    9.35
  -1   0  -3  192.42    7.94
  -1   0  -3  182.91    7.71
   1   0   3  205.19    7.78
   1   0   3  179.83    7.49
  -2   0  -3    0.00    0.01
  -4   0  -3  269.00   10.85
   4   0   3  247.22   10.16
   4   0   3  240.94    9.94
  -5   0  -3  479.92   19.85
  -7   0  -3    1.39    0.36
  -7   0  -3    1.38    0.62
   7   0   3    2.24    0.48
  -8   0  -3  197.31    8.43
  -8   0  -3  205.95    9.48
   8   0   3  201.54    8.55
  -9   0  -3  528.15   20.96
  -9   0  -3  512.24   22.05
   9   0   3  522.38   21.05
 -10   0  -3    6.52    0.90
 -10   0  -3    7.75    1.45
  10   0   3    5.63    0.92
 -11   0  -3   77.38    5.15
 -11   0  -3   87.10    4.30
  11   0   3   89.46    4.41
 -12   0  -3  165.91    7.39
 -12   0  -3  147.99    8.28
  12   0   3  161.99    7.42
 -13   0  -3    6.06    1.42
 -13   0  -3    5.57    1.08
  13   0   3    5.64    1.00
 -14   0  -3   67.00    5.00
 -14   0  -3   87.61    4.57
  14   0   3   77.27    4.49
 -15   0  -3   19.63    2.47
  15   0   3   20.96    2.21
  13  -1  -3   54.40    3.94
 -13   1   3   57.28    3.96
  12  -1  -3   20.52    2.25
 -12   1   3   23.55    2.35
  11  -1  -3  139.67    7.15
 -11   1   3  142.98    7.08
  10  -1  -3   54.61    3.45
 -10   1   3   54.36    3.36
 -10   1   3   45.56    2.51
   9  -1  -3  122.99    6.09
   9  -1  -3  118.52    5.28
  -9   1   3  116.67    5.37
  -9   1   3  133.98    6.13
   8  -1  -3  296.56   12.40
   8  -1  -3  262.88   11.57
  -8   1   3  301.50   12.31
  -8   1   3  284.49   11.69
   7  -1  -3   21.55    1.70
  -7   1   3   21.76    1.33
  -7   1   3   19.61    1.60
   6  -1  -3  243.09   10.47
   6  -1  -3  236.32    9.91
  -6   1   3  251.39    9.99
  -6   1   3  250.72   10.44
   5  -1  -3  545.37   21.48
   4  -1  -3   14.49    0.86
   4  -1  -3   14.02    1.13
  -4   1   3   17.24    0.90
  -4   1   3   13.39    1.10
   1  -1  -3  246.30   10.65
  -1   1   3  270.49   10.68
  -1   1   3  288.30   10.74
  -1   1   3  260.16   10.67
  -2  -1  -3    6.81    0.47
  -2  -1  -3    4.93    0.61
  -2  -1  -3    5.31    0.36
   2   1   3    5.58    0.35
   2   1   3    4.86    0.41
   2   1   3    5.86    0.63
  -3  -1  -3  250.11   10.66
   3   1   3  257.89   10.63
  -4  -1  -3   80.16    3.99
  -4  -1  -3   84.33    3.36
  -4  -1  -3   74.92    3.43
   4   1   3   79.04    3.41
   4   1   3   78.09    3.41
  -6  -1  -3  213.07    9.76
  -6  -1  -3  222.76    9.00
   6   1   3  223.90    9.03
  -7  -1  -3   60.83    2.94
  -7  -1  -3   61.28    3.64
   7   1   3   62.85    2.98
  -8  -1  -3  348.85   13.88
  -8  -1  -3  332.61   14.73
   8   1   3  336.52   13.85
  -9  -1  -3  332.78   14.69
  -9  -1  -3  333.34   13.76
   9   1   3  334.09   13.75
 -10  -1  -3   84.91    5.06
 -10  -1  -3   89.14    4.34
  10   1   3   88.57    4.30
 -11  -1  -3  120.73    6.75
 -11  -1  -3  131.32    6.45
  11   1   3  125.42    5.94
 -12  -1  -3   63.74    3.53
 -12  -1  -3   55.48    4.16
  12   1   3   59.89    3.48
 -13  -1  -3   81.43    5.22
 -13  -1  -3   84.79    4.56
  13   1   3   81.26    4.48
 -14  -1  -3  117.30    5.69
 -14  -1  -3   90.72    5.95
  14   1   3  102.76    5.56
 -15  -1  -3    3.29    1.02
 -15  -1  -3    3.99    1.18
  15   1   3    5.67    1.20
  14  -2  -3   59.46    4.29
 -14   2   3   65.35    4.33
  13  -2  -3   39.27    3.27
 -13   2   3   44.12    3.34
  12  -2  -3   48.54    3.48
 -12   2   3   44.41    3.71
  11  -2  -3  112.93    6.15
 -11   2   3  120.35    6.11
  10  -2  -3   11.20    1.60
 -10   2   3   10.55    1.49
 -10   2   3   11.85    1.30
   9  -2  -3  258.63   11.22
  -9   2   3  242.84   10.75
  -9   2   3  257.89   11.13
   8  -2  -3  217.64    9.76
  -8   2   3  240.57   10.26
  -8   2   3  205.15    9.38
   7  -2  -3   41.63    2.53
  -7   2   3   38.62    2.27
  -7   2   3   38.97    2.46
   6  -2  -3  248.28   10.55
   6  -2  -3  223.90   10.19
  -6   2   3  258.40   10.34
  -6   2   3  260.94   10.56
   5  -2  -3  430.12   17.65
   5  -2  -3  397.68   17.37
  -5   2   3  446.92   17.66
  -5   2   3  463.14   17.48
   4  -2  -3  226.95   10.29
   4  -2  -3  245.63   10.47
  -4   2   3  257.82   10.51
  -4   2   3  281.21   10.39
   0   2   3  258.10    9.29
   0   2   3  202.62    9.40
  -4  -2  -3   66.22    2.79
  -4  -2  -3   55.64    2.67
  -4  -2  -3   62.90    3.28
   4   2   3   62.19    2.66
   4   2   3   60.59    2.71
  -6  -2  -3  268.18   12.02
   6   2   3  289.70   11.33
  -7  -2  -3    2.71    0.49
  -7  -2  -3    1.83    0.62
   7   2   3    2.11    0.41
  -8  -2  -3  221.75    9.22
  -8  -2  -3  210.30    9.90
   8   2   3  218.93    9.11
  -9  -2  -3   41.16    2.96
  -9  -2  -3   39.31    2.39
   9   2   3   40.79    2.32
 -10  -2  -3   65.79    4.23
 -10  -2  -3   67.44    3.65
  10   2   3   72.49    3.61
 -11  -2  -3  330.41   13.45
 -11  -2  -3  283.11   13.99
  11   2   3  328.18   13.29
 -12  -2  -3   15.03    1.58
 -12  -2  -3   11.48    1.81
  12   2   3   14.15    1.51
 -13  -2  -3   87.36    5.58
 -13  -2  -3  107.56    5.31
  13   2   3   95.40    5.06
 -14  -2  -3   70.50    4.18
 -14  -2  -3   60.24    4.36
 -15  -2  -3    0.77    0.84
  15   2   3    1.05    0.67
  14  -3  -3   81.74    5.17
 -14   3   3   83.66    5.10
  13  -3  -3    3.96    1.15
 -13   3   3    4.32    1.21
  12  -3  -3   70.53    4.47
  11  -3  -3  184.45    8.92
 -11   3   3  189.34    8.82
  10  -3  -3    0.38    0.59
 -10   3   3   -0.18    0.60
 -10   3   3    0.58    0.49
   9  -3  -3  162.07    7.52
  -9   3   3  152.51    7.33
  -9   3   3  160.84    7.43
   8  -3  -3   47.73    2.95
  -8   3   3   46.39    2.86
   7  -3  -3   11.75    1.26
  -7   3   3    9.70    1.18
  -7   3   3   10.78    1.18
   6  -3  -3  539.11   22.31
  -6   3   3  559.35   22.33
  -6   3   3  557.77   22.34
   5  -3  -3  442.30   18.66
  -5   3   3  478.93   18.73
  -5   3   3  462.48   18.71
   4  -3  -3  289.57   12.51
   4  -3  -3  297.74   12.58
  -4   3   3  296.93   12.57
  -4   3   3  339.76   12.69
   2  -3  -3  236.62    9.35
   2  -3  -3  201.61    9.52
   2  -3  -3  242.70    9.48
  -2   3   3  238.54    9.55
   1  -3  -3   91.73    3.85
   1  -3  -3   72.42    3.91
   1  -3  -3   87.72    3.68
  -1   3   3   93.13    3.66
  -1   3   3   86.80    3.96
  -1   3   3   86.92    4.01
   0  -3  -3  103.06    4.10
   0  -3  -3   78.49    4.21
   0  -3  -3   99.17    3.88
   0  -3  -3  101.53    4.35
   0   3   3   96.75    3.85
   0   3   3   93.55    4.32
   0   3   3   97.20    4.07
   0   3   3   82.65    4.23
  -1  -3  -3   13.83    0.66
  -1  -3  -3   12.58    1.02
  -1  -3  -3   11.92    0.83
   1   3   3   12.74    1.04
   1   3   3   14.79    0.66
  -3  -3  -3  162.87    6.92
  -3  -3  -3  174.06    7.66
  -3  -3  -3  189.62    7.25
   3   3   3  171.99    6.90
  -6  -3  -3  152.76    7.38
  -6  -3  -3  158.55    6.84
   6   3   3  165.77    6.64
  -7  -3  -3  203.75    9.62
  -7  -3  -3  219.18    9.08
   7   3   3  217.69    8.86
  -8  -3  -3  188.74    8.26
  -8  -3  -3  189.00    8.91
   8   3   3  192.67    8.07
  -9  -3  -3   21.25    2.06
  -9  -3  -3   25.34    1.81
   9   3   3   23.81    1.63
 -10  -3  -3  325.21   15.19
  10   3   3  367.98   14.45
 -11  -3  -3  294.19   12.64
 -11  -3  -3  275.90   13.19
  11   3   3  304.14   12.43
 -12  -3  -3    0.08    0.65
 -12  -3  -3    1.47    0.78
  12   3   3    1.00    0.54
 -13  -3  -3  126.33    6.40
  13   3   3  121.40    6.11
 -14  -3  -3   57.23    3.80
 -14  -3  -3   48.00    3.79
  14   3   3   56.46    3.92
 -15  -3  -3   14.69    2.06
  15   3   3   13.47    1.70
  13  -4  -3   -0.59    0.64
 -13   4   3   -1.01    0.60
  12  -4  -3   86.69    5.00
 -12   4   3   76.37    4.62
  11  -4  -3   95.57    5.19
 -11   4   3   85.32    5.00
 -11   4   3   93.70    5.05
  10  -4  -3   27.86    2.28
 -10   4   3   23.85    2.15
 -10   4   3   24.99    2.25
   9  -4  -3  183.54    8.30
  -9   4   3  172.69    8.34
  -9   4   3  178.66    8.21
   8  -4  -3   15.59    1.56
  -8   4   3   14.22    1.54
   7  -4  -3   43.75    2.74
  -7   4   3   48.05    2.92
  -7   4   3   46.89    2.78
   6  -4  -3  135.65    6.41
   6  -4  -3  138.34    6.37
  -6   4   3  149.08    6.47
  -6   4   3  140.75    6.57
   5  -4  -3    4.80    0.74
   5  -4  -3    6.49    0.82
  -5   4   3    3.81    0.72
   2  -4  -3   95.78    4.35
   2  -4  -3   96.12    4.17
  -2   4   3   97.53    4.53
   1  -4  -3  128.88    5.37
   1  -4  -3  127.78    5.61
  -1   4   3  134.83    5.35
  -1   4   3  129.67    5.83
  -1  -4  -3    9.95    0.46
  -1  -4  -3    8.11    0.73
  -1  -4  -3    8.81    0.91
   1   4   3    9.66    0.44
   1   4   3    7.88    0.89
  -3  -4  -3   23.25    1.40
  -3  -4  -3   21.03    0.97
  -3  -4  -3   21.75    1.63
   3   4   3   21.52    1.65
   3   4   3   24.46    1.03
  -4  -4  -3  433.31   17.91
  -6  -4  -3   73.31    4.26
  -6  -4  -3   79.80    3.88
   6   4   3   87.57    3.61
  -7  -4  -3  483.24   19.56
  -7  -4  -3  450.17   20.07
   7   4   3  509.95   19.25
  -8  -4  -3  623.48   26.56
  -8  -4  -3  664.58   26.01
  -9  -4  -3   21.22    1.69
  -9  -4  -3   20.62    2.05
   9   4   3   20.97    1.56
 -10  -4  -3  239.20   10.65
 -10  -4  -3  239.14   11.21
  10   4   3  245.67   10.33
 -11  -4  -3   63.68    3.73
 -11  -4  -3   58.30    4.01
  11   4   3   62.10    3.41
 -12  -4  -3   29.04    2.75
 -12  -4  -3   38.35    2.78
  12   4   3   36.29    2.44
 -13  -4  -3  208.27    9.66
  13   4   3  196.84    9.16
 -14  -4  -3   58.11    3.78
  14   4   3   47.54    3.24
  14   4   3   38.53    3.93
  13  -5  -3   17.84    2.25
 -13   5   3   16.75    2.08
  12  -5  -3  157.30    7.94
  11  -5  -3   33.29    2.58
 -11   5   3   31.65    2.59
 -11   5   3   30.55    2.76
  10  -5  -3  149.38    7.36
 -10   5   3  155.55    7.35
 -10   5   3  150.28    7.65
   9  -5  -3  130.64    6.36
  -9   5   3  131.33    6.32
  -9   5   3  124.40    6.58
   8  -5  -3    1.66    0.66
  -8   5   3    0.93    0.65
  -8   5   3   -0.12    0.51
   7  -5  -3  480.52   19.94
   7  -5  -3  484.59   20.03
  -7   5   3  493.95   20.37
  -7   5   3  486.79   19.99
   6  -5  -3  337.47   14.26
   6  -5  -3  330.53   14.34
  -6   5   3  348.10   14.37
  -6   5   3  359.09   14.76
   5  -5  -3   55.67    2.98
   5  -5  -3   58.47    3.12
  -5   5   3   54.14    3.04
  -5   5   3   61.31    3.41
   3  -5  -3  442.06   17.92
   1   5   3  239.11   10.83
   1   5   3  247.60    9.51
  -3  -5  -3  226.44    9.32
  -3  -5  -3  228.12    9.73
   3   5   3  208.60    9.65
  -4  -5  -3   45.10    2.47
  -4  -5  -3   43.80    2.77
  -4  -5  -3   43.28    1.91
   4   5   3   42.79    2.74
   4   5   3   48.49    1.97
  -5  -5  -3  246.38    9.94
  -5  -5  -3  228.53   10.32
  -5  -5  -3  222.73    9.31
   5   5   3  251.52    9.40
   5   5   3  216.29   10.27
  -6  -5  -3    3.51    0.87
  -6  -5  -3    3.98    0.70
   6   5   3    4.55    0.51
   6   5   3    2.68    0.77
  -7  -5  -3  531.00   20.60
  -7  -5  -3  520.32   21.14
   7   5   3  458.20   20.90
  -8  -5  -3  225.59   10.36
  -8  -5  -3  240.33    9.90
   8   5   3  235.49    9.42
   8   5   3  192.96   10.04
  -9  -5  -3    1.40    0.66
  -9  -5  -3    1.01    0.71
   9   5   3    1.35    0.70
   9   5   3    1.02    0.43
 -10  -5  -3  146.73    7.46
 -10  -5  -3  150.82    7.03
  10   5   3  153.49    6.61
  10   5   3  123.98    7.03
 -11  -5  -3    9.59    1.64
 -11  -5  -3    8.32    1.41
  11   5   3    8.00    1.37
  11   5   3   12.15    1.50
 -12  -5  -3   50.62    3.45
 -12  -5  -3   49.13    3.59
  12   5   3   41.69    3.20
  12   5   3   51.28    3.03
 -13  -5  -3  163.84    7.98
  13   5   3  147.42    7.28
 -14  -5  -3    5.18    1.34
  14   5   3    5.86    1.04
  13  -6  -3   18.98    2.35
 -13   6   3   19.04    2.31
 -13   6   3   21.44    2.27
  12  -6  -3   85.16    5.03
 -12   6   3   79.47    5.21
 -12   6   3   90.47    6.77
 -11   6   3    8.24    1.65
 -11   6   3    9.81    1.59
  10  -6  -3  223.60   10.17
 -10   6   3  220.37   10.10
   9  -6  -3  174.75    8.18
  -9   6   3  174.50    8.17
  -9   6   3  176.44    8.71
   8  -6  -3    6.11    1.06
  -8   6   3    5.83    1.28
  -8   6   3    5.80    1.08
   7  -6  -3  106.82    5.41
  -7   6   3  110.17    5.85
  -7   6   3  111.02    5.41
   6  -6  -3   25.10    1.91
   6  -6  -3   27.27    1.88
  -6   6   3   23.28    1.86
  -6   6   3   24.74    2.16
   5  -6  -3  169.49    7.36
   5  -6  -3  168.44    7.55
  -5   6   3  159.93    7.44
  -5   6   3  174.84    8.01
   3  -6  -3  174.52    7.65
   3  -6  -3  168.76    7.34
  -3   6   3  180.59    8.05
   2  -6  -3    1.60    0.34
   2  -6  -3    1.29    0.43
  -2   6   3    2.04    0.65
   1  -6  -3  371.20   14.86
  -1   6   3  329.89   14.34
  -1   6   3  388.66   15.31
   0  -6  -3  149.57    6.45
   0  -6  -3  154.90    5.92
   0   6   3  152.41    6.84
   0   6   3  129.23    5.86
  -2  -6  -3   47.26    2.87
   2   6   3   67.67    3.46
  -3  -6  -3    5.27    0.83
   3   6   3    5.91    0.97
  -4  -6  -3  534.09   21.67
  -4  -6  -3  536.60   22.12
  -4  -6  -3  504.95   20.82
   4   6   3  510.53   22.03
   4   6   3  586.19   20.91
  -5  -6  -3  279.97   11.97
  -5  -6  -3  280.07   11.52
  -5  -6  -3  238.65   10.99
   5   6   3  260.24   11.84
   5   6   3  290.70   10.81
  -6  -6  -3    0.90    0.57
  -6  -6  -3    1.23    0.56
   6   6   3    0.67    0.26
   6   6   3   -0.16    0.40
  -7  -6  -3  385.17   16.02
  -7  -6  -3  377.68   16.48
   7   6   3  407.07   15.44
   7   6   3  356.34   16.32
  -8  -6  -3   34.82    2.75
  -8  -6  -3   35.49    2.50
   8   6   3   32.36    2.66
   8   6   3   37.75    2.08
  -9  -6  -3  286.50   12.38
  -9  -6  -3  276.03   12.77
   9   6   3  262.96   12.53
   9   6   3  299.23   11.83
 -10  -6  -3  121.40    6.08
 -10  -6  -3  116.45    6.34
  10   6   3  116.17    5.45
  10   6   3  105.74    6.01
 -11  -6  -3    9.25    1.52
 -11  -6  -3    5.32    1.23
  11   6   3    7.80    1.40
 -12  -6  -3   83.40    5.06
  12   6   3   85.07    4.39
  12   6   3   74.12    4.65
 -13  -6  -3   89.88    5.40
  13   6   3   82.10    4.59
 -14  -6  -3    0.89    0.95
  14   6   3    1.01    0.62
  13  -7  -3   66.84    4.41
 -13   7   3   60.46    4.59
  12  -7  -3   38.79    3.16
 -12   7   3   41.10    3.06
 -12   7   3   37.35    3.51
  11  -7  -3    7.07    1.33
 -11   7   3    7.55    1.45
 -11   7   3    6.53    1.47
  10  -7  -3  150.87    7.34
 -10   7   3  151.17    7.31
 -10   7   3  142.02    7.90
   9  -7  -3   99.28    5.09
  -9   7   3   97.30    5.12
  -9   7   3   91.80    5.64
   8  -7  -3  136.62    6.67
   8  -7  -3  138.29    6.56
  -8   7   3  141.61    7.94
  -8   7   3  129.75    6.56
   7  -7  -3  541.96   23.62
   7  -7  -3  555.45   22.93
  -7   7   3  588.99   23.88
   6  -7  -3    1.25    0.48
   6  -7  -3    1.75    0.61
  -6   7   3    2.51    0.93
  -6   7   3    1.52    0.67
   5  -7  -3  250.03   10.82
   5  -7  -3  244.06   10.54
  -5   7   3  256.04   11.40
   4  -7  -3  437.56   18.18
   4  -7  -3  440.86   17.87
  -4   7   3  447.56   18.73
   3  -7  -3  288.07   11.88
   3  -7  -3  285.08   12.24
  -3   7   3  298.97   12.78
   2  -7  -3  309.30   13.12
   2  -7  -3  308.57   12.68
  -2   7   3  325.14   13.62
   1  -7  -3  261.10   10.40
   1  -7  -3  252.26   10.91
  -1   7   3  260.67   11.37
   0  -7  -3  104.76    4.20
   0  -7  -3  104.44    4.84
   0   7   3   91.32    4.17
   0   7   3  104.46    5.22
  -1  -7  -3  605.36   24.42
  -2  -7  -3  309.30   13.36
   2   7   3  329.49   13.81
  -3  -7  -3   14.79    1.40
   3   7   3   17.22    1.66
  -4  -7  -3  136.82    6.34
  -4  -7  -3  132.57    5.34
   4   7   3  136.09    6.65
  -5  -7  -3   59.52    2.62
  -5  -7  -3   60.20    3.43
   5   7   3   63.11    2.67
   5   7   3   56.82    3.62
  -6  -7  -3  151.14    7.10
  -6  -7  -3  145.31    6.19
   6   7   3  160.22    6.33
   6   7   3  145.71    7.36
  -7  -7  -3  330.18   14.07
   7   7   3  344.45   13.29
   7   7   3  304.50   14.25
  -8  -7  -3   10.91    1.39
  -8  -7  -3   13.12    1.73
   8   7   3   13.89    1.13
   8   7   3    8.71    1.57
  -9  -7  -3  167.45    7.97
   9   7   3  152.46    7.98
   9   7   3  170.48    7.26
 -10  -7  -3  103.80    5.65
  10   7   3  100.23    5.88
  10   7   3  100.39    4.92
 -11  -7  -3    0.27    0.76
  11   7   3    0.03    0.63
  11   7   3    0.49    0.49
 -12  -7  -3  157.24    8.15
 -13  -7  -3   56.67    4.07
  13   7   3   50.34    3.26
  13  -8  -3   62.33    4.33
 -13   8   3   61.22    4.20
  12  -8  -3   47.69    3.61
 -12   8   3   51.47    4.25
 -12   8   3   50.09    3.55
  11  -8  -3    9.75    1.57
 -11   8   3    8.93    1.86
 -11   8   3    7.23    1.40
  10  -8  -3  149.74    7.31
 -10   8   3  140.00    8.01
 -10   8   3  149.37    7.30
   9  -8  -3   68.21    3.93
   9  -8  -3   69.39    4.11
  -9   8   3   62.75    3.94
  -9   8   3   69.39    4.72
   8  -8  -3   48.55    3.13
   8  -8  -3   44.34    2.96
  -8   8   3   45.24    3.02
  -8   8   3   44.37    3.57
   7  -8  -3  199.53    9.13
   7  -8  -3  199.28    8.91
  -7   8   3  196.44    9.06
  -7   8   3  202.20    9.88
   6  -8  -3    1.27    0.56
   6  -8  -3    1.81    0.81
  -6   8   3    1.66    1.04
   5  -8  -3  420.01   17.50
   5  -8  -3  418.35   17.83
  -5   8   3  447.62   18.62
   4  -8  -3  111.09    5.53
   4  -8  -3  112.08    5.19
  -4   8   3  119.51    6.16
   3  -8  -3    0.53    0.49
   3  -8  -3    0.50    0.37
  -3   8   3    1.07    0.66
   2  -8  -3  425.52   18.14
   2  -8  -3  450.21   17.67
  -2   8   3  446.75   18.74
   1  -8  -3  257.21   11.35
   1  -8  -3  267.87   10.74
  -1   8   3  272.30   11.90
   0  -8  -3  276.63   11.71
   0  -8  -3  289.95   10.94
   0   8   3  289.00   12.22
   0   8   3  240.65   10.91
  -1  -8  -3  431.37   18.45
  -1  -8  -3  446.37   17.61
  -1  -8  -3  446.44   17.55
   1   8   3  467.27   18.97
  -2  -8  -3    1.90    0.19
  -2  -8  -3    0.86    0.54
   2   8   3    4.07    0.95
  -3  -8  -3  252.56   10.99
   3   8   3  250.77   11.31
  -4  -8  -3  448.95   18.27
  -4  -8  -3  415.11   16.97
   4   8   3  447.93   18.61
  -5  -8  -3   12.11    0.72
  -5  -8  -3   11.98    0.67
   5   8   3    8.63    1.48
  -6  -8  -3  153.27    7.55
  -6  -8  -3  158.20    6.55
  -6  -8  -3  155.43    6.47
   6   8   3  163.02    7.86
   6   8   3  163.39    6.61
  -7  -8  -3  255.97   11.84
   7   8   3  275.76   12.17
   7   8   3  266.86   10.90
  -8  -8  -3   69.26    4.16
   8   8   3   69.11    3.31
   8   8   3   61.25    4.11
  -9  -8  -3  174.69    8.41
   9   8   3  164.97    8.33
 -10  -8  -3   80.77    4.91
  10   8   3   76.94    4.72
  10   8   3   82.95    4.11
 -11  -8  -3    7.25    1.52
  11   8   3    9.90    1.29
 -12  -8  -3  126.58    6.97
  12   8   3  117.59    5.91
 -13  -8  -3   41.01    3.57
  12  -9  -3    4.66    1.21
 -12   9   3    7.35    1.38
 -12   9   3    6.97    1.77
  11  -9  -3   35.73    3.00
 -11   9   3   37.14    3.66
 -10   9   3   81.94    5.79
 -10   9   3   91.08    4.98
   9  -9  -3    8.88    1.40
   9  -9  -3   10.19    1.57
  -9   9   3    8.28    1.41
  -9   9   3    9.02    1.87
   8  -9  -3  184.45    8.45
   8  -9  -3  171.81    8.12
  -8   9   3  174.38    9.24
  -8   9   3  172.56    8.29
   7  -9  -3  122.26    5.91
   7  -9  -3  122.61    6.15
  -7   9   3  119.87    6.90
  -7   9   3  120.16    6.08
   6  -9  -3   46.78    3.12
   6  -9  -3   44.72    2.99
  -6   9   3   43.58    3.47
   5  -9  -3  312.42   13.22
  -5   9   3  321.38   14.42
   4  -9  -3  238.45   10.70
   4  -9  -3  241.52   10.25
  -4   9   3  249.64   11.46
   3  -9  -3   40.61    2.69
   3  -9  -3   40.58    2.27
  -3   9   3   41.33    3.21
   2  -9  -3  485.89   20.77
   2  -9  -3  501.78   20.14
  -2   9   3  526.89   21.51
   1  -9  -3  105.37    4.48
   1  -9  -3   97.29    5.13
  -1   9   3  105.77    5.69
   0  -9  -3  100.41    5.22
   0  -9  -3  107.08    4.43
   0   9   3  104.78    5.64
  -1  -9  -3  307.75   12.25
  -1  -9  -3  298.78   13.27
   1   9   3  322.01   13.79
  -2  -9  -3    6.89    0.44
  -2  -9  -3    6.78    0.45
  -2  -9  -3    7.03    1.17
   2   9   3    6.64    1.27
   3   9   3  437.55   18.73
  -4  -9  -3  305.58   13.93
   4   9   3  339.57   14.39
  -5  -9  -3    0.28    0.62
  -5  -9  -3    0.00    0.15
  -5  -9  -3    0.36    0.21
   5   9   3   -0.55    0.55
  -6  -9  -3  254.97   11.53
  -6  -9  -3  245.36   10.19
   6   9   3  264.76   11.78
  -7  -9  -3  128.57    5.70
  -7  -9  -3  144.47    7.05
   7   9   3  139.95    7.11
   7   9   3  131.24    5.73
  -8  -9  -3   -1.42    0.62
   8   9   3   -0.78    0.60
  -9  -9  -3   78.82    4.97
   9   9   3   82.28    3.96
   9   9   3   82.91    4.99
 -10  -9  -3    1.11    0.96
  10   9   3    1.67    0.54
  10   9   3    1.85    0.90
 -11  -9  -3  121.51    6.90
 -12  -9  -3   74.05    5.11
  12 -10  -3   -0.44    0.68
 -12  10   3    0.35    0.95
 -12  10   3   -1.05    0.71
  11 -10  -3   83.10    4.97
 -11  10   3   80.58    4.90
 -11  10   3   80.25    5.87
  10 -10  -3   48.34    3.52
  10 -10  -3   50.49    3.46
 -10  10   3   45.61    4.28
 -10  10   3   46.96    3.39
   9 -10  -3   -0.77    0.55
   9 -10  -3   -0.59    0.69
  -9  10   3   -0.34    0.61
  -9  10   3   -0.02    0.80
   8 -10  -3  139.84    7.04
   8 -10  -3  145.35    6.86
  -8  10   3  131.92    7.86
  -8  10   3  138.67    6.97
   7 -10  -3   68.23    3.78
   7 -10  -3   63.53    3.98
  -7  10   3   64.36    4.78
   6 -10  -3   79.80    4.50
   6 -10  -3   81.73    4.19
  -6  10   3   75.66    5.19
   5 -10  -3  352.95   14.65
   5 -10  -3  340.69   15.10
  -5  10   3  362.36   16.09
   4 -10  -3   13.67    1.66
   4 -10  -3   13.98    1.35
  -4  10   3   14.83    1.97
   3 -10  -3  133.78    6.81
   3 -10  -3  145.81    6.27
  -3  10   3  144.81    7.57
   2 -10  -3  324.43   12.86
   2 -10  -3  294.76   13.99
  -2  10   3  323.57   14.33
  -1  10   3   29.61    2.63
   0 -10  -3  250.17   11.88
   0 -10  -3  276.85   10.89
   0  10   3  281.39   12.48
  -1 -10  -3  185.76    7.33
  -1 -10  -3  174.79    7.38
  -1 -10  -3  177.85    8.48
   1  10   3  186.21    8.98
  -2 -10  -3   13.09    0.71
  -2 -10  -3   12.58    1.55
  -2 -10  -3   11.95    0.71
   2  10   3   14.78    2.28
  -3 -10  -3  360.18   16.00
   3  10   3  383.74   16.55
  -4 -10  -3   74.03    4.51
   4  10   3   79.40    4.84
  -5 -10  -3   13.86    1.87
   5  10   3   16.93    2.06
  -6 -10  -3  246.44   11.66
   6  10   3  260.52   11.88
  -7 -10  -3    3.72    0.45
  -7 -10  -3    3.64    1.22
   7  10   3    4.16    1.25
  -8 -10  -3   62.65    4.51
   8  10   3   70.37    4.47
  -9 -10  -3  149.86    8.20
   9  10   3  164.13    8.11
 -10 -10  -3    6.06    1.55
  10  10   3    3.48    1.19
 -11 -10  -3   50.72    4.11
  11 -11  -3   76.35    4.71
 -11  11   3   75.63    4.69
 -11  11   3   68.27    5.57
  10 -11  -3   38.51    3.31
  10 -11  -3   44.01    3.22
 -10  11   3   39.68    3.13
 -10  11   3   41.30    4.12
   9 -11  -3   12.52    1.84
  -9  11   3   12.72    2.43
  -9  11   3   13.59    1.92
   8 -11  -3   93.77    5.39
   8 -11  -3   97.36    5.13
  -8  11   3   91.92    5.22
  -8  11   3   92.42    6.25
   7 -11  -3   23.38    2.25
   7 -11  -3   22.71    2.04
  -7  11   3   20.92    2.68
   6 -11  -3   65.61    3.58
   6 -11  -3   62.19    3.90
  -6  11   3   57.50    4.59
   5 -11  -3  268.56   12.33
   5 -11  -3  291.85   12.33
  -5  11   3  271.16   13.29
   4 -11  -3    0.06    0.46
   4 -11  -3    1.16    0.75
  -4  11   3    0.59    0.76
   3 -11  -3  260.86   10.80
   3 -11  -3  254.03   11.55
  -3  11   3  257.27   12.35
   2 -11  -3  254.83   10.54
   2 -11  -3  245.58   11.39
  -2  11   3  261.51   12.20
   1 -11  -3    4.10    1.04
   1 -11  -3    5.29    0.70
  -1  11   3    4.15    1.35
   0 -11  -3  221.31    8.77
   0 -11  -3  206.34    9.89
   0  11   3  212.88   10.41
  -1 -11  -3  160.42    7.86
  -1 -11  -3  164.52    6.55
  -1 -11  -3  154.71    6.68
   1  11   3  159.87    8.29
  -2 -11  -3   79.36    4.81
  -2 -11  -3   84.79    3.46
   2  11   3   86.11    5.22
  -3 -11  -3  273.38   12.79
   3  11   3  294.18   13.23
  -4 -11  -3   24.40    2.52
   4  11   3   30.20    2.78
  -5 -11  -3  116.60    6.66
   5  11   3  133.49    7.04
  -6 -11  -3  137.18    7.58
   6  11   3  153.16    7.82
  -7 -11  -3    2.65    1.37
   7  11   3    3.01    1.12
  -8 -11  -3   64.64    4.72
   8  11   3   78.62    4.85
  -9 -11  -3   62.98    4.59
 -10 -11  -3   23.39    2.82
  10  11   3   19.09    2.52
  10 -12  -3    6.01    1.49
  10 -12  -3    5.76    1.28
 -10  12   3    4.91    1.22
 -10  12   3    4.12    1.61
   9 -12  -3   78.40    4.49
   9 -12  -3   75.35    4.69
  -9  12   3   68.01    4.44
  -9  12   3   66.29    5.50
   8 -12  -3  140.72    7.42
   8 -12  -3  151.65    7.14
  -8  12   3  139.35    7.28
  -8  12   3  138.88    8.52
   7 -12  -3   13.83    1.89
   7 -12  -3   15.56    1.70
  -7  12   3   11.03    2.22
   6 -12  -3   64.16    4.11
   6 -12  -3   64.55    3.70
  -6  12   3   62.66    4.94
   5 -12  -3  123.81    6.74
   5 -12  -3  137.18    6.23
  -5  12   3  131.02    7.67
   4 -12  -3   -0.29    0.49
   4 -12  -3    0.67    0.75
  -4  12   3   -0.25    0.64
   3 -12  -3   78.29    3.81
   3 -12  -3   73.59    4.49
  -3  12   3   74.37    5.12
   2 -12  -3   32.33    2.76
   2 -12  -3   34.52    2.05
  -2  12   3   35.96    3.25
   1 -12  -3   62.32    3.01
   1 -12  -3   57.10    3.94
  -1  12   3   65.48    4.61
   0 -12  -3  324.76   14.85
   0  12   3  348.09   15.59
  -1 -12  -3   80.09    5.08
  -1 -12  -3   90.65    3.81
   1  12   3   93.79    5.70
  -2 -12  -3   29.94    2.90
  -2 -12  -3   40.44    1.81
   2  12   3   35.16    3.28
  -3 -12  -3  101.82    5.94
   3  12   3  111.53    6.41
  -4 -12  -3    0.50    0.90
   4  12   3    1.51    1.08
  -5 -12  -3  144.40    8.05
   5  12   3  159.32    8.26
  -6 -12  -3  124.24    7.34
   6  12   3  144.19    7.58
  -7 -12  -3    2.96    1.38
   7  12   3    2.29    1.16
  -8 -12  -3   69.38    5.04
   8  12   3   79.95    5.05
  -9 -12  -3   29.45    3.15
   9  12   3   30.56    3.11
   9 -13  -3   28.26    2.61
   9 -13  -3   28.49    2.93
  -9  13   3   28.53    2.72
  -9  13   3   28.15    3.53
   8 -13  -3   13.38    1.98
   8 -13  -3   15.68    2.14
  -8  13   3   17.69    2.88
  -8  13   3   16.31    2.21
   7 -13  -3   19.84    1.95
  -7  13   3   11.84    2.43
   6 -13  -3  170.45    7.68
   6 -13  -3  159.28    8.22
  -6  13   3  160.18    9.31
   5 -13  -3   65.57    3.65
   5 -13  -3   64.62    4.25
  -5  13   3   64.78    5.01
   4 -13  -3    9.21    1.61
   4 -13  -3    9.03    1.23
  -4  13   3    8.90    2.30
   3 -13  -3   89.03    4.32
   3 -13  -3   83.58    5.15
  -3  13   3   90.55    6.05
   2 -13  -3    9.28    1.07
   2 -13  -3    8.86    1.56
  -2  13   3    8.11    1.94
   1 -13  -3   93.51    5.53
   1 -13  -3   95.76    4.35
  -1  13   3   96.36    6.12
   0 -13  -3   80.57    4.64
   0 -13  -3  100.07    5.64
   0  13   3  107.48    6.33
  -1 -13  -3    5.91    1.49
   1  13   3    6.42    1.72
  -2 -13  -3  169.82    8.97
   2  13   3  186.22    9.57
   3  13   3  132.38    7.61
  -4 -13  -3    9.81    1.85
   4  13   3   10.58    1.98
  -5 -13  -3  157.28    8.60
   5  13   3  165.93    8.80
  -6 -13  -3   52.83    4.29
   6  13   3   57.61    4.43
  -7 -13  -3   15.85    2.46
   7  13   3   17.30    2.50
  -8 -13  -3   80.42    5.65
   8  13   3   86.68    5.54
   8 -14  -3    4.18    1.35
   8 -14  -3    4.82    1.15
  -8  14   3    3.72    1.15
  -8  14   3    4.41    1.73
   7 -14  -3   29.56    2.82
   7 -14  -3   33.72    3.00
  -7  14   3   27.46    3.62
   6 -14  -3  104.31    5.32
   6 -14  -3   97.53    5.83
  -6  14   3  102.17    7.08
   5 -14  -3    8.41    1.21
   5 -14  -3    8.19    1.62
  -5  14   3   11.10    2.25
   4 -14  -3   34.68    3.18
   4 -14  -3   39.17    2.52
  -4  14   3   35.55    3.88
  -3  14   3  141.43    8.46
   2 -14  -3    2.33    0.65
  -2  14   3    2.78    1.32
   1 -14  -3   75.40    4.39
  -1  14   3   78.53    5.69
   0 -14  -3   61.47    4.44
   0  14   3   69.47    5.22
  -1 -14  -3   12.09    2.10
   1  14   3   11.76    2.24
  -2 -14  -3  139.44    7.96
   2  14   3  157.54    8.65
  -3 -14  -3   70.01    4.91
   3  14   3   78.78    5.57
  -4 -14  -3    9.69    1.91
   4  14   3    7.03    1.89
  -5 -14  -3  141.18    8.10
   5  14   3  146.05    8.35
  -6 -14  -3    8.98    1.93
   6  14   3    6.97    1.87
   6 -15  -3   51.47    4.00
   6 -15  -3   62.07    3.63
  -6  15   3   53.86    5.10
   5 -15  -3   -0.18    0.75
   5 -15  -3   -0.71    0.95
  -5  15   3   -0.44    0.76
   4 -15  -3   52.29    4.07
   4 -15  -3   54.84    3.23
  -4  15   3   56.85    5.06
   3 -15  -3   77.75    5.10
  -3  15   3   77.05    5.85
   2 -15  -3   20.43    2.62
  -2  15   3   20.57    3.20
   1 -15  -3  115.18    6.87
  -1  15   3  124.60    7.80
   0 -15  -3   61.10    4.58
   0  15   3   69.11    5.39
  -1 -15  -3    2.45    1.28
   1  15   3    3.44    1.60
  -2 -15  -3   53.59    4.32
   2  15   3   57.33    4.83
  -3 -15  -3    2.34    1.24
   3  15   3    4.04    1.71
  -4 -15  -3   58.73    4.73
   4  15   3   69.62    5.24
  -1  13  -4   80.11    6.01
   1 -13   4   75.21    4.84
   1 -13   4   84.37    5.14
  -2  13  -4    8.61    2.13
  -3  13  -4   28.80    3.65
   3 -13   4   29.63    2.65
   3 -13   4   24.87    2.43
  -4  13  -4  105.04    7.72
   4 -13   4  126.55    6.31
  -5  13  -4   10.89    2.52
   5 -13   4   11.10    1.65
   3  12  -4    7.97    1.78
  -3 -12   4    6.05    1.23
  -3 -12   4    6.39    1.58
   2  12  -4  140.40    7.95
  -2 -12   4  141.89    7.59
  -2 -12   4  140.41    6.98
   1  12  -4   40.91    3.80
  -1 -12   4   39.79    2.83
  -1 -12   4   33.29    3.18
   0  12  -4   26.85    3.24
   0 -12   4   23.17    2.75
  -1  12  -4  105.64    7.71
   1 -12   4  101.48    5.82
   1 -12   4  114.52    5.75
  -2  12  -4    9.73    2.36
   2 -12   4   13.79    1.83
   2 -12   4   14.43    1.89
  -3  12  -4   39.72    4.18
   3 -12   4   36.16    2.86
   3 -12   4   41.18    2.96
  -4  12  -4   61.13    5.30
   4 -12   4   57.57    3.70
   4 -12   4   64.35    3.96
   5 -12   4   -0.74    0.67
  -6  12  -4   67.83    5.89
   6 -12   4   63.32    3.91
   6 -12   4   78.59    4.47
  -7  12  -4   44.70    4.94
   7 -12   4   54.05    3.64
  -8  12  -4   -1.79    1.05
   8 -12   4   -1.17    0.69
  -5 -11   4   38.79    3.00
  -5 -11   4   38.09    3.44
  -4 -11   4   21.65    2.65
  -4 -11   4   18.13    2.05
   3  11  -4   56.79    4.07
  -3 -11   4   54.42    3.91
  -3 -11   4   49.84    3.45
   2  11  -4   99.74    6.00
  -2 -11   4   94.37    5.19
   1  11  -4   17.39    2.56
  -1 -11   4   17.51    1.84
  -1 -11   4   15.18    1.97
   0  11  -4   65.88    4.89
   0 -11   4   70.76    4.05
   0 -11   4   65.74    4.15
  -1  11  -4  111.31    6.88
   1 -11   4  116.37    5.67
   1 -11   4   95.39    5.58
  -2  11  -4   -0.16    0.93
   2 -11   4   -0.08    0.64
   2 -11   4    0.16    0.65
  -3  11  -4  131.59    8.00
   3 -11   4  123.05    6.38
   3 -11   4  135.00    6.54
   4 -11   4  118.01    5.77
   4 -11   4   95.47    5.35
  -5  11  -4   19.19    3.13
   5 -11   4   24.00    2.23
   5 -11   4   17.80    1.81
  -6  11  -4  143.67    9.35
   6 -11   4  167.13    7.78
  -7  11  -4   57.49    5.54
   7 -11   4   72.84    4.27
  -8  11  -4    4.81    2.05
   8 -11   4    6.31    1.30
  -9  11  -4   59.19    5.78
   9 -11   4   69.13    4.36
 -10  11  -4    0.23    0.95
  10 -11   4   -0.45    0.84
  -6 -10   4    4.47    1.29
  -6 -10   4    2.31    0.93
  -5 -10   4   81.39    5.09
  -5 -10   4   76.23    4.53
  -4 -10   4   -0.92    0.60
  -4 -10   4   -0.53    0.72
   3  10  -4  106.49    5.90
  -3 -10   4  104.31    5.43
  -3 -10   4  100.54    5.78
   2  10  -4  126.48    6.88
  -2 -10   4  128.15    6.26
  -2 -10   4  118.53    6.48
   1  10  -4    0.06    0.85
  -1 -10   4   -0.60    0.60
   0  10  -4  138.61    7.52
   0 -10   4  123.52    6.54
   0 -10   4  132.85    6.47
  -1  10  -4  124.47    7.24
   1 -10   4  129.25    6.23
   1 -10   4  119.72    6.20
  -2  10  -4    4.52    1.49
   2 -10   4    4.19    0.95
   2 -10   4    5.08    1.04
  -3  10  -4  186.99   10.00
   3 -10   4  187.38    8.54
   3 -10   4  177.23    8.86
  -4  10  -4   50.23    4.57
   4 -10   4   61.23    3.59
   4 -10   4   57.44    3.35
  -5  10  -4   38.00    3.96
   5 -10   4   40.52    2.91
   5 -10   4   39.01    2.57
  -6  10  -4  106.49    7.40
   6 -10   4  117.44    5.91
  -7  10  -4    1.78    1.49
   7 -10   4    2.08    0.95
   7 -10   4    1.16    0.66
  -8  10  -4   53.72    5.18
   8 -10   4   58.31    4.22
  -9  10  -4   99.60    7.59
   9 -10   4  111.49    5.87
 -10  10  -4    0.56    1.38
  10 -10   4   -0.55    0.77
 -11  10  -4   81.26    6.92
  11 -10   4   84.75    5.10
   7   9  -4    4.89    1.19
  -7  -9   4    5.05    1.27
  -7  -9   4    5.57    1.47
  -6  -9   4   20.15    2.45
  -6  -9   4   23.51    2.29
   5   9  -4  117.84    6.10
  -5  -9   4  128.65    6.39
  -5  -9   4  130.15    6.81
   4   9  -4   -0.01    0.63
  -4  -9   4    0.51    0.63
  -4  -9   4    0.17    0.66
   3   9  -4   88.47    5.04
  -3  -9   4   89.00    4.78
  -3  -9   4   87.40    5.01
   2   9  -4   49.58    3.51
  -2  -9   4   44.87    3.17
  -2  -9   4   46.35    3.02
   1   9  -4   25.67    2.51
  -1  -9   4   23.25    2.07
  -1  -9   4   20.36    1.94
   0   9  -4  216.52   10.71
   0  -9   4  223.24    9.90
   0  -9   4  224.68    9.98
  -1   9  -4   32.58    3.11
   1  -9   4   34.65    2.45
   2  -9   4   94.09    4.94
   2  -9   4  100.29    5.05
  -3   9  -4  479.72   21.89
   3  -9   4  515.84   20.59
   3  -9   4  490.62   20.36
  -4   9  -4   29.05    3.22
   4  -9   4   28.62    2.07
   4  -9   4   30.77    2.36
  -5   9  -4   67.24    5.15
   5  -9   4   67.67    3.91
   5  -9   4   64.50    3.55
  -6   9  -4   81.88    6.07
   6  -9   4   85.93    4.30
   6  -9   4   88.91    4.73
  -7   9  -4    8.74    2.08
   7  -9   4   12.18    1.66
   7  -9   4    9.98    1.19
  -8   9  -4  122.79    9.67
  -8   9  -4  140.94    6.45
   8  -9   4  154.32    7.23
   8  -9   4  155.58    6.65
  -9   9  -4   71.38    3.63
  -9   9  -4   69.28    5.79
   9  -9   4   72.29    3.75
 -10   9  -4   16.76    3.29
  10  -9   4   17.42    2.16
 -11   9  -4  116.07    8.49
  11  -9   4  135.11    6.81
 -12   9  -4    4.44    1.88
  12  -9   4    4.42    1.21
   8   8  -4   40.32    3.19
  -8  -8   4   40.70    3.12
  -8  -8   4   34.23    3.23
   7   8  -4    1.32    0.94
  -7  -8   4    2.19    0.96
  -7  -8   4    2.87    1.08
   6   8  -4   77.22    4.46
  -6  -8   4   77.18    4.44
  -6  -8   4   65.31    4.99
   5   8  -4   31.51    2.46
   5   8  -4   25.72    2.03
  -5  -8   4   26.76    2.52
  -5  -8   4   26.68    2.31
   4   8  -4  100.10    5.25
  -4  -8   4  103.75    5.35
  -4  -8   4  102.99    5.52
   3   8  -4  255.30   11.13
  -3  -8   4  243.85   10.90
  -3  -8   4  240.60   11.07
   2   8  -4   53.93    3.60
  -2  -8   4   57.87    3.49
   1   8  -4  102.32    5.54
  -1  -8   4   94.97    5.01
  -1  -8   4   95.65    4.96
   0   8  -4  338.65   15.13
   0  -8   4  343.34   14.40
   0  -8   4  336.58   14.37
  -1   8  -4   46.96    3.58
   1  -8   4   42.97    2.76
   1  -8   4   43.30    2.82
  -2   8  -4  227.90   11.17
   2  -8   4  238.41   10.68
   2  -8   4  227.87   10.02
  -3   8  -4  489.58   21.61
   3  -8   4  495.42   20.13
   3  -8   4  495.25   20.36
  -4   8  -4    7.88    1.76
   4  -8   4    7.62    1.06
   4  -8   4    6.78    1.13
  -5   8  -4  246.48   12.29
   5  -8   4  238.53   10.35
   5  -8   4  248.39   10.77
  -6   8  -4  291.30   14.36
   6  -8   4  294.79   12.69
   6  -8   4  291.66   12.21
  -7   8  -4    0.21    1.09
   7  -8   4    0.62    0.70
   7  -8   4    0.44    0.43
  -8   8  -4   89.83    4.33
  -8   8  -4   93.89    6.60
   8  -8   4   97.96    5.06
   8  -8   4   91.47    4.44
  -9   8  -4   83.61    6.34
  -9   8  -4   79.82    4.01
   9  -8   4   89.50    4.78
 -10   8  -4   60.88    3.22
 -10   8  -4   65.26    5.58
  10  -8   4   63.63    4.44
 -11   8  -4   79.44    6.42
  11  -8   4   90.53    5.03
 -12   8  -4   -0.89    1.00
  12  -8   4   -0.28    0.74
 -13   8  -4   64.54    5.89
  13  -8   4   69.14    4.36
  -9  -7   4  105.93    6.23
   8   7  -4   91.72    5.44
  -8  -7   4  105.14    5.60
  -8  -7   4   93.69    5.64
   7   7  -4    0.89    0.79
  -7  -7   4   -0.79    0.45
  -7  -7   4    0.45    0.76
   6   7  -4   74.87    4.43
  -6  -7   4   78.89    4.45
  -6  -7   4   78.82    4.67
   5   7  -4   16.37    1.79
  -5  -7   4   16.36    1.87
  -5  -7   4   15.97    1.86
   4   7  -4  126.41    6.29
   4   7  -4  126.54    6.00
  -4  -7   4  132.07    6.37
  -4  -7   4  119.51    6.14
   3   7  -4  455.83   19.16
   3   7  -4  473.81   19.29
  -3  -7   4  455.48   19.13
  -3  -7   4  458.79   19.23
   2   7  -4   49.25    3.18
  -2  -7   4   48.84    3.04
  -2  -7   4   49.48    3.40
   1   7  -4   49.34    3.37
  -1  -7   4   53.86    3.10
  -1  -7   4   53.25    3.08
   0   7  -4  143.53    7.29
   0  -7   4  148.58    6.71
   0  -7   4  145.45    6.75
  -1   7  -4    1.76    0.88
   1  -7   4    2.54    0.68
   1  -7   4    3.50    0.70
  -2   7  -4  260.05   11.86
   2  -7   4  244.95   10.66
   2  -7   4  252.36   10.90
  -3   7  -4  197.31    9.74
   3  -7   4  192.54    8.42
   3  -7   4  197.39    8.71
  -4   7  -4   22.50    2.62
   4  -7   4   24.02    1.63
   4  -7   4   24.54    1.94
  -5   7  -4  311.38   14.89
   5  -7   4  323.33   13.57
   5  -7   4  322.55   13.13
  -6   7  -4  120.04    7.12
   6  -7   4  112.79    5.23
   6  -7   4  117.87    5.73
  -7   7  -4   30.26    3.20
   7  -7   4   31.95    1.91
   7  -7   4   30.46    2.36
  -8   7  -4  105.97    6.97
  -8   7  -4  102.83    4.82
   8  -7   4  109.03    4.94
   8  -7   4  114.62    5.56
  -9   7  -4   -0.03    0.37
   9  -7   4    0.66    0.67
 -10   7  -4  105.89    7.32
 -10   7  -4  112.30    5.12
  10  -7   4  119.84    5.94
 -11   7  -4   90.03    7.71
 -11   7  -4   99.40    4.73
  11  -7   4  112.57    5.62
 -12   7  -4    2.98    1.65
  12  -7   4    2.93    1.02
 -13   7  -4  125.42    8.56
  13  -7   4  130.08    6.79
  10   6  -4    8.32    1.50
 -10  -6   4   10.48    1.84
   9   6  -4   70.24    4.59
  -9  -6   4   81.19    4.94
   8   6  -4   47.66    3.42
  -8  -6   4   49.67    3.56
   7   6  -4   27.14    2.40
  -7  -6   4   27.70    2.52
   6   6  -4  114.16    5.85
  -6  -6   4  111.59    5.90
  -6  -6   4  111.54    5.80
   5   6  -4   -0.51    0.45
   5   6  -4    0.24    0.34
  -5  -6   4   -0.08    0.51
  -5  -6   4    0.69    0.53
   4   6  -4  132.00    6.04
   4   6  -4  137.62    6.48
  -4  -6   4  128.28    6.40
  -4  -6   4  133.36    6.41
   3   6  -4  227.08    9.98
  -3  -6   4  221.92    9.88
   2   6  -4    9.14    1.23
   2   6  -4   10.28    1.22
  -2  -6   4    8.71    1.12
  -2  -6   4    6.35    1.01
   1   6  -4  508.77   20.69
  -1  -6   4  500.47   20.28
  -1  -6   4  483.69   20.33
   0   6  -4  365.61   15.48
   0  -6   4  369.08   14.88
   0  -6   4  344.94   14.94
  -1   6  -4   68.73    4.01
   1  -6   4   60.75    3.41
   1  -6   4   63.44    3.27
  -2   6  -4  361.89   15.44
   2  -6   4  342.30   14.30
   2  -6   4  346.29   14.57
  -3   6  -4  234.07   10.99
   3  -6   4  232.54   10.06
   3  -6   4  232.60    9.75
  -4   6  -4   37.29    3.18
   4  -6   4   40.29    2.14
   4  -6   4   39.87    2.48
  -5   6  -4  368.90   16.39
   5  -6   4  347.26   15.00
   5  -6   4  365.24   14.58
  -6   6  -4   34.01    3.25
   6  -6   4   36.41    1.92
   6  -6   4   31.22    2.56
  -7   6  -4  255.26   12.37
  -7   6  -4  242.08   10.19
   7  -6   4  248.97   10.26
   7  -6   4  251.68   10.84
  -8   6  -4  186.26    9.95
   8  -6   4  182.55    8.37
  -9   6  -4   10.27    2.13
  -9   6  -4   12.63    1.05
   9  -6   4   12.62    1.54
 -10   6  -4   92.78    4.33
 -10   6  -4   87.99    6.36
  10  -6   4  100.39    5.04
 -11   6  -4   60.97    5.18
  11  -6   4   65.68    3.91
 -12   6  -4   22.44    1.71
  12  -6   4   20.74    2.18
 -13   6  -4  147.54    9.53
  13  -6   4  174.22    8.12
 -14   6  -4    7.31    2.06
  14  -6   4   13.19    1.92
  11   5  -4    9.06    1.58
 -11  -5   4   13.34    2.06
  10   5  -4   37.51    3.70
 -10  -5   4   45.11    3.48
   9   5  -4  235.24   11.38
  -9  -5   4  259.08   11.60
   8   5  -4    9.73    1.52
  -8  -5   4   13.72    1.78
   7   5  -4   33.89    2.60
  -7  -5   4   29.94    2.58
   6   5  -4   24.26    2.11
  -6  -5   4   21.51    2.02
   5   5  -4    1.40    0.65
   5   5  -4    1.37    0.34
  -5  -5   4    0.87    0.50
   4   5  -4  318.00   13.78
   4   5  -4  327.03   13.27
  -4  -5   4  327.66   13.81
   3   5  -4   81.02    4.25
   3   5  -4   83.22    4.01
  -3  -5   4   81.55    4.22
  -3  -5   4   81.31    4.15
   2   5  -4  117.16    5.98
   2   5  -4  124.74    5.82
  -2  -5   4  127.85    5.68
  -2  -5   4  117.53    5.71
   1   5  -4  475.52   18.93
  -1  -5   4  443.72   18.74
  -1  -5   4  458.41   18.63
   0   5  -4   44.91    2.81
   0  -5   4   41.40    2.34
   0  -5   4   43.10    2.53
  -1   5  -4  231.04   10.28
   1  -5   4  229.22    9.51
   1  -5   4  223.93    9.75
  -2   5  -4  497.00   20.47
   2  -5   4  485.75   19.43
   2  -5   4  474.94   19.73
  -3   5  -4    1.31    0.68
   3  -5   4    0.75    0.34
   3  -5   4    2.24    0.60
  -4   5  -4  183.92    8.95
   4  -5   4  182.69    7.58
   4  -5   4  181.26    8.02
  -5   5  -4  370.46   16.41
  -5   5  -4  428.30   18.26
   5  -5   4  434.52   16.56
   5  -5   4  428.61   17.09
  -6   5  -4    0.60    0.77
   6  -5   4    0.76    0.30
   6  -5   4   -0.33    0.46
  -7   5  -4  394.57   17.72
  -7   5  -4  387.72   15.66
   7  -5   4  390.87   16.35
   7  -5   4  397.30   15.72
  -8   5  -4  132.14    5.83
  -8   5  -4  140.86    7.79
   8  -5   4  140.77    6.49
  -9   5  -4   88.29    5.88
   9  -5   4   92.85    4.73
 -10   5  -4  188.00    8.10
 -10   5  -4  185.79   10.24
  10  -5   4  203.18    8.84
 -11   5  -4   68.72    3.43
 -11   5  -4   67.41    5.26
  11  -5   4   71.57    4.07
 -12   5  -4   53.47    4.72
 -12   5  -4   57.29    3.04
 -13   5  -4  152.69    6.77
 -13   5  -4  137.40    9.68
  13  -5   4  152.36    7.45
 -14   5  -4   -0.22    1.02
  14  -5   4    0.05    0.76
  11   4  -4   -0.26    0.72
 -11  -4   4    2.28    1.05
  10   4  -4   45.67    3.49
 -10  -4   4   48.85    3.59
   9   4  -4  123.90    6.55
   8   4  -4    1.96    0.89
  -8  -4   4    1.85    0.90
   7   4  -4  165.33    8.07
  -7  -4   4  175.79    8.11
   6   4  -4  126.98    6.28
  -6  -4   4  128.44    6.24
   5   4  -4  204.16    9.37
  -5  -4   4  216.78    9.37
   4   4  -4  225.79    9.23
   4   4  -4  227.64    9.92
  -4  -4   4  225.25    9.81
   3   4  -4  180.59    8.24
   3   4  -4  186.79    7.87
  -3  -4   4  187.12    8.26
  -3  -4   4  190.37    8.16
   2   4  -4  485.97   19.85
   2   4  -4  485.68   19.65
  -2  -4   4  500.75   19.69
  -2  -4   4  473.25   19.79
   0  -4   4    0.09    0.25
   0  -4   4    0.50    0.42
  -3   4  -4   21.20    1.18
  -3   4  -4   25.91    2.08
   3  -4   4   21.30    1.59
   3  -4   4   24.90    1.31
  -4   4  -4  435.27   18.21
  -4   4  -4  385.79   16.68
   4  -4   4  450.85   16.82
   4  -4   4  427.03   17.30
  -6   4  -4    9.69    0.68
  -6   4  -4    8.81    0.64
  -6   4  -4    9.28    1.55
   6  -4   4    7.46    0.98
   6  -4   4   10.15    0.71
  -7   4  -4  210.27    8.91
  -7   4  -4  221.91    8.91
  -7   4  -4  222.46   10.71
   7  -4   4  225.69    9.52
  -8   4  -4   20.55    2.68
  -8   4  -4   15.94    1.11
   8  -4   4   20.78    1.59
  -9   4  -4  120.33    7.10
   9  -4   4  125.97    5.89
 -10   4  -4  136.63    8.03
 -10   4  -4  144.84    6.21
  10  -4   4  146.85    6.77
 -11   4  -4   21.98    2.82
 -11   4  -4   21.76    1.56
  11  -4   4   22.72    2.04
 -12   4  -4  120.78    7.65
  12  -4   4  130.92    6.38
 -13   4  -4  106.18    7.28
 -13   4  -4  118.50    5.43
  13  -4   4  113.37    5.89
 -14   4  -4    0.11    1.04
 -14   4  -4   -0.48    0.65
  14  -4   4    0.52    0.76
 -15   4  -4   19.57    3.04
  15  -4   4   25.37    2.50
  12   3  -4   47.14    3.73
 -12  -3   4   51.92    3.89
  11   3  -4    0.63    0.87
 -11  -3   4    0.95    0.86
  10   3  -4  191.33    9.35
 -10  -3   4  194.14    9.34
   9   3  -4  115.85    6.15
  -9  -3   4  114.78    6.05
   8   3  -4   17.30    1.93
  -8  -3   4   19.66    1.95
   7   3  -4  122.35    6.21
  -7  -3   4  127.18    6.20
   6   3  -4  149.46    6.98
  -6  -3   4  143.20    6.85
   5   3  -4  307.95   13.36
  -5  -3   4  321.23   13.30
   4   3  -4  348.62   14.72
  -4  -3   4  356.28   14.62
   3   3  -4    9.47    1.08
   3   3  -4   10.02    0.77
  -3  -3   4    8.23    0.68
  -3  -3   4   11.26    1.03
  -2  -3   4  639.39   25.33
   0   3  -4  438.88   17.00
   0   3  -4  407.26   16.97
   0  -3   4  417.48   16.58
   0  -3   4  397.12   16.82
  -2   3  -4  254.06   10.79
  -2   3  -4  221.01    9.82
   2  -3   4  260.43    9.93
   2  -3   4  253.69   10.33
  -3   3  -4  120.50    5.27
  -3   3  -4  136.03    6.42
   3  -3   4  138.03    5.37
   3  -3   4  131.28    5.82
  -4   3  -4  472.38   19.45
   4  -3   4  524.47   19.52
  -5   3  -4  307.25   12.03
  -5   3  -4  293.50   12.02
  -5   3  -4  304.75   13.51
   5  -3   4  303.30   12.61
   5  -3   4  317.82   12.06
  -6   3  -4   38.33    2.88
  -6   3  -4   37.35    1.72
   6  -3   4   38.01    2.20
  -7   3  -4  246.97   11.38
  -7   3  -4  235.92    9.67
  -7   3  -4  238.18    9.71
   7  -3   4  244.17   10.23
  -8   3  -4    7.31    1.52
  -8   3  -4    8.20    0.72
   8  -3   4   11.41    1.16
  -9   3  -4  322.44   15.83
   9  -3   4  327.16   13.65
 -10   3  -4   77.24    3.71
 -10   3  -4   76.99    5.23
  10  -3   4   83.14    4.19
 -11   3  -4   24.26    2.81
 -11   3  -4   25.45    1.69
  11  -3   4   25.34    2.00
 -12   3  -4  171.16    7.49
 -12   3  -4  163.81    9.29
  12  -3   4  172.73    7.98
 -13   3  -4   94.36    4.60
 -13   3  -4   81.56    6.00
  13  -3   4   91.44    4.91
 -14   3  -4   10.96    2.34
 -14   3  -4   16.42    1.71
  14  -3   4   17.68    2.00
 -15   3  -4   78.79    4.34
 -15   3  -4   71.93    5.80
  15  -3   4   81.81    4.79
  12   2  -4   48.31    3.80
 -12  -2   4   55.56    3.94
  11   2  -4    7.21    1.54
 -11  -2   4   11.24    1.75
  10   2  -4  108.29    5.93
   9   2  -4   58.69    3.87
  -9  -2   4   62.04    3.77
   8   2  -4   12.21    1.65
  -8  -2   4   11.81    1.53
   7   2  -4  363.80   15.61
  -7  -2   4  369.61   15.52
   6   2  -4   43.55    2.83
   5   2  -4  228.17    9.93
  -5  -2   4  226.94    9.82
   4   2  -4  459.08   18.71
  -4  -2   4  454.68   18.57
   3   2  -4    5.55    0.82
  -3  -2   4    6.43    0.41
  -3  -2   4    6.94    0.79
   2   2  -4  227.42    9.91
   2   2  -4  242.62    9.60
  -2  -2   4  240.37    9.76
  -2  -2   4  230.57    9.50
   1   2  -4  181.82    7.46
   1   2  -4  180.29    7.60
  -1  -2   4  172.32    7.32
  -1  -2   4  175.19    7.33
  -1  -2   4  171.01    7.54
  -2   2  -4  372.40   14.72
  -2   2  -4  332.26   13.77
   2  -2   4  349.45   14.25
  -3   2  -4  329.82   13.60
  -3   2  -4  354.42   14.75
   3  -2   4  376.47   13.81
   3  -2   4  335.65   14.15
  -4   2  -4  370.38   15.60
  -4   2  -4  373.12   14.26
   4  -2   4  356.82   14.86
  -5   2  -4    0.87    0.46
  -5   2  -4    1.57    0.17
  -5   2  -4    1.64    0.20
   5  -2   4    0.80    0.30
  -6   2  -4  410.77   15.79
  -6   2  -4  391.80   15.74
  -6   2  -4  406.91   17.27
   6  -2   4  394.04   16.26
  -7   2  -4  144.16    5.82
  -7   2  -4  137.18    5.76
  -7   2  -4  137.60    7.15
   7  -2   4  141.14    6.23
  -8   2  -4    4.87    1.20
  -8   2  -4    6.44    0.61
   8  -2   4    5.23    0.78
  -9   2  -4  270.74   12.69
  -9   2  -4  268.52   11.03
 -10   2  -4  105.24    4.80
 -10   2  -4  102.49    6.25
  10  -2   4  111.18    5.22
 -11   2  -4  182.70    9.69
 -11   2  -4  186.68    8.02
  11  -2   4  187.65    8.42
 -12   2  -4  198.72    8.51
 -12   2  -4  178.80   10.05
  12  -2   4  203.62    8.91
 -13   2  -4   28.41    2.28
 -13   2  -4   27.57    3.13
  13  -2   4   28.45    2.36
 -14   2  -4   43.08    2.84
 -14   2  -4   41.25    4.00
  14  -2   4   45.12    3.15
 -15   2  -4  114.07    8.66
  15  -2   4  139.22    6.80
  13   1  -4   65.07    4.55
 -13  -1   4   70.60    4.70
  12   1  -4    7.37    1.56
 -12  -1   4    9.56    1.65
  11   1  -4  104.32    5.99
 -11  -1   4  105.04    5.84
  10   1  -4  208.15   10.00
 -10  -1   4  216.79    9.96
   9   1  -4   35.71    2.90
  -9  -1   4   41.26    2.81
   8   1  -4   33.38    2.59
  -8  -1   4   37.01    2.53
   7   1  -4  245.38   11.09
  -7  -1   4  260.12   11.05
   6   1  -4   56.52    3.31
  -6  -1   4   57.90    3.22
   5   1  -4  582.01   23.91
  -5  -1   4  598.21   23.82
   4   1  -4  365.07   15.03
  -4  -1   4  362.18   14.90
   3   1  -4  157.97    7.09
  -3  -1   4  166.53    6.99
  -2   1  -4    5.55    0.75
  -2   1  -4    4.95    0.31
   2  -1   4    3.87    0.54
   2  -1   4    4.25    0.28
  -5   1  -4  145.32    5.86
  -5   1  -4  148.83    7.11
  -5   1  -4  151.48    5.89
   5  -1   4  146.15    6.33
  -6   1  -4  588.39   24.42
  -7   1  -4  565.43   20.04
  -7   1  -4  468.09   19.85
  -7   1  -4  501.83   21.32
   7  -1   4  481.20   20.22
  -8   1  -4  132.19    5.66
  -8   1  -4  136.33    7.04
   8  -1   4  133.72    6.00
  -9   1  -4  268.71   11.19
  -9   1  -4  279.23   12.75
   9  -1   4  272.33   11.49
 -10   1  -4    1.03    0.84
 -10   1  -4    1.58    0.49
  10  -1   4    1.36    0.58
 -11   1  -4  135.53    6.12
 -11   1  -4  135.50    7.59
  11  -1   4  135.98    6.37
 -12   1  -4  249.47   10.39
 -12   1  -4  223.30   11.81
  12  -1   4  248.31   10.64
 -13   1  -4    1.72    1.07
 -13   1  -4    1.43    0.66
  13  -1   4    1.49    0.72
 -14   1  -4   72.44    5.45
  14  -1   4   81.78    4.54
 -15   1  -4   47.65    3.19
 -15   1  -4   41.28    4.05
  15  -1   4   45.17    3.34
  13   0  -4   44.68    3.61
 -13   0   4   51.13    3.73
  12   0  -4   -0.32    0.83
 -12   0   4    0.21    0.84
 -11   0   4  104.16    5.71
  10   0  -4  113.62    6.16
 -10   0   4  117.98    6.11
   9   0  -4    9.23    1.44
  -9   0   4   11.26    1.40
   8   0  -4  234.48   10.70
  -8   0   4  244.29   10.63
  -7   0   4   13.96    1.46
   6   0  -4  121.46    5.90
  -6   0   4  126.17    5.83
   5   0  -4  257.22   11.07
  -5   0   4  262.62   10.99
   4   0  -4  102.27    4.92
  -4   0   4  109.29    4.88
   3   0  -4  277.17   11.77
  -3   0   4  291.37   11.69
   1   0  -4    6.03    0.64
   1   0  -4    6.35    0.58
  -1   0   4    5.64    0.56
  -1   0   4    7.41    0.59
  -2   0  -4   47.18    2.61
   2   0   4   49.37    1.96
   2   0   4   46.37    1.94
   2   0   4   44.80    2.26
  -4   0  -4  522.90   21.52
  -7   0  -4  156.59    6.62
  -7   0  -4  164.43    7.85
   7   0   4  159.80    6.86
  -8   0  -4  192.30    9.21
   8   0   4  189.17    8.13
  -9   0  -4  418.28   17.33
  -9   0  -4  436.32   18.77
   9   0   4  437.78   17.56
 -10   0  -4    8.28    1.59
 -10   0  -4    8.82    0.94
  10   0   4    7.79    1.09
 -11   0  -4  333.51   13.56
 -11   0  -4  312.20   15.80
  11   0   4  327.23   13.69
 -12   0  -4  110.18    6.73
 -12   0  -4  116.94    5.58
  12   0   4  121.33    5.75
 -13   0  -4   -0.04    0.77
 -13   0  -4   -0.43    0.51
  13   0   4    0.43    0.58
 -14   0  -4  103.12    6.81
 -14   0  -4  130.99    5.96
  14   0   4  109.69    5.87
 -15   0  -4   38.11    3.69
 -15   0  -4   46.87    3.20
  15   0   4   42.19    3.15
  13  -1  -4   20.89    2.53
 -13   1   4   24.89    2.60
  12  -1  -4    4.41    1.19
 -12   1   4    3.96    1.18
  10  -1  -4  101.42    5.70
 -10   1   4  109.48    5.67
   9  -1  -4   18.91    1.98
  -9   1   4   21.43    1.88
   8  -1  -4  332.67   14.46
  -8   1   4  341.25   14.37
   7  -1  -4   23.78    2.19
   6  -1  -4  300.75   13.02
  -6   1   4  315.08   12.97
   5  -1  -4  358.87   14.93
  -5   1   4  358.22   14.13
  -5   1   4  364.32   14.87
   4  -1  -4   86.92    4.14
  -4   1   4   85.92    3.57
  -4   1   4   85.34    4.08
   3  -1  -4  402.81   16.81
  -3   1   4  428.47   16.42
   1  -1  -4   87.89    3.79
   1  -1  -4   84.14    3.86
  -1   1   4   86.43    3.78
  -1   1   4   86.67    3.82
  -1  -1  -4  225.08    9.72
   1   1   4  261.28    9.56
   1   1   4  219.49    9.44
   1   1   4  223.05    9.70
   1   1   4  238.65    9.31
  -2  -1  -4   39.53    2.25
  -2  -1  -4   37.94    1.69
  -2  -1  -4   40.16    1.90
   2   1   4   38.95    1.91
   2   1   4   39.21    1.70
   2   1   4   36.89    2.18
   2   1   4   39.24    1.88
  -5  -1  -4   62.29    3.46
  -5  -1  -4   60.04    2.61
   5   1   4   56.47    2.56
   5   1   4   58.14    2.72
  -6  -1  -4  255.60   10.08
  -6  -1  -4  249.04   11.10
   6   1   4  244.07   10.18
  -7  -1  -4  142.38    7.07
  -7  -1  -4  140.95    6.04
   7   1   4  145.99    6.16
  -8  -1  -4  667.68   27.68
  -9  -1  -4  122.59    5.35
  -9  -1  -4  112.18    6.31
   9   1   4  119.70    5.39
 -10  -1  -4    3.45    0.68
 -10  -1  -4    3.75    1.12
  10   1   4    3.43    0.69
 -11  -1  -4  292.02   13.89
 -11  -1  -4  303.59   12.69
  11   1   4  305.28   12.71
 -12  -1  -4   69.21    4.82
 -12  -1  -4   74.92    3.96
  12   1   4   75.04    4.02
 -13  -1  -4   42.62    2.69
 -13  -1  -4   35.26    3.26
  13   1   4   35.19    2.59
 -14  -1  -4   97.34    5.01
 -14  -1  -4   82.24    5.69
 -15  -1  -4    1.71    0.99
 -15  -1  -4    0.54    0.71
  15   1   4    0.12    0.74
  13  -2  -4    8.31    1.64
 -13   2   4    7.11    1.41
  12  -2  -4   25.65    2.54
 -12   2   4   26.85    2.58
 -11   2   4  124.07    6.47
  10  -2  -4   63.77    3.94
 -10   2   4   55.96    2.86
 -10   2   4   65.29    3.79
   9  -2  -4  172.38    7.94
   9  -2  -4  148.90    6.95
  -9   2   4  160.41    7.02
  -9   2   4  183.03    7.89
   8  -2  -4  125.18    5.97
   8  -2  -4  151.02    6.87
  -8   2   4  148.71    6.71
  -8   2   4  137.86    6.06
   7  -2  -4    1.39    0.66
   7  -2  -4    0.76    0.33
  -7   2   4    3.00    0.75
  -7   2   4    1.21    0.40
   6  -2  -4  291.91   12.09
   6  -2  -4  259.08   11.50
  -6   2   4  306.15   12.07
  -6   2   4  249.33   11.51
  -6   2   4  312.92   11.62
   5  -2  -4  223.10    9.81
   5  -2  -4  234.23   10.03
  -5   2   4  237.89    9.99
  -5   2   4  242.93    9.62
   4  -2  -4    3.31    0.60
  -4   2   4    4.96    0.55
  -4   2   4    7.04    0.76
   1  -2  -4   78.61    3.39
   1  -2  -4   75.67    3.30
   1  -2  -4   76.87    3.30
  -1   2   4   65.81    3.31
  -1   2   4   68.50    3.36
  -1   2   4   71.23    3.27
  -1  -2  -4  217.25    9.27
  -1  -2  -4  219.31    8.89
  -1  -2  -4  225.39    8.88
   1   2   4  205.12    9.23
   1   2   4  210.78    8.87
   1   2   4  223.45    8.88
   1   2   4  241.37    8.94
  -4  -2  -4  111.89    4.41
  -4  -2  -4  103.25    5.07
  -4  -2  -4   94.78    4.37
   4   2   4  109.23    4.35
   4   2   4  100.03    4.34
  -7  -2  -4   11.14    0.91
  -7  -2  -4   12.13    1.45
   7   2   4   10.70    0.88
  -8  -2  -4  360.86   15.69
  -8  -2  -4  360.18   14.67
   8   2   4  359.12   14.60
  -9  -2  -4  140.35    6.16
  -9  -2  -4  132.72    7.07
   9   2   4  137.45    6.07
 -10  -2  -4  190.47    9.28
 -10  -2  -4  184.86    8.23
  10   2   4  187.53    8.15
 -11  -2  -4  253.34   12.75
 -11  -2  -4  290.90   11.89
  11   2   4  284.31   11.76
 -12  -2  -4   29.04    2.19
 -12  -2  -4   26.26    2.77
  12   2   4   29.92    2.15
 -13  -2  -4   91.58    4.80
 -13  -2  -4   80.99    5.39
  13   2   4   90.84    4.69
 -14  -2  -4  143.55    6.87
 -14  -2  -4  121.43    7.35
  14   2   4  134.92    6.62
 -15  -2  -4    0.34    0.80
 -15  -2  -4   -1.65    0.70
  15   2   4   -0.51    0.61
  13  -3  -4    3.09    1.15
 -13   3   4    4.60    1.28
  12  -3  -4   82.78    5.07
 -12   3   4   84.60    4.98
 -11   3   4  140.06    7.09
  10  -3  -4   26.42    2.37
 -10   3   4   25.17    2.26
   9  -3  -4  233.82   10.68
  -9   3   4  239.87   10.60
   8  -3  -4   95.91    4.98
  -8   3   4   97.86    4.95
  -8   3   4   93.27    4.65
   7  -3  -4  145.25    7.12
  -7   3   4  140.22    6.58
  -7   3   4  138.19    6.35
   6  -3  -4  643.82   27.03
  -6   3   4  691.96   26.84
  -6   3   4  676.90   27.05
   5  -3  -4  397.31   17.21
  -5   3   4  444.80   17.12
  -5   3   4  421.88   17.26
   4  -3  -4   27.65    1.70
   4  -3  -4   29.18    1.80
   4  -3  -4   24.37    1.63
  -4   3   4   24.74    1.64
  -4   3   4   26.71    1.70
   2  -3  -4  158.56    7.57
   2  -3  -4  189.83    7.50
  -2   3   4  179.89    7.68
  -2   3   4  182.71    7.79
  -2   3   4  183.61    7.58
   1  -3  -4   62.52    2.83
   1  -3  -4   65.44    2.94
  -1   3   4   56.44    3.00
  -1   3   4   66.66    2.95
  -1   3   4   59.19    3.07
   0  -3  -4  281.82   10.64
   0   3   4  234.91   10.83
   0   3   4  271.95   10.45
   0   3   4  257.00   10.90
  -1  -3  -4   10.22    0.61
  -1  -3  -4    8.22    0.84
  -1  -3  -4    9.05    0.69
   1   3   4    8.65    0.67
   1   3   4    8.09    0.55
  -4  -3  -4   16.96    1.02
  -4  -3  -4   13.30    0.82
  -4  -3  -4   13.92    1.53
   4   3   4   13.74    0.78
  -5  -3  -4  354.72   13.58
  -5  -3  -4  311.23   13.36
  -5  -3  -4  341.52   14.32
  -6  -3  -4   10.92    1.33
  -6  -3  -4   12.11    0.96
   6   3   4   11.70    0.82
  -7  -3  -4  404.19   16.06
  -7  -3  -4  384.88   16.87
   7   3   4  396.67   15.83
  -8  -3  -4  542.00   23.39
  -8  -3  -4  577.46   22.55
  -9  -3  -4  123.25    6.80
  -9  -3  -4  137.33    6.12
   9   3   4  136.84    5.90
 -10  -3  -4  163.65    7.34
 -10  -3  -4  155.17    8.12
  10   3   4  164.94    7.15
 -11  -3  -4  340.97   14.32
 -11  -3  -4  316.73   15.12
  11   3   4  353.10   14.13
 -12  -3  -4   -0.11    0.67
 -12  -3  -4   -0.37    0.44
  12   3   4    0.82    0.60
 -13  -3  -4  116.45    5.76
 -13  -3  -4  102.00    6.24
  13   3   4  104.41    5.40
 -14  -3  -4   61.49    3.97
 -14  -3  -4   54.80    4.21
  14   3   4   60.86    3.67
 -15  -3  -4    1.08    1.04
 -15  -3  -4    0.38    0.80
  15   3   4    1.43    0.71
  13  -4  -4   -0.47    0.61
 -13   4   4   -1.04    0.71
  12  -4  -4   80.28    5.13
 -12   4   4   90.30    5.09
 -11   4   4  160.25    7.88
  10  -4  -4    1.00    0.77
 -10   4   4    0.42    0.56
 -10   4   4   -0.03    0.63
   9  -4  -4  174.57    8.17
  -9   4   4  174.06    8.07
  -9   4   4  167.01    7.94
   8  -4  -4  165.21    7.72
  -8   4   4  167.14    7.71
  -8   4   4  163.90    7.64
  -7   4   4   40.41    2.61
  -7   4   4   46.22    2.76
   6  -4  -4  337.02   14.69
  -6   4   4  359.90   14.77
  -6   4   4  362.20   14.76
   5  -4  -4   31.91    2.07
   5  -4  -4   28.20    1.94
  -5   4   4   33.22    2.09
  -5   4   4   30.77    2.04
   2  -4  -4  383.70   15.56
   1  -4  -4  107.87    4.75
   1  -4  -4  105.08    4.54
  -1   4   4  102.73    4.92
  -1   4   4  110.41    4.50
  -1  -4  -4    2.69    0.44
  -1  -4  -4    1.80    0.23
  -1  -4  -4    1.85    0.51
   1   4   4    2.21    0.23
   1   4   4    1.42    0.43
  -3  -4  -4   20.09    0.93
  -3  -4  -4   18.35    1.76
  -3  -4  -4   19.57    1.25
   3   4   4   17.85    0.87
   3   4   4   21.04    0.95
  -6  -4  -4  128.28    5.59
  -6  -4  -4  117.33    6.16
   6   4   4  126.97    5.22
  -7  -4  -4   99.18    4.54
  -7  -4  -4   90.92    5.12
  -8  -4  -4  280.37   11.78
  -8  -4  -4  269.18   12.52
   8   4   4  286.70   11.44
  -9  -4  -4   22.92    2.29
  -9  -4  -4   22.67    1.74
   9   4   4   20.92    1.50
 -10  -4  -4  428.86   19.34
 -10  -4  -4  458.38   18.65
  10   4   4  454.28   18.21
 -11  -4  -4  185.85    8.41
 -11  -4  -4  176.78    9.09
 -12  -4  -4   -0.43    0.57
 -12  -4  -4   -0.26    0.58
  12   4   4   -0.05    0.39
 -13  -4  -4   76.01    5.03
 -13  -4  -4   78.01    4.58
  13   4   4   77.16    4.20
 -14  -4  -4   17.09    2.39
 -14  -4  -4   14.01    1.98
  14   4   4   15.01    1.81
 -15  -4  -4    5.59    1.29
  15   4   4    4.60    0.99
  13  -5  -4    4.82    1.28
 -13   5   4    5.93    1.47
  12  -5  -4   66.59    4.36
 -12   5   4   60.90    4.06
 -12   5   4   63.82    4.12
  11  -5  -4    9.77    1.59
 -11   5   4   12.40    1.68
 -11   5   4   13.99    1.85
  10  -5  -4   62.08    3.83
 -10   5   4   59.03    3.82
 -10   5   4   63.42    3.85
   9  -5  -4  281.51   12.37
  -9   5   4  276.84   12.46
  -9   5   4  283.56   12.35
   8  -5  -4   12.92    1.55
  -8   5   4   13.92    1.59
  -8   5   4   12.37    1.54
   7  -5  -4  119.31    5.85
  -7   5   4  118.20    5.91
   6  -5  -4  283.38   12.31
   6  -5  -4  275.93   12.37
  -6   5   4  295.20   12.40
  -6   5   4  308.80   12.63
   5  -5  -4    0.55    0.38
   5  -5  -4    0.28    0.40
  -5   5   4    0.85    0.46
   3  -5  -4   42.28    2.41
   3  -5  -4   40.19    2.22
  -3   5   4   44.11    2.57
   2  -5  -4    0.56    0.36
   0  -5  -4  339.18   13.45
   0   5   4  318.96   13.83
  -1  -5  -4    4.48    0.73
  -1  -5  -4    4.44    0.77
  -1  -5  -4    5.60    0.35
   1   5   4    4.12    0.73
  -3  -5  -4   63.97    3.58
  -3  -5  -4   66.99    3.18
   3   5   4   59.87    3.53
  -5  -5  -4  524.46   20.77
  -5  -5  -4  503.65   21.36
  -6  -5  -4    7.98    0.64
  -6  -5  -4    7.40    0.91
  -6  -5  -4    7.14    1.16
   6   5   4    8.67    0.66
  -7  -5  -4  351.25   16.00
  -7  -5  -4  373.10   15.37
   7   5   4  386.49   14.88
  -8  -5  -4  441.47   19.26
  -8  -5  -4  442.49   18.51
   8   5   4  463.30   18.05
  -9  -5  -4    1.36    0.77
   9   5   4    2.63    0.57
 -10  -5  -4  415.53   17.46
 -10  -5  -4  403.72   18.19
  10   5   4  425.26   16.98
 -11  -5  -4   38.14    2.81
 -11  -5  -4   37.71    3.25
  11   5   4   41.93    2.48
 -12  -5  -4   37.52    3.23
 -12  -5  -4   39.27    2.99
  12   5   4   40.54    2.56
 -13  -5  -4  114.28    6.68
 -13  -5  -4  127.21    6.44
  13   5   4  113.68    5.78
 -14  -5  -4   36.59    3.16
 -14  -5  -4   37.27    3.04
  14   5   4   28.63    2.81
  13  -6  -4   39.13    3.30
 -13   6   4   39.67    3.24
  12  -6  -4  189.50    9.28
 -12   6   4  177.93    9.27
 -12   6   4  200.98    9.26
  11  -6  -4   10.02    1.55
 -11   6   4    8.09    1.44
  10  -6  -4   44.91    3.25
 -10   6   4   44.25    3.35
 -10   6   4   47.63    3.24
   9  -6  -4  139.23    6.93
  -9   6   4  141.14    7.25
  -9   6   4  143.00    6.95
   8  -6  -4    2.09    0.72
  -8   6   4    3.79    0.95
  -8   6   4    4.45    1.06
   7  -6  -4  652.83   26.97
   7  -6  -4  662.09   26.86
  -7   6   4  669.83   27.75
  -7   6   4  662.72   26.94
   6  -6  -4  774.52   31.28
  -6   6   4  754.26   31.20
  -6   6   4  798.39   31.63
   5  -6  -4   76.89    4.14
   5  -6  -4   80.70    4.00
  -5   6   4   86.25    4.48
  -5   6   4   76.88    4.07
   4  -6  -4  405.30   16.92
   4  -6  -4  412.92   17.17
  -4   6   4  432.30   17.51
   3  -6  -4  364.83   14.99
   3  -6  -4  368.99   15.29
  -3   6   4  376.02   15.59
   2  -6  -4  489.56   19.85
   0  -6  -4  347.18   13.76
   0  -6  -4  347.21   14.29
   0   6   4  349.51   14.71
  -1  -6  -4  227.53    8.59
  -1  -6  -4  222.68    9.27
   1   6   4  215.57    9.69
   1   6   4  206.24    8.55
  -2  -6  -4  438.68   17.34
   2   6   4  411.72   17.77
  -3  -6  -4   47.89    2.99
  -3  -6  -4   45.95    2.58
   3   6   4   43.42    2.91
  -4  -6  -4  436.61   17.36
  -4  -6  -4  427.56   17.90
   4   6   4  405.71   17.84
  -5  -6  -4   72.57    3.24
  -5  -6  -4   83.70    4.03
  -5  -6  -4   78.34    4.46
   5   6   4   85.68    3.31
   5   6   4   75.13    4.42
  -6  -6  -4   59.08    3.21
  -6  -6  -4   57.68    3.65
  -6  -6  -4   53.25    2.51
   6   6   4   62.82    2.60
   6   6   4   51.83    3.54
  -7  -6  -4  376.28   15.69
  -7  -6  -4  384.23   16.40
   7   6   4  334.03   16.13
   7   6   4  402.83   15.06
  -8  -6  -4  134.21    7.08
   8   6   4  127.67    6.93
   8   6   4  143.84    5.94
  -9  -6  -4   63.17    4.29
  -9  -6  -4   66.63    3.79
   9   6   4   58.02    4.04
   9   6   4   70.84    3.31
 -10  -6  -4  219.15   10.51
 -10  -6  -4  223.57    9.88
  10   6   4  191.67   10.06
  10   6   4  222.88    9.23
 -11  -6  -4   37.12    2.82
  11   6   4   27.62    3.02
  11   6   4   36.24    2.24
 -12  -6  -4   28.38    2.85
 -12  -6  -4   29.11    2.61
  12   6   4   28.96    2.12
  12   6   4   28.43    2.64
 -13  -6  -4   48.62    3.67
 -13  -6  -4   48.94    3.85
  13   6   4   50.42    3.09
 -14  -6  -4   -0.61    0.71
  14   6   4   -0.03    0.50
  13  -7  -4   48.68    3.77
 -13   7   4   48.99    3.63
  12  -7  -4   78.00    4.95
 -12   7   4   81.48    4.90
 -12   7   4   81.73    5.24
  11  -7  -4    1.32    0.87
 -11   7   4    1.59    0.93
  10  -7  -4  151.51    7.47
 -10   7   4  143.95    7.83
 -10   7   4  152.17    7.43
   9  -7  -4   50.33    3.35
  -9   7   4   51.31    3.37
  -9   7   4   51.29    3.72
   8  -7  -4   12.47    1.63
   8  -7  -4   11.02    1.49
  -8   7   4   12.07    1.75
  -8   7   4   12.26    1.56
   7  -7  -4  403.32   17.10
   7  -7  -4  391.96   16.89
  -7   7   4  405.38   17.05
  -7   7   4  418.52   17.61
   6  -7  -4  341.13   14.43
   6  -7  -4  351.72   15.20
  -6   7   4  359.25   15.16
  -6   7   4  326.51   14.63
   5  -7  -4  193.46    8.36
   5  -7  -4  190.81    8.61
  -5   7   4  189.60    8.97
   4  -7  -4  790.29   31.75
   3  -7  -4  307.20   13.02
   3  -7  -4  304.30   12.64
  -3   7   4  315.31   13.42
   2  -7  -4  250.80   10.99
   2  -7  -4  269.12   10.63
  -2   7   4  255.04   11.37
   1  -7  -4  232.01   10.08
   1  -7  -4  237.23    9.57
  -1   7   4  238.27   10.52
   0  -7  -4   67.58    3.52
   0  -7  -4   72.10    2.98
   0   7   4   61.44    2.90
   0   7   4   75.28    3.98
  -1  -7  -4  580.12   23.44
  -2  -7  -4  231.80   10.00
   2   7   4  232.73   10.45
  -3  -7  -4   46.00    2.63
   3   7   4   38.66    2.81
  -4  -7  -4  658.76   26.89
  -4  -7  -4  673.07   27.49
  -5  -7  -4   18.70    1.60
  -5  -7  -4   17.96    1.85
   5   7   4   15.93    1.77
  -6  -7  -4  115.41    5.79
  -6  -7  -4  121.82    6.35
   6   7   4  113.72    6.21
   6   7   4  123.91    4.95
  -7  -7  -4  258.01   11.49
  -7  -7  -4  277.08   12.14
   7   7   4  235.26   11.79
   7   7   4  271.48   10.59
  -8  -7  -4   -0.14    0.63
  -8  -7  -4    0.95    0.58
   8   7   4    0.59    0.67
  -9  -7  -4  308.83   13.30
  -9  -7  -4  312.71   13.99
   9   7   4  285.86   13.63
 -10  -7  -4  150.17    7.62
 -10  -7  -4  164.26    8.42
  10   7   4  143.61    7.82
  10   7   4  160.76    6.93
 -11  -7  -4    1.34    0.84
 -11  -7  -4    1.14    0.71
  11   7   4    1.33    0.50
  11   7   4    0.42    0.71
 -12  -7  -4   77.28    5.03
 -12  -7  -4   83.18    4.84
  12   7   4   65.17    4.51
 -13  -7  -4   74.73    4.88
 -13  -7  -4   71.32    4.81
  13   7   4   70.04    3.87
  13   7   4   59.99    4.33
  12  -8  -4   42.92    3.32
 -12   8   4   44.58    3.39
  11  -8  -4    4.14    1.10
 -11   8   4    3.49    1.25
 -11   8   4    3.07    1.09
  10  -8  -4  126.82    6.99
 -10   8   4  116.26    6.25
 -10   8   4  115.34    6.83
   9  -8  -4   30.29    2.48
  -9   8   4   30.14    2.51
  -9   8   4   27.94    2.88
   8  -8  -4   54.63    3.52
   8  -8  -4   54.73    3.40
  -8   8   4   54.25    3.93
  -8   8   4   54.35    3.49
   7  -8  -4  463.77   19.19
   7  -8  -4  473.88   19.47
  -7   8   4  468.92   20.08
  -7   8   4  443.81   19.32
   6  -8  -4   10.38    1.25
   6  -8  -4    6.67    1.24
  -6   8   4    7.17    1.40
  -6   8   4    6.51    1.16
   5  -8  -4    5.72    1.03
   5  -8  -4    4.93    0.82
  -5   8   4    6.09    1.27
   4  -8  -4  496.04   20.18
   4  -8  -4  489.37   20.57
  -4   8   4  512.99   21.14
   3  -8  -4   15.73    1.54
   3  -8  -4   15.84    1.25
  -3   8   4   18.23    1.79
   2  -8  -4  443.20   17.63
   2  -8  -4  420.56   18.14
  -2   8   4  456.33   18.72
   1  -8  -4  127.54    5.41
   1  -8  -4  122.42    5.98
  -1   8   4  134.05    6.52
   0  -8  -4   82.45    3.36
   0  -8  -4   78.90    4.06
   0   8   4   67.99    3.29
   0   8   4   84.86    4.54
  -1  -8  -4  238.62   10.37
  -1  -8  -4  239.33    9.41
   1   8   4  223.59    9.41
   1   8   4  256.12   10.92
  -2  -8  -4   70.54    3.88
   2   8   4   75.11    4.30
  -3  -8  -4  221.71    9.91
   3   8   4  228.44   10.40
  -4  -8  -4  577.59   23.73
   4   8   4  581.39   24.23
  -5  -8  -4    0.86    0.65
   5   8   4    1.36    0.75
  -6  -8  -4  346.67   13.55
  -6  -8  -4  323.43   13.46
  -6  -8  -4  351.78   14.79
   6   8   4  356.84   15.31
  -7  -8  -4  226.06    9.72
  -7  -8  -4  246.79   10.97
   7   8   4  241.99   11.37
   7   8   4  259.79    9.87
  -8  -8  -4    5.40    1.11
   8   8   4    4.42    1.30
   8   8   4    7.15    0.74
  -9  -8  -4  227.17   10.64
   9   8   4  233.78    9.69
 -10  -8  -4  150.92    7.67
  10   8   4  141.03    7.74
  10   8   4  159.04    6.75
 -11  -8  -4    3.14    1.85
  11   8   4    3.32    1.12
 -12  -8  -4  125.79    6.85
  12   8   4  116.56    6.58
 -13  -8  -4   44.88    3.71
  12  -9  -4   37.47    3.19
 -12   9   4   36.64    3.18
  11  -9  -4   40.48    3.23
 -11   9   4   37.92    3.71
 -11   9   4   41.13    3.28
  10  -9  -4  112.80    6.05
 -10   9   4  111.52    6.08
 -10   9   4  110.14    6.76
   9  -9  -4    1.09    0.77
   9  -9  -4    2.14    0.97
  -9   9   4    2.95    1.21
  -9   9   4    0.44    0.83
   8  -9  -4   70.49    4.06
   8  -9  -4   67.20    4.16
  -8   9   4   72.45    4.82
  -8   9   4   66.38    4.11
   7  -9  -4  161.32    7.52
   7  -9  -4  161.93    7.80
  -7   9   4  160.61    7.74
  -7   9   4  161.42    8.45
   6  -9  -4    7.54    1.31
   6  -9  -4    6.50    1.04
  -6   9   4    6.56    1.44
   5  -9  -4  631.11   25.69
   5  -9  -4  637.97   26.14
  -5   9   4  643.32   26.81
   4  -9  -4  571.77   23.35
  -4   9   4  589.63   24.62
   3  -9  -4    0.53    0.46
  -3   9   4    0.27    0.62
   2  -9  -4  257.87   11.25
   2  -9  -4  256.43   10.60
  -2   9   4  258.81   11.79
   1  -9  -4  112.81    4.82
   1  -9  -4  106.35    5.50
  -1   9   4  116.02    6.05
   0  -9  -4  175.69    6.79
   0  -9  -4  164.20    7.64
   0   9   4  175.79    8.19
   0   9   4  147.98    6.73
  -1  -9  -4  209.67    8.33
  -1  -9  -4  211.66    8.36
  -1  -9  -4  201.55    9.38
   1   9   4  217.69    9.94
  -2  -9  -4   -0.12    0.51
   2   9   4    1.33    0.74
  -3  -9  -4  496.70   20.75
   3   9   4  497.16   21.11
  -4  -9  -4  440.48   18.83
   4   9   4  455.49   19.32
  -5  -9  -4    3.30    0.97
   5   9   4    3.48    1.04
  -6  -9  -4  318.09   14.23
   6   9   4  334.07   14.70
  -7  -9  -4  196.34    7.76
  -7  -9  -4  185.10    8.97
  -7  -9  -4  183.54    7.52
  -8  -9  -4   36.96    1.92
  -8  -9  -4   37.17    3.03
   8   9   4   41.10    3.25
   8   9   4   39.54    1.96
  -9  -9  -4  114.08    6.38
   9   9   4  124.97    6.72
 -10  -9  -4   23.52    2.92
  10   9   4   21.51    2.34
 -11  -9  -4   12.91    2.05
  11   9   4   14.76    2.09
 -12  -9  -4  173.72    9.05
  11 -10  -4   52.87    3.73
 -11  10   4   46.24    4.34
 -11  10   4   51.14    3.67
  10 -10  -4   60.29    4.11
 -10  10   4   69.17    4.29
 -10  10   4   65.89    4.97
   9 -10  -4    5.63    1.20
   9 -10  -4    4.70    1.18
  -9  10   4    5.70    1.58
  -9  10   4    5.24    1.32
   8 -10  -4  179.78    8.46
   8 -10  -4  186.28    8.77
  -8  10   4  175.08    8.61
  -8  10   4  176.92    9.49
   7 -10  -4   32.60    2.70
   7 -10  -4   40.02    2.65
  -7  10   4   36.28    2.74
  -7  10   4   33.03    3.23
   6 -10  -4   11.98    1.42
   6 -10  -4   12.15    1.49
  -6  10   4   13.09    2.11
   5 -10  -4  411.29   17.72
   5 -10  -4  418.97   17.24
  -5  10   4  421.80   18.51
   4 -10  -4  118.73    5.48
   4 -10  -4  113.83    5.95
  -4  10   4  120.42    6.58
   3 -10  -4  101.24    5.38
   3 -10  -4  104.02    4.82
  -3  10   4  109.42    6.07
   2 -10  -4  434.20   17.51
   2 -10  -4  423.25   18.27
  -2  10   4  448.12   18.98
   1 -10  -4   19.69    1.26
   1 -10  -4   19.45    1.81
  -1  10   4   19.57    2.24
   0 -10  -4  141.16    5.62
   0 -10  -4  135.10    6.64
   0  10   4  117.54    5.67
   0  10   4  147.65    7.25
  -1 -10  -4  444.09   16.73
  -1 -10  -4  415.01   18.00
  -1 -10  -4  410.27   16.73
   1  10   4  435.67   18.57
  -2 -10  -4   -0.41    0.57
   2  10   4   -0.55    0.68
  -3 -10  -4  224.59   10.40
   3  10   4  231.03   10.82
  -4 -10  -4  194.40    9.45
   4  10   4  210.51    9.92
  -5 -10  -4   56.71    3.87
   5  10   4   65.60    4.26
  -6 -10  -4  300.27   14.02
   6  10   4  331.44   14.50
  -7 -10  -4   88.68    5.19
   7  10   4   89.65    5.45
  -8 -10  -4   51.67    3.88
   8  10   4   58.67    4.13
  -9 -10  -4  183.68    9.57
   9  10   4  197.03    9.62
 -10 -10  -4   24.31    2.79
  10  10   4   25.87    2.69
 -11 -10  -4   43.91    3.67
  11  10   4   37.90    3.32
  11 -11  -4  103.58    5.71
 -11  11   4   81.39    6.26
 -11  11   4   99.32    5.60
  10 -11  -4   49.79    3.57
  10 -11  -4   49.33    3.69
 -10  11   4   48.06    4.31
 -10  11   4   49.21    3.58
   9 -11  -4    9.45    2.28
  -9  11   4   14.18    2.90
   8 -11  -4  156.96    7.53
   8 -11  -4  151.57    7.81
  -8  11   4  149.68    8.66
  -8  11   4  159.41    7.81
   7 -11  -4   79.63    4.35
   7 -11  -4   77.64    4.70
  -7  11   4   78.44    5.44
   6 -11  -4   76.25    4.08
   6 -11  -4   73.77    4.44
  -6  11   4   73.29    5.17
   5 -11  -4  252.44   11.45
   5 -11  -4  246.11   11.29
  -5  11   4  258.00   12.31
   4 -11  -4    9.18    1.48
   4 -11  -4   12.94    1.31
  -4  11   4   12.45    1.91
   3 -11  -4   57.42    3.07
   3 -11  -4   58.77    3.73
  -3  11   4   60.31    4.31
   2 -11  -4  218.55    9.06
   2 -11  -4  214.84    9.96
  -2  11   4  214.00   10.58
   1 -11  -4    0.40    0.51
  -1  11   4    0.26    0.88
   0 -11  -4  200.79    8.01
   0 -11  -4  184.66    9.13
   0  11   4  200.18    9.78
  -1 -11  -4  110.58    5.00
  -1 -11  -4  124.50    4.81
  -1 -11  -4  114.42    6.16
   1  11   4  122.13    6.68
  -2 -11  -4   12.63    1.82
   2  11   4   19.83    2.33
  -3 -11  -4   74.19    4.62
   3  11   4   81.81    5.05
  -4 -11  -4    8.00    1.47
   4  11   4   10.70    1.82
  -5 -11  -4   68.85    4.39
   5  11   4   71.77    4.72
  -6 -11  -4  194.20    9.92
   6  11   4  217.83   10.34
  -7 -11  -4   -1.16    0.74
   7  11   4   -0.24    0.71
  -8 -11  -4  102.97    6.19
   8  11   4  110.29    6.32
  -9 -11  -4   55.50    4.22
   9  11   4   57.10    4.19
 -10 -11  -4   -0.21    0.68
 -11 -11  -4   93.14    6.08
  11  11   4   95.68    5.71
  10 -12  -4   16.79    2.25
  10 -12  -4   12.40    1.86
 -10  12   4   18.20    2.23
 -10  12   4   13.38    2.57
   9 -12  -4   55.67    3.95
   9 -12  -4   60.23    3.83
  -9  12   4   55.06    3.97
  -9  12   4   50.93    4.61
   8 -12  -4  108.94    6.86
   8 -12  -4  120.95    6.04
  -8  12   4  111.92    7.26
   7 -12  -4   12.06    1.56
   7 -12  -4    7.48    1.42
  -7  12   4   12.07    2.75
   6 -12  -4   92.19    4.78
   6 -12  -4   91.28    5.33
  -6  12   4   90.23    6.09
   5 -12  -4  147.18    6.72
   5 -12  -4  140.23    7.28
  -5  12   4  141.93    8.14
   4 -12  -4    3.98    0.81
   4 -12  -4    2.49    0.97
  -4  12   4    1.36    1.13
   3 -12  -4  175.54    8.65
   3 -12  -4  182.12    7.79
  -3  12   4  176.49    9.34
   2 -12  -4  107.25    4.88
   2 -12  -4  102.20    5.80
  -2  12   4  112.54    6.50
   1 -12  -4    1.64    0.43
   1 -12  -4    1.75    0.83
  -1  12   4    1.16    1.01
   0 -12  -4  208.65    8.30
   0 -12  -4  185.29    9.52
   0  12   4  213.03   10.35
  -1 -12  -4   -0.01    0.61
  -1 -12  -4    1.72    0.28
   1  12   4    1.84    0.93
  -2 -12  -4  190.91    9.58
   2  12   4  206.76   10.15
  -3 -12  -4  291.24   13.90
   3  12   4  325.39   14.51
  -4 -12  -4    8.27    1.63
   4  12   4    9.63    1.84
  -5 -12  -4   82.85    5.37
   5  12   4   94.63    5.76
  -6 -12  -4  111.32    7.46
   6  12   4  137.97    7.35
  -7 -12  -4    5.95    1.53
   7  12   4    6.46    1.67
  -8 -12  -4  133.65    7.74
   8  12   4  147.62    7.94
  -9 -12  -4   76.62    5.41
   9  12   4   88.24    5.52
 -10 -12  -4   23.43    2.90
  10  12   4   20.00    2.68
   9 -13  -4   59.18    3.97
  -9  13   4   56.38    4.95
  -9  13   4   55.61    4.03
   8 -13  -4   81.46    4.68
   8 -13  -4   77.79    4.88
  -8  13   4   70.73    4.68
  -8  13   4   72.53    5.58
   7 -13  -4   11.70    1.84
   7 -13  -4   12.59    1.78
  -7  13   4    8.21    2.06
   6 -13  -4  150.15    7.08
  -6  13   4  145.54    8.64
   5 -13  -4   70.59    3.85
   5 -13  -4   71.38    4.54
  -5  13   4   68.64    5.27
   4 -13  -4   15.29    1.98
   3 -13  -4  130.69    6.96
   3 -13  -4  132.36    5.99
  -3  13   4  129.59    7.71
   2 -13  -4   45.79    2.54
   2 -13  -4   46.45    3.52
  -2  13   4   48.32    4.11
   1 -13  -4   58.83    2.83
   1 -13  -4   55.21    3.97
  -1  13   4   55.28    4.33
   0 -13  -4  162.19    6.54
   0 -13  -4  150.61    8.02
   0  13   4  156.76    8.66
  -1 -13  -4   -0.12    0.83
   1  13   4    0.16    0.70
  -2 -13  -4   74.18    4.91
   2  13   4   80.09    5.41
  -3 -13  -4   85.09    5.45
   3  13   4   99.31    6.11
  -4 -13  -4    1.07    1.03
   4  13   4    1.86    1.17
  -5 -13  -4  131.25    7.53
   5  13   4  145.05    7.96
  -6 -13  -4   72.60    5.19
   6  13   4   83.24    5.58
  -7 -13  -4   29.39    3.10
   7  13   4   28.40    3.29
  -8 -13  -4   84.90    5.72
   8  13   4   85.63    6.30
   8 -14  -4   52.02    3.42
   8 -14  -4   43.87    3.66
  -8  14   4   47.24    4.62
  -8  14   4   46.41    3.60
   7 -14  -4   18.57    2.38
   7 -14  -4   19.91    2.03
  -7  14   4   18.26    2.98
   6 -14  -4  104.84    6.16
  -6  14   4  110.10    7.27
   5 -14  -4   31.47    2.35
   5 -14  -4   26.94    2.84
  -5  14   4   33.88    3.79
   4 -14  -4   57.60    3.27
   4 -14  -4   54.97    4.08
  -4  14   4   56.83    4.85
   3 -14  -4  122.76    7.33
   3 -14  -4  111.75    5.29
  -3  14   4  105.64    7.06
   2 -14  -4    2.73    0.62
  -2  14   4    3.59    1.59
  -1  14   4  129.75    7.84
   0 -14  -4   62.19    4.94
   0  14   4   52.28    4.56
  -1 -14  -4    9.24    1.84
   1  14   4   10.30    2.11
  -2 -14  -4  164.63    8.72
   2  14   4  167.47    9.36
  -3 -14  -4   69.81    4.89
   3  14   4   68.79    5.25
  -4 -14  -4    7.90    1.80
   4  14   4    8.33    1.97
  -5 -14  -4   90.78    6.05
   5  14   4  101.67    6.44
  -6 -14  -4    9.18    1.98
   6  14   4   12.53    2.32
  -7 -14  -4   21.87    2.73
   7  14   4   21.54    3.01
   6 -15  -4   75.43    4.89
  -6  15   4   71.77    5.90
   5 -15  -4    1.32    1.09
   5 -15  -4    0.05    0.76
  -5  15   4    0.43    1.25
   4 -15  -4   80.05    5.30
   4 -15  -4   85.69    4.35
  -4  15   4   82.12    6.23
   3 -15  -4   96.41    5.93
  -3  15   4   95.93    6.71
   2 -15  -4    1.55    1.19
  -2  15   4    1.90    1.49
   1 -15  -4  147.65    8.09
  -1  15   4  153.61    9.01
   0 -15  -4   52.15    4.11
   0  15   4   50.07    4.62
  -1 -15  -4    3.92    1.23
   1  15   4    3.07    1.58
  -2 -15  -4   87.02    5.85
   2  15   4   96.81    6.48
  -3 -15  -4   12.31    2.17
   3  15   4   13.08    2.45
  -4 -15  -4   36.39    3.67
   4  15   4   41.25    4.14
  -5 -15  -4   94.17    6.32
   5  15   4  101.49    6.64
  -2  16   4    6.74    2.06
   1 -16  -4   23.30    2.80
  -1  16   4   21.91    3.28
   0 -16  -4    1.85    1.09
   0  16   4    1.58    1.14
  -1 -16  -4   41.77    3.79
   1  16   4   39.61    4.19
  -1 -12   5   46.99    3.84
  -1 -12   5   47.80    3.68
   0  12  -5    0.67    1.27
   0 -12   5    1.50    0.94
  -1  12  -5   89.98    6.31
   1 -12   5   83.04    4.97
  -2  12  -5    9.48    2.30
   2 -12   5    9.42    1.76
   2 -12   5    7.73    1.36
  -3  12  -5   19.17    3.09
   3 -12   5   23.07    2.43
  -4  12  -5  106.84    7.50
   4 -12   5  116.09    5.96
   4 -12   5  100.33    5.53
  -5  12  -5   -0.04    1.21
   5 -12   5    1.46    0.85
  -6  12  -5   36.27    4.40
   6 -12   5   46.13    3.35
  -7  12  -5   61.26    5.89
   7 -12   5   76.23    4.62
   3  11  -5    2.27    1.33
  -3 -11   5    2.44    0.91
  -3 -11   5    4.37    1.24
   2  11  -5  126.71    7.30
  -2 -11   5  130.21    6.99
  -2 -11   5  134.54    6.71
   1  11  -5   22.54    2.86
  -1 -11   5   23.22    2.72
   0  11  -5    9.91    2.07
   0 -11   5    9.72    1.48
   0 -11   5    8.54    1.52
  -1  11  -5   40.11    3.80
   1 -11   5   34.75    2.85
   1 -11   5   41.65    2.96
  -2  11  -5    2.47    1.37
   2 -11   5    2.97    0.97
   2 -11   5    2.87    0.90
   3 -11   5   87.76    4.88
   3 -11   5   96.05    5.20
  -4  11  -5  103.72    7.38
   4 -11   5  124.91    6.17
  -5  11  -5    1.44    1.30
   5 -11   5    0.72    0.66
  -6  11  -5   78.81    6.54
   6 -11   5   97.53    5.23
  -7  11  -5    9.93    2.57
   7 -11   5   15.82    2.03
  -8  11  -5   27.16    3.75
   8 -11   5   32.77    3.00
  -9  11  -5   51.29    5.54
   9 -11   5   72.43    4.40
  -5 -10   5   55.52    4.08
  -4 -10   5    4.19    1.08
  -4 -10   5    4.89    1.34
   3  10  -5   61.08    4.09
  -3 -10   5   58.04    4.05
  -3 -10   5   60.33    3.90
   2  10  -5  110.60    6.34
  -2 -10   5  112.11    5.86
  -2 -10   5  111.86    6.08
   1  10  -5    3.71    1.30
  -1 -10   5    4.43    1.02
  -1 -10   5    4.18    1.15
   0  10  -5  107.98    6.47
   0 -10   5  106.36    5.67
   0 -10   5  107.14    5.61
  -1  10  -5   73.08    5.16
   1 -10   5   73.83    4.26
   1 -10   5   72.14    4.22
  -2  10  -5    0.67    1.03
   2 -10   5    1.14    0.74
   2 -10   5    1.19    0.74
  -3  10  -5  106.01    7.01
   3 -10   5  118.46    5.93
   3 -10   5  110.62    5.59
  -4  10  -5   40.05    3.92
   4 -10   5   43.79    3.08
   4 -10   5   41.71    2.74
  -5  10  -5   38.21    4.14
   5 -10   5   48.78    3.24
   5 -10   5   42.06    2.70
  -6  10  -5  168.47   10.33
   6 -10   5  193.98    8.83
  -7  10  -5    7.82    2.20
   7 -10   5    6.23    0.96
   7 -10   5    8.38    1.70
  -8  10  -5   73.55    6.20
   8 -10   5   82.97    4.81
  -9  10  -5  123.09    8.96
   9 -10   5  149.51    7.27
 -10  10  -5    0.03    1.37
  10 -10   5   -0.66    0.78
  -6  -9   5   54.71    4.05
  -6  -9   5   55.47    3.79
  -5  -9   5   95.38    5.42
  -5  -9   5   97.32    5.68
   4   9  -5    1.40    0.84
  -4  -9   5    3.77    1.12
   3   9  -5   79.64    4.72
  -3  -9   5   81.22    4.65
  -3  -9   5   82.88    4.81
  -2  -9   5   82.26    4.77
  -2  -9   5   85.80    4.71
   1   9  -5    7.59    1.54
  -1  -9   5    7.50    1.31
  -1  -9   5    6.55    1.21
   0   9  -5  143.20    7.68
   0  -9   5  141.50    6.91
   0  -9   5  141.62    6.93
  -1   9  -5   60.63    4.44
   1  -9   5   59.88    3.62
   1  -9   5   66.70    3.80
  -2   9  -5   38.78    3.59
   2  -9   5   38.37    2.64
   2  -9   5   43.16    2.90
  -3   9  -5  127.03    7.70
   3  -9   5  133.33    6.33
   3  -9   5  141.66    6.68
  -4   9  -5   42.04    3.99
   4  -9   5   45.24    2.74
   4  -9   5   48.64    3.15
  -5   9  -5   77.47    5.82
   5  -9   5   84.92    4.59
   5  -9   5   77.37    4.03
  -6   9  -5  115.16    7.71
   6  -9   5  130.03    6.35
   6  -9   5  123.04    5.70
  -7   9  -5    3.47    1.49
   7  -9   5    4.34    0.77
   7  -9   5    4.12    1.07
  -8   9  -5   52.23    5.04
  -8   9  -5   49.93    2.79
   8  -9   5   60.95    5.27
  -9   9  -5  115.16    8.24
   9  -9   5  126.00    6.45
 -10   9  -5    7.95    2.20
  10  -9   5   10.79    1.68
 -11   9  -5   86.13    7.14
  11  -9   5   90.06    5.27
 -12   9  -5   33.05    4.44
  12  -9   5   37.91    3.20
   8   8  -5   56.75    4.06
  -8  -8   5   57.54    4.24
  -7  -8   5    0.93    0.84
   6   8  -5  115.37    6.15
  -6  -8   5  107.22    6.16
  -6  -8   5  110.94    6.07
   5   8  -5   92.80    5.38
  -5  -8   5   97.12    5.32
   4   8  -5   21.03    1.91
  -4  -8   5   20.99    2.13
  -4  -8   5   18.12    1.97
   3   8  -5  169.88    8.22
  -3  -8   5  181.12    8.38
  -3  -8   5  171.57    8.23
   2   8  -5  116.25    6.18
  -2  -8   5  116.08    5.93
  -2  -8   5  120.68    6.01
   1   8  -5   22.23    2.23
  -1  -8   5   20.94    2.03
  -1  -8   5   22.42    1.95
   0   8  -5  144.18    7.67
   0  -8   5  153.23    7.16
  -1   8  -5    1.65    0.93
   1  -8   5    2.56    0.83
   1  -8   5    2.36    0.73
  -2   8  -5  239.38   11.70
   2  -8   5  233.50   10.41
   2  -8   5  251.48   10.76
  -3   8  -5  256.85   12.78
   3  -8   5  266.09   11.32
   3  -8   5  274.84   11.72
  -4   8  -5    3.80    1.29
   4  -8   5    3.85    0.95
   4  -8   5    2.99    0.68
  -5   8  -5  141.38    8.13
   5  -8   5  134.17    6.21
   5  -8   5  141.85    6.80
  -6   8  -5   81.14    5.84
   6  -8   5   82.55    4.04
   6  -8   5   88.19    4.68
  -7   8  -5   -0.39    1.01
   7  -8   5   -0.37    0.34
   7  -8   5   -0.71    0.55
  -8   8  -5  235.30    9.90
  -8   8  -5  224.87   12.53
   8  -8   5  231.99    9.81
   8  -8   5  246.40   10.74
   9  -8   5   28.72    2.57
 -10   8  -5   14.60    3.00
  10  -8   5   16.00    2.05
 -11   8  -5  115.64    8.45
  11  -8   5  134.34    6.73
 -12   8  -5    7.48    2.15
  12  -8   5    6.95    1.40
   9   7  -5   65.60    4.42
  -9  -7   5   63.38    4.41
   8   7  -5   53.00    3.88
  -8  -7   5   58.14    4.06
  -8  -7   5   54.65    4.03
   7   7  -5   16.76    2.11
  -7  -7   5   19.54    2.28
  -7  -7   5   18.67    2.18
   6   7  -5  145.91    7.54
  -6  -7   5  153.33    7.55
   5   7  -5   59.46    3.82
  -5  -7   5   55.89    3.70
  -5  -7   5   62.81    3.88
   4   7  -5   76.60    4.07
   4   7  -5   76.96    4.49
  -4  -7   5   80.85    4.51
  -4  -7   5   79.42    4.47
   3   7  -5  225.42   10.14
  -3  -7   5  230.20   10.29
  -3  -7   5  228.37   10.27
   2   7  -5   67.73    4.01
  -2  -7   5   64.63    3.86
  -2  -7   5   72.70    3.92
   1   7  -5   54.54    3.54
  -1  -7   5   54.94    3.22
  -1  -7   5   50.40    3.21
   0   7  -5  210.53    9.89
   0  -7   5  206.93    9.19
  -1   7  -5    3.34    1.09
   1  -7   5    4.38    0.79
  -2   7  -5  104.54    5.98
   2  -7   5  104.10    5.62
   2  -7   5   98.31    4.83
  -3   7  -5   91.89    5.61
   3  -7   5   87.67    4.30
   3  -7   5   91.00    4.70
  -4   7  -5  106.78    6.40
   4  -7   5  103.07    4.85
   4  -7   5  107.58    5.35
  -5   7  -5  189.71   10.08
   5  -7   5  192.15    8.77
   5  -7   5  195.92    8.19
  -6   7  -5  140.49    8.29
   6  -7   5  148.01    6.95
  -7   7  -5   23.30    1.43
  -7   7  -5   24.35    2.96
   7  -7   5   25.56    1.56
   7  -7   5   22.98    2.00
  -8   7  -5  130.50    5.58
  -8   7  -5  126.37    8.02
   8  -7   5  133.24    6.46
  -9   7  -5   18.28    1.34
  -9   7  -5   19.04    2.98
   9  -7   5   16.12    1.90
 -10   7  -5  125.91    8.77
  10  -7   5  147.84    7.14
 -11   7  -5   90.18    7.02
  11  -7   5  104.28    5.48
 -12   7  -5   -0.71    0.97
  12  -7   5   -0.97    0.63
 -13   7  -5   58.30    5.57
  13  -7   5   64.62    4.18
   9   6  -5  118.87    6.69
  -9  -6   5  123.90    6.84
   8   6  -5   45.39    3.46
  -8  -6   5   47.62    3.58
   7   6  -5   64.42    4.18
  -7  -6   5   65.07    4.78
  -7  -6   5   65.17    4.20
   6   6  -5  172.14    8.54
  -6  -6   5  188.24    8.67
  -6  -6   5  175.36    8.56
   5   6  -5   33.99    2.64
   5   6  -5   29.88    1.75
  -5  -6   5   36.11    2.67
  -5  -6   5   39.22    2.87
   4   6  -5  190.46    8.76
   4   6  -5  185.01    8.12
  -4  -6   5  191.54    8.66
  -4  -6   5  181.39    8.66
   3   6  -5  288.20   12.54
  -3  -6   5  287.44   12.48
  -3  -6   5  283.16   12.36
   2   6  -5    0.46    0.47
   2   6  -5   -0.42    0.44
  -2  -6   5    0.86    0.52
  -2  -6   5    0.00    0.45
   1   6  -5  162.62    7.65
  -1  -6   5  155.63    7.40
  -1  -6   5  163.99    7.28
   0   6  -5  153.74    7.26
   0  -6   5  142.39    6.58
   0  -6   5  141.95    6.79
  -1   6  -5   84.41    4.76
   1  -6   5   78.53    3.92
   1  -6   5   77.80    4.20
  -2   6  -5  445.27   19.22
   2  -6   5  449.04   18.04
   2  -6   5  441.71   18.42
  -3   6  -5  210.79   10.15
   3  -6   5  209.95    9.24
   3  -6   5  204.49    8.77
  -4   6  -5   83.99    5.31
   4  -6   5   85.65    3.90
   4  -6   5   83.48    4.36
  -5   6  -5   52.90    4.14
   5  -6   5   52.56    2.66
   5  -6   5   60.37    3.33
  -6   6  -5   31.46    3.26
   6  -6   5   36.58    2.49
   6  -6   5   35.51    1.86
  -7   6  -5  272.49   11.10
  -7   6  -5  267.04   13.44
   7  -6   5  276.16   11.16
   7  -6   5  286.15   12.02
  -8   6  -5  110.27    4.90
  -8   6  -5  113.14    7.18
   8  -6   5  124.57    5.86
  -9   6  -5   15.53    1.07
  -9   6  -5   14.33    2.39
   9  -6   5   17.02    1.80
 -10   6  -5  123.74    7.98
 -10   6  -5  124.94    5.81
  10  -6   5  127.47    6.35
 -11   6  -5   73.75    5.89
 -12   6  -5    6.39    1.95
  12  -6   5    7.66    1.40
 -13   6  -5   94.93    7.16
  13  -6   5  111.71    5.85
 -14   6  -5   41.07    4.55
  14  -6   5   46.13    3.44
  10   5  -5   35.68    3.31
 -10  -5   5   41.02    3.44
   9   5  -5  145.05    8.26
  -9  -5   5  140.26    7.48
   8   5  -5   33.95    2.99
  -8  -5   5   36.53    2.95
   7   5  -5   52.80    3.72
  -7  -5   5   56.54    3.68
   6   5  -5  154.94    7.71
  -6  -5   5  162.12    7.69
   5   5  -5   -0.33    0.55
  -5  -5   5   -0.43    0.52
  -5  -5   5    0.13    0.51
   4   5  -5  223.54    9.39
   4   5  -5  220.99   10.11
   4   5  -5  221.42    9.37
  -4  -5   5  233.85   10.04
  -4  -5   5  227.36   10.13
   3   5  -5  202.28    9.29
   3   5  -5  201.31    8.86
  -3  -5   5  205.69    9.28
  -3  -5   5  215.81    9.16
   2   5  -5   41.60    2.72
   2   5  -5   42.10    2.70
  -2  -5   5   42.12    2.49
  -2  -5   5   34.96    2.52
   1   5  -5  343.67   14.31
   1   5  -5  347.62   14.34
  -1  -5   5  329.15   13.93
  -1  -5   5  325.64   14.16
   0   5  -5  219.65    9.87
   0  -5   5  226.85    9.33
   0  -5   5  211.45    9.55
  -1   5  -5   44.73    3.09
   1  -5   5   47.15    2.80
   1  -5   5   50.21    2.54
  -2   5  -5  310.27   13.48
   2  -5   5  295.04   12.77
  -3   5  -5    2.18    0.81
   3  -5   5    2.42    0.48
   3  -5   5    2.92    0.70
  -4   5  -5  399.91   17.38
   4  -5   5  386.36   16.33
   4  -5   5  395.36   15.74
  -5   5  -5  385.92   16.69
  -5   5  -5  323.80   14.59
   5  -5   5  387.31   15.49
   5  -5   5  385.34   14.75
  -6   5  -5    4.57    1.46
  -6   5  -5    4.76    0.47
   6  -5   5    5.09    0.54
  -7   5  -5  311.40   14.45
  -7   5  -5  304.54   12.07
  -7   5  -5  280.62   12.03
   7  -5   5  319.54   13.00
  -8   5  -5  184.54    9.68
  -8   5  -5  174.98    7.25
  -8   5  -5  169.92    7.25
   8  -5   5  186.10    8.18
  -9   5  -5    6.27    1.73
  -9   5  -5    7.08    0.66
   9  -5   5    6.22    1.13
 -10   5  -5  124.14    5.46
 -10   5  -5  124.84    7.78
  10  -5   5  137.93    6.43
 -11   5  -5   37.17    2.09
 -11   5  -5   31.96    3.65
  11  -5   5   37.79    2.77
 -12   5  -5   49.14    4.81
 -12   5  -5   52.42    2.74
  12  -5   5   57.08    3.63
 -13   5  -5  136.35    9.01
  13  -5   5  160.74    7.58
 -14   5  -5    5.28    1.84
  14  -5   5    7.92    1.43
  11   4  -5    5.07    1.35
 -11  -4   5    5.38    1.40
  10   4  -5   66.03    4.58
 -10  -4   5   72.59    4.65
   9   4  -5  108.51    6.14
  -9  -4   5  111.88    6.13
   8   4  -5    2.53    0.97
  -8  -4   5    2.74    0.98
   7   4  -5  100.71    5.59
  -7  -4   5  105.86    5.55
   6   4  -5  117.62    6.19
  -6  -4   5  127.41    6.17
   5   4  -5   15.35    1.71
  -5  -4   5   17.05    1.67
   4   4  -5  592.86   24.08
   4   4  -5  619.42   25.09
   4   4  -5  626.16   24.13
   3   4  -5   87.93    4.16
   3   4  -5   89.16    4.62
  -3  -4   5   90.14    4.65
  -3  -4   5   93.07    4.48
   2   4  -5   44.28    2.47
   2   4  -5   44.71    2.71
  -2  -4   5   39.52    2.59
  -2  -4   5   40.87    2.43
   1   4  -5  101.01    4.87
   1   4  -5   95.91    4.79
  -1  -4   5   91.58    4.72
  -1  -4   5   99.63    4.53
   0   4  -5    1.09    0.53
   0  -4   5    1.63    0.52
   0  -4   5    1.41    0.39
  -1   4  -5  537.15   22.92
   1  -4   5  534.42   22.40
   1  -4   5  589.40   22.31
  -3   4  -5   24.09    1.31
  -3   4  -5   25.95    2.25
   3  -4   5   29.10    1.46
   3  -4   5   27.16    1.90
  -4   4  -5  179.83    8.86
   4  -4   5  187.33    7.43
   4  -4   5  181.02    8.05
  -5   4  -5  117.10    6.42
  -5   4  -5  107.69    4.72
   5  -4   5  124.16    4.81
   5  -4   5  120.34    5.54
  -6   4  -5   91.51    3.94
  -6   4  -5   96.99    3.96
  -6   4  -5  101.62    5.81
   6  -4   5   99.93    4.79
  -7   4  -5  244.68   10.04
  -7   4  -5  262.81   10.32
  -8   4  -5  115.64    4.97
  -8   4  -5  122.87    7.06
  -8   4  -5  116.65    4.94
   8  -4   5  126.64    5.78
  -9   4  -5   83.73    5.67
  -9   4  -5   86.69    3.78
   9  -4   5   91.15    4.58
 -10   4  -5  180.66    7.73
 -10   4  -5  185.25   10.06
  10  -4   5  197.06    8.60
 -11   4  -5   38.87    2.11
 -11   4  -5   39.78    3.86
  11  -4   5   39.42    2.80
 -12   4  -5  104.90    4.69
 -12   4  -5   97.46    6.78
  12  -4   5  102.82    5.38
  13  -4   5   83.41    4.78
 -14   4  -5   -1.28    0.82
  14  -4   5    0.82    0.61
 -15   4  -5   49.58    4.94
  15  -4   5   64.75    4.07
  11   3  -5    1.39    0.97
 -11  -3   5    2.76    1.00
  10   3  -5   59.75    4.23
 -10  -3   5   64.67    4.23
   9   3  -5   64.31    4.23
  -9  -3   5   66.00    4.22
   8   3  -5   13.76    1.79
  -8  -3   5    9.72    1.51
   7   3  -5  210.17    9.79
  -7  -3   5  211.78    9.63
   6   3  -5   87.45    4.81
  -6  -3   5   90.25    4.71
  -5  -3   5  348.69   14.69
   4   3  -5  533.21   22.38
  -4  -3   5  559.48   22.23
   3   3  -5  140.27    6.73
   3   3  -5  147.90    6.16
  -3  -3   5  149.00    6.56
   2   3  -5  276.52   12.03
   2   3  -5  288.89   11.73
  -2  -3   5  278.91   12.03
  -2  -3   5  276.51   11.59
  -2  -3   5  296.91   11.81
   1   3  -5  207.27    9.08
   1   3  -5  207.60    8.96
  -1  -3   5  210.16    8.76
  -1  -3   5  208.89    9.05
   0   3  -5   19.87    1.59
   0   3  -5   19.98    1.54
   0  -3   5   21.74    1.47
   0  -3   5   17.68    1.51
  -3   3  -5   35.84    1.72
  -3   3  -5   39.66    2.71
   3  -3   5   41.53    1.81
   3  -3   5   38.80    2.28
  -4   3  -5  561.71   21.87
  -5   3  -5  223.30   10.43
   5  -3   5  222.37    9.52
  -6   3  -5  114.63    6.24
  -6   3  -5  112.57    4.49
   6  -3   5  114.33    5.32
  -7   3  -5  184.74    9.13
  -7   3  -5  167.00    7.13
  -7   3  -5  178.31    7.17
   7  -3   5  191.60    7.99
  -8   3  -5    2.57    0.36
  -8   3  -5    2.79    0.36
   8  -3   5    3.39    0.86
  -9   3  -5  270.05   11.14
  -9   3  -5  277.06   13.32
   9  -3   5  286.60   11.90
 -10   3  -5  235.99   11.82
 -10   3  -5  227.22    9.66
  10  -3   5  245.61   10.38
 -11   3  -5    9.18    0.93
 -11   3  -5    7.38    1.77
  11  -3   5    8.68    1.23
 -12   3  -5  144.60    8.66
 -12   3  -5  152.88    6.59
  12  -3   5  151.75    7.23
 -13   3  -5   76.49    5.82
  13  -3   5   83.24    4.61
 -14   3  -5   -1.36    0.58
 -14   3  -5   -0.31    0.96
  14  -3   5    0.69    0.63
 -15   3  -5   37.02    4.09
  15  -3   5   40.40    3.14
  12   2  -5   33.95    3.15
 -12  -2   5   37.29    3.26
  11   2  -5   29.67    2.97
 -11  -2   5   34.32    2.97
  10   2  -5  212.30   10.83
 -10  -2   5  200.37    9.82
   9   2  -5   35.45    2.98
  -9  -2   5   42.17    3.09
   8   2  -5   29.62    2.72
  -8  -2   5   40.46    2.82
   7   2  -5  154.99    7.63
  -7  -2   5  161.59    7.53
   6   2  -5  170.03    7.90
  -6  -2   5  165.08    7.69
   5   2  -5  433.40   18.13
  -5  -2   5  435.83   17.95
   4   2  -5  216.50    9.54
  -4  -2   5  216.08    9.33
   3   2  -5    7.15    0.92
  -3  -2   5    7.09    0.86
  -3  -2   5    7.00    0.46
   2   2  -5  262.72   11.51
   2   2  -5  281.76   11.16
  -2  -2   5  273.21   11.28
   1   2  -5  472.17   18.68
   1   2  -5  465.49   18.84
  -1  -2   5  466.25   18.50
  -1  -2   5  450.41   18.49
  -1  -2   5  456.83   18.80
   0   2  -5   67.31    3.40
   0   2  -5   68.53    3.43
   0  -2   5   62.58    2.99
   0  -2   5   64.24    3.31
  -1   2  -5  329.60   14.01
  -1   2  -5  369.66   14.78
   1  -2   5  353.05   14.47
   1  -2   5  359.40   14.04
  -2   2  -5  113.77    5.56
   2  -2   5  110.62    5.17
   2  -2   5  117.60    4.70
  -3   2  -5  427.03   17.03
  -3   2  -5  450.28   18.33
   3  -2   5  432.76   17.69
  -5   2  -5  111.73    5.94
   5  -2   5  115.59    5.19
  -6   2  -5   30.38    2.54
   6  -2   5   31.15    1.91
  -7   2  -5  359.42   13.98
  -7   2  -5  363.63   15.87
  -7   2  -5  339.27   13.93
   7  -2   5  360.08   14.66
  -8   2  -5    0.64    0.21
  -8   2  -5    0.57    0.24
  -8   2  -5   -0.15    0.58
   8  -2   5    1.99    0.58
  -9   2  -5  230.83    9.52
  -9   2  -5  222.10   12.12
   9  -2   5  249.86   10.17
 -10   2  -5   26.46    2.88
 -10   2  -5   29.29    2.05
  10  -2   5   28.80    2.11
 -11   2  -5   90.89    4.23
 -11   2  -5   92.15    6.01
  11  -2   5   93.27    4.77
 -12   2  -5  205.28   10.99
 -12   2  -5  212.45    8.95
  12  -2   5  210.45    9.44
 -13   2  -5   77.39    3.87
 -13   2  -5   66.56    5.33
  13  -2   5   78.76    4.43
 -14   2  -5   40.99    4.12
 -14   2  -5   45.15    2.80
  14  -2   5   50.16    3.30
 -15   2  -5   89.32    4.49
 -15   2  -5   72.38    5.85
  15  -2   5   79.38    4.77
  12   1  -5   12.29    1.96
 -12  -1   5   11.25    1.86
  11   1  -5   50.20    3.82
 -11  -1   5   54.40    3.81
  10   1  -5  145.11    7.67
 -10  -1   5  144.80    7.41
   9   1  -5   21.98    2.36
  -9  -1   5   26.30    2.34
   8   1  -5   76.77    4.61
  -8  -1   5   83.42    4.55
   7   1  -5  329.58   14.53
  -7  -1   5  343.70   14.41
   6   1  -5   39.91    2.75
  -6  -1   5   41.98    2.66
   5   1  -5  210.15    9.41
  -5  -1   5  213.36    9.25
   4   1  -5  168.70    7.81
  -4  -1   5  181.29    7.71
   3   1  -5   24.10    1.74
  -3  -1   5   24.25    1.58
   2   1  -5  600.44   23.67
   1   1  -5  105.04    4.69
   1   1  -5  101.42    4.82
  -1  -1   5  105.73    4.77
  -1  -1   5  105.56    4.58
   0   1  -5   74.08    3.66
   0   1  -5   78.08    3.72
   0  -1   5   75.32    3.33
   0  -1   5   76.88    3.59
   0  -1   5   71.22    3.61
  -1   1  -5  369.13   14.65
  -1   1  -5  373.83   14.47
  -1   1  -5  332.80   13.95
   1  -1   5  337.51   14.33
   1  -1   5  347.71   13.93
  -2   1  -5    0.79    0.17
   2  -1   5    0.91    0.17
   2  -1   5    1.18    0.36
   2  -1   5    1.25    0.21
  -3   1  -5  382.58   16.00
   3  -1   5  377.25   15.41
  -4   1  -5  465.12   19.41
   4  -1   5  461.96   18.65
  -5   1  -5    0.12    0.32
   5  -1   5   -0.15    0.22
  -6   1  -5  447.09   17.50
  -6   1  -5  463.41   17.49
  -6   1  -5  439.58   19.11
   6  -1   5  441.47   18.09
  -7   1  -5  123.50    6.59
  -7   1  -5  122.06    5.05
   7  -1   5  126.91    5.61
  -8   1  -5   28.63    2.57
  -8   1  -5   26.89    1.41
   8  -1   5   27.41    1.84
  -9   1  -5  408.37   17.11
  -9   1  -5  436.20   19.04
   9  -1   5  446.40   17.65
 -10   1  -5   74.10    5.01
 -10   1  -5   72.88    3.49
  10  -1   5   77.39    3.93
 -11   1  -5  110.11    5.03
 -11   1  -5  108.60    6.67
  11  -1   5  112.64    5.43
 -12   1  -5  188.25    8.28
 -12   1  -5  182.53   10.08
  12  -1   5  201.24    8.73
 -13   1  -5   27.45    3.23
 -13   1  -5   35.89    2.30
  13  -1   5   37.74    2.64
 -14   1  -5   69.61    5.54
 -14   1  -5   74.45    4.05
  14  -1   5   78.98    4.41
 -15   1  -5   81.68    6.36
  15  -1   5  100.22    5.30
  12   0  -5    3.72    1.31
 -12   0   5    4.26    1.28
  11   0  -5  104.17    6.09
 -11   0   5  109.64    6.00
  10   0  -5  103.26    5.85
 -10   0   5  106.82    6.37
   9   0  -5    1.93    0.84
  -9   0   5    2.55    0.93
   8   0  -5   53.98    3.54
  -8   0   5   60.13    3.52
   7   0  -5   91.02    5.03
  -7   0   5   99.78    4.98
   6   0  -5  167.23    7.83
   5   0  -5  468.81   19.67
  -5   0   5  487.89   19.56
   4   0  -5   16.15    1.42
  -4   0   5   17.19    1.34
   3   0  -5  130.97    6.11
  -3   0   5  139.48    6.00
   2   0  -5  546.98   22.75
  -2   0   5  585.61   22.30
   1   0  -5   97.67    4.26
   1   0  -5   92.53    4.40
  -1   0   5   95.75    4.21
  -1   0  -5  401.68   16.55
   1   0   5  406.09   15.98
  -2   0  -5   12.13    1.20
   2   0   5   13.36    0.69
   2   0   5   14.02    0.72
   2   0   5   12.70    1.00
  -4   0  -5  272.97   12.05
   4   0   5  279.82   11.32
  -5   0  -5   13.61    1.52
   5   0   5   14.93    0.70
   5   0   5   16.23    1.12
  -7   0  -5  106.70    5.87
  -7   0  -5  112.56    4.57
   7   0   5  104.84    4.56
   7   0   5  111.05    4.93
  -8   0  -5  145.12    6.11
  -8   0  -5  146.22    7.57
   8   0   5  147.60    6.46
  -9   0  -5  370.14   16.78
  -9   0  -5  378.24   15.14
   9   0   5  378.57   15.45
 -10   0  -5    1.93    0.46
 -11   0  -5   65.30    3.30
 -11   0  -5   59.76    4.54
  11   0   5   67.28    3.57
 -12   0  -5  321.32   13.38
 -12   0  -5  306.32   15.07
  12   0   5  331.08   13.65
 -13   0  -5   -1.08    0.61
  13   0   5   -0.94    0.45
 -14   0  -5  103.99    7.02
 -14   0  -5  118.40    5.72
  14   0   5  117.84    5.92
 -15   0  -5   35.90    2.68
 -15   0  -5   29.64    3.47
  15   0   5   34.76    2.78
  12  -1  -5    1.93    1.04
 -12   1   5    2.17    1.00
  11  -1  -5  127.08    7.02
 -11   1   5  138.84    7.04
  10  -1  -5   64.40    4.24
 -10   1   5   67.13    4.14
   9  -1  -5   22.89    2.39
  -9   1   5   28.74    2.39
   8  -1  -5  518.82   22.41
  -8   1   5  558.07   22.34
   7  -1  -5   25.23    2.21
  -7   1   5   28.59    2.08
   6  -1  -5   76.78    4.05
  -6   1   5   71.58    3.90
   5  -1  -5  191.47    8.57
  -5   1   5  194.24    8.46
   4  -1  -5   46.02    2.70
  -4   1   5   48.83    2.65
   3  -1  -5  447.17   19.03
  -3   1   5  485.87   18.98
  -3   1   5  472.19   18.52
  -3   1   5  473.94   18.46
   2  -1  -5  263.81    9.73
   2  -1  -5  233.31   10.01
  -2   1   5  243.72    9.75
  -2   1   5  203.50    9.64
  -2   1   5  251.88    9.93
   1  -1  -5  113.81    4.87
   1  -1  -5  107.90    4.93
  -1   1   5  112.36    4.82
  -1   1   5  108.14    4.86
  -1  -1  -5  311.26   12.93
   1   1   5  305.25   12.39
   1   1   5  317.98   12.42
  -2  -1  -5   51.20    2.88
  -2  -1  -5   52.03    2.24
   2   1   5   48.87    2.48
   2   1   5   53.90    2.27
  -3  -1  -5  467.44   19.27
  -5  -1  -5  160.37    7.55
  -5  -1  -5  165.95    6.42
   5   1   5  156.19    6.66
   5   1   5  151.82    6.36
  -6  -1  -5  224.32   10.14
  -6  -1  -5  223.54    8.87
   6   1   5  204.65    8.80
   6   1   5  227.10    9.10
  -7  -1  -5   13.34    0.92
  -7  -1  -5   14.19    1.68
   7   1   5   14.55    1.09
  -8  -1  -5  204.35   10.07
  -8  -1  -5  218.71    8.81
   8   1   5  212.39    8.93
  -9  -1  -5  299.07   12.33
  -9  -1  -5  292.83   13.75
   9   1   5  310.89   12.51
 -10  -1  -5    0.00    0.59
 -10  -1  -5   -0.17    0.34
  10   1   5   -0.10    0.36
 -11  -1  -5  218.08   11.23
 -11  -1  -5  225.23    9.79
  11   1   5  242.55    9.96
 -12  -1  -5  132.09    7.72
 -12  -1  -5  136.45    6.39
  12   1   5  143.62    6.52
 -13  -1  -5    3.59    0.87
 -13  -1  -5    4.01    1.34
  13   1   5    5.16    1.01
 -14  -1  -5  103.93    6.95
 -14  -1  -5  119.47    5.87
  14   1   5  120.14    6.45
 -15  -1  -5   17.50    2.56
  15   1   5   10.99    1.61
  13  -2  -5   38.22    3.42
 -13   2   5   40.55    3.34
  12  -2  -5   16.29    2.05
 -12   2   5   19.13    2.29
  11  -2  -5  181.60    9.28
 -11   2   5  198.00    9.26
  10  -2  -5   55.06    3.93
 -10   2   5   63.45    3.91
   9  -2  -5   71.10    4.30
  -9   2   5   70.41    4.16
   8  -2  -5  222.15   10.29
  -8   2   5  232.03   10.21
   7  -2  -5    6.03    1.05
  -7   2   5    5.83    0.52
  -7   2   5    6.87    1.08
  -7   2   5    7.36    0.60
   6  -2  -5  534.08   21.85
  -6   2   5  551.86   21.77
  -6   2   5  494.20   21.01
  -6   2   5  548.14   21.00
   5  -2  -5  320.38   13.59
  -5   2   5  338.30   12.95
  -5   2   5  298.82   12.98
  -5   2   5  335.03   13.55
   4  -2  -5    2.89    0.61
  -4   2   5    2.27    0.41
  -4   2   5    2.78    0.43
  -4   2   5    2.09    0.54
   3  -2  -5  518.11   20.89
   2  -2  -5  335.90   13.70
   2  -2  -5  361.14   13.70
  -2   2   5  296.08   13.47
  -2   2   5  353.71   13.67
  -2   2   5  330.43   13.62
   1  -2  -5  348.81   13.38
   1  -2  -5  341.53   13.48
   1  -2  -5  337.32   13.43
  -1   2   5  322.98   13.50
  -1   2   5  293.11   13.40
  -1   2   5  339.21   13.37
  -1  -2  -5  114.75    4.83
  -1  -2  -5  111.99    5.28
  -1  -2  -5  120.63    4.97
   1   2   5  114.94    4.86
   1   2   5  112.56    4.93
  -2  -2  -5   67.61    2.99
  -2  -2  -5   67.87    3.57
   2   2   5   73.87    3.18
   2   2   5   68.67    3.00
   2   2   5   65.77    3.08
  -3  -2  -5  177.67    8.42
  -3  -2  -5  185.28    7.68
  -3  -2  -5  198.79    8.02
   3   2   5  188.46    7.79
   3   2   5  196.41    8.05
   3   2   5  195.43    7.69
  -4  -2  -5  317.93   12.66
  -4  -2  -5  308.87   13.56
   4   2   5  326.84   12.62
  -6  -2  -5  571.05   23.72
  -7  -2  -5   49.07    2.35
  -7  -2  -5   43.89    3.15
   7   2   5   45.95    2.35
  -8  -2  -5  121.42    6.51
  -8  -2  -5  119.50    5.38
   8   2   5  126.07    5.41
  -9  -2  -5   13.13    1.17
  -9  -2  -5   14.30    1.77
   9   2   5   12.68    1.16
 -10  -2  -5    5.37    1.34
 -10  -2  -5    5.40    0.80
  10   2   5    6.90    0.94
 -11  -2  -5  535.11   23.65
 -11  -2  -5  563.99   22.30
  11   2   5  544.00   22.20
 -12  -2  -5   41.79    2.66
 -12  -2  -5   42.01    3.57
  12   2   5   40.83    2.61
 -13  -2  -5   20.84    2.61
 -13  -2  -5   24.70    2.06
  13   2   5   22.98    1.93
 -14  -2  -5   62.58    3.78
  14   2   5   58.20    3.65
 -15  -2  -5   -0.47    0.71
 -15  -2  -5    0.46    0.79
  15   2   5   -0.57    0.57
  13  -3  -5    6.31    1.46
 -13   3   5    7.08    1.54
  12  -3  -5   28.44    2.83
 -12   3   5   33.05    2.89
  11  -3  -5  193.42    9.55
 -11   3   5  198.17    9.43
  10  -3  -5   37.88    3.02
 -10   3   5   36.83    2.88
   9  -3  -5  131.91    6.57
  -9   3   5  140.24    6.56
  -9   3   5  116.08    5.62
   8  -3  -5   97.50    5.17
  -8   3   5   98.76    5.07
  -8   3   5   92.15    4.45
   7  -3  -5   -0.04    0.50
  -7   3   5    0.94    0.40
  -7   3   5    0.29    0.50
   6  -3  -5  216.66    9.67
  -6   3   5  235.31    9.26
  -6   3   5  195.60    9.46
  -6   3   5  228.63    9.66
   5  -3  -5  273.26   11.41
   5  -3  -5  225.71   11.01
  -5   3   5  310.51   11.14
  -5   3   5  243.38   11.08
  -5   3   5  284.15   11.41
   4  -3  -5   25.43    1.73
   4  -3  -5   32.12    1.96
  -4   3   5   26.88    1.81
  -4   3   5   35.16    1.84
  -4   3   5   31.73    1.94
  -3   3   5  608.24   24.38
   2  -3  -5   12.15    1.00
   2  -3  -5   12.09    0.98
  -2   3   5   11.44    1.03
  -2   3   5   10.99    0.96
  -2   3   5   13.15    1.04
   1  -3  -5   73.20    3.30
   1  -3  -5   64.75    3.08
   1  -3  -5   62.68    3.02
  -1   3   5   55.68    3.13
   0  -3  -5  356.28   13.73
   0   3   5  305.25   13.63
  -1  -3  -5  104.97    4.49
  -1  -3  -5   98.45    4.88
  -1  -3  -5  104.72    4.43
   1   3   5  105.96    4.43
  -2  -3  -5  300.36   13.63
   2   3   5  356.17   13.11
   2   3   5  323.16   13.08
  -4  -3  -5   29.24    1.59
  -4  -3  -5   29.32    2.15
  -4  -3  -5   29.37    1.52
   4   3   5   29.98    1.46
  -5  -3  -5  376.75   15.16
  -5  -3  -5  378.63   16.09
  -6  -3  -5   82.74    4.67
  -6  -3  -5   86.01    3.89
   6   3   5   84.04    3.69
  -7  -3  -5  140.13    5.98
  -7  -3  -5  133.75    6.89
   7   3   5  135.90    5.80
  -8  -3  -5  208.63   10.01
  -8  -3  -5  217.75    8.99
   8   3   5  207.93    8.79
  -9  -3  -5   12.64    1.17
  -9  -3  -5   10.25    1.59
   9   3   5   10.11    1.00
 -10  -3  -5  333.09   13.88
 -10  -3  -5  319.76   15.00
  10   3   5  342.20   13.71
 -11  -3  -5  390.45   16.58
 -11  -3  -5  362.66   17.69
  11   3   5  436.53   16.87
 -12  -3  -5    6.36    1.44
  12   3   5    6.61    1.00
 -13  -3  -5  100.61    5.07
 -13  -3  -5   84.52    5.74
  13   3   5   93.12    4.77
 -14  -3  -5  138.49    6.63
 -14  -3  -5  114.62    7.22
  14   3   5  124.40    6.21
 -15  -3  -5    1.07    0.91
 -15  -3  -5   -0.21    0.82
  15   3   5    1.18    0.72
  13  -4  -5    0.18    0.76
 -13   4   5   -1.14    0.62
  12  -4  -5  133.17    7.41
 -12   4   5  147.59    7.43
  11  -4  -5  197.21    9.82
 -11   4   5  210.47    9.77
  10  -4  -5    5.59    1.23
 -10   4   5    5.42    1.20
 -10   4   5    5.72    0.96
   9  -4  -5   81.49    4.73
  -9   4   5   86.25    4.64
  -9   4   5   79.57    4.24
   8  -4  -5   24.34    2.17
  -8   4   5   22.09    1.76
  -8   4   5   18.85    1.92
   7  -4  -5  168.71    8.11
  -7   4   5  184.69    8.15
   6  -4  -5  532.49   22.66
  -6   4   5  578.14   22.72
   5  -4  -5  131.47    6.39
   5  -4  -5  132.59    6.37
  -5   4   5  138.96    6.40
  -5   4   5  152.10    6.37
   4  -4  -5  158.68    7.10
   4  -4  -5  152.19    7.01
  -4   4   5  153.12    7.06
  -4   4   5  172.00    7.09
   3  -4  -5  237.03   10.00
   3  -4  -5  228.68    9.90
  -3   4   5  241.45   10.01
  -3   4   5  238.18   10.00
   2  -4  -5  138.66    6.06
   2  -4  -5  141.83    6.19
  -2   4   5  139.63    6.27
  -1  -4  -5   26.94    1.91
  -1  -4  -5   29.20    1.43
  -1  -4  -5   27.21    1.60
   1   4   5   29.65    1.40
   1   4   5   26.90    1.93
  -4  -4  -5    1.24    0.36
  -4  -4  -5    1.20    0.24
  -4  -4  -5    2.08    0.62
   4   4   5    1.40    0.22
  -5  -4  -5  517.10   21.06
  -5  -4  -5  490.37   19.86
  -6  -4  -5  121.52    5.27
  -6  -4  -5  113.72    6.00
   6   4   5  115.08    4.89
  -7  -4  -5  255.31   10.56
  -7  -4  -5  246.78   11.45
  -8  -4  -5  155.85    6.92
  -8  -4  -5  146.96    7.75
   8   4   5  161.14    6.60
  -9  -4  -5  190.87    8.59
  -9  -4  -5  194.97    9.59
   9   4   5  201.86    8.30
 -10  -4  -5  168.08    8.82
 -10  -4  -5  179.84    7.92
  10   4   5  174.52    7.56
 -11  -4  -5  155.40    8.48
 -11  -4  -5  165.29    7.62
  11   4   5  168.96    7.30
 -12  -4  -5    0.65    0.77
 -12  -4  -5    0.05    0.60
  12   4   5    0.96    0.63
 -13  -4  -5   89.66    5.86
 -13  -4  -5   99.31    5.25
  13   4   5   96.55    4.87
 -14  -4  -5   47.10    3.24
 -14  -4  -5   35.31    3.50
  14   4   5   42.18    2.87
 -15  -4  -5    0.66    0.82
 -15  -4  -5    0.37    0.87
  15   4   5   -0.19    0.59
  13  -5  -5   -0.43    0.62
 -13   5   5   -0.69    0.68
  12  -5  -5  126.96    7.06
 -12   5   5  137.48    7.09
  11  -5  -5   89.64    5.21
 -11   5   5   94.22    5.24
 -11   5   5   82.59    4.73
  10  -5  -5   18.22    2.05
 -10   5   5   18.60    2.02
   9  -5  -5  187.24    8.81
  -9   5   5  184.78    8.70
  -9   5   5  181.80    8.57
   8  -5  -5   82.41    4.59
  -8   5   5   84.11    4.58
  -8   5   5   81.44    4.46
   7  -5  -5   35.80    2.57
  -7   5   5   35.93    2.48
  -7   5   5   36.36    2.53
   6  -5  -5  247.92   11.47
   6  -5  -5  265.10   11.61
  -6   5   5  268.67   11.58
  -6   5   5  288.82   11.67
   5  -5  -5    5.48    0.87
   5  -5  -5    6.50    1.03
  -5   5   5    6.14    0.95
  -5   5   5    6.85    1.01
   4  -5  -5  565.57   22.99
   4  -5  -5  579.21   23.14
  -4   5   5  567.31   23.10
   3  -5  -5  450.42   18.56
   3  -5  -5  439.71   18.37
  -3   5   5  475.76   18.72
   2  -5  -5    0.66    0.32
   2  -5  -5    1.09    0.32
  -2   5   5    1.26    0.48
   0  -5  -5  183.76    7.74
   0  -5  -5  181.98    7.40
   0   5   5  166.81    8.04
   0   5   5  189.73    7.36
  -1  -5  -5  106.08    5.25
  -1  -5  -5  107.18    4.83
  -1  -5  -5  108.20    4.43
   1   5   5  120.02    4.43
   1   5   5   90.96    5.14
  -3  -5  -5   15.92    1.23
  -3  -5  -5   14.92    1.52
   3   5   5   15.60    1.54
   3   5   5   16.02    0.76
   3   5   5   18.52    0.82
  -4  -5  -5  292.09   12.08
  -4  -5  -5  294.42   11.53
  -4  -5  -5  275.93   12.69
   4   5   5  282.08   11.45
   4   5   5  314.97   11.56
  -6  -5  -5   32.70    2.02
  -6  -5  -5   33.08    2.55
  -6  -5  -5   30.99    1.63
   6   5   5   33.94    1.60
  -7  -5  -5   73.92    3.86
  -7  -5  -5   77.83    4.61
   7   5   5   78.01    3.42
  -8  -5  -5  209.93   10.49
  -8  -5  -5  229.04    9.73
   8   5   5  230.18    9.23
  -9  -5  -5   49.87    3.73
  -9  -5  -5   50.42    3.03
   9   5   5   53.99    2.67
 -10  -5  -5  184.52    9.71
 -10  -5  -5  203.81    8.95
  10   5   5  200.79    8.43
 -11  -5  -5   38.64    3.35
 -11  -5  -5   38.09    2.72
  11   5   5   39.13    2.35
 -12  -5  -5   14.11    1.75
 -12  -5  -5   11.01    1.93
  12   5   5   11.30    1.29
 -13  -5  -5  148.50    7.23
 -13  -5  -5  131.52    7.72
  13   5   5  140.61    6.60
 -14  -5  -5    9.07    1.80
 -14  -5  -5   10.72    1.67
  14   5   5   11.04    1.50
  12  -6  -5   96.28    5.87
 -12   6   5  105.70    5.85
  11  -6  -5   24.29    2.48
 -11   6   5   25.57    2.52
 -11   6   5   25.70    2.33
  10  -6  -5   48.37    3.50
 -10   6   5   48.31    3.41
 -10   6   5   52.62    3.54
   9  -6  -5  227.68   10.66
  -9   6   5  246.34   10.75
  -9   6   5  229.26   10.76
   8  -6  -5    2.66    0.81
  -8   6   5    1.47    0.73
  -8   6   5    0.86    0.58
   7  -6  -5   56.25    3.52
   7  -6  -5   54.60    3.42
  -7   6   5   58.22    3.48
  -7   6   5   60.84    3.63
   6  -6  -5   60.88    3.47
   6  -6  -5   55.78    3.31
  -6   6   5   58.54    3.50
  -6   6   5   52.17    3.64
   5  -6  -5    9.05    1.21
   5  -6  -5   10.64    1.15
  -5   6   5    8.92    1.09
  -5   6   5    9.30    1.27
   4  -6  -5  436.40   18.24
   4  -6  -5  445.94   18.48
  -4   6   5  440.08   18.41
  -4   6   5  471.00   18.71
   3  -6  -5  192.57    8.47
   3  -6  -5  200.23    8.76
  -3   6   5  206.66    8.98
   2  -6  -5  138.79    6.14
   2  -6  -5  144.36    6.48
  -2   6   5  146.01    6.74
   0  -6  -5   91.74    4.37
   0  -6  -5   91.81    3.94
   0   6   5   97.62    3.89
   0   6   5   85.96    4.69
  -1  -6  -5  195.00    8.29
  -1  -6  -5  199.41    7.70
   1   6   5  177.41    8.70
   1   6   5  196.84    7.65
  -3  -6  -5  138.04    6.78
  -3  -6  -5  142.00    6.24
   3   6   5  135.80    6.80
  -4  -6  -5  242.98   10.07
  -4  -6  -5  234.59   10.68
   4   6   5  229.32   10.69
  -5  -6  -5  312.50   14.02
  -5  -6  -5  314.96   12.54
  -5  -6  -5  323.61   13.36
   5   6   5  298.33   14.00
   5   6   5  344.47   12.54
  -6  -6  -5   20.48    1.12
  -6  -6  -5   20.86    1.67
  -6  -6  -5   21.87    2.13
   6   6   5   23.71    1.15
   6   6   5   19.02    2.03
  -7  -6  -5  294.84   12.74
  -7  -6  -5  295.48   13.55
   7   6   5  275.76   13.44
   7   6   5  332.27   12.11
  -8  -6  -5  233.48   11.14
  -8  -6  -5  235.63   10.31
  -9  -6  -5   70.24    4.70
  -9  -6  -5   69.75    4.00
   9   6   5   75.08    3.48
 -10  -6  -5  240.23   10.80
  10   6   5  242.21   10.16
 -11  -6  -5   33.41    3.08
 -11  -6  -5   32.95    2.65
  11   6   5   28.98    2.79
  11   6   5   35.52    2.15
 -12  -6  -5   52.18    3.47
 -12  -6  -5   49.77    3.90
  12   6   5   40.25    3.49
  12   6   5   52.65    2.90
 -13  -6  -5   59.90    4.45
  13   6   5   50.83    3.92
  13   6   5   59.74    3.32
 -14  -6  -5    0.88    0.94
 -14  -6  -5    0.44    0.88
  14   6   5    0.85    0.90
  14   6   5    2.51    0.76
  12  -7  -5  132.17    7.21
 -12   7   5  124.95    7.65
 -12   7   5  141.69    7.21
  11  -7  -5    3.41    1.06
 -11   7   5    1.41    0.97
 -11   7   5    2.08    0.91
 -10   7   5   68.01    4.47
 -10   7   5   69.98    4.31
   9  -7  -5  174.31    8.38
  -9   7   5  168.94    9.18
  -9   7   5  178.71    8.41
   8  -7  -5   33.51    2.59
   8  -7  -5   37.91    2.71
  -8   7   5   33.87    2.86
  -8   7   5   35.13    2.68
   7  -7  -5  286.52   12.40
   7  -7  -5  283.66   12.56
  -7   7   5  276.52   12.46
  -7   7   5  293.99   12.85
   6  -7  -5   73.24    4.18
  -6   7   5   77.73    4.42
  -6   7   5   71.99    4.10
   5  -7  -5   37.84    2.56
   5  -7  -5   37.99    2.36
  -5   7   5   35.68    2.67
  -5   7   5   34.86    2.44
   4  -7  -5  395.06   16.17
   4  -7  -5  363.86   15.78
  -4   7   5  397.67   16.45
   3  -7  -5  210.03    9.02
   3  -7  -5  213.11    9.39
  -3   7   5  217.63    9.70
   2  -7  -5  256.44   11.17
   2  -7  -5  259.89   10.76
  -2   7   5  268.61   11.57
   1  -7  -5  498.67   20.87
  -1   7   5  528.14   21.36
   0  -7  -5   13.18    1.21
   0  -7  -5   13.70    0.85
   0   7   5   10.87    1.40
   0   7   5   13.93    0.79
  -1  -7  -5  422.46   15.69
  -1  -7  -5  412.30   16.49
   1   7   5  397.85   17.00
   1   7   5  368.04   15.62
  -2  -7  -5  715.65   28.72
  -3  -7  -5    8.48    1.00
  -3  -7  -5   10.76    1.37
   3   7   5    7.49    1.22
  -4  -7  -5  249.47   10.55
  -4  -7  -5  246.53   11.15
   4   7   5  235.36   11.11
  -5  -7  -5  274.02   11.73
  -5  -7  -5  279.44   12.43
   5   7   5  266.36   12.37
  -6  -7  -5    0.23    0.59
  -6  -7  -5    0.88    0.18
  -6  -7  -5    0.51    0.54
   6   7   5    1.53    0.21
   6   7   5    0.21    0.60
  -7  -7  -5  157.50    7.06
  -7  -7  -5  176.27    8.75
  -7  -7  -5  184.34    8.09
   7   7   5  169.23    8.67
   7   7   5  185.24    7.16
  -8  -7  -5   -0.47    0.55
  -8  -7  -5    0.08    0.52
   8   7   5   -0.34    0.55
   8   7   5    0.52    0.31
  -9  -7  -5  209.26   11.27
  -9  -7  -5  215.60    9.66
   9   7   5  186.79   10.73
   9   7   5  224.61    8.84
 -10  -7  -5  202.69    9.30
 -10  -7  -5  210.25   10.16
  10   7   5  174.04    9.62
  10   7   5  203.99    8.49
 -11  -7  -5   10.72    1.63
 -11  -7  -5   11.09    1.89
  11   7   5   11.25    1.93
  11   7   5   13.79    1.25
 -12  -7  -5   73.21    4.53
 -12  -7  -5   71.99    5.00
  12   7   5   66.41    3.93
 -13  -7  -5   75.78    5.21
 -13  -7  -5   76.79    4.85
  13   7   5   74.26    4.05
 -14  -7  -5    6.39    1.41
  14   7   5    5.34    1.35
  12  -8  -5   68.42    4.60
 -12   8   5   69.21    4.50
 -12   8   5   67.17    4.76
  11  -8  -5    1.55    0.92
 -11   8   5    2.38    1.11
 -11   8   5    3.19    1.13
  10  -8  -5  114.20    6.10
 -10   8   5  107.16    6.37
   9  -8  -5   49.57    3.37
  -9   8   5   47.01    3.36
  -9   8   5   48.29    3.68
   8  -8  -5   52.82    3.41
   8  -8  -5   56.24    3.63
  -8   8   5   52.86    3.79
  -8   8   5   50.72    3.45
   7  -8  -5  142.62    6.99
   7  -8  -5  146.20    7.23
  -7   8   5  152.99    8.37
  -7   8   5  146.53    7.17
   6  -8  -5   78.05    4.08
   6  -8  -5   68.95    4.16
  -6   8   5   78.93    4.30
  -6   8   5   75.52    4.59
   5  -8  -5   13.90    1.45
   5  -8  -5   13.91    1.62
  -5   8   5   14.87    1.79
   4  -8  -5   78.04    3.99
   4  -8  -5   84.67    4.40
  -4   8   5   80.72    4.65
   3  -8  -5    2.25    0.54
   3  -8  -5    2.50    0.73
  -3   8   5    2.95    0.83
   2  -8  -5  363.85   15.46
   2  -8  -5  357.96   14.93
  -2   8   5  386.16   15.98
   1  -8  -5  166.34    7.05
   1  -8  -5  166.92    7.65
  -1   8   5  174.03    8.14
   0  -8  -5  105.96    5.14
   0  -8  -5  109.76    4.45
   0   8   5  111.14    5.62
   0   8   5   94.29    4.32
  -1  -8  -5  506.45   19.51
  -1  -8  -5  517.10   20.53
   1   8   5  526.54   21.13
   1   8   5  451.42   19.47
  -2  -8  -5  422.53   17.50
   2   8   5  420.41   18.06
  -3  -8  -5   92.42    4.72
   3   8   5   91.90    5.19
  -4  -8  -5  428.64   17.63
   4   8   5  415.53   18.22
  -5  -8  -5   67.95    4.34
  -5  -8  -5   67.99    3.78
   5   8   5   63.47    4.24
  -6  -8  -5  111.69    6.34
  -6  -8  -5  128.66    6.69
   6   8   5  116.81    6.51
  -7  -8  -5  383.26   16.65
  -7  -8  -5  367.89   15.83
  -7  -8  -5  360.15   14.58
   7   8   5  358.22   16.45
   7   8   5  381.55   14.58
  -8  -8  -5   -0.18    0.82
  -8  -8  -5   -0.56    0.37
   8   8   5    0.40    0.23
  -9  -8  -5  188.79    9.45
  -9  -8  -5  179.96    8.61
   9   8   5  170.73    9.07
 -10  -8  -5  175.76    9.23
 -10  -8  -5  182.44    8.61
  10   8   5  166.39    8.93
  10   8   5  175.18    7.54
 -11  -8  -5    4.01    1.11
 -11  -8  -5    3.43    1.24
  11   8   5    4.20    0.69
  11   8   5    3.66    1.22
 -12  -8  -5   69.85    4.92
 -12  -8  -5   64.12    4.44
  12   8   5   62.96    4.47
  12   8   5   67.64    3.57
 -13  -8  -5   58.85    4.12
  13   8   5   48.00    3.86
  11  -9  -5    3.72    1.15
 -11   9   5    2.25    1.11
 -11   9   5    3.37    1.40
  10  -9  -5  136.32    7.11
 -10   9   5  129.44    7.60
 -10   9   5  144.82    7.23
   9  -9  -5   25.05    2.31
   9  -9  -5   22.56    2.35
  -9   9   5   21.39    2.54
  -9   9   5   28.26    2.48
   8  -9  -5  101.88    5.59
   8  -9  -5  101.11    5.36
  -8   9   5  103.87    6.07
  -8   9   5   94.06    5.41
   7  -9  -5  145.93    7.26
   7  -9  -5  145.40    6.96
  -7   9   5  146.17    7.70
  -7   9   5  141.65    7.15
   6  -9  -5   22.26    1.93
   6  -9  -5   25.31    2.26
  -6   9   5   26.62    2.57
  -6   9   5   26.35    2.24
   5  -9  -5  116.49    5.50
   5  -9  -5  111.59    5.79
  -5   9   5  111.24    6.21
   4  -9  -5  300.15   12.93
   4  -9  -5  294.08   13.37
  -4   9   5  338.00   14.93
   3  -9  -5   11.03    1.09
  -3   9   5    8.66    1.58
   2  -9  -5  351.51   15.35
   2  -9  -5  360.17   14.73
  -2   9   5  377.99   15.96
   1  -9  -5  133.35    6.59
   1  -9  -5  141.35    5.92
  -1   9   5  141.49    7.12
   0  -9  -5    5.44    0.54
   0  -9  -5    7.44    1.12
   0   9   5    3.45    0.43
   0   9   5    4.84    1.13
  -1  -9  -5  302.05   12.69
   1   9   5  313.60   13.30
   1   9   5  267.57   11.48
  -2  -9  -5   19.44    1.85
   2   9   5   21.10    2.08
  -3  -9  -5  155.52    7.41
   3   9   5  158.31    7.92
  -4  -9  -5  507.79   21.34
   4   9   5  514.90   21.88
  -5  -9  -5   67.51    4.00
   5   9   5   65.73    4.37
  -6  -9  -5   68.47    4.07
   6   9   5   70.35    5.17
  -7  -9  -5   98.74    5.36
   7   9   5   96.44    5.78
  -8  -9  -5    1.77    0.90
   8   9   5    1.11    1.02
  -9  -9  -5  205.45    9.38
   9   9   5  180.22    7.93
   9   9   5  189.43    9.67
 -10  -9  -5   63.77    4.24
  10   9   5   63.18    4.53
 -11  -9  -5   20.23    2.47
  11   9   5   16.92    2.21
 -12  -9  -5   95.01    5.74
  12   9   5   89.77    5.62
  11 -10  -5   26.83    2.66
 -11  10   5   26.75    2.70
 -11  10   5   24.34    3.10
  10 -10  -5   77.03    4.69
 -10  10   5   72.74    5.25
 -10  10   5   75.00    4.71
   9 -10  -5   -0.27    0.75
  -9  10   5   -0.16    0.90
   8 -10  -5   34.21    2.88
   8 -10  -5   35.35    2.76
  -8  10   5   35.15    2.85
  -8  10   5   34.95    3.31
   7 -10  -5  112.97    6.02
   7 -10  -5  110.23    5.67
  -7  10   5  111.91    5.96
  -7  10   5  112.26    6.56
   6 -10  -5   41.62    2.71
   6 -10  -5   41.13    3.06
  -6  10   5   41.09    3.45
   5 -10  -5  165.14    7.76
   5 -10  -5  154.88    7.22
  -5  10   5  155.24    8.22
   4 -10  -5    2.53    0.74
   4 -10  -5    1.57    0.79
  -4  10   5    3.75    1.16
   3 -10  -5  200.32    9.36
   3 -10  -5  198.94    8.71
  -3  10   5  212.87    9.99
   2 -10  -5  335.78   13.94
   2 -10  -5  333.48   14.70
  -2  10   5  358.28   15.38
   1 -10  -5   80.14    3.66
   1 -10  -5   78.40    4.45
  -1  10   5   83.10    4.99
   0 -10  -5  132.82    6.38
   0 -10  -5  133.88    5.33
   0  10   5  109.15    5.22
   0  10   5  135.27    6.87
  -1 -10  -5  289.21   12.88
   1  10   5  300.37   13.46
  -2 -10  -5   35.43    2.76
   2  10   5   39.95    3.11
  -3 -10  -5  519.17   22.23
   3  10   5  546.89   22.86
  -4 -10  -5  349.49   15.49
   4  10   5  366.90   16.11
  -5 -10  -5    6.53    1.30
   5  10   5    6.64    1.44
  -6 -10  -5  138.40    7.17
   6  10   5  144.43    7.67
  -7 -10  -5   64.17    4.21
   7  10   5   65.90    4.59
  -8 -10  -5   33.62    2.98
   8  10   5   36.23    3.24
  -9 -10  -5  214.93   10.68
   9  10   5  221.60   10.88
 -10 -10  -5    5.80    1.46
  10  10   5    8.78    1.81
 -11 -10  -5   36.11    3.39
  11  10   5   38.72    3.33
 -12 -10  -5  132.87    7.54
  12  10   5  133.74    7.44
  10 -11  -5   59.00    4.17
  10 -11  -5   59.39    4.00
 -10  11   5   60.40    4.17
 -10  11   5   55.38    4.70
   9 -11  -5    7.18    1.37
   9 -11  -5    5.92    1.39
  -9  11   5    6.67    1.47
   8 -11  -5  181.86    8.27
  -8  11   5  165.19    8.49
  -8  11   5  159.14    9.08
   7 -11  -5   77.57    4.76
   7 -11  -5   80.54    4.43
  -7  11   5   79.59    4.73
  -7  11   5   77.51    5.36
   6 -11  -5   22.59    2.30
   6 -11  -5   24.24    2.01
  -6  11   5   21.36    2.68
   5 -11  -5  263.08   11.05
   5 -11  -5  247.22   11.55
  -5  11   5  251.51   12.24
   4 -11  -5    5.49    1.23
   4 -11  -5    8.65    1.09
  -4  11   5    6.38    1.55
   3 -11  -5  108.01    5.93
   3 -11  -5  116.51    5.31
  -3  11   5  119.18    6.59
   2 -11  -5  154.01    6.72
   2 -11  -5  151.26    7.56
  -2  11   5  159.05    8.21
   1 -11  -5   12.84    1.75
   1 -11  -5   14.43    1.23
  -1  11   5   16.13    2.20
   0 -11  -5  317.58   12.66
   0 -11  -5  304.77   13.88
   0  11   5  327.15   14.57
  -1 -11  -5  478.33   20.71
   1  11   5  503.77   21.36
  -2 -11  -5    2.98    1.05
   2  11   5    4.76    1.37
  -3 -11  -5   99.30    5.65
   3  11   5  108.53    6.19
  -4 -11  -5   77.71    4.68
   4  11   5   80.14    5.13
  -5 -11  -5   54.10    3.72
   5  11   5   50.82    3.92
  -6 -11  -5   79.72    5.01
   6  11   5   91.57    5.57
  -7 -11  -5   65.54    4.57
   7  11   5   76.11    5.00
  -8 -11  -5   66.48    5.24
   8  11   5   71.90    4.91
  -9 -11  -5  125.69    7.21
   9  11   5  134.99    7.48
 -10 -11  -5    0.36    1.11
  10  11   5    0.61    1.11
 -11 -11  -5   28.99    3.17
  11  11   5   30.17    3.13
  10 -12  -5   11.20    1.88
  10 -12  -5    7.62    1.40
 -10  12   5   10.27    1.78
 -10  12   5    8.79    2.10
   9 -12  -5   12.78    2.01
   9 -12  -5   16.19    2.03
  -9  12   5   16.42    2.64
  -9  12   5   10.85    1.81
   8 -12  -5  145.26    7.19
   8 -12  -5  145.34    7.56
  -8  12   5  149.01    7.56
  -8  12   5  130.52    8.19
   7 -12  -5   67.56    4.03
   6 -12  -5   89.63    4.69
   6 -12  -5   89.31    5.20
  -6  12   5   83.78    5.78
   5 -12  -5  126.64    5.97
   5 -12  -5  111.23    6.43
  -5  12   5  130.22    7.31
   4 -12  -5    0.55    0.76
   4 -12  -5    0.66    0.56
  -4  12   5    0.53    1.03
   3 -12  -5   68.73    3.54
   3 -12  -5   69.69    4.28
  -3  12   5   68.25    4.86
   2 -12  -5   71.14    4.43
   2 -12  -5   73.42    3.55
  -2  12   5   71.59    4.96
   1 -12  -5    6.88    1.40
  -1  12   5    7.57    1.68
   0 -12  -5  221.51   10.61
   0 -12  -5  229.51    9.23
   0  12   5  232.69   11.28
  -1 -12  -5   53.38    3.73
   1  12   5   58.60    4.31
  -2 -12  -5   76.78    4.92
   2  12   5   89.04    5.50
  -3 -12  -5  137.04    7.56
   3  12   5  159.06    8.23
  -4 -12  -5   14.56    2.06
   4  12   5   16.71    2.41
  -5 -12  -5   56.59    4.14
   5  12   5   65.21    4.63
  -6 -12  -5   95.08    6.55
   6  12   5  108.93    6.44
  -7 -12  -5   -0.36    0.60
   7  12   5   -1.08    0.78
  -8 -12  -5  111.84    6.71
   8  12   5  120.40    6.99
  -9 -12  -5   45.19    3.92
   9  12   5   50.44    4.13
 -10 -12  -5   -0.83    0.85
  10  12   5   -0.15    1.03
   9 -13  -5   12.15    1.98
   9 -13  -5   10.31    1.69
  -9  13   5   10.35    2.19
  -9  13   5   14.02    2.11
   8 -13  -5   32.99    3.09
   8 -13  -5   33.86    2.90
  -8  13   5   35.21    3.10
  -8  13   5   36.84    3.81
   7 -13  -5    1.07    0.97
   7 -13  -5    0.82    0.77
  -7  13   5    1.08    1.18
   6 -13  -5   82.16    4.50
   6 -13  -5   79.90    5.08
  -6  13   5   85.09    5.94
   5 -13  -5   65.58    4.48
   5 -13  -5   69.63    3.83
  -5  13   5   70.45    5.11
   4 -13  -5   37.13    2.66
   4 -13  -5   30.06    2.87
  -4  13   5   34.30    4.12
   3 -13  -5  180.99    9.12
   3 -13  -5  186.45    8.11
  -3  13   5  187.71    9.93
   2 -13  -5   58.16    2.91
   2 -13  -5   46.32    3.70
  -2  13   5   56.90    4.45
   1 -13  -5   36.65    3.18
  -1  13   5   44.11    3.69
   0 -13  -5  211.17   10.28
   0  13   5  214.52   10.90
  -1 -13  -5    3.89    1.29
   1  13   5    6.21    1.68
  -2 -13  -5  114.33    6.65
   2  13   5  130.80    7.37
  -3 -13  -5  234.69   11.55
   3  13   5  250.00   12.14
   4  13   5   -0.95    0.89
  -5 -13  -5   63.69    4.65
   5  13   5   71.38    5.08
  -6 -13  -5   65.05    4.63
   6  13   5   69.95    5.04
  -7 -13  -5   23.05    2.82
   7  13   5   23.54    3.07
  -8 -13  -5  136.65    7.82
  -9 -13  -5   29.49    3.34
   9  13   5   35.87    3.58
   7 -14  -5   10.28    1.76
  -7  14   5   11.25    2.47
   6 -14  -5   96.07    5.84
   6 -14  -5  101.45    5.22
  -6  14   5   94.58    6.66
   5 -14  -5   61.12    4.42
   5 -14  -5   64.74    3.70
  -5  14   5   67.73    5.19
   4 -14  -5    6.29    1.00
   4 -14  -5    5.83    1.43
  -4  14   5    6.10    1.70
   3 -14  -5   83.72    4.22
   3 -14  -5   84.09    5.29
  -3  14   5   87.75    6.05
   2 -14  -5    3.00    1.32
   2 -14  -5    2.29    0.60
  -2  14   5    2.92    1.39
  -1  14   5  106.97    6.86
   0 -14  -5   96.38    5.94
   0  14   5  101.94    6.56
  -1 -14  -5    0.22    0.94
   1  14   5    0.02    0.84
  -2 -14  -5  149.84    8.05
   2  14   5  151.02    9.49
  -3 -14  -5  146.36    8.07
   3  14   5  149.34    8.66
  -4 -14  -5   -0.76    0.93
   4  14   5   -0.03    0.96
  -5 -14  -5  101.21    6.46
   5  14   5  117.55    7.09
  -6 -14  -5   31.91    3.32
   6  14   5   31.58    3.66
  -7 -14  -5   30.47    3.35
   7  14   5   34.96    3.77
   6 -15  -5   59.44    5.39
   6 -15  -5   60.09    3.74
  -6  15   5   62.38    5.32
   5 -15  -5    3.90    0.97
   5 -15  -5    5.26    1.48
  -5  15   5    6.26    2.01
   4 -15  -5   91.55    5.76
   4 -15  -5   92.30    4.72
  -4  15   5   91.16    6.58
   3 -15  -5  136.78    7.71
  -3  15   5  146.01    8.72
   2 -15  -5    1.24    1.04
  -2  15   5   -0.18    0.90
   1 -15  -5   98.62    6.13
  -1  15   5  102.34    6.88
   0 -15  -5   54.36    4.25
   0  15   5   56.14    4.85
  -1 -15  -5    4.25    1.50
   1  15   5    4.22    1.46
  -2 -15  -5  151.27    8.53
   2  15   5  164.82    9.18
  -3 -15  -5   55.57    4.33
   3  15   5   59.31    4.90
  -4 -15  -5    6.48    1.75
   4  15   5    9.07    2.15
  -5 -15  -5   67.60    5.13
   5  15   5   73.81    5.58
   3 -16  -5   60.33    4.65
  -3  16   5   66.55    5.51
   2 -16  -5   -0.03    0.96
  -2  16   5   -1.07    1.22
   1 -16  -5   55.40    4.43
  -1  16   5   64.29    5.38
   0 -16  -5   32.75    3.34
   0  16   5   33.42    3.86
  -1 -16  -5    2.03    1.26
   1  16   5    2.55    1.43
  -2 -16  -5   33.04    3.41
   2  16   5   32.07    3.76
  -1 -11   6   35.55    3.01
  -1 -11   6   38.83    3.10
   0  11  -6   20.53    2.81
   0 -11   6   18.96    2.19
   0 -11   6   16.59    2.10
  -1  11  -6   54.76    5.42
   1 -11   6   65.38    4.08
   1 -11   6   58.68    3.85
  -2  11  -6   10.90    2.24
   2 -11   6    8.55    1.48
  -3  11  -6   20.83    3.18
   3 -11   6   28.44    2.64
   3 -11   6   26.83    2.20
  -4  11  -6   55.46    5.10
   4 -11   6   55.71    3.78
  -5  11  -6    1.72    1.40
   5 -11   6    0.63    0.75
  -6  11  -6  103.12    7.71
   6 -11   6  122.23    6.31
  -7  11  -6   88.52    7.16
   7 -11   6  111.29    5.89
  -8  11  -6   -0.28    0.96
   8 -11   6   -0.93    0.71
  -4 -10   6   26.85    2.74
  -3 -10   6    4.06    1.27
  -3 -10   6    5.59    1.35
   2  10  -6   79.53    5.19
  -2 -10   6   86.85    4.95
  -2 -10   6   86.60    5.64
   1  10  -6    0.16    0.78
  -1 -10   6    1.14    0.71
  -1 -10   6    0.12    0.68
   0  10  -6   45.80    3.87
   0 -10   6   48.54    3.33
   0 -10   6   46.11    3.19
  -1  10  -6   62.40    4.79
   1 -10   6   62.50    3.97
   1 -10   6   57.27    3.69
  -2  10  -6    1.98    1.29
   2 -10   6    2.45    0.88
   2 -10   6    3.14    0.97
  -3  10  -6   76.47    5.72
   3 -10   6   78.71    4.26
   3 -10   6   80.19    4.67
  -4  10  -6   96.84    7.72
   4 -10   6   93.80    5.28
  -5  10  -6    3.74    1.66
   5 -10   6    1.44    0.57
  -6  10  -6   40.40    4.35
   6 -10   6   42.95    3.23
  -7  10  -6    2.38    1.53
   7 -10   6    0.32    0.77
  -8  10  -6   46.21    4.93
   8 -10   6   58.82    3.91
  -9  10  -6  100.96    8.01
   9 -10   6  124.63    6.43
 -10  10  -6    8.53    2.44
  10 -10   6    7.96    1.58
  -5  -9   6   95.51    5.55
  -5  -9   6   92.79    5.60
  -4  -9   6    4.49    1.23
  -4  -9   6    5.54    1.29
  -3  -9   6   21.16    2.21
  -3  -9   6   19.31    2.48
   2   9  -6   57.85    4.11
  -2  -9   6   63.37    3.96
  -2  -9   6   65.53    4.01
   1   9  -6    1.72    1.06
  -1  -9   6    1.68    0.86
  -1  -9   6    0.04    0.71
   0   9  -6  105.64    6.36
   0  -9   6  114.72    5.89
   0  -9   6  108.13    5.63
  -1   9  -6   53.30    4.20
   1  -9   6   50.08    3.26
   1  -9   6   50.56    3.42
  -2   9  -6   31.49    3.41
   2  -9   6   34.52    2.72
  -3   9  -6  184.82   10.19
   3  -9   6  182.63    8.51
   3  -9   6  206.93    9.15
  -4   9  -6   31.76    3.53
   4  -9   6   35.14    2.26
   4  -9   6   34.09    2.75
  -5   9  -6   76.45    5.85
   5  -9   6   79.61    4.56
   5  -9   6   73.75    3.85
  -6   9  -6  146.05    9.25
   6  -9   6  156.25    7.48
   6  -9   6  145.01    6.61
  -7   9  -6   14.56    2.65
  -8   9  -6  100.08    7.52
   8  -9   6  110.66    5.89
  -9   9  -6  101.39    7.92
   9  -9   6  125.88    6.37
 -10   9  -6    0.14    1.28
  10  -9   6    0.54    0.89
 -11   9  -6   48.71    5.24
  11  -9   6   59.23    4.02
   7   8  -6    3.37    1.11
   6   8  -6   87.55    5.33
  -6  -8   6   89.85    5.42
  -6  -8   6   88.47    5.37
  -5  -8   6   60.54    4.00
  -5  -8   6   56.55    3.98
  -4  -8   6    0.12    0.69
  -4  -8   6   -0.89    0.60
   3   8  -6  158.72    7.63
  -3  -8   6  147.51    7.70
  -3  -8   6  167.70    7.86
   2   8  -6   56.47    3.80
  -2  -8   6   59.25    3.78
  -2  -8   6   61.92    3.73
   1   8  -6   22.36    2.36
  -1  -8   6   23.03    2.15
  -1  -8   6   22.40    1.99
   0   8  -6  146.82    7.80
   0  -8   6  151.96    7.11
   0  -8   6  150.59    7.32
  -1   8  -6   36.64    3.30
   1  -8   6   38.83    2.59
   1  -8   6   38.63    2.81
  -2   8  -6  109.05    6.64
   2  -8   6  110.18    5.38
   2  -8   6  114.18    5.78
  -3   8  -6  202.21   10.52
   3  -8   6  210.33    9.43
   3  -8   6  200.27    8.91
  -4   8  -6   25.36    3.00
   4  -8   6   27.42    2.32
   4  -8   6   24.39    1.80
  -5   8  -6  171.08    9.72
   5  -8   6  185.46    8.37
   5  -8   6  169.13    7.56
  -6   8  -6  130.47    7.99
   6  -8   6  115.80    5.65
   6  -8   6  132.72    6.43
  -7   8  -6    1.21    1.27
   7  -8   6    1.63    0.93
   8  -8   6   80.15    4.68
  -9   8  -6  129.67    8.78
   9  -8   6  136.57    6.91
 -10   8  -6   13.26    2.91
  10  -8   6   16.72    2.15
 -11   8  -6   65.27    6.16
  11  -8   6   78.76    4.69
 -12   8  -6   21.39    3.67
  12  -8   6   26.78    2.64
   8   7  -6   52.55    3.85
  -8  -7   6   45.72    3.78
  -8  -7   6   50.29    3.99
   7   7  -6    0.75    0.89
  -7  -7   6    0.86    0.90
  -7  -7   6    0.89    0.90
   6   7  -6  115.13    6.44
  -6  -7   6  117.93    6.49
  -6  -7   6  123.23    7.63
   5   7  -6  106.91    5.97
  -5  -7   6  104.82    5.89
  -5  -7   6  112.37    5.95
   4   7  -6    4.75    1.12
  -4  -7   6    7.07    1.39
   3   7  -6  169.04    8.13
  -3  -7   6  181.46    8.52
  -3  -7   6  183.01    8.41
   2   7  -6   86.58    4.96
  -2  -7   6   98.00    4.95
  -2  -7   6   95.25    5.11
   1   7  -6   48.20    3.36
  -1  -7   6   48.94    3.00
  -1  -7   6   47.37    3.17
   0   7  -6  123.97    6.52
   0  -7   6  118.46    6.05
   0  -7   6  120.08    5.80
  -1   7  -6   14.49    1.89
   1  -7   6   10.20    1.26
   1  -7   6   10.70    1.45
  -2   7  -6  205.98   10.18
   2  -7   6  205.23    9.34
   2  -7   6  204.84    8.91
  -3   7  -6  146.64    7.94
   3  -7   6  147.15    6.48
   3  -7   6  139.45    6.93
  -4   7  -6    4.20    1.41
   4  -7   6    4.39    0.72
   4  -7   6    3.09    0.88
  -5   7  -6  258.44   13.05
   5  -7   6  273.27   11.79
  -6   7  -6  118.23    7.50
   6  -7   6  128.92    6.29
   6  -7   6  127.66    5.44
  -7   7  -6   21.51    1.27
  -7   7  -6   20.37    2.80
   7  -7   6   22.92    1.34
   7  -7   6   24.39    2.08
  -8   7  -6  129.65    5.90
  -8   7  -6  141.76    8.68
   8  -7   6  147.32    6.94
  -9   7  -6   10.21    2.46
   9  -7   6   14.43    1.82
 -10   7  -6   25.41    3.45
  10  -7   6   26.33    2.50
 -11   7  -6   86.82    6.93
  11  -7   6   92.01    5.19
 -12   7  -6    0.12    0.85
  12  -7   6   -1.10    0.69
 -13   7  -6   61.93    5.95
  13  -7   6   70.39    4.46
   8   6  -6   45.09    3.63
  -8  -6   6   51.91    3.81
  -8  -6   6   51.49    3.83
   7   6  -6   25.95    3.12
  -7  -6   6   27.94    2.78
  -7  -6   6   28.37    2.68
   6   6  -6   68.84    4.44
  -6  -6   6   74.51    4.55
  -6  -6   6   70.43    4.87
   5   6  -6   92.69    5.35
  -5  -6   6   88.55    5.28
  -5  -6   6  105.91    5.35
   4   6  -6   45.98    2.60
   4   6  -6   47.10    3.32
  -4  -6   6   49.86    3.41
  -4  -6   6   47.83    3.18
   3   6  -6  231.29   10.68
   3   6  -6  223.24   10.17
  -3  -6   6  237.13   10.66
  -3  -6   6  247.89   10.52
   2   6  -6   19.53    1.82
  -2  -6   6   21.91    1.81
  -2  -6   6   17.20    1.84
   1   6  -6   55.29    3.51
  -1  -6   6   59.54    3.26
  -1  -6   6   52.40    3.37
   0   6  -6  108.84    5.70
   0  -6   6  101.63    5.02
   0  -6   6  104.29    5.34
  -1   6  -6   27.58    2.48
   1  -6   6   27.97    1.84
   1  -6   6   25.04    2.10
  -2   6  -6  285.64   13.06
   2  -6   6  278.21   11.79
   2  -6   6  287.80   12.32
  -3   6  -6  312.66   14.34
   3  -6   6  308.45   12.80
   3  -6   6  315.05   13.42
  -4   6  -6   40.28    3.51
   4  -6   6   40.85    2.78
   4  -6   6   44.13    2.25
  -5   6  -6  368.41   17.15
   5  -6   6  380.35   15.06
   5  -6   6  376.80   15.90
  -6   6  -6   67.21    3.24
  -6   6  -6   77.31    5.34
   6  -6   6   84.72    3.42
   6  -6   6   79.08    4.25
  -7   6  -6   52.85    2.33
  -7   6  -6   52.86    4.38
   7  -6   6   54.39    3.39
  -8   6  -6  167.32    9.62
   8  -6   6  170.93    8.00
  -9   6  -6    1.10    1.17
   9  -6   6    0.51    0.71
 -10   6  -6  103.18    7.35
  10  -6   6  120.56    5.98
 -11   6  -6  118.55    8.18
  11  -6   6  130.36    6.52
 -12   6  -6   -1.57    0.99
  12  -6   6    0.41    0.80
 -13   6  -6   44.82    4.92
  13  -6   6   54.98    3.72
   9   5  -6   99.23    6.01
  -9  -5   6  108.02    6.12
   8   5  -6    6.50    1.45
  -8  -5   6    9.08    1.59
   7   5  -6   45.98    3.45
  -7  -5   6   44.29    3.38
   6   5  -6  119.45    6.41
  -6  -5   6  125.69    6.53
  -6  -5   6  118.92    6.27
   5   5  -6   55.26    3.70
  -5  -5   6   57.42    3.73
  -5  -5   6   60.16    3.61
   4   5  -6   76.31    3.59
   4   5  -6   78.56    4.50
  -4  -5   6   80.15    4.33
  -4  -5   6   79.57    4.50
   3   5  -6  125.23    6.44
   3   5  -6  128.51    5.96
  -3  -5   6  132.49    6.49
  -3  -5   6  134.53    6.26
   2   5  -6   17.63    1.58
   2   5  -6   15.53    1.70
  -2  -5   6   15.68    1.66
  -2  -5   6   15.30    1.54
   1   5  -6  252.76   11.47
  -1  -5   6  258.60   12.00
  -1  -5   6  277.23   11.21
   0   5  -6   54.66    3.42
   0  -5   6   52.88    3.23
   0  -5   6   56.41    2.96
  -1   5  -6   64.49    3.97
   1  -5   6   62.88    3.62
   1  -5   6   66.49    3.26
  -2   5  -6  211.13    9.87
   2  -5   6  204.13    8.70
   2  -5   6  207.13    9.24
  -3   5  -6   23.58    2.35
   3  -5   6   23.26    1.44
   3  -5   6   21.86    1.81
  -4   5  -6  296.44   13.64
  -4   5  -6  363.25   15.62
   4  -5   6  353.90   13.76
   4  -5   6  361.00   14.64
  -5   5  -6  433.70   20.18
   5  -5   6  441.99   17.23
   5  -5   6  430.69   18.11
  -6   5  -6   10.53    1.79
  -6   5  -6    7.68    0.52
  -6   5  -6    8.03    0.54
   6  -5   6    9.06    1.32
   6  -5   6    8.25    0.55
  -7   5  -6  593.95   25.94
   7  -5   6  594.79   24.33
  -8   5  -6  141.28    8.39
   8  -5   6  150.30    7.01
  -9   5  -6    7.11    1.84
   9  -5   6    6.44    1.17
 -10   5  -6  160.90    9.70
  10  -5   6  179.88    8.15
 -11   5  -6  116.77    7.86
  11  -5   6  128.04    6.35
 -12   5  -6   22.86    3.41
  12  -5   6   26.83    2.33
 -13   5  -6   83.29    6.65
  13  -5   6   96.37    5.26
 -14   5  -6    7.64    2.19
  14  -5   6    7.59    1.46
  10   4  -6   50.13    3.93
 -10  -4   6   57.23    4.11
   9   4  -6  100.65    6.00
  -9  -4   6  105.74    5.95
  -8  -4   6   -0.30    0.68
   7   4  -6   97.93    5.56
  -7  -4   6   98.74    5.43
   6   4  -6  147.46    7.36
  -6  -4   6  144.65    7.13
   5   4  -6   11.00    1.58
  -5  -4   6   11.36    1.45
   4   4  -6  201.92    9.40
  -4  -4   6  210.61    9.20
  -4  -4   6  202.31    9.41
   3   4  -6  122.24    6.12
   3   4  -6  124.74    5.52
  -3  -4   6  122.06    6.09
  -3  -4   6  123.28    5.85
   2   4  -6   72.80    4.14
   2   4  -6   73.72    3.82
  -2  -4   6   80.80    3.88
  -2  -4   6   71.93    4.08
   1   4  -6  553.84   22.64
   1   4  -6  561.55   22.80
  -1  -4   6  557.13   22.32
  -1  -4   6  544.34   22.70
   0   4  -6  127.38    6.19
   0  -4   6  122.16    6.02
   0  -4   6  131.80    5.68
  -1   4  -6   74.48    4.31
   1  -4   6   80.37    3.65
   1  -4   6   78.38    4.09
  -2   4  -6  425.89   18.16
   2  -4   6  427.09   17.61
   2  -4   6  423.44   17.01
  -3   4  -6    7.91    1.38
  -3   4  -6    9.25    0.69
   3  -4   6   10.09    1.24
   3  -4   6   10.02    0.77
  -4   4  -6  584.29   24.69
   4  -4   6  588.87   22.94
   4  -4   6  579.23   23.75
  -5   4  -6  691.63   28.32
  -5   4  -6  629.39   26.09
   5  -4   6  695.76   27.18
  -6   4  -6   27.15    3.20
  -7   4  -6  339.07   15.86
   7  -4   6  348.32   14.53
  -8   4  -6  150.22    8.45
   8  -4   6  155.76    7.16
  -9   4  -6    8.12    1.91
   9  -4   6   10.74    1.42
 -10   4  -6  128.57    5.61
 -10   4  -6  137.62    8.22
  10  -4   6  155.00    6.86
 -11   4  -6   22.52    3.03
 -11   4  -6   18.95    1.13
  11  -4   6   21.15    2.06
 -12   4  -6   30.85    3.64
 -13   4  -6  103.50    7.28
  13  -4   6  106.89    5.69
 -14   4  -6   -0.20    1.10
  14  -4   6   -0.91    0.56
  10   3  -6   99.93    6.11
 -10  -3   6  109.53    6.13
   9   3  -6   56.69    4.16
  -9  -3   6   63.43    4.14
   8   3  -6    8.54    1.53
  -8  -3   6    9.89    1.71
   7   3  -6  162.57    8.40
  -7  -3   6  183.71    8.36
   6   3  -6  137.99    7.02
  -6  -3   6  141.79    6.80
   5   3  -6    2.70    0.83
  -5  -3   6    3.12    0.81
   4   3  -6  229.40   10.19
  -4  -3   6  223.05    9.94
   3   3  -6   76.32    4.25
   3   3  -6   80.11    3.57
  -3  -3   6   78.04    3.98
   2   3  -6   54.90    2.87
   2   3  -6   52.26    3.19
  -2  -3   6   56.32    2.95
  -2  -3   6   52.10    3.16
   1   3  -6   76.60    4.04
   1   3  -6   75.23    3.88
  -1  -3   6   76.90    3.66
  -1  -3   6   73.63    3.96
   0   3  -6    3.90    0.80
   0   3  -6    4.00    0.79
   0  -3   6    3.37    0.69
   0  -3   6    5.63    0.69
  -1   3  -6  621.70   25.65
   1  -3   6  633.23   24.82
  -2   3  -6  410.28   17.42
   2  -3   6  414.35   16.33
   2  -3   6  407.54   16.93
  -3   3  -6    2.34    0.79
   3  -3   6    1.18    0.52
   3  -3   6    1.30    0.27
  -4   3  -6  451.93   18.33
  -4   3  -6  465.96   20.07
   4  -3   6  487.58   18.51
   4  -3   6  476.70   19.26
  -5   3  -6  264.42   12.15
   5  -3   6  259.88   11.17
  -6   3  -6    8.63    1.48
   6  -3   6    9.88    1.18
  -7   3  -6  317.71   14.94
   7  -3   6  324.16   13.60
  -8   3  -6   54.36    4.24
   8  -3   6   58.86    3.28
  -9   3  -6  189.80    9.90
  -9   3  -6  186.51    7.39
  -9   3  -6  174.09    7.35
   9  -3   6  195.43    8.41
 -10   3  -6  296.78   12.25
 -10   3  -6  299.04   14.81
 -10   3  -6  317.89   12.34
  10  -3   6  320.76   13.28
 -11   3  -6    5.63    1.67
 -11   3  -6    5.69    0.66
  11  -3   6    6.47    1.14
 -12   3  -6   62.31    5.18
  12  -3   6   70.16    4.01
 -13   3  -6   55.42    5.80
  13  -3   6   64.47    3.85
 -14   3  -6    2.39    1.47
  14  -3   6    0.63    0.80
 -15   3  -6  107.07    7.75
  15  -3   6  125.21    6.38
  11   2  -6    0.18    0.96
 -11  -2   6    0.90    0.90
  10   2  -6   61.25    4.40
 -10  -2   6   68.70    4.40
   9   2  -6   32.74    3.38
  -9  -2   6   37.27    2.99
   8   2  -6   25.25    2.50
  -8  -2   6   24.63    2.31
   7   2  -6  313.85   14.18
  -7  -2   6  328.68   13.98
   6   2  -6   20.17    2.02
  -6  -2   6   20.47    1.88
   5   2  -6  139.30    6.89
  -5  -2   6  144.75    6.70
   4   2  -6  401.74   17.30
  -4  -2   6  423.73   17.09
   3   2  -6   64.68    3.58
   3   2  -6   63.93    2.73
  -3  -2   6   67.77    3.35
  -3  -2   6   56.33    2.64
   2   2  -6   89.20    4.05
   2   2  -6   81.45    4.38
  -2  -2   6   86.15    3.89
  -2  -2   6   92.30    4.19
   1   2  -6  116.37    5.69
   1   2  -6  123.24    5.57
  -1  -2   6  119.35    5.69
  -1  -2   6  123.87    5.35
   0   2  -6   70.20    3.66
   0   2  -6   67.24    3.62
   0  -2   6   67.98    3.58
   0  -2   6   69.23    3.22
  -2   2  -6  124.73    6.00
  -2   2  -6  113.33    4.98
   2  -2   6  121.79    5.57
   2  -2   6  121.70    4.98
  -3   2  -6  287.03   12.67
  -3   2  -6  280.61   11.33
   3  -2   6  298.34   11.34
   3  -2   6  292.10   11.36
   3  -2   6  278.75   12.03
  -5   2  -6   94.50    5.31
   5  -2   6   93.48    4.51
  -6   2  -6   84.51    5.07
   6  -2   6   83.43    4.15
  -7   2  -6  621.55   26.56
   7  -2   6  632.27   25.27
  -9   2  -6  185.19    7.65
  -9   2  -6  184.88    9.80
   9  -2   6  202.97    8.54
 -10   2  -6   65.91    3.02
 -10   2  -6   66.04    4.93
  10  -2   6   72.64    3.81
 -11   2  -6   10.72    1.93
  11  -2   6    8.32    1.24
 -12   2  -6   99.24    4.66
 -12   2  -6   99.56    6.78
  12  -2   6  114.02    5.46
 -13   2  -6   43.55    4.22
 -13   2  -6   46.88    2.57
 -14   2  -6   17.94    2.89
  14  -2   6   17.55    2.01
 -15   2  -6   81.15    6.36
  15  -2   6   84.13    4.88
  11   1  -6   41.26    3.61
 -11  -1   6   52.51    3.73
  10   1  -6  131.83    7.42
 -10  -1   6  148.76    7.39
   9   1  -6   26.00    2.57
   8   1  -6   80.44    5.01
  -8  -1   6   94.02    4.99
   7   1  -6  247.51   11.56
  -7  -1   6  266.16   11.44
   6   1  -6   70.44    4.17
  -6  -1   6   73.63    4.02
   5   1  -6  304.76   13.32
  -5  -1   6  311.35   13.16
   4   1  -6  127.78    6.21
  -4  -1   6  130.61    6.00
   3   1  -6    2.43    0.63
  -3  -1   6    2.04    0.54
   2   1  -6  176.79    8.28
   2   1  -6  193.84    7.85
  -2  -1   6  194.00    8.06
   1   1  -6  325.30   12.86
   1   1  -6  295.94   12.98
  -1  -1   6  305.62   13.01
  -1  -1   6  318.30   12.70
  -1  -1   6  307.15   12.65
   0   1  -6   51.78    2.83
   0   1  -6   54.07    2.90
   0  -1   6   47.03    2.77
   0  -1   6   51.64    2.47
  -1   1  -6  729.10   28.83
  -2   1  -6   92.38    4.62
  -2   1  -6   82.63    3.76
   2  -1   6   89.18    3.65
   2  -1   6   85.07    4.16
  -3   1  -6  593.36   23.96
   3  -1   6  566.85   23.28
  -4   1  -6  205.24    9.47
   4  -1   6  202.20    8.71
  -5   1  -6    3.39    0.92
   5  -1   6    3.81    0.63
  -6   1  -6  326.17   14.49
   6  -1   6  321.39   13.38
  -7   1  -6  680.53   28.23
   7  -1   6  663.92   26.90
  -8   1  -6    2.53    0.92
  -8   1  -6    2.64    0.35
  -8   1  -6    3.32    0.34
   8  -1   6    1.45    0.55
  -9   1  -6  516.00   18.96
  -9   1  -6  465.09   20.98
  -9   1  -6  459.65   18.85
   9  -1   6  468.90   19.55
 -10   1  -6   17.88    1.18
 -10   1  -6   19.59    2.50
  10  -1   6   20.87    1.73
 -11   1  -6   47.70    4.03
 -11   1  -6   43.94    2.36
  11  -1   6   47.67    2.92
 -12   1  -6  148.04    8.77
 -12   1  -6  153.01    6.74
  12  -1   6  162.07    7.33
 -13   1  -6   39.48    3.97
  13  -1   6   43.96    2.94
 -14   1  -6   58.18    5.20
 -14   1  -6   62.62    3.48
  14  -1   6   67.32    3.95
 -15   1  -6   71.37    5.82
  15  -1   6   81.40    4.66
  12   0  -6    2.18    1.05
 -12   0   6    4.01    1.31
  11   0  -6   47.75    3.77
 -11   0   6   46.15    3.54
  10   0  -6  110.25    6.30
 -10   0   6  113.62    6.16
   9   0  -6   50.81    3.67
  -9   0   6   51.29    3.44
   8   0  -6  163.45    8.27
  -8   0   6  177.22    8.18
   7   0  -6   76.53    4.55
  -7   0   6   83.32    4.47
   6   0  -6   11.72    1.46
  -6   0   6   14.91    1.46
   5   0  -6  425.20   18.70
  -5   0   6  449.58   18.10
   4   0  -6   39.38    2.60
  -4   0   6   42.34    2.47
   3   0  -6    6.98    0.93
  -3   0   6    9.09    0.48
  -3   0   6    8.92    0.95
   2   0  -6  537.40   22.87
   2   0  -6  567.01   22.41
  -2   0   6  572.99   22.66
  -2   0   6  586.76   22.40
   1   0  -6    8.92    1.00
   1   0  -6    8.85    0.88
  -1   0   6   10.71    0.88
  -1   0   6   10.82    0.89
   0   0  -6  314.72   12.66
   0   0  -6  298.45   12.56
   0   0   6  294.35   12.55
   0   0   6  302.77   12.21
   2   0   6  121.42    4.90
   2   0   6  116.97    5.29
   2   0   6  120.21    5.39
  -5   0  -6    0.40    0.43
   5   0   6    0.77    0.35
  -6   0  -6  648.35   24.42
  -6   0  -6  608.37   26.20
  -7   0  -6  249.85    8.77
  -7   0  -6  213.50    8.69
  -7   0  -6  210.59   10.39
   7   0   6  200.26    8.68
   7   0   6  217.37    9.25
  -8   0  -6   10.81    0.76
  -8   0  -6   10.02    1.66
  -8   0  -6    8.72    0.65
   8   0   6    7.29    0.97
   8   0   6    8.50    0.66
  -9   0  -6  434.71   19.89
  -9   0  -6  448.18   17.81
   9   0   6  459.20   18.29
 -10   0  -6   33.30    3.16
 -10   0  -6   29.38    1.74
  10   0   6   30.27    2.09
 -11   0  -6   47.02    2.48
 -11   0  -6   42.87    3.84
  11   0   6   47.42    2.83
 -12   0  -6  145.74    8.49
 -12   0  -6  145.73    6.61
  12   0   6  153.72    7.00
 -13   0  -6    0.21    0.55
 -13   0  -6    2.68    1.38
  13   0   6    0.99    0.68
 -14   0  -6   61.65    5.11
 -14   0  -6   61.39    3.54
  14   0   6   63.46    3.84
 -15   0  -6   62.20    3.76
 -15   0  -6   60.31    5.17
  15   0   6   67.94    4.05
  12  -1  -6   -0.72    0.77
 -12   1   6    0.90    0.92
  11  -1  -6   64.09    4.52
 -11   1   6   73.69    4.57
  10  -1  -6   72.46    4.76
 -10   1   6   79.55    4.70
   9  -1  -6   24.08    2.52
  -9   1   6   25.12    2.33
   8  -1  -6  197.83    9.36
  -8   1   6  196.50    9.13
   7  -1  -6  369.88   16.25
  -7   1   6  388.46   16.10
   6  -1  -6   47.34    3.17
  -6   1   6   52.34    3.09
   5  -1  -6  387.15   16.44
  -5   1   6  396.09   16.28
   4  -1  -6   62.58    3.46
  -4   1   6   62.53    3.31
   3  -1  -6   68.96    3.59
  -3   1   6   68.38    3.44
  -3   1   6   71.84    3.04
  -3   1   6   65.53    2.97
   2  -1  -6  406.81   16.59
   2  -1  -6  443.06   16.24
  -2   1   6  417.12   16.41
  -2   1   6  351.33   16.15
   1  -1  -6   -0.16    0.22
   1  -1  -6    0.93    0.31
  -1   1   6    0.19    0.21
  -1   1   6    0.70    0.31
  -2  -1  -6  160.34    6.30
  -2  -1  -6  154.52    7.11
   2   1   6  153.28    6.31
   2   1   6  148.36    6.27
   2   1   6  153.87    6.66
  -4  -1  -6  196.21    7.83
  -4  -1  -6  191.71    9.06
   4   1   6  198.65    8.29
   4   1   6  202.95    7.82
  -5  -1  -6   22.14    1.01
  -5  -1  -6   18.05    1.84
   5   1   6   19.34    0.95
   5   1   6   20.55    1.33
  -6  -1  -6  678.82   28.13
  -7  -1  -6   28.23    1.35
  -7  -1  -6   24.99    2.34
   7   1   6   22.28    1.25
   7   1   6   24.03    1.54
  -8  -1  -6  229.26   11.20
  -8  -1  -6  240.31    9.63
   8   1   6  238.32    9.93
  -9  -1  -6  134.74    7.54
   9   1   6  142.74    6.25
 -10  -1  -6    2.50    1.10
 -10  -1  -6    2.73    0.55
 -11  -1  -6  122.04    7.20
 -11  -1  -6  120.92    5.55
  11   1   6  123.20    5.77
 -12  -1  -6   90.46    4.40
 -12  -1  -6   82.94    5.83
  12   1   6   89.93    4.55
 -13  -1  -6   26.24    3.09
 -13  -1  -6   28.76    2.10
  13   1   6   24.94    2.10
 -14  -1  -6   93.89    6.62
  14   1   6  102.88    5.76
 -15  -1  -6    3.77    1.07
  15   1   6    4.75    1.09
  12  -2  -6    2.07    1.07
 -12   2   6    3.30    1.16
  11  -2  -6   74.84    4.89
 -11   2   6   83.31    4.94
  10  -2  -6   63.90    4.45
 -10   2   6   68.02    4.24
   9  -2  -6   51.82    3.75
  -9   2   6   56.75    3.61
   8  -2  -6  165.93    8.22
  -8   2   6  174.58    8.11
   7  -2  -6    7.75    1.27
  -7   2   6    5.23    1.04
   6  -2  -6  215.64    9.88
  -6   2   6  225.01    9.78
   5  -2  -6  349.55   15.26
  -5   2   6  358.42   14.42
  -5   2   6  361.04   15.16
  -5   2   6  382.44   14.38
   4  -2  -6   89.98    4.66
  -4   2   6   93.56    4.20
  -4   2   6  102.71    4.12
  -4   2   6   92.04    4.58
   3  -2  -6  544.27   22.43
  -3   2   6  579.22   22.37
  -3   2   6  562.53   22.15
  -3   2   6  532.42   21.95
   2  -2  -6   90.79    3.82
   2  -2  -6   81.34    3.95
  -2   2   6   81.90    3.85
  -2   2   6   68.78    3.68
  -2   2   6   82.15    3.85
   1  -2  -6  100.46    4.57
   1  -2  -6   94.62    4.55
   1  -2  -6  101.66    4.48
  -1   2   6   97.20    4.63
  -1   2   6  100.80    4.47
  -1  -2  -6  195.88    8.63
  -1  -2  -6  197.78    8.07
  -1  -2  -6  203.80    8.29
   1   2   6  200.22    8.27
   1   2   6  187.20    8.06
  -2  -2  -6  352.52   14.95
   2   2   6  357.89   14.14
   2   2   6  353.01   14.32
  -5  -2  -6  357.92   14.17
  -5  -2  -6  344.78   15.35
   5   2   6  359.83   14.10
   5   2   6  362.37   14.38
  -6  -2  -6  211.70    9.96
  -6  -2  -6  217.38    8.68
   6   2   6  220.89    8.84
   6   2   6  201.12    8.57
  -7  -2  -6   29.22    1.58
  -7  -2  -6   26.56    2.42
   7   2   6   28.38    1.66
  -8  -2  -6  503.73   22.08
   8   2   6  528.33   20.71
  -9  -2  -6  658.41   27.92
  -9  -2  -6  646.31   26.28
   9   2   6  677.41   26.38
 -10  -2  -6   22.18    1.57
 -10  -2  -6   21.88    2.52
  10   2   6   22.38    1.69
 -11  -2  -6  103.90    4.99
 -11  -2  -6  102.30    6.38
  11   2   6  107.18    5.04
 -12  -2  -6   25.36    2.87
 -12  -2  -6   23.97    1.91
  12   2   6   23.47    1.95
 -13  -2  -6   52.20    4.36
 -13  -2  -6   54.62    3.18
  13   2   6   49.48    3.10
 -14  -2  -6  116.92    5.67
 -14  -2  -6  100.63    6.80
  14   2   6  107.71    5.52
 -15  -2  -6    3.41    1.68
 -15  -2  -6    1.68    0.93
  15   2   6    4.11    1.00
  12  -3  -6   10.20    1.80
 -12   3   6    9.99    1.76
  11  -3  -6  161.92    8.50
 -11   3   6  169.51    8.36
  10  -3  -6    1.56    1.26
   9  -3  -6   60.49    3.99
  -9   3   6   62.01    3.88
   8  -3  -6  380.54   16.54
  -8   3   6  365.27   15.26
  -8   3   6  408.47   16.48
   7  -3  -6   28.00    2.27
  -7   3   6   28.63    2.25
  -7   3   6   28.61    1.65
   6  -3  -6  289.66   12.85
  -6   3   6  315.27   12.82
  -6   3   6  268.53   12.22
  -6   3   6  317.93   12.19
   5  -3  -6  326.77   14.40
  -5   3   6  318.65   14.02
  -5   3   6  345.98   14.38
  -5   3   6  376.07   13.94
   4  -3  -6    7.78    0.97
  -4   3   6    7.57    0.99
  -4   3   6    8.53    0.92
  -4   3   6    9.51    0.85
   3  -3  -6  485.95   20.70
   3  -3  -6  533.83   20.74
  -3   3   6  509.90   20.49
  -3   3   6  506.12   21.07
  -3   3   6  522.25   20.71
   1  -3  -6    2.51    0.58
   1  -3  -6    3.81    0.58
   1  -3  -6    2.55    0.51
  -1   3   6    2.06    0.51
  -1   3   6    2.12    0.46
  -1  -3  -6   27.73    1.96
  -1  -3  -6   29.76    1.65
  -1  -3  -6   30.01    1.62
   1   3   6   28.66    1.64
  -3  -3  -6  575.82   23.64
  -4  -3  -6  133.22    5.45
  -4  -3  -6  121.87    6.27
   4   3   6  128.40    5.40
  -5  -3  -6  454.58   19.62
  -5  -3  -6  476.39   18.55
  -6  -3  -6  359.80   15.91
  -6  -3  -6  368.90   14.76
   6   3   6  369.94   14.88
  -7  -3  -6   54.24    3.63
  -7  -3  -6   54.78    2.70
   7   3   6   51.89    2.59
  -8  -3  -6   19.56    1.43
  -8  -3  -6   17.57    2.13
   8   3   6   25.29    1.47
  -9  -3  -6   10.74    1.79
  -9  -3  -6   11.55    1.11
   9   3   6   11.83    1.06
 -10  -3  -6  184.80   10.14
 -10  -3  -6  177.59    7.92
  10   3   6  179.90    7.80
 -11  -3  -6  443.27   20.79
 -11  -3  -6  480.31   19.43
  11   3   6  494.76   19.69
 -12  -3  -6   22.46    2.65
 -12  -3  -6   22.22    1.88
  12   3   6   23.29    1.85
 -13  -3  -6   66.99    3.88
 -13  -3  -6   62.90    4.83
  13   3   6   72.63    3.80
 -14  -3  -6   32.36    2.58
 -14  -3  -6   30.38    3.39
  14   3   6   33.24    2.53
 -15  -3  -6    1.32    1.04
 -15  -3  -6   -1.49    0.67
  15   3   6   -0.50    0.53
  12  -4  -6   10.83    1.83
 -12   4   6   14.69    2.00
  11  -4  -6   89.42    5.48
 -11   4   6   91.09    5.34
  10  -4  -6    0.00    0.78
   9  -4  -6  113.77    5.97
  -9   4   6  113.13    5.83
  -9   4   6  100.95    5.00
   8  -4  -6  163.56    8.06
  -8   4   6  169.38    7.44
  -8   4   6  169.87    8.01
   7  -4  -6   -0.02    0.40
  -7   4   6    0.58    0.48
  -7   4   6    1.32    0.59
   6  -4  -6  126.81    6.40
  -6   4   6  135.06    6.41
  -6   4   6  139.12    6.11
   5  -4  -6  137.24    6.76
  -5   4   6  145.66    6.79
  -5   4   6  155.24    6.58
   4  -4  -6  105.26    5.15
   4  -4  -6  110.29    5.19
  -4   4   6  105.62    5.15
  -4   4   6  110.07    5.02
   3  -4  -6  296.82   12.11
   3  -4  -6  281.01   12.03
  -3   4   6  289.59   12.01
  -3   4   6  283.98   12.05
   2  -4  -6   49.51    2.54
   2  -4  -6   41.38    2.39
  -2   4   6   44.64    2.46
  -2   4   6   41.50    2.48
   1  -4  -6  205.05    8.68
   1  -4  -6  226.88    9.04
   1  -4  -6  200.23    8.58
  -1   4   6  186.92    8.86
  -1  -4  -6  145.80    5.93
  -1  -4  -6  148.18    6.12
  -1  -4  -6  142.94    6.57
   1   4   6  122.94    6.47
  -4  -4  -6  200.73    8.19
  -4  -4  -6  200.89    8.37
  -4  -4  -6  196.84    9.21
   4   4   6  208.77    8.23
   4   4   6  193.92    8.09
  -5  -4  -6  729.02   29.91
  -6  -4  -6  178.62    8.85
  -6  -4  -6  194.28    7.94
   6   4   6  184.34    7.60
  -7  -4  -6   98.02    5.55
  -7  -4  -6   96.41    4.58
   7   4   6  101.47    4.31
  -8  -4  -6  639.14   27.18
  -8  -4  -6  655.68   25.97
  -9  -4  -6    3.54    0.70
  -9  -4  -6    5.00    1.25
   9   4   6    4.38    0.66
 -10  -4  -6  178.03    7.83
 -10  -4  -6  167.22    9.03
  10   4   6  174.43    7.49
 -11  -4  -6  187.57    9.94
  11   4   6  202.35    8.49
 -12  -4  -6    1.05    0.87
 -12  -4  -6    0.96    0.63
  12   4   6    1.60    0.60
 -13  -4  -6   89.44    4.95
 -13  -4  -6   91.96    5.97
  13   4   6   91.08    4.63
 -14  -4  -6   66.11    5.02
 -14  -4  -6   71.49    4.27
  14   4   6   63.78    3.79
 -15  -4  -6   16.87    1.98
 -15  -4  -6   13.29    2.31
  15   4   6   13.99    1.66
  12  -5  -6   72.54    4.90
 -12   5   6   76.90    4.81
  11  -5  -6   31.72    2.86
 -11   5   6   33.89    2.82
  10  -5  -6    0.28    0.70
 -10   5   6    0.12    0.46
   9  -5  -6  105.53    5.74
  -9   5   6  102.67    5.24
  -9   5   6  103.67    5.62
   8  -5  -6   30.84    2.56
  -8   5   6   31.15    2.25
  -8   5   6   30.18    2.48
   7  -5  -6  199.03    9.33
  -7   5   6  199.95    9.28
  -7   5   6  214.08    9.18
   6  -5  -6  480.31   21.65
  -6   5   6  536.27   21.76
  -6   5   6  565.55   21.68
   5  -5  -6    1.69    0.66
   5  -5  -6    3.56    0.83
  -5   5   6    5.49    0.89
  -5   5   6    3.50    0.78
   4  -5  -6   82.85    4.28
   4  -5  -6   88.28    4.41
  -4   5   6   87.17    4.38
  -4   5   6   88.23    4.37
   3  -5  -6  333.86   13.58
   3  -5  -6  319.63   13.42
  -3   5   6  308.33   13.48
  -3   5   6  333.66   13.62
   2  -5  -6    0.23    0.38
   2  -5  -6    0.82    0.35
  -2   5   6    0.47    0.39
  -1  -5  -6  218.87    9.10
  -1  -5  -6  211.03    9.60
  -1  -5  -6  214.72    8.77
   1   5   6  232.96    8.76
   1   5   6  199.19    9.58
  -3  -5  -6  303.12   13.33
  -3  -5  -6  314.39   12.61
   3   5   6  302.04   12.13
  -4  -5  -6   87.03    4.86
  -4  -5  -6   94.17    4.23
   4   5   6   88.06    3.71
  -5  -5  -6  759.17   31.16
  -6  -5  -6   86.21    4.95
  -6  -5  -6   87.66    4.18
   6   5   6   84.52    3.66
  -7  -5  -6  259.86   10.70
  -7  -5  -6  244.94   11.64
   7   5   6  248.16   10.13
  -8  -5  -6  270.51   11.21
  -8  -5  -6  254.50   12.19
   8   5   6  260.83   10.67
  -9  -5  -6   10.71    1.24
  -9  -5  -6   12.82    1.84
   9   5   6   11.07    1.03
 -10  -5  -6  212.80   10.95
  10   5   6  233.27    9.43
 -11  -5  -6  133.95    7.67
 -11  -5  -6  138.65    6.65
  11   5   6  138.87    6.17
 -12  -5  -6   24.75    2.74
 -12  -5  -6   26.28    2.22
  12   5   6   28.30    1.95
 -13  -5  -6   74.19    5.42
 -13  -5  -6   84.29    4.71
  13   5   6   83.02    4.23
 -14  -5  -6   33.46    2.84
 -14  -5  -6   30.81    3.28
  14   5   6   32.44    2.38
 -15  -5  -6   31.94    3.34
 -15  -5  -6   36.88    3.11
  12  -6  -6   89.43    5.65
 -12   6   6   95.58    5.56
  11  -6  -6   19.08    2.35
 -11   6   6   19.79    2.37
  10  -6  -6   21.39    2.34
 -10   6   6   22.33    2.03
 -10   6   6   18.84    2.25
   9  -6  -6  204.42    9.77
  -9   6   6  213.56    9.75
  -9   6   6  201.96    9.55
   8  -6  -6   47.45    3.35
  -8   6   6   51.29    3.40
  -8   6   6   53.95    3.37
   7  -6  -6   93.39    5.25
  -7   6   6  107.07    5.37
  -7   6   6  103.88    5.35
   6  -6  -6  327.14   13.93
   6  -6  -6  297.67   13.72
  -6   6   6  340.88   13.94
  -6   6   6  323.60   13.85
   5  -6  -6    8.10    1.16
  -5   6   6    9.77    1.28
   4  -6  -6  262.42   11.24
   4  -6  -6  253.92   11.04
  -4   6   6  253.20   11.17
  -4   6   6  267.92   11.33
   3  -6  -6  249.73   10.79
   3  -6  -6  257.88   11.04
  -3   6   6  262.87   11.20
   2  -6  -6   82.05    4.09
   2  -6  -6   76.99    3.80
  -2   6   6   82.62    4.30
  -1  -6  -6   70.49    3.10
  -1  -6  -6   71.50    3.54
  -1  -6  -6   70.63    4.01
   1   6   6   77.78    3.07
   1   6   6   60.73    3.89
  -2  -6  -6  842.15   34.15
  -3  -6  -6   22.50    1.97
  -3  -6  -6   22.65    1.59
   3   6   6   24.39    1.02
   3   6   6   18.64    1.94
   3   6   6   20.26    0.98
  -4  -6  -6  251.19   11.35
  -4  -6  -6  257.27   10.61
   4   6   6  275.90    9.85
   4   6   6  234.95    9.77
   4   6   6  228.39   11.28
  -5  -6  -6  289.31   13.22
  -5  -6  -6  289.61   12.40
  -5  -6  -6  302.54   11.70
   5   6   6  275.36   13.20
   5   6   6  310.84   11.73
   5   6   6  303.23   11.63
  -6  -6  -6   24.66    1.30
  -6  -6  -6   23.01    1.76
  -6  -6  -6   23.78    2.25
   6   6   6   26.39    1.24
  -7  -6  -6  290.30   13.82
  -7  -6  -6  307.22   12.94
   7   6   6  317.47   12.22
  -8  -6  -6  156.87    8.52
  -8  -6  -6  164.31    7.68
   8   6   6  183.24    7.11
   9   6   6   80.56    3.71
 -10  -6  -6  178.73    8.39
 -10  -6  -6  177.74    9.39
  10   6   6  186.49    7.76
 -11  -6  -6   43.85    3.69
 -11  -6  -6   38.51    2.87
  11   6   6   46.77    2.51
 -12  -6  -6   16.97    2.00
 -12  -6  -6   19.84    2.54
 -13  -6  -6  114.69    6.06
 -13  -6  -6  107.95    6.79
  13   6   6  106.33    5.28
 -14  -6  -6    0.87    0.94
 -14  -6  -6    0.35    0.93
  14   6   6   -0.33    0.71
  14   6   6    0.40    0.55
  12  -7  -6   59.67    4.31
 -12   7   6   58.83    4.17
  11  -7  -6    4.19    1.28
 -11   7   6    2.30    1.15
  10  -7  -6   49.55    3.71
 -10   7   6   55.20    3.78
   9  -7  -6  109.88    6.05
  -9   7   6  117.85    6.15
  -9   7   6  116.17    6.22
   8  -7  -6    7.27    1.27
  -8   7   6    5.22    1.16
  -8   7   6    5.77    1.25
   7  -7  -6  338.71   15.16
   7  -7  -6  364.70   15.41
  -7   7   6  349.52   15.27
  -7   7   6  365.69   15.49
   6  -7  -6  175.95    8.17
   6  -7  -6  165.50    7.95
  -6   7   6  173.35    8.11
  -6   7   6  177.84    8.29
   5  -7  -6    3.31    0.88
   5  -7  -6    5.44    0.94
  -5   7   6    2.74    0.83
  -5   7   6    2.40    0.81
   4  -7  -6  283.78   12.46
   4  -7  -6  298.43   12.77
  -4   7   6  307.48   12.98
   3  -7  -6  121.08    5.70
   3  -7  -6  129.99    6.05
  -3   7   6  127.86    6.26
   2  -7  -6  236.76   10.31
   2  -7  -6  229.00    9.92
  -2   7   6  247.68   10.69
   1  -7  -6  549.20   22.07
   1  -7  -6  556.09   22.54
  -1   7   6  558.14   22.98
   0  -7  -6   68.34    3.04
   0  -7  -6   65.00    3.50
   0   7   6   65.56    3.90
  -1  -7  -6  179.01    7.01
  -1  -7  -6  173.78    7.66
   1   7   6  163.59    8.16
  -3  -7  -6   70.30    3.62
  -3  -7  -6   70.17    4.21
   3   7   6   66.31    4.18
  -4  -7  -6  210.97    9.05
  -4  -7  -6  213.44    9.81
   4   7   6  193.14    9.69
  -5  -7  -6  215.80   10.11
  -5  -7  -6  217.00    9.35
   5   7   6  202.42   10.08
  -6  -7  -6   41.90    1.76
  -6  -7  -6   38.91    2.61
  -6  -7  -6   41.13    3.22
   6   7   6   43.23    1.79
   6   7   6   38.73    3.21
  -7  -7  -6  127.91    6.17
  -7  -7  -6  132.91    7.05
  -7  -7  -6  114.87    5.52
   7   7   6  120.56    6.93
   7   7   6  140.72    5.30
  -8  -7  -6   60.87    3.63
   8   7   6   57.91    4.77
   8   7   6   66.04    2.90
  -9  -7  -6  100.56    5.95
  -9  -7  -6   95.00    5.03
   9   7   6   88.81    4.37
   9   7   6   93.43    5.74
 -10  -7  -6  247.05   11.85
 -10  -7  -6  246.36   10.86
  10   7   6  212.68   11.43
  10   7   6  247.30    9.98
 -11  -7  -6    4.72    1.36
 -11  -7  -6    5.07    1.24
  11   7   6    3.67    1.16
  11   7   6    3.71    0.65
 -12  -7  -6   80.12    5.38
 -12  -7  -6   77.75    4.66
  12   7   6   79.14    3.86
  12   7   6   66.83    4.96
 -13  -7  -6   70.54    5.06
 -13  -7  -6   66.43    4.35
  13   7   6   58.85    4.54
 -14  -7  -6    5.01    1.40
 -14  -7  -6    5.83    1.42
  14   7   6    3.64    1.35
  11  -8  -6   -0.95    0.69
 -11   8   6   -0.89    0.75
  10  -8  -6   59.80    4.14
 -10   8   6   57.81    4.18
 -10   8   6   67.07    4.23
   9  -8  -6   97.39    5.44
  -9   8   6   97.01    5.46
  -9   8   6   95.73    5.64
   8  -8  -6   18.36    1.94
   8  -8  -6   16.39    1.99
  -8   8   6   15.49    2.09
  -8   8   6   15.07    1.92
   7  -8  -6  268.73   11.75
   7  -8  -6  255.96   11.47
  -7   8   6  250.13   11.57
   6  -8  -6   58.68    3.71
   6  -8  -6   58.36    3.47
  -6   8   6   53.92    3.59
  -6   8   6   64.29    3.99
   5  -8  -6   26.24    2.01
   5  -8  -6   29.58    2.34
  -5   8   6   25.02    2.33
  -5   8   6   28.55    2.23
   4  -8  -6  486.03   19.79
   4  -8  -6  447.11   19.33
  -4   8   6  490.06   20.10
   3  -8  -6    3.23    0.85
   3  -8  -6    4.12    0.69
  -3   8   6    4.25    1.03
   2  -8  -6  116.94    5.51
   2  -8  -6  104.68    4.96
  -2   8   6  110.32    5.80
   1  -8  -6   97.49    4.99
   1  -8  -6  100.57    4.48
  -1   8   6  103.07    5.43
   0  -8  -6  143.32    5.90
   0  -8  -6  141.45    6.56
   0   8   6  144.03    7.09
   0   8   6  133.64    5.77
  -1  -8  -6  320.40   12.17
  -1  -8  -6  319.04   13.09
   1   8   6  312.03   13.67
   1   8   6  279.18   12.07
  -2  -8  -6  423.14   17.37
   2   8   6  412.58   18.02
  -3  -8  -6   61.35    3.41
   3   8   6   56.91    3.82
  -4  -8  -6  283.86   12.67
  -4  -8  -6  270.26   11.86
   4   8   6  269.13   12.59
  -5  -8  -6   27.93    2.54
  -5  -8  -6   27.76    2.16
   5   8   6   26.64    2.61
  -6  -8  -6  160.43    7.83
  -6  -8  -6  153.68    8.06
   6   8   6  148.46    8.02
  -7  -8  -6  191.59    8.81
  -7  -8  -6  189.12   10.31
  -8  -8  -6    5.31    1.16
  -8  -8  -6    6.59    1.59
   8   8   6    7.71    0.61
   8   8   6    6.62    1.52
  -9  -8  -6  162.87    8.09
  -9  -8  -6  170.30    9.02
   9   8   6  179.93    7.08
   9   8   6  158.96    8.81
 -10  -8  -6  230.58   10.46
 -10  -8  -6  228.57   11.36
  10   8   6  212.49   11.05
 -11  -8  -6   -0.39    0.61
 -11  -8  -6   -0.10    0.88
  11   8   6   -0.08    0.30
  11   8   6   -0.28    0.73
 -12  -8  -6  166.17    8.18
 -12  -8  -6  164.23    8.89
  12   8   6  141.63    8.31
 -13  -8  -6   81.76    5.50
 -13  -8  -6   77.34    4.98
  13   8   6   66.65    4.91
  11  -9  -6    9.49    1.67
 -11   9   6   13.34    2.13
 -11   9   6    8.77    1.68
  10  -9  -6   86.95    5.23
 -10   9   6   84.61    5.53
 -10   9   6   88.50    5.23
   9  -9  -6   20.17    2.40
  -9   9   6   19.04    2.33
   8  -9  -6   75.02    4.64
   8  -9  -6   78.15    4.48
  -8   9   6   77.56    4.90
  -8   9   6   67.16    5.77
   7  -9  -6  104.77    5.31
   7  -9  -6   96.94    5.46
  -7   9   6   96.37    5.71
  -7   9   6   96.11    5.38
   6  -9  -6   20.43    1.86
   6  -9  -6   21.93    2.17
  -6   9   6   21.54    2.14
  -6   9   6   22.51    2.40
   5  -9  -6  350.47   15.11
   5  -9  -6  371.38   15.59
  -5   9   6  359.23   15.89
   4  -9  -6  416.58   17.09
   4  -9  -6  390.05   16.54
  -4   9   6  397.30   18.12
   3  -9  -6   16.16    1.36
   3  -9  -6   16.54    1.62
  -3   9   6   13.03    2.07
   2  -9  -6  608.06   24.35
  -2   9   6  611.01   25.48
   1  -9  -6  214.41    9.07
   1  -9  -6  213.97    9.75
  -1   9   6  228.35   10.36
   0  -9  -6   51.87    2.25
   0  -9  -6   44.07    2.85
   0   9   6   51.59    3.45
   0   9   6   38.59    2.05
  -1  -9  -6  375.44   14.47
  -1  -9  -6  381.33   15.63
   1   9   6  389.13   16.29
   1   9   6  331.85   14.42
  -2  -9  -6  383.93   16.36
   2   9   6  391.32   17.03
  -3  -9  -6  114.44    5.63
   3   9   6  107.95    6.14
   4   9   6  384.16   17.16
  -5  -9  -6    0.02    0.47
   5   9   6   -0.58    0.66
  -6  -9  -6  196.27    9.17
  -6  -9  -6  199.04    9.96
   6   9   6  195.75    9.89
  -7  -9  -6  152.32    7.95
  -7  -9  -6  140.89    7.07
   7   9   6  132.55    7.63
  -8  -9  -6   -1.00    0.60
  -8  -9  -6   -1.15    0.60
   8   9   6    0.24    0.79
  -9  -9  -6  152.80    8.31
  -9  -9  -6  147.02    7.44
   9   9   6  138.64    8.00
 -10  -9  -6  108.42    6.07
 -10  -9  -6  117.28    6.92
  10   9   6  102.65    6.52
 -11  -9  -6    6.47    1.81
 -11  -9  -6    7.59    1.59
  11   9   6    7.52    1.69
 -12  -9  -6  102.02    6.32
 -12  -9  -6   84.62    5.41
  12   9   6   80.57    5.61
 -13  -9  -6    8.32    1.62
  13   9   6    6.26    1.59
  11 -10  -6    9.62    1.69
 -11  10   6    6.84    1.59
  10 -10  -6   77.52    4.91
 -10  10   6   79.19    5.48
 -10  10   6   82.79    5.05
   9 -10  -6    1.12    0.92
   9 -10  -6    2.34    0.96
  -9  10   6    3.24    1.16
  -9  10   6    1.69    1.07
   8 -10  -6   87.33    5.07
   8 -10  -6   91.82    5.38
  -8  10   6   90.08    5.77
  -8  10   6   97.97    5.41
   7 -10  -6   59.43    3.68
   7 -10  -6   63.83    4.07
  -7  10   6   59.29    4.27
  -7  10   6   56.93    3.81
   6 -10  -6    0.03    0.68
   6 -10  -6    0.09    0.51
  -6  10   6   -0.42    0.71
  -6  10   6   -0.91    0.52
   5 -10  -6  367.62   15.95
   5 -10  -6  372.89   15.94
  -5  10   6  360.82   16.35
   4 -10  -6  188.86    8.54
   4 -10  -6  195.11    9.12
  -4  10   6  199.36    9.62
   3 -10  -6   15.97    1.38
   3 -10  -6   13.60    1.76
  -3  10   6   17.04    1.97
   2 -10  -6  294.65   13.12
   2 -10  -6  290.70   12.38
  -2  10   6  316.66   13.76
   1 -10  -6    0.42    0.52
   1 -10  -6    0.84    0.36
  -1  10   6    0.54    0.75
   0 -10  -6  181.20    8.35
   0 -10  -6  185.99    7.32
   0  10   6  149.34    7.16
   0  10   6  197.81    9.03
  -1 -10  -6  485.13   20.19
   1  10   6  528.25   20.99
   1  10   6  437.02   18.73
  -2 -10  -6   67.21    4.10
   2  10   6   73.01    4.68
  -3 -10  -6  108.28    5.85
   3  10   6  118.72    6.47
  -4 -10  -6  245.84   11.18
   4  10   6  247.38   11.83
  -5 -10  -6    0.92    0.60
   5  10   6    0.88    0.92
  -6 -10  -6  162.41    8.16
   6  10   6  172.47    8.87
  -7 -10  -6   26.81    2.45
   7  10   6   27.80    2.87
  -8 -10  -6    7.15    1.49
   8  10   6    8.02    1.79
  -9 -10  -6  168.69    8.35
   9  10   6  157.72    8.76
 -10 -10  -6   24.93    2.64
  10  10   6   25.96    3.03
 -11 -10  -6   60.88    4.38
  11  10   6   59.94    4.53
 -12 -10  -6  100.05    6.10
  12  10   6   98.43    6.16
  10 -11  -6  108.09    5.90
 -10  11   6   94.33    6.42
 -10  11   6   99.68    5.96
   9 -11  -6    0.45    0.89
   9 -11  -6    0.89    0.98
  -9  11   6   -0.37    0.81
   8 -11  -6   35.58    3.02
   8 -11  -6   35.66    2.83
  -8  11   6   33.67    3.34
  -8  11   6   31.71    2.91
   7 -11  -6  131.58    6.47
   7 -11  -6  123.65    6.80
  -7  11   6  124.33    7.33
  -7  11   6  133.81    6.86
   6 -11  -6   51.45    3.62
   6 -11  -6   48.60    3.14
  -6  11   6   51.30    4.02
   5 -11  -6  215.38    9.66
   5 -11  -6  217.36   10.23
  -5  11   6  221.56   10.84
   4 -11  -6   64.94    3.47
   4 -11  -6   58.02    3.86
  -4  11   6   64.87    4.42
   3 -11  -6  199.47    9.58
   3 -11  -6  197.69    8.83
  -3  11   6  217.87   10.30
   2 -11  -6  446.17   18.31
   2 -11  -6  432.97   19.16
  -2  11   6  480.10   19.99
   1 -11  -6   50.98    3.53
  -1  11   6   57.73    4.10
   0 -11  -6  124.48    4.98
   0 -11  -6  122.34    6.15
   0  11   6   99.31    4.85
   0  11   6  127.83    6.79
  -1 -11  -6  173.70    8.56
   1  11   6  184.61    9.21
  -2 -11  -6    8.43    1.47
   2  11   6   10.53    1.85
  -3 -11  -6  245.75   11.28
   3  11   6  245.28   11.86
  -4 -11  -6  122.78    6.69
   4  11   6  135.41    7.36
  -5 -11  -6   13.55    1.72
   5  11   6   11.39    2.05
  -6 -11  -6   87.56    5.25
   6  11   6   94.37    5.85
  -7 -11  -6    0.81    0.98
   7  11   6    2.66    1.12
  -8 -11  -6   96.94    5.94
   8  11   6  109.89    6.55
  -9 -11  -6  137.70    7.58
   9  11   6  143.04    8.02
 -10 -11  -6    2.71    1.32
  10  11   6    1.86    1.17
 -11 -11  -6   39.09    3.50
  11  11   6   39.03    3.65
   9 -12  -6   34.86    3.14
   9 -12  -6   31.92    2.78
  -9  12   6   31.18    3.03
  -9  12   6   30.55    3.53
   8 -12  -6   97.68    5.77
  -8  12   6   95.94    6.34
  -8  12   6   94.56    5.67
   7 -12  -6   34.73    2.64
   7 -12  -6   32.55    2.96
  -7  12   6   33.77    2.97
   6 -12  -6   50.77    3.78
   6 -12  -6   57.78    3.48
  -6  12   6   53.92    4.32
   5 -12  -6  158.08    8.01
   5 -12  -6  155.26    7.34
  -5  12   6  159.56    8.67
   4 -12  -6   22.07    1.82
   4 -12  -6   22.69    2.36
  -4  12   6   22.52    2.75
   3 -12  -6  185.67    9.15
   3 -12  -6  185.57    8.27
  -3  12   6  197.85    9.89
   2 -12  -6  188.02    8.17
   2 -12  -6  188.11    9.19
  -2  12   6  196.53    9.89
   1 -12  -6    0.10    0.75
  -1  12   6    1.08    1.05
   0 -12  -6  334.26   15.22
   0 -12  -6  346.02   13.76
   0  12   6  357.87   15.99
  -1 -12  -6  156.82    8.13
   1  12   6  173.09    8.87
  -2 -12  -6    0.26    0.77
   2  12   6    2.31    1.01
  -3 -12  -6  122.95    6.85
   3  12   6  137.62    7.54
  -4 -12  -6   23.03    2.52
   4  12   6   28.53    3.06
  -5 -12  -6   98.89    6.07
   5  12   6  119.59    6.85
  -6 -12  -6  115.32    6.70
   6  12   6  128.61    7.35
  -7 -12  -6    1.01    1.09
   7  12   6   -0.12    0.91
  -8 -12  -6  151.34    8.21
   8  12   6  155.64    8.70
  -9 -12  -6  102.60    6.50
   9  12   6  116.70    7.02
 -10 -12  -6    7.40    1.81
   8 -13  -6  104.12    5.69
   8 -13  -6  106.23    6.15
  -8  13   6  100.92    6.75
  -8  13   6   96.05    5.94
   7 -13  -6    1.24    0.71
   7 -13  -6    0.18    0.94
  -7  13   6    0.77    1.07
  -7  13   6    0.73    0.97
   6 -13  -6   57.02    4.05
   6 -13  -6   55.98    3.56
  -6  13   6   57.39    4.66
   5 -13  -6   51.49    4.30
   5 -13  -6   56.28    3.33
  -5  13   6   53.91    4.52
   4 -13  -6    3.61    1.22
   3 -13  -6  138.93    7.43
   3 -13  -6  145.81    6.47
  -3  13   6  139.82    8.08
   2 -13  -6  101.49    4.61
   2 -13  -6   89.53    5.57
  -2  13   6  101.79    6.34
   1 -13  -6   48.32    3.58
  -1  13   6   47.39    4.05
   0 -13  -6  223.12   11.04
   0  13   6  244.40   11.84
  -1 -13  -6   32.70    3.12
   1  13   6   40.67    3.66
  -2 -13  -6   77.63    5.05
   2  13   6   83.24    5.58
  -3 -13  -6  114.56    6.63
   3  13   6  122.47    7.60
  -4 -13  -6   17.70    2.77
   4  13   6   24.71    3.02
  -5 -13  -6   46.59    3.82
   5  13   6   50.65    4.25
  -6 -13  -6   40.31    3.61
   6  13   6   45.25    4.02
  -7 -13  -6   21.99    2.75
  -8 -13  -6  150.01    8.71
   8  13   6  175.73    9.30
  -9 -13  -6   32.71    3.46
   9  13   6   38.52    3.80
   7 -14  -6    4.60    1.31
  -7  14   6    5.02    1.77
  -7  14   6    4.25    1.33
   6 -14  -6  110.93    6.38
  -6  14   6  104.43    6.96
   5 -14  -6   89.54    5.59
  -5  14   6   95.04    6.45
   4 -14  -6    5.53    1.49
   4 -14  -6    6.61    1.10
  -4  14   6    4.30    1.73
   3 -14  -6  109.98    5.22
   3 -14  -6  105.19    6.27
  -3  14   6  112.14    7.06
   2 -14  -6   35.76    3.26
   2 -14  -6   37.78    2.24
  -2  14   6   39.39    3.86
   1 -14  -6   78.47    5.09
  -1  14   6   74.15    5.38
   0 -14  -6  127.22    7.41
   0  14   6  142.88    8.13
  -1 -14  -6    2.42    1.16
   1  14   6    2.42    1.19
  -2 -14  -6  128.41    7.34
   2  14   6  135.89    8.09
  -3 -14  -6  126.58    7.33
   3  14   6  134.97    7.94
  -4 -14  -6   -1.38    0.76
   4  14   6   -1.10    0.95
  -5 -14  -6   74.44    5.15
   5  14   6   74.43    5.49
  -6 -14  -6   29.61    3.24
   6  14   6   37.88    3.75
  -7 -14  -6   14.00    2.40
   7  14   6   16.15    2.72
  -8 -14  -6  117.55    7.28
   8  14   6  123.81    7.53
   6 -15  -6   61.57    3.78
   6 -15  -6   61.25    4.42
  -6  15   6   53.83    4.85
   5 -15  -6    0.55    0.74
   5 -15  -6    2.02    1.08
  -5  15   6    2.06    1.42
   4 -15  -6   58.36    4.30
  -4  15   6   54.90    4.78
   3 -15  -6  131.57    7.36
  -3  15   6  127.43    8.06
   2 -15  -6   -0.52    0.86
  -2  15   6    0.97    1.22
   1 -15  -6   71.95    5.03
  -1  15   6   79.64    5.82
   0 -15  -6  102.89    6.23
   0  15   6   99.38    6.78
  -1 -15  -6    0.13    1.05
   1  15   6    0.62    1.26
  -2 -15  -6   86.31    5.83
   2  15   6   95.50    6.36
  -3 -15  -6   56.48    4.51
   3  15   6   61.74    5.04
  -4 -15  -6    8.36    1.93
   4  15   6    8.85    2.11
  -5 -15  -6   83.29    5.84
   5  15   6   94.18    6.40
  -6 -15  -6   12.55    2.33
   6  15   6   18.42    2.95
   3 -16  -6   75.82    5.21
  -3  16   6   75.31    6.01
   2 -16  -6    0.31    0.94
  -2  16   6    1.31    1.23
   1 -16  -6   78.46    5.34
  -1  16   6   74.27    5.91
   0 -16  -6   56.47    4.47
   0  16   6   67.54    5.44
  -1 -16  -6    0.58    1.02
   1  16   6    0.60    1.21
  -2 -16  -6   42.79    4.00
   2  16   6   51.43    4.64
  -3 -16  -6   -0.03    1.00
   3  16   6    2.01    1.47
  -1  11  -7   49.78    4.48
   1 -11   7   50.04    3.73
   1 -11   7   48.51    3.41
  -2  11  -7    9.61    2.11
   2 -11   7   15.74    2.25
   2 -11   7   13.24    1.79
  -3  11  -7   37.70    4.08
   3 -11   7   37.87    3.21
  -4  11  -7   36.40    4.05
   4 -11   7   36.45    3.07
  -5  11  -7    1.22    1.27
   5 -11   7    1.27    1.00
  -6  11  -7   99.16    7.52
   6 -11   7  105.57    5.93
  -2 -10   7   66.31    4.35
   1  10  -7    7.30    1.58
  -1 -10   7    6.11    1.38
   0  10  -7   65.17    4.86
   0 -10   7   70.97    4.43
   0 -10   7   72.76    4.29
  -1  10  -7   79.41    5.70
   1 -10   7   88.25    5.05
   1 -10   7   85.66    4.75
  -2  10  -7    2.31    1.28
   2 -10   7    4.14    1.11
   2 -10   7    3.25    0.90
  -3  10  -7   69.89    6.08
   3 -10   7   65.17    3.84
   3 -10   7   75.75    4.55
  -4  10  -7   51.90    4.74
   4 -10   7   56.03    3.81
  -5  10  -7    3.15    1.62
   5 -10   7    1.98    0.98
  -6  10  -7   74.20    6.35
   6 -10   7   98.15    5.31
  -7  10  -7   19.14    3.41
   7 -10   7   29.19    2.72
  -8  10  -7   10.81    2.59
   8 -10   7    8.82    1.66
  -9  10  -7   56.38    5.61
   9 -10   7   63.98    4.29
  -4  -9   7   17.30    2.17
  -4  -9   7   10.89    1.85
  -3  -9   7   22.42    2.47
  -3  -9   7   21.80    2.38
   2   9  -7   84.12    5.24
  -2  -9   7   85.41    5.72
  -2  -9   7  100.55    5.29
   1   9  -7   -0.36    0.78
  -1  -9   7   -0.25    0.62
   0   9  -7   79.00    5.25
   0  -9   7   78.12    4.48
   0  -9   7   81.89    4.78
  -1   9  -7   56.05    4.37
   1  -9   7   58.89    3.83
   1  -9   7   54.57    3.47
  -2   9  -7   11.86    2.23
   2  -9   7   12.35    1.50
   2  -9   7   15.48    1.97
  -3   9  -7  102.49    6.73
   3  -9   7  109.74    5.74
   3  -9   7   98.77    5.08
  -4   9  -7   47.51    4.46
   4  -9   7   51.53    2.94
   4  -9   7   51.93    3.58
  -5   9  -7   45.78    5.25
  -6   9  -7   74.60    6.08
   6  -9   7   83.85    4.85
  -7   9  -7    1.31    1.36
   7  -9   7    4.14    1.22
  -8   9  -7   58.31    5.69
   8  -9   7   68.15    4.21
  -9   9  -7   76.95    6.83
   9  -9   7   98.35    5.43
 -10   9  -7   -0.45    1.10
  10  -9   7   -1.01    0.76
  -5  -8   7   82.69    5.08
  -4  -8   7    0.53    0.74
  -4  -8   7   -0.34    0.75
  -3  -8   7   48.21    3.46
  -3  -8   7   46.11    3.45
   2   8  -7   70.28    4.42
  -2  -8   7   76.01    4.36
  -2  -8   7   72.22    4.49
  -1  -8   7   26.57    2.58
  -1  -8   7   26.44    2.21
   0   8  -7  240.94   11.38
   0  -8   7  236.11   10.86
   0  -8   7  230.81   10.48
  -1   8  -7  116.73    6.76
   1  -8   7  117.66    6.16
   1  -8   7  114.91    5.72
  -2   8  -7   47.64    3.85
   2  -8   7   39.76    3.04
   2  -8   7   41.13    2.64
  -3   8  -7  142.25    8.26
   3  -8   7  149.72    7.29
  -4   8  -7   18.50    2.75
   4  -8   7   17.13    1.46
   4  -8   7   20.26    1.95
  -5   8  -7   73.72    5.76
   5  -8   7   91.28    4.89
  -6   8  -7  150.94    9.19
   6  -8   7  157.04    7.67
   7  -8   7    4.49    1.36
  -8   8  -7  145.40    9.35
   8  -8   7  146.75    7.39
  -9   8  -7   26.36    3.88
   9  -8   7   36.16    2.97
 -10   8  -7   10.41    2.65
  10  -8   7    9.10    1.62
 -11   8  -7  103.00    7.99
  11  -8   7  114.69    6.23
   6   7  -7   91.29    5.65
  -6  -7   7   94.56    5.66
  -6  -7   7   97.63    5.64
   5   7  -7   40.07    3.83
  -5  -7   7   37.72    3.64
  -5  -7   7   41.43    3.22
   4   7  -7    2.81    1.06
  -4  -7   7    3.64    1.04
  -4  -7   7    3.67    1.17
   3   7  -7  167.28    7.90
  -3  -7   7  174.63    8.52
  -3  -7   7  173.59    8.24
   2   7  -7   59.99    3.84
  -2  -7   7   68.25    3.86
  -2  -7   7   63.65    4.15
   1   7  -7   14.32    1.87
  -1  -7   7   16.05    1.62
  -1  -7   7   13.47    1.83
   0   7  -7  174.84    8.80
   0  -7   7  178.29    8.47
   0  -7   7  178.70    8.15
  -1   7  -7    7.08    1.48
   1  -7   7    8.55    1.16
   1  -7   7    7.63    1.30
  -2   7  -7   89.21    5.64
   2  -7   7   91.10    4.48
   2  -7   7   90.90    4.99
  -3   7  -7  152.51    8.41
   3  -7   7  149.90    6.84
   3  -7   7  161.25    7.55
  -4   7  -7    5.08    1.52
   4  -7   7    4.91    0.75
   4  -7   7    4.27    1.07
  -5   7  -7   99.12    6.40
   5  -7   7   85.04    4.58
   5  -7   7   98.58    5.18
  -6   7  -7   76.55    5.72
   6  -7   7   77.31    3.47
   6  -7   7   82.10    4.59
  -7   7  -7    6.56    1.94
   7  -7   7    5.29    1.20
  -8   7  -7  116.32    7.99
   8  -7   7  132.44    6.55
  -9   7  -7   25.67    3.66
   9  -7   7   29.19    2.60
 -10   7  -7   65.71    5.88
  10  -7   7   68.50    4.31
 -11   7  -7   99.40    7.64
  11  -7   7  102.96    5.74
 -12   7  -7    4.38    2.02
  12  -7   7    3.87    1.10
   7   6  -7   15.87    2.24
  -7  -6   7   18.14    2.27
  -7  -6   7   20.45    2.48
   6   6  -7  169.50    8.77
  -6  -6   7  172.95    8.80
  -6  -6   7  171.78    8.54
   5   6  -7   31.07    2.83
  -5  -6   7   32.36    2.90
  -5  -6   7   32.47    2.71
   4   6  -7   28.40    2.66
  -4  -6   7   33.70    2.59
  -4  -6   7   28.13    2.67
   3   6  -7  164.17    8.54
   3   6  -7  177.92    8.60
  -3  -6   7  173.21    8.51
  -3  -6   7  188.92    8.33
   2   6  -7   16.63    1.76
  -2  -6   7   18.49    1.98
  -2  -6   7   19.24    1.74
   1   6  -7  166.68    8.09
  -1  -6   7  171.47    7.76
  -1  -6   7  167.07    8.07
   0   6  -7  290.18   13.22
   0  -6   7  296.86   12.51
   0  -6   7  298.89   12.99
  -1   6  -7   10.83    1.63
   1  -6   7    9.65    1.41
   1  -6   7   11.97    1.21
  -2   6  -7  205.13    9.88
   2  -6   7  193.47    9.10
   2  -6   7  196.93    8.54
  -3   6  -7   58.59    4.22
   3  -6   7   57.99    3.57
   3  -6   7   56.11    2.92
  -4   6  -7   12.62    2.15
   4  -6   7   14.63    1.61
   4  -6   7   15.12    1.13
  -5   6  -7  277.36   12.42
  -5   6  -7  313.78   14.83
   5  -6   7  322.62   12.47
   5  -6   7  327.59   13.55
  -6   6  -7  181.12    7.97
  -6   6  -7  205.00   10.72
   6  -6   7  205.44    8.00
   6  -6   7  214.78    9.35
  -7   6  -7   45.95    4.17
   7  -6   7   49.45    3.28
  -8   6  -7   72.40    5.71
   8  -6   7   86.49    4.65
  -9   6  -7   11.80    2.50
   9  -6   7    8.50    1.38
 -10   6  -7   65.94    5.79
  10  -6   7   69.18    4.28
 -11   6  -7   86.37    6.90
  11  -6   7   94.94    5.24
 -12   6  -7   -1.64    0.78
  12  -6   7   -0.53    0.54
 -13   6  -7   74.04    6.58
  13  -6   7   86.66    5.04
   8   5  -7   12.90    2.09
  -8  -5   7   20.74    2.37
  -8  -5   7   21.31    2.56
   7   5  -7   36.49    3.22
  -7  -5   7   37.59    3.08
  -7  -5   7   35.74    3.21
   6   5  -7   95.68    5.52
  -6  -5   7   92.56    5.52
   5   5  -7   25.94    2.44
  -5  -5   7   23.10    2.20
  -5  -5   7   22.03    2.38
   4   5  -7   80.01    4.82
  -4  -5   7   90.34    4.68
  -4  -5   7   79.05    4.80
   3   5  -7  119.38    6.37
   3   5  -7  126.54    5.74
  -3  -5   7  124.93    6.07
  -3  -5   7  122.98    6.38
   2   5  -7    0.18    0.48
   2   5  -7    0.49    0.53
  -2  -5   7    0.40    0.64
  -2  -5   7    0.00    0.53
   1   5  -7  154.03    7.41
  -1  -5   7  156.94    7.07
  -1  -5   7  153.72    7.45
   0   5  -7   99.04    5.38
   0  -5   7  103.60    4.81
   0  -5   7   98.58    5.20
  -1   5  -7    0.18    0.55
   1  -5   7    0.10    0.53
   1  -5   7    0.66    0.40
  -2   5  -7  244.07   11.52
   2  -5   7  245.56   10.29
   2  -5   7  252.56   10.97
  -3   5  -7   77.16    4.88
   3  -5   7   79.04    4.25
   3  -5   7   76.29    3.59
  -4   5  -7    1.12    1.02
   4  -5   7    2.38    0.40
   4  -5   7    0.29    0.56
  -5   5  -7  114.74    5.46
  -5   5  -7  139.95    7.56
   5  -5   7  133.91    6.39
   5  -5   7  136.64    5.36
  -6   5  -7   54.31    4.35
   6  -5   7   54.52    3.39
  -7   5  -7  142.53    8.36
   7  -5   7  147.16    7.00
  -8   5  -7  344.77   16.80
   8  -5   7  358.62   15.13
  -9   5  -7   -0.96    0.74
   9  -5   7    0.01    0.66
 -10   5  -7  153.14    9.45
  10  -5   7  164.40    7.76
 -11   5  -7   92.64    7.07
  11  -5   7  108.62    5.59
 -12   5  -7    4.72    1.87
  12  -5   7    5.70    1.21
 -13   5  -7   80.06    6.61
  13  -5   7   95.98    5.28
 -14   5  -7    2.59    1.58
  14  -5   7    3.62    1.10
   9   4  -7   49.21    3.93
  -9  -4   7   56.55    3.91
   8   4  -7   -0.81    0.69
  -8  -4   7    0.94    0.91
   7   4  -7   92.63    5.66
  -7  -4   7   95.97    5.33
   6   4  -7   62.48    4.10
  -6  -4   7   61.99    3.90
   5   4  -7   16.39    2.03
  -5  -4   7   17.24    1.80
  -5  -4   7   17.47    2.04
   4   4  -7  299.19   13.43
  -4  -4   7  306.35   13.09
  -4  -4   7  304.07   13.46
   3   4  -7  130.70    6.59
   3   4  -7  126.37    5.76
  -3  -4   7  132.51    6.23
  -3  -4   7  133.18    6.62
   2   4  -7   51.80    2.95
   2   4  -7   47.48    3.20
  -2  -4   7   50.88    2.90
  -2  -4   7   47.30    3.18
   1   4  -7  261.62   11.59
   1   4  -7  254.64   11.39
  -1  -4   7  275.93   11.12
  -1  -4   7  254.89   11.52
   0   4  -7   16.49    1.73
   0  -4   7   18.56    1.40
   0  -4   7   14.96    1.89
  -1   4  -7  197.56    9.07
   1  -4   7  185.01    8.73
   1  -4   7  192.35    8.13
  -2   4  -7  401.53   17.49
   2  -4   7  408.24   16.98
  -3   4  -7   49.06    3.55
   3  -4   7   50.48    2.40
   3  -4   7   49.21    3.12
  -4   4  -7  180.70    9.24
   4  -4   7  191.39    7.56
  -5   4  -7  245.36   13.50
   5  -4   7  294.54   11.87
  -6   4  -7    1.56    0.92
   6  -4   7    1.94    0.64
  -7   4  -7  138.73    8.00
   7  -4   7  142.27    6.75
  -8   4  -7   60.66    4.86
   8  -4   7   70.25    3.82
  -9   4  -7    2.53    1.17
   9  -4   7    0.81    0.68
 -10   4  -7  248.74   13.25
  10  -4   7  268.57   11.55
 -11   4  -7  119.53    8.03
  11  -4   7  136.59    6.56
 -12   4  -7   31.61    3.70
  12  -4   7   39.30    2.92
 -13   4  -7   54.88    5.20
  13  -4   7   60.09    3.85
 -14   4  -7    7.28    2.18
  14  -4   7    8.09    1.44
  10   3  -7   48.21    3.90
 -10  -3   7   51.19    3.78
   9   3  -7   46.86    3.96
  -9  -3   7   52.39    3.78
   8   3  -7    3.98    1.29
  -8  -3   7    3.16    1.04
   7   3  -7  187.64    9.41
  -7  -3   7  199.43    9.24
   6   3  -7  129.50    6.93
  -6  -3   7  138.26    6.73
   5   3  -7    5.86    1.27
  -5  -3   7    7.05    1.18
   4   3  -7  315.02   14.28
  -4  -3   7  342.98   14.04
   3   3  -7   36.36    1.89
   3   3  -7   32.87    2.50
  -3  -3   7   34.86    2.63
  -3  -3   7   37.76    2.66
   2   3  -7  193.80    8.95
   2   3  -7  207.83    8.53
  -2  -3   7  182.92    8.86
  -2  -3   7  194.39    8.51
   1   3  -7  449.77   18.70
  -1  -3   7  451.10   18.16
  -1  -3   7  440.72   18.65
   0   3  -7   90.06    4.74
   0   3  -7   95.29    4.80
   0  -3   7   86.43    4.65
   0  -3   7   90.25    4.20
  -1   3  -7  206.40    9.42
   1  -3   7  205.38    9.14
   1  -3   7  203.77    8.53
  -2   3  -7  376.10   16.41
   2  -3   7  382.47   15.95
   2  -3   7  384.77   15.24
  -3   3  -7   35.01    2.76
  -3   3  -7   31.33    1.65
   3  -3   7   37.47    1.71
   3  -3   7   34.50    2.31
  -4   3  -7  669.71   28.67
   4  -3   7  703.47   26.87
   4  -3   7  678.77   26.80
   4  -3   7  701.75   27.86
  -5   3  -7   39.66    3.28
   5  -3   7   43.15    2.68
  -6   3  -7   17.26    2.17
  -7   3  -7  276.79   13.49
   7  -3   7  289.96   12.22
  -8   3  -7   15.12    2.34
   8  -3   7   16.94    1.57
  -9   3  -7   52.64    4.41
   9  -3   7   55.13    3.31
 -10   3  -7  236.46   12.40
  10  -3   7  248.67   10.77
 -11   3  -7    9.17    2.13
  11  -3   7   14.53    1.55
 -12   3  -7   57.97    5.09
  12  -3   7   64.65    3.88
 -13   3  -7   89.27    6.79
  13  -3   7  103.99    5.39
 -14   3  -7    0.14    1.14
  14  -3   7   -0.68    0.64
 -15   3  -7   42.53    5.91
  15  -3   7   42.62    3.25
  10   2  -7   46.37    3.90
 -10  -2   7   60.75    4.15
   9   2  -7   18.21    2.38
  -9  -2   7   23.30    2.47
   8   2  -7   27.88    3.18
  -8  -2   7   28.63    2.56
   7   2  -7  196.24    9.85
  -7  -2   7  217.79    9.70
   6   2  -7   47.50    3.45
  -6  -2   7   52.09    3.22
   5   2  -7   99.38    5.42
  -5  -2   7  101.44    5.15
   4   2  -7  365.57   16.11
  -4  -2   7  389.77   15.83
   3   2  -7   14.46    0.86
   3   2  -7   13.98    1.64
  -3  -2   7   13.34    0.79
  -3  -2   7   14.07    1.35
   2   2  -7  192.89    8.91
   2   2  -7  204.19    8.41
  -2  -2   7  199.03    8.51
  -2  -2   7  196.54    8.22
  -2  -2   7  190.31    8.90
   1   2  -7  201.05    9.27
   1   2  -7  218.04    9.14
  -1  -2   7  205.99    8.82
  -1  -2   7  207.83    9.30
   0   2  -7    0.16    0.40
   0   2  -7    0.29    0.44
   0  -2   7    0.15    0.28
   0  -2   7    0.31    0.41
  -1   2  -7  183.00    8.37
   1  -2   7  174.12    7.50
   1  -2   7  186.03    8.13
  -2   2  -7  272.59   12.09
   2  -2   7  270.34   11.61
   2  -2   7  273.34   10.93
  -3   2  -7   50.46    3.43
   3  -2   7   51.86    2.30
   3  -2   7   53.69    2.42
   3  -2   7   54.68    3.04
  -4   2  -7  433.66   18.88
   4  -2   7  444.75   18.09
  -5   2  -7   52.17    3.74
   5  -2   7   56.25    3.10
  -6   2  -7   16.87    2.15
   6  -2   7   17.93    1.56
   7  -2   7  111.25    5.44
  -8   2  -7    1.22    0.76
   8  -2   7    0.08    0.52
  -9   2  -7  173.48    9.53
   9  -2   7  185.78    8.17
 -10   2  -7  289.41   14.54
  10  -2   7  311.36   12.95
 -11   2  -7   -0.96    0.70
 -11   2  -7   -0.41    0.17
  11  -2   7   -0.33    0.53
 -12   2  -7   45.50    4.30
  12  -2   7   54.07    3.31
  13  -2   7   43.10    3.04
 -14   2  -7   17.85    3.00
  14  -2   7   24.28    2.31
 -15   2  -7  108.53    7.90
  15  -2   7  126.69    6.37
  11   1  -7    4.91    1.43
 -11  -1   7    3.28    1.28
  10   1  -7   62.00    4.57
 -10  -1   7   71.87    4.56
   9   1  -7   23.13    2.59
  -9  -1   7   25.79    2.52
   8   1  -7   45.17    3.52
  -8  -1   7   51.14    3.44
   7   1  -7  243.33   11.35
  -7  -1   7  246.90   11.07
   6   1  -7    3.35    0.98
  -6  -1   7    2.39    0.84
   5   1  -7  168.04    8.30
  -5  -1   7  184.32    8.12
   4   1  -7  420.88   17.78
  -4  -1   7  421.95   17.87
   3   1  -7   12.92    1.54
  -3  -1   7   15.62    1.37
  -3  -1   7   15.98    0.77
   2   1  -7  411.48   17.85
   2   1  -7  442.44   17.33
  -2  -1   7  438.07   17.21
  -2  -1   7  428.35   17.51
   1   1  -7  285.10   12.25
   1   1  -7  297.07   12.05
  -1  -1   7  275.48   12.22
  -1  -1   7  288.41   11.82
   0   1  -7   19.36    1.60
   0   1  -7   21.00    1.62
   0  -1   7   19.51    1.61
   0  -1   7   18.71    1.26
  -1   1  -7  376.07   15.22
  -1   1  -7  368.26   15.42
   1  -1   7  354.81   14.55
   1  -1   7  357.65   15.12
  -2   1  -7  128.11    6.24
   2  -1   7  126.55    5.24
   2  -1   7  120.45    5.76
   2  -1   7  122.93    5.16
  -3   1  -7  384.90   16.19
   3  -1   7  379.12   14.72
   3  -1   7  355.52   15.46
   3  -1   7  380.77   14.77
  -4   1  -7  343.01   14.83
   4  -1   7  328.75   13.96
  -5   1  -7   23.15    2.28
   5  -1   7   26.72    1.81
  -6   1  -7  131.84    7.11
   6  -1   7  134.14    6.11
  -7   1  -7  151.54    7.99
   7  -1   7  149.77    6.79
  -8   1  -7   25.40    2.62
   8  -1   7   23.96    1.89
  -9   1  -7  281.59   13.69
   9  -1   7  287.69   12.12
 -10   1  -7   45.05    3.92
 -10   1  -7   48.68    2.16
  10  -1   7   47.50    2.91
 -11   1  -7   11.27    0.86
 -11   1  -7    9.76    2.03
  11  -1   7    9.73    1.39
 -12   1  -7  172.54    9.85
  12  -1   7  176.29    8.08
 -13   1  -7   31.16    1.95
 -13   1  -7   27.44    3.46
  13  -1   7   38.27    2.65
 -14   1  -7   33.00    3.91
  14  -1   7   38.34    2.91
 -15   1  -7   90.18    6.83
  15  -1   7  100.34    5.41
  11   0  -7   19.92    2.62
 -11   0   7   21.49    2.47
  10   0  -7   66.70    4.61
 -10   0   7   68.72    4.37
   9   0  -7    0.13    0.77
  -9   0   7   -1.07    0.57
   8   0  -7   66.42    4.34
  -8   0   7   66.16    4.11
   7   0  -7  100.52    5.66
  -7   0   7  106.01    5.48
   6   0  -7    1.65    0.71
  -6   0   7    1.09    0.67
   5   0  -7  189.49    8.97
  -5   0   7  200.12    8.78
  -4   0   7   87.21    4.40
   3   0  -7  115.05    5.74
  -3   0   7  117.62    5.48
  -3   0   7  119.93    4.80
   2   0  -7  549.23   23.08
   2   0  -7  570.79   22.56
  -2   0   7  580.85   22.53
  -2   0   7  566.02   22.77
   1   0  -7   57.03    3.19
   1   0  -7   57.00    3.00
  -1   0   7   58.74    2.89
   0   0  -7   92.17    4.38
   0   0  -7   82.76    4.25
   0   0   7   82.55    4.24
   0   0   7   85.60    3.88
  -1   0  -7  506.11   20.13
   1   0   7  492.63   19.58
   1   0   7  483.49   20.07
  -2   0  -7    0.29    0.43
   2   0   7    0.68    0.23
   2   0   7    1.46    0.52
   2   0   7    0.94    0.22
  -4   0  -7  534.08   22.43
  -5   0  -7   10.96    1.48
   5   0   7   12.16    1.15
  -6   0  -7  493.12   20.96
   6   0   7  480.49   19.71
  -7   0  -7  229.91   11.14
   7   0   7  233.33    9.87
  -8   0  -7   79.83    3.46
  -8   0  -7   87.05    5.38
  -8   0  -7   89.91    3.49
   8   0   7   83.26    4.18
  -9   0  -7  621.15   22.33
  -9   0  -7  534.53   22.24
  -9   0  -7  541.40   24.49
 -10   0  -7   55.78    2.61
 -10   0  -7   50.04    4.16
  10   0   7   58.55    3.18
 -11   0  -7   20.19    2.57
  11   0   7   22.85    1.86
 -12   0  -7  122.01    7.73
 -12   0  -7  127.55    5.69
  12   0   7  134.38    6.25
 -13   0  -7    5.56    1.72
 -13   0  -7    3.17    0.71
  13   0   7    4.77    1.03
 -14   0  -7  120.96    5.71
  14   0   7  122.12    6.18
 -15   0  -7   81.14    6.35
  15   0   7   84.73    4.79
  11  -1  -7   41.99    3.63
 -11   1   7   45.56    3.42
  10  -1  -7   57.88    4.18
 -10   1   7   59.60    4.05
   9  -1  -7    8.68    1.96
  -9   1   7    8.34    1.68
   8  -1  -7  298.81   14.00
  -8   1   7  328.23   13.86
   7  -1  -7   35.63    2.85
  -7   1   7   38.49    2.75
   6  -1  -7   16.33    1.89
  -6   1   7   18.07    1.76
   5  -1  -7  596.76   25.16
  -5   1   7  628.85   24.97
   4  -1  -7  139.93    6.60
  -4   1   7  134.35    6.33
   3  -1  -7  107.33    5.17
  -3   1   7  104.78    4.92
  -3   1   7   94.07    4.36
  -3   1   7  108.75    4.45
   2  -1  -7  578.72   21.68
   2  -1  -7  536.70   22.09
  -2   1   7  554.54   21.68
  -2   1   7  480.82   21.61
  -2   1   7  562.03   21.85
   1  -1  -7    1.24    0.40
   1  -1  -7    1.11    0.48
  -1   1   7    0.55    0.31
   0  -1  -7  433.55   17.90
   0  -1  -7  467.07   18.07
   0   1   7  417.54   17.89
   0   1   7  435.93   17.80
  -2  -1  -7   16.95    1.39
  -2  -1  -7   17.14    1.61
   2   1   7   18.29    1.38
   2   1   7   18.04    1.07
   2   1   7   18.90    1.05
  -3  -1  -7  206.09    9.27
   3   1   7  198.20    8.04
   3   1   7  197.08    8.54
  -4  -1  -7  527.40   22.05
   4   1   7  509.81   20.54
   4   1   7  539.96   20.54
  -5  -1  -7   91.42    3.57
  -5  -1  -7   89.16    5.05
   5   1   7   90.47    4.16
   5   1   7   83.02    3.54
  -6  -1  -7  426.02   16.21
  -6  -1  -7  422.06   18.07
   6   1   7  383.10   16.16
   6   1   7  425.44   16.81
  -7  -1  -7  112.65    6.33
  -7  -1  -7  112.41    4.64
   7   1   7  119.26    5.18
   7   1   7  106.80    4.84
  -8  -1  -7   55.09    2.48
  -8  -1  -7   58.80    4.12
   8   1   7   53.06    2.88
   8   1   7   51.46    2.42
  -9  -1  -7  168.19    7.27
  -9  -1  -7  175.76    9.22
   9   1   7  181.96    7.72
 -10  -1  -7   22.92    2.72
  10   1   7   25.36    1.84
 -11  -1  -7   90.40    6.05
 -11  -1  -7   89.97    4.27
  11   1   7   95.57    4.65
 -12  -1  -7  116.57    7.46
 -12  -1  -7  120.59    5.62
  12   1   7  132.79    6.02
 -13  -1  -7   -1.08    0.82
 -14  -1  -7   55.10    4.85
 -15  -1  -7   23.81    2.20
 -15  -1  -7   23.15    3.34
  15   1   7   25.21    2.30
  11  -2  -7   61.73    4.48
 -11   2   7   66.27    4.35
  10  -2  -7   22.49    2.62
 -10   2   7   26.26    2.55
   8  -2  -7  149.21    7.69
  -8   2   7  155.18    7.49
   7  -2  -7  146.53    7.48
  -7   2   7  155.99    7.33
   6  -2  -7   24.84    2.19
  -6   2   7   32.57    2.33
   5  -2  -7  233.29   10.49
  -5   2   7  238.49   10.34
   4  -2  -7    3.92    0.86
  -4   2   7    3.85    0.46
  -4   2   7    2.57    0.67
  -4   2   7    3.74    0.51
   3  -2  -7  265.72   11.45
  -3   2   7  275.94   11.30
  -3   2   7  249.46   10.85
  -3   2   7  276.66   11.06
   2  -2  -7  619.30   22.67
   2  -2  -7  557.95   22.88
  -2   2   7  582.74   22.73
  -2   2   7  570.14   22.73
  -2   2   7  494.28   22.54
   1  -2  -7   19.04    1.45
   1  -2  -7   18.35    1.39
  -1   2   7   17.17    1.27
   0  -2  -7  492.57   19.94
   0  -2  -7  480.37   20.10
   0   2   7  506.27   19.74
  -2  -2  -7   65.49    3.16
  -2  -2  -7   62.62    2.83
  -2  -2  -7   61.46    3.55
   2   2   7   58.35    2.82
   2   2   7   62.02    3.09
  -3  -2  -7  267.10   10.77
  -3  -2  -7  257.45   11.81
   3   2   7  271.83   11.12
   3   2   7  277.67   10.81
  -4  -2  -7  140.40    7.03
  -4  -2  -7  138.49    5.83
   4   2   7  143.91    5.83
   4   2   7  145.94    6.19
  -5  -2  -7  215.25    8.65
  -5  -2  -7  206.82    9.98
   5   2   7  215.96    8.60
   5   2   7  220.08    8.99
  -6  -2  -7  510.99   19.82
  -6  -2  -7  514.12   21.46
   6   2   7  481.90   19.72
  -7  -2  -7    2.98    0.43
  -7  -2  -7    3.06    0.98
   7   2   7    3.30    0.59
  -8  -2  -7  361.60   14.64
  -8  -2  -7  356.12   16.35
   8   2   7  373.84   14.88
  -9  -2  -7  220.76   11.78
  -9  -2  -7  219.47    9.20
   9   2   7  220.76    9.36
 -10  -2  -7    1.88    0.98
 -10  -2  -7    1.07    0.42
  10   2   7    0.74    0.48
 -11  -2  -7  145.43    6.61
 -11  -2  -7  145.12    8.34
  11   2   7  155.22    6.80
 -12  -2  -7   53.94    4.54
 -12  -2  -7   56.68    3.14
  12   2   7   59.88    3.29
 -13  -2  -7   37.34    2.48
 -13  -2  -7   35.76    3.69
  13   2   7   37.01    2.53
 -14  -2  -7   91.78    4.83
 -14  -2  -7   88.73    6.36
  14   2   7   94.93    4.91
 -15  -2  -7    6.24    1.22
 -15  -2  -7    5.67    1.83
  15   2   7    5.49    1.19
  11  -3  -7   84.57    5.39
 -11   3   7   91.07    5.31
  10  -3  -7   30.55    3.02
 -10   3   7   34.00    2.88
   9  -3  -7  100.25    6.06
  -9   3   7  112.72    5.87
   8  -3  -7   48.10    3.44
  -8   3   7   48.58    3.29
   7  -3  -7    3.50    1.02
  -7   3   7    4.15    1.04
   6  -3  -7  320.19   14.19
  -6   3   7  330.57   14.05
  -6   3   7  332.20   13.17
   5  -3  -7  520.36   22.39
  -5   3   7  520.45   21.72
  -5   3   7  540.43   22.25
  -5   3   7  584.80   21.60
   4  -3  -7   19.53    1.76
  -4   3   7   23.55    1.77
  -4   3   7   21.34    1.38
  -4   3   7   19.91    1.51
   3  -3  -7  106.21    5.11
  -3   3   7  108.64    5.01
  -3   3   7  100.66    4.75
   2  -3  -7   40.15    2.28
   2  -3  -7   39.23    2.31
  -2   3   7   35.75    2.20
  -2   3   7   38.03    2.22
   1  -3  -7  122.30    5.49
   1  -3  -7  123.64    5.39
   1  -3  -7  123.07    5.58
  -1   3   7  108.03    5.53
  -1   3   7  121.31    5.39
   0  -3  -7  565.92   23.08
  -1  -3  -7   51.24    3.02
  -1  -3  -7   48.54    2.50
  -1  -3  -7   50.75    2.61
   1   3   7   51.93    2.64
  -2  -3  -7   88.51    4.73
  -2  -3  -7   94.09    4.07
  -4  -3  -7   61.17    3.78
  -4  -3  -7   62.96    2.88
   4   3   7   61.99    3.17
  -5  -3  -7   78.06    3.46
  -5  -3  -7   74.38    4.46
   5   3   7   77.19    3.52
  -6  -3  -7  298.20   13.39
  -6  -3  -7  294.57   12.01
   6   3   7  296.04   12.05
  -7  -3  -7   69.10    3.18
  -7  -3  -7   65.51    4.27
   7   3   7   64.58    3.16
  -8  -3  -7  210.93   10.57
  -8  -3  -7  219.92    9.17
   8   3   7  224.73    9.17
  -9  -3  -7  334.88   13.82
   9   3   7  338.25   13.79
 -10  -3  -7   94.25    4.45
 -10  -3  -7   88.53    5.75
  10   3   7   92.93    4.41
 -11  -3  -7  175.95    9.24
 -11  -3  -7  159.51    7.49
  11   3   7  171.05    7.47
 -12  -3  -7   23.60    1.88
 -12  -3  -7   20.32    2.71
  12   3   7   23.56    1.80
 -13  -3  -7   88.19    4.58
 -13  -3  -7   83.52    5.92
  13   3   7   87.78    4.49
 -14  -3  -7  152.48    7.29
 -14  -3  -7  140.85    8.77
  14   3   7  158.81    7.23
 -15  -3  -7    4.50    1.57
 -15  -3  -7    5.27    1.25
  15   3   7    4.52    1.01
  12  -4  -7   41.98    3.65
 -12   4   7   45.59    3.48
  11  -4  -7  120.35    6.92
 -11   4   7  127.42    6.75
  10  -4  -7    0.63    0.92
 -10   4   7    3.02    1.06
   9  -4  -7   64.16    4.31
  -9   4   7   69.99    4.24
   8  -4  -7  205.48    9.97
  -8   4   7  208.42    8.88
  -8   4   7  223.75    9.90
   7  -4  -7    7.15    1.32
  -7   4   7   10.83    1.05
  -7   4   7    9.19    1.42
   6  -4  -7  412.00   18.01
  -6   4   7  440.17   17.41
  -6   4   7  429.42   17.92
  -5   4   7  141.75    6.88
  -5   4   7  152.19    6.56
   4  -4  -7   56.88    3.31
  -4   4   7   61.10    3.08
  -4   4   7   56.00    3.26
   3  -4  -7  331.86   13.40
   3  -4  -7  313.71   13.38
  -3   4   7  311.20   13.23
  -3   4   7  319.42   13.36
   2  -4  -7  119.27    5.48
   2  -4  -7  118.59    5.50
  -2   4   7  118.46    5.47
   1  -4  -7   58.18    3.10
   1  -4  -7   51.30    2.75
   1  -4  -7   52.76    2.77
  -1   4   7   48.46    2.72
  -1   4   7   49.66    2.96
   0  -4  -7  458.38   18.20
   0  -4  -7  451.76   17.72
   0  -4  -7  443.52   17.67
   0   4   7  397.31   18.11
  -1  -4  -7  102.35    5.28
  -1  -4  -7  108.61    4.81
  -1  -4  -7  108.83    4.76
  -3  -4  -7  336.41   14.92
  -3  -4  -7  344.99   14.04
   3   4   7  358.02   13.96
  -4  -4  -7   26.91    2.25
  -4  -4  -7   27.00    1.57
   4   4   7   26.00    1.46
  -5  -4  -7  297.96   13.43
  -5  -4  -7  307.76   12.35
   5   4   7  298.14   12.13
  -6  -4  -7  302.15   12.46
  -6  -4  -7  305.49   13.69
  -7  -4  -7  142.23    6.12
  -7  -4  -7  132.00    7.21
   7   4   7  138.89    5.87
  -8  -4  -7  253.43   12.14
  -8  -4  -7  257.08   10.79
   8   4   7  259.69   10.55
  -9  -4  -7  154.28    6.93
  -9  -4  -7  155.08    9.01
   9   4   7  156.16    6.70
 -10  -4  -7   62.32    3.41
 -10  -4  -7   61.75    4.47
  10   4   7   63.20    3.17
 -11  -4  -7  145.49    8.21
 -11  -4  -7  145.88    6.81
  11   4   7  148.19    6.57
 -12  -4  -7   10.85    1.96
 -12  -4  -7   10.81    1.37
  12   4   7    7.99    1.09
 -13  -4  -7   65.84    5.06
 -13  -4  -7   70.63    4.04
  13   4   7   72.13    3.78
 -14  -4  -7   67.22    4.08
 -14  -4  -7   62.69    5.06
  14   4   7   69.38    3.83
 -15  -4  -7   -1.10    0.64
 -15  -4  -7   -1.04    0.96
  15   4   7    0.02    0.58
  11  -5  -7   48.65    3.87
 -11   5   7   54.25    3.84
  10  -5  -7   18.74    2.30
 -10   5   7   15.41    2.12
   9  -5  -7  137.67    6.88
  -9   5   7  108.97    6.44
  -9   5   7  137.38    6.72
   8  -5  -7   78.69    4.77
  -8   5   7   83.58    4.20
  -8   5   7   78.76    4.59
   7  -5  -7   14.34    1.81
  -7   5   7   15.29    1.84
  -7   5   7   18.19    1.59
   6  -5  -7  204.16    9.68
  -6   5   7  222.68    9.42
  -6   5   7  213.77    9.66
   5  -5  -7   26.64    2.10
  -5   5   7   24.07    1.96
  -5   5   7   27.75    1.95
   4  -5  -7  206.56    9.18
   4  -5  -7  215.89    9.27
  -4   5   7  201.53    9.05
  -4   5   7  207.62    9.19
   3  -5  -7  274.15   11.41
   3  -5  -7  256.05   11.28
  -3   5   7  268.39   11.39
  -3   5   7  265.21   11.36
   2  -5  -7   19.30    1.48
   2  -5  -7   21.21    1.61
  -2   5   7   19.05    1.48
  -2   5   7   20.22    1.66
   1  -5  -7  167.80    7.20
   1  -5  -7  160.64    7.03
  -1   5   7  157.80    7.47
   0  -5  -7  327.25   13.31
   0  -5  -7  311.95   12.78
   0  -5  -7  318.32   12.88
   0   5   7  274.03   13.14
  -1  -5  -7   14.94    1.20
  -1  -5  -7   14.86    1.05
  -1  -5  -7   16.95    1.62
   1   5   7   12.31    1.49
  -2  -5  -7  656.43   25.62
   2   5   7  583.55   25.52
  -3  -5  -7   59.32    3.07
  -3  -5  -7   59.01    3.73
   3   5   7   60.87    2.81
   3   5   7   67.70    2.90
  -4  -5  -7   90.03    4.23
  -4  -5  -7   90.34    5.06
   4   5   7   84.60    3.86
   4   5   7   98.27    4.04
  -5  -5  -7  488.28   19.23
  -5  -5  -7  462.58   20.25
  -6  -5  -7   35.22    2.12
  -6  -5  -7   36.54    2.92
   6   5   7   35.56    1.75
  -7  -5  -7   98.36    5.78
  -7  -5  -7   98.22    4.82
   7   5   7  108.14    4.59
  -8  -5  -7  966.57   38.27
  -8  -5  -7  958.27   39.64
  -9  -5  -7   -0.16    0.67
  -9  -5  -7   -0.27    0.33
   9   5   7    0.70    0.38
 -10  -5  -7   38.52    2.62
 -10  -5  -7   39.22    3.47
  10   5   7   40.05    2.21
 -11  -5  -7   85.99    5.83
 -11  -5  -7   96.35    4.82
  11   5   7   89.45    4.31
 -12  -5  -7    4.38    1.46
 -12  -5  -7    5.16    0.97
  12   5   7    5.76    0.88
 -13  -5  -7  119.58    7.61
 -13  -5  -7  135.16    6.62
  13   5   7  130.57    6.05
 -14  -5  -7   58.37    3.79
 -14  -5  -7   52.39    4.46
  14   5   7   55.69    3.29
 -15  -5  -7   20.30    2.37
  15   5   7   21.81    2.18
  11  -6  -7    6.45    1.57
 -11   6   7    9.30    1.66
  10  -6  -7   42.62    3.38
 -10   6   7   38.52    3.17
   9  -6  -7  226.36   11.05
  -9   6   7  237.74   10.94
   8  -6  -7   56.13    3.73
  -8   6   7   60.79    3.57
  -8   6   7   56.00    3.75
   7  -6  -7  139.36    7.34
  -7   6   7  163.83    7.34
  -7   6   7  151.12    7.41
   6  -6  -7  202.92    9.26
   6  -6  -7  188.70    9.09
  -6   6   7  194.92    9.12
  -6   6   7  212.67    9.14
   5  -6  -7    8.57    1.31
  -5   6   7    7.33    1.15
  -5   6   7    7.10    1.11
   4  -6  -7  177.06    8.43
   4  -6  -7  165.45    7.86
  -4   6   7  177.85    8.09
  -4   6   7  181.01    8.05
   3  -6  -7  322.85   13.68
   3  -6  -7  337.45   13.90
  -3   6   7  332.58   13.97
  -3   6   7  317.61   13.79
   2  -6  -7   25.78    1.89
   2  -6  -7   25.62    1.77
  -2   6   7   26.78    2.06
   1  -6  -7  301.75   12.59
   1  -6  -7  304.89   12.33
  -1   6   7  289.25   12.93
   0  -6  -7  235.76    9.99
   0  -6  -7  253.12   10.61
   0  -6  -7  228.99    9.64
   0   6   7  214.94   10.40
  -1  -6  -7  503.95   19.74
  -1  -6  -7  503.12   20.16
  -1  -6  -7  521.30   20.86
   1   6   7  458.00   20.73
  -2  -6  -7  334.24   12.57
  -2  -6  -7  306.59   12.98
  -2  -6  -7  306.86   13.69
   2   6   7  327.74   12.49
   2   6   7  321.43   12.54
   2   6   7  276.66   13.62
  -3  -6  -7  235.96    9.89
  -3  -6  -7  235.36   10.71
   3   6   7  213.46   10.63
   3   6   7  254.06    9.36
   3   6   7  222.28    9.30
  -4  -6  -7   40.94    3.04
  -4  -6  -7   44.52    2.44
   4   6   7   38.28    2.98
   4   6   7   39.96    1.82
  -5  -6  -7  325.61   14.86
  -5  -6  -7  336.80   13.92
   5   6   7  362.92   13.38
   5   6   7  313.52   13.18
  -6  -6  -7   15.45    0.95
  -6  -6  -7   11.71    1.74
  -6  -6  -7   13.78    1.30
   6   6   7   14.39    0.83
   6   6   7   14.13    0.93
  -7  -6  -7  248.24   12.05
  -7  -6  -7  265.52   11.03
   7   6   7  254.41   10.28
  -8  -6  -7  250.14   10.85
  -9  -6  -7   -0.79    0.41
  -9  -6  -7   -0.70    0.48
   9   6   7   -0.34    0.24
 -10  -6  -7   87.84    5.72
 -10  -6  -7   85.08    4.60
  10   6   7   86.16    3.99
 -11  -6  -7   99.32    5.13
 -11  -6  -7   91.52    6.06
  11   6   7   97.55    4.51
 -12  -6  -7   26.63    3.12
 -12  -6  -7   31.33    2.49
  12   6   7   28.84    1.95
 -13  -6  -7   93.38    5.23
 -13  -6  -7   89.05    6.18
 -14  -6  -7   20.62    2.83
  14   6   7   18.55    1.70
  11  -7  -7    7.43    1.58
 -11   7   7    4.79    1.29
  10  -7  -7   89.45    5.42
 -10   7   7   89.57    5.34
   9  -7  -7  184.03   10.86
  -9   7   7  162.42    8.22
   8  -7  -7    1.38    0.79
  -8   7   7    0.24    0.60
  -8   7   7    0.49    0.73
   7  -7  -7  219.88    9.73
   7  -7  -7  190.68    9.41
  -7   7   7  200.68    9.49
  -7   7   7  206.16    9.52
   6  -7  -7  202.66    9.55
   6  -7  -7  216.90    9.78
  -6   7   7  213.68    9.68
  -6   7   7  210.07    9.68
   5  -7  -7    3.24    0.91
  -5   7   7    3.49    0.93
  -5   7   7    6.37    1.14
   4  -7  -7  302.78   13.11
   4  -7  -7  320.29   13.40
  -4   7   7  305.29   13.30
  -4   7   7  310.75   13.44
   3  -7  -7  193.24    8.78
   3  -7  -7  210.14    9.13
  -3   7   7  204.04    9.26
   2  -7  -7   98.25    4.85
   2  -7  -7   90.86    4.52
  -2   7   7   99.92    5.15
   1  -7  -7  302.61   12.99
   1  -7  -7  328.30   13.45
  -1   7   7  322.25   13.88
   0  -7  -7   29.40    1.64
   0  -7  -7   28.05    1.98
   0   7   7   25.53    2.22
  -1  -7  -7  490.79   19.97
  -1  -7  -7  462.43   18.60
  -1  -7  -7  464.88   19.19
   1   7   7  499.89   18.55
   1   7   7  426.05   19.76
  -2  -7  -7  472.87   19.45
  -2  -7  -7  451.54   18.62
  -2  -7  -7  484.34   17.95
   2   7   7  415.59   19.29
   2   7   7  447.14   17.91
  -3  -7  -7   24.24    2.30
  -3  -7  -7   23.03    1.78
   3   7   7   23.74    1.12
   3   7   7   21.58    2.24
   3   7   7   28.04    1.15
  -4  -7  -7  252.91   11.17
  -4  -7  -7  260.52   12.05
   4   7   7  289.24   10.22
   4   7   7  239.89   11.99
  -5  -7  -7   93.15    4.64
  -5  -7  -7   93.52    5.39
   5   7   7   97.14    3.69
   5   7   7   82.54    5.33
  -6  -7  -7    4.83    1.27
  -6  -7  -7    5.59    0.98
   6   7   7    5.75    0.46
   6   7   7    5.76    0.42
   6   7   7    4.76    1.26
  -7  -7  -7  715.23   31.13
  -7  -7  -7  719.65   28.94
  -7  -7  -7  708.04   28.02
   7   7   7  775.64   27.98
   7   7   7  655.71   27.99
   7   7   7  713.40   31.11
  -8  -7  -7   75.18    4.97
  -8  -7  -7   72.69    4.13
   8   7   7   72.61    3.25
  -9  -7  -7    3.58    0.99
  -9  -7  -7    5.18    1.43
 -10  -7  -7   87.45    4.82
 -10  -7  -7   82.44    5.67
  10   7   7   91.33    4.05
 -11  -7  -7   41.76    2.98
 -11  -7  -7   39.74    3.66
  11   7   7   41.50    2.30
 -12  -7  -7   26.04    2.56
 -12  -7  -7   27.71    3.19
  12   7   7   23.67    2.78
  12   7   7   29.93    1.90
 -13  -7  -7   76.88    5.63
 -13  -7  -7   84.47    5.49
  13   7   7   68.11    5.13
  13   7   7   79.06    3.94
 -14  -7  -7    1.52    0.92
  11  -8  -7    1.34    0.99
 -11   8   7    1.98    1.05
  10  -8  -7  102.24    5.96
 -10   8   7  103.17    5.93
 -10   8   7  103.30    5.91
   9  -8  -7  103.94    6.12
  -9   8   7  118.58    6.31
  -9   8   7  112.19    6.18
   8  -8  -7   22.89    2.28
  -8   8   7   24.32    2.28
  -8   8   7   23.43    2.40
   7  -8  -7  271.62   12.07
   7  -8  -7  262.96   11.82
  -7   8   7  267.73   11.94
  -7   8   7  251.81   14.28
   6  -8  -7  119.19    6.09
   6  -8  -7  126.29    6.39
  -6   8   7  120.88    6.42
  -6   8   7  122.78    6.24
   5  -8  -7    1.42    0.65
   5  -8  -7    1.09    0.73
  -5   8   7    2.41    0.86
  -5   8   7    1.17    0.71
   4  -8  -7  234.33   10.45
   4  -8  -7  221.81   10.10
  -4   8   7  242.17   10.71
   3  -8  -7  129.68    6.33
   3  -8  -7  124.22    5.94
  -3   8   7  134.20    6.62
   2  -8  -7   64.73    3.77
   2  -8  -7   65.41    3.40
  -2   8   7   73.21    4.19
   1  -8  -7  149.19    6.74
   1  -8  -7  162.10    7.31
  -1   8   7  159.47    7.75
   0  -8  -7   92.27    4.10
   0  -8  -7   92.58    4.69
   0   8   7   89.78    5.12
  -1  -8  -7  249.18   10.04
  -1  -8  -7  251.72   10.83
   1   8   7  235.92   11.39
   1   8   7  258.52    9.96
  -2  -8  -7  358.92   14.64
   2   8   7  339.26   13.54
   2   8   7  343.96   15.36
   2   8   7  344.46   13.59
  -3  -8  -7    0.55    0.61
  -3  -8  -7   -0.48    0.39
   3   8   7    0.85    0.59
  -4  -8  -7  235.12   10.36
  -4  -8  -7  245.60   11.27
   4   8   7  227.69   11.19
  -5  -8  -7  135.60    6.33
  -5  -8  -7  133.54    7.09
   5   8   7  121.07    7.02
  -6  -8  -7  174.32    9.60
  -6  -8  -7  174.98    8.07
   6   8   7  171.75    9.82
  -7  -8  -7  177.04    9.29
  -7  -8  -7  186.14    8.45
   7   8   7  180.51    9.42
  -8  -8  -7   20.99    2.49
  -8  -8  -7   18.77    1.97
   8   8   7   19.60    2.37
   8   8   7   23.14    1.12
  -9  -8  -7   88.88    4.87
  -9  -8  -7   86.42    5.68
   9   8   7   81.64    5.56
   9   8   7   88.98    3.81
 -10  -8  -7  249.65   12.28
 -10  -8  -7  256.13   11.22
  10   8   7  226.16   11.97
 -11  -8  -7    3.33    1.07
 -11  -8  -7    4.42    1.45
  11   8   7    2.98    0.55
  11   8   7    4.61    1.46
 -12  -8  -7   55.85    4.57
 -12  -8  -7   49.46    3.67
  12   8   7   45.71    3.99
 -13  -8  -7   41.06    3.87
 -13  -8  -7   34.19    3.17
  13   8   7   33.01    3.27
  11  -9  -7    5.00    1.35
 -11   9   7    4.74    1.36
 -11   9   7    5.57    1.47
  10  -9  -7  120.10    6.69
 -10   9   7  127.04    6.76
 -10   9   7  116.05    6.81
   9  -9  -7   77.61    4.88
  -9   9   7   82.88    5.21
  -9   9   7   84.10    4.97
   8  -9  -7   43.45    3.68
   8  -9  -7   34.75    2.88
  -8   9   7   36.94    3.19
  -8   9   7   35.97    3.36
   7  -9  -7  177.53    8.68
   7  -9  -7  171.00    8.40
  -7   9   7  184.23    8.94
  -7   9   7  174.12    8.59
   6  -9  -7   34.82    2.54
   6  -9  -7   30.38    2.70
  -6   9   7   34.67    2.94
  -6   9   7   31.68    2.59
   5  -9  -7   34.54    2.51
   5  -9  -7   38.49    2.88
  -5   9   7   35.99    2.75
  -5   9   7   37.69    2.98
   4  -9  -7  152.95    7.43
   4  -9  -7  148.31    7.05
  -4   9   7  159.17    7.79
   3  -9  -7    0.71    0.48
   3  -9  -7    0.26    0.58
   2  -9  -7  336.35   14.49
   2  -9  -7  350.89   15.10
  -2   9   7  373.51   15.78
   1  -9  -7  276.27   11.61
   1  -9  -7  275.39   12.31
  -1   9   7  294.40   12.89
   0  -9  -7    9.71    0.82
   0  -9  -7    8.44    1.17
   0   9   7    7.35    1.42
  -1  -9  -7  161.77    6.54
  -1  -9  -7  158.56    7.51
   1   9   7  161.41    8.13
  -2  -9  -7   23.00    2.02
   2   9   7   26.38    2.57
  -3  -9  -7  212.92    9.62
   4   9   7  346.43   15.72
  -5  -9  -7  109.36    5.68
  -5  -9  -7  113.82    6.53
   5   9   7  108.76    6.46
  -6  -9  -7  239.00   11.49
  -6  -9  -7  237.06   10.55
   6   9   7  221.29   11.36
  -7  -9  -7  168.03    8.05
  -7  -9  -7  172.51    8.99
   7   9   7  159.93    8.85
  -8  -9  -7    4.74    1.20
  -8  -9  -7    6.72    1.63
   8   9   7    5.39    1.37
  -9  -9  -7   82.93    5.59
  -9  -9  -7   82.05    4.77
   9   9   7   76.87    5.42
 -10  -9  -7   85.29    5.79
 -10  -9  -7   74.14    4.75
  10   9   7   78.24    5.46
 -11  -9  -7    1.56    1.19
 -11  -9  -7    0.89    0.95
  11   9   7    1.94    1.15
 -12  -9  -7  159.86    8.35
 -12  -9  -7  179.10    9.54
  12   9   7  148.04    8.74
 -13  -9  -7   23.86    2.66
 -13  -9  -7   24.46    3.56
  13   9   7   25.19    3.33
  10 -10  -7   67.36    4.50
 -10  10   7   59.94    4.64
 -10  10   7   73.11    4.59
   9 -10  -7   14.76    2.01
   9 -10  -7   16.46    2.24
  -9  10   7   11.55    1.89
  -9  10   7   13.95    2.23
   8 -10  -7   74.28    4.77
   8 -10  -7   78.12    4.70
  -8  10   7   81.30    4.91
  -8  10   7   77.65    5.12
   7 -10  -7   89.95    5.03
   7 -10  -7   87.77    5.22
  -7  10   7   92.67    5.61
  -7  10   7   91.24    5.28
   6 -10  -7    0.72    0.56
   6 -10  -7   -0.01    0.74
  -6  10   7   -0.96    0.58
  -6  10   7    0.35    0.82
   5 -10  -7  140.47    6.73
   5 -10  -7  136.58    7.12
  -5  10   7  145.83    7.54
   4 -10  -7  159.29    7.70
   4 -10  -7  151.68    7.15
  -4  10   7  157.74    8.08
   3 -10  -7    2.17    0.85
   3 -10  -7    1.14    0.50
  -3  10   7    0.13    0.74
   2 -10  -7  161.24    7.01
   2 -10  -7  151.68    7.61
  -2  10   7  163.04    8.18
   1 -10  -7   23.35    2.12
   1 -10  -7   23.33    1.54
  -1  10   7   25.22    2.50
   0 -10  -7  239.76    9.80
   0 -10  -7  228.60   10.71
   0  10   7  251.80   11.47
  -1 -10  -7  409.32   15.92
  -1 -10  -7  412.50   17.26
   1  10   7  447.96   18.14
   1  10   7  359.41   15.87
  -2 -10  -7   55.20    3.58
   2  10   7   60.50    4.21
  -3 -10  -7  269.01   12.28
   3  10   7  286.73   13.14
  -4 -10  -7  436.87   18.72
   4  10   7  446.08   19.59
  -5 -10  -7    2.06    0.92
   5  10   7    0.45    0.70
  -6 -10  -7  243.31   11.15
   6  10   7  243.24   12.01
  -7 -10  -7  216.19   10.31
   7  10   7  224.27   11.21
  -8 -10  -7    4.36    1.50
  -8 -10  -7    3.82    1.15
   8  10   7    3.10    1.24
  -9 -10  -7  207.47   10.61
  -9 -10  -7  187.42    9.43
   9  10   7  188.24   10.21
 -10 -10  -7   59.88    4.72
  10  10   7   46.58    4.18
 -11 -10  -7   11.47    1.93
  11  10   7   14.84    2.45
 -12 -10  -7   50.96    4.03
  10 -11  -7   50.52    3.78
 -10  11   7   48.97    3.91
 -10  11   7   50.77    4.21
   9 -11  -7   -1.64    0.67
   9 -11  -7   -0.45    0.71
  -9  11   7   -1.23    0.70
   8 -11  -7  189.36    9.52
  -8  11   7  187.50    9.94
  -8  11   7  196.65    9.50
   7 -11  -7  128.91    6.80
   7 -11  -7  118.98    6.32
  -7  11   7  120.29    7.11
  -7  11   7  124.18    6.68
   6 -11  -7   -0.07    0.67
   6 -11  -7   -0.18    0.68
  -6  11   7    0.00    0.57
  -6  11   7    0.06    0.87
   5 -11  -7  178.38    8.73
   5 -11  -7  175.64    8.19
  -5  11   7  179.98    9.21
   4 -11  -7   66.43    3.59
   4 -11  -7   62.78    4.02
  -4  11   7   62.95    4.49
   3 -11  -7    0.22    0.70
   3 -11  -7    0.51    0.48
  -3  11   7    2.48    1.11
   2 -11  -7  162.82    7.22
   2 -11  -7  162.34    8.01
  -2  11   7  167.25    8.59
   1 -11  -7   71.48    4.34
   1 -11  -7   76.18    3.74
  -1  11   7   77.39    4.97
   0 -11  -7  132.57    6.98
   0 -11  -7  140.57    5.90
   0  11   7  148.12    7.74
  -1 -11  -7  228.46   10.57
   1  11   7  230.76   11.23
  -2 -11  -7   28.24    2.59
   2  11   7   34.31    3.19
  -3 -11  -7   87.10    5.04
   3  11   7   90.79    5.68
  -4 -11  -7   99.53    5.59
   4  11   7  102.38    6.23
  -5 -11  -7   15.81    2.02
   5  11   7   14.49    2.30
  -6 -11  -7  164.01    8.43
   6  11   7  176.16    9.27
  -7 -11  -7  110.37    6.26
   7  11   7  116.40    7.00
  -8 -11  -7   12.91    1.93
   8  11   7    9.11    1.92
  -9 -11  -7  107.29    6.24
   9  11   7  109.38    6.94
 -10 -11  -7   18.20    2.47
  10  11   7   17.61    2.87
 -11 -11  -7   57.13    4.27
  11  11   7   53.44    4.53
   9 -12  -7    0.09    0.81
   9 -12  -7    0.61    0.76
  -9  12   7    0.65    1.05
  -9  12   7   -0.09    0.93
   8 -12  -7   82.32    5.18
   8 -12  -7   77.11    4.71
  -8  12   7   80.79    5.59
  -8  12   7   77.18    5.02
   7 -12  -7   72.14    4.35
   7 -12  -7   72.51    4.75
  -7  12   7   71.00    4.59
   6 -12  -7   41.51    2.92
   6 -12  -7   40.84    3.37
  -6  12   7   46.16    3.90
   5 -12  -7  101.15    5.21
   5 -12  -7  101.48    5.78
  -5  12   7   99.35    6.24
   4 -12  -7    6.74    1.40
   4 -12  -7   10.11    1.31
  -4  12   7    8.64    1.86
   3 -12  -7   37.55    2.38
   3 -12  -7   36.02    3.00
  -3  12   7   36.25    3.43
   2 -12  -7  114.52    5.21
   2 -12  -7  107.73    6.06
  -2  12   7  113.56    6.63
   1 -12  -7   -0.97    0.60
  -1  12   7   -0.27    0.86
   0 -12  -7  188.34    9.19
   0 -12  -7  189.93    7.75
   0  12   7  192.67    9.86
  -1 -12  -7  175.81    8.70
   1  12   7  179.38    9.36
  -2 -12  -7    7.78    1.49
   2  12   7    6.57    1.53
  -3 -12  -7  150.73    7.89
   3  12   7  161.30    8.62
  -4 -12  -7    3.82    1.20
   4  12   7    4.77    1.47
  -5 -12  -7   80.39    5.09
   5  12   7   85.55    5.73
  -6 -12  -7  217.05   10.96
   6  12   7  243.63   11.88
   7  12   7   54.69    4.53
  -8 -12  -7   63.47    4.55
   8  12   7   69.79    5.15
  -9 -12  -7  112.99    6.59
 -10 -12  -7   -0.75    0.84
  10  12   7    0.32    1.08
   8 -13  -7   74.71    4.59
   8 -13  -7   67.38    4.83
  -8  13   7   70.21    5.37
  -8  13   7   76.27    4.89
   7 -13  -7   29.87    2.59
   7 -13  -7   27.58    2.91
  -7  13   7   26.38    3.26
  -7  13   7   29.12    2.89
   6 -13  -7   51.36    3.84
   6 -13  -7   46.06    3.22
  -6  13   7   48.78    4.28
   5 -13  -7   71.94    4.70
   5 -13  -7   73.87    4.12
  -5  13   7   70.07    5.21
   4 -13  -7    4.56    1.54
   4 -13  -7    3.10    0.74
   3 -13  -7   25.41    2.64
   3 -13  -7   28.74    2.00
  -3  13   7   27.76    3.13
   2 -13  -7   19.38    1.53
   2 -13  -7   17.03    2.16
  -2  13   7   17.32    2.62
   1 -13  -7   20.04    2.40
  -1  13   7   23.56    2.92
   0 -13  -7  168.10    8.70
   0  13   7  178.73    9.43
  -1 -13  -7   75.90    4.94
   1  13   7   84.42    5.54
  -2 -13  -7   34.77    3.13
   2  13   7   39.05    3.66
  -3 -13  -7  175.77    9.05
   3  13   7  183.02    9.72
  -4 -13  -7    6.23    1.47
   4  13   7    5.85    1.60
  -5 -13  -7   73.01    5.01
   5  13   7   75.68    5.46
  -6 -13  -7  122.72    7.02
   6  13   7  124.78    8.46
  -7 -13  -7   -0.89    0.81
   7  13   7   -0.77    0.97
  -8 -13  -7   80.58    5.62
   8  13   7   96.47    6.35
  -9 -13  -7   76.51    5.52
   9  13   7   94.64    6.24
   7 -14  -7    1.47    0.95
   7 -14  -7    0.33    0.87
  -7  14   7   -0.33    0.82
  -7  14   7    0.14    1.11
   6 -14  -7  102.74    5.61
   6 -14  -7  111.42    6.43
  -6  14   7  110.00    7.10
   5 -14  -7   86.50    4.76
   5 -14  -7   83.89    5.40
  -5  14   7   97.16    6.42
   4 -14  -7    1.85    0.93
   4 -14  -7    2.26    0.77
  -4  14   7    1.24    1.30
   3 -14  -7   85.25    5.43
  -3  14   7   91.37    6.17
   2 -14  -7    7.81    1.56
   2 -14  -7    8.41    1.77
  -2  14   7    8.67    2.04
   1 -14  -7   21.17    2.56
  -1  14   7   25.60    3.18
   0 -14  -7   80.26    5.24
   0  14   7   83.02    5.82
  -1 -14  -7    0.82    0.96
   1  14   7    2.09    1.28
  -2 -14  -7  138.74    7.89
   2  14   7  155.47    8.68
  -3 -14  -7  112.36    6.73
   3  14   7  122.02    7.43
  -4 -14  -7    1.40    0.94
   4  14   7    1.16    1.34
  -5 -14  -7  130.64    7.64
   5  14   7  145.37    8.41
  -6 -14  -7   87.40    5.86
   6  14   7   96.22    6.45
  -7 -14  -7   -0.87    0.84
   7  14   7    0.54    1.14
  -8 -14  -7   91.56    6.09
   8  14   7   94.21    6.46
   5 -15  -7   73.70    4.86
   5 -15  -7   62.90    3.86
  -5  15   7   63.96    5.34
   4 -15  -7   13.33    2.11
  -4  15   7   15.75    2.82
   3 -15  -7   61.14    4.43
  -3  15   7   63.84    5.26
   2 -15  -7    1.45    1.14
  -2  15   7    0.37    0.97
   1 -15  -7   97.24    6.02
  -1  15   7   94.14    6.56
   0 -15  -7  125.84    7.44
   0  15   7  138.20    8.24
  -1 -15  -7   10.50    2.11
   1  15   7    9.36    2.23
  -2 -15  -7   77.41    5.42
   2  15   7   87.10    6.16
  -3 -15  -7   53.51    4.22
   3  15   7   57.89    4.94
  -4 -15  -7    4.18    1.20
   4  15   7    6.67    1.96
  -5 -15  -7   85.36    6.01
   5  15   7  105.10    6.86
  -6 -15  -7    7.61    1.77
   6  15   7    9.86    2.29
   3 -16  -7   70.11    4.95
  -3  16   7   65.24    5.56
   2 -16  -7   -1.04    0.89
  -2  16   7   -1.92    0.95
   1 -16  -7   25.25    2.98
  -1  16   7   27.20    3.57
   0 -16  -7   35.28    3.47
   0  16   7   30.87    3.77
  -1 -16  -7    5.31    1.69
   1  16   7    6.82    2.06
  -2 -16  -7   41.17    3.74
   2  16   7   44.65    4.42
  -3 -16  -7   14.11    2.36
   3  16   7   20.08    3.17
   0  10  -8   25.31    3.21
   0 -10   8   28.79    2.75
  -1  10  -8   45.15    4.19
   1 -10   8   50.37    3.37
   1 -10   8   52.90    3.75
  -2  10  -8    7.03    1.79
  -3  10  -8   55.36    5.02
   3 -10   8   67.52    4.28
  -4  10  -8   58.72    5.18
   4 -10   8   62.15    4.15
   5 -10   8   -0.98    0.82
  -6  10  -8   59.44    5.55
   6 -10   8   66.42    4.34
  -7  10  -8   26.43    3.86
   7 -10   8   33.40    3.02
  -2  -9   8   51.03    3.76
  -2  -9   8   58.45    4.10
   1   9  -8    1.57    1.04
  -1  -9   8    3.18    1.05
  -1  -9   8    1.34    0.96
   0   9  -8   54.16    4.21
   0  -9   8   58.52    3.98
  -1   9  -8   73.11    5.25
   1  -9   8   80.29    4.77
   1  -9   8   72.40    4.23
  -2   9  -8   -0.11    0.92
   2  -9   8    0.97    0.84
   2  -9   8    1.72    0.73
  -3   9  -8   84.04    5.97
   3  -9   8   79.87    4.51
   3  -9   8   85.27    5.04
  -4   9  -8   49.32    5.09
   4  -9   8   46.15    3.50
  -5   9  -8    0.55    1.31
   5  -9   8    2.85    1.10
  -6   9  -8   86.70    6.73
   6  -9   8   94.91    5.40
  -7   9  -8    8.64    2.38
   7  -9   8   10.08    1.70
  -8   9  -8   47.24    5.04
   8  -9   8   55.13    3.88
  -9   9  -8  129.57    9.17
   9  -9   8  140.07    7.31
  -4  -8   8    3.40    1.18
  -4  -8   8    1.92    1.09
  -3  -8   8   55.12    3.69
  -3  -8   8   47.79    3.75
  -2  -8   8   37.61    3.14
  -2  -8   8   37.20    2.90
   1   8  -8    1.09    0.95
  -1  -8   8    2.56    1.25
  -1  -8   8    1.31    0.74
   0   8  -8  150.96    7.92
   0  -8   8  155.28    7.14
   0  -8   8  130.75    7.95
  -1   8  -8   59.13    4.30
   1  -8   8   56.09    3.88
   1  -8   8   54.92    3.37
  -2   8  -8   11.42    2.11
   2  -8   8   16.18    2.04
   2  -8   8   16.15    1.54
  -3   8  -8  161.36    9.15
   3  -8   8  168.50    8.19
  -4   8  -8   41.51    4.05
   4  -8   8   43.07    2.46
   4  -8   8   44.93    3.35
  -5   8  -8   11.83    2.39
  -6   8  -8   95.10    7.76
   6  -8   8  105.36    5.71
  -7   8  -8    3.27    1.62
   7  -8   8    2.41    1.03
  -8   8  -8   73.57    6.34
   8  -8   8   84.68    4.95
  -9   8  -8   79.95    6.82
   9  -8   8   91.31    5.27
 -10   8  -8   -1.69    1.11
  10  -8   8   -0.46    0.80
 -11   8  -8   61.58    6.18
  11  -8   8   77.38    4.76
   5   7  -8   46.85    3.70
  -5  -7   8   49.92    3.83
  -5  -7   8   46.06    3.54
  -4  -7   8    3.95    1.17
  -4  -7   8    4.23    1.29
  -3  -7   8   70.06    5.19
  -3  -7   8   83.57    4.69
   2   7  -8   91.97    5.02
  -2  -7   8   91.09    4.96
  -2  -7   8   88.69    5.31
   1   7  -8    0.64    0.74
  -1  -7   8    1.46    0.70
  -1  -7   8   -0.14    0.71
   0   7  -8  125.59    6.92
   0  -7   8  125.79    6.18
   0  -7   8  130.42    6.72
  -1   7  -8   38.68    3.36
   1  -7   8   39.40    3.01
   1  -7   8   37.96    2.50
  -2   7  -8   61.01    4.54
   2  -7   8   63.33    3.45
   2  -7   8   70.44    4.15
  -3   7  -8  128.25    7.51
   3  -7   8  128.94    5.94
   3  -7   8  134.89    6.76
  -4   7  -8   21.01    2.81
   4  -7   8   24.14    1.59
   4  -7   8   22.94    2.30
  -5   7  -8   37.45    3.79
   5  -7   8   38.84    2.37
   5  -7   8   39.63    3.02
  -6   7  -8  128.75    8.17
   6  -7   8  137.05    6.86
  -7   7  -8   -0.43    0.98
   7  -7   8   -0.36    0.66
  -8   7  -8   91.72    7.00
   8  -7   8  104.59    5.62
  -9   7  -8   19.73    3.13
   9  -7   8   25.32    2.50
 -10   7  -8   18.12    3.09
  10  -7   8   19.11    2.31
 -11   7  -8  104.14    8.08
  11  -7   8  115.40    6.24
 -12   7  -8   21.09    3.71
  12  -7   8   20.58    2.43
   6   6  -8   82.35    5.32
  -6  -6   8   82.02    5.32
  -6  -6   8   87.32    5.22
   5   6  -8   54.93    4.04
  -5  -6   8   55.54    3.75
  -5  -6   8   52.52    4.05
  -4  -6   8   30.33    2.59
   3   6  -8  124.92    6.64
  -3  -6   8  117.59    6.15
  -3  -6   8  121.06    6.55
   2   6  -8   40.67    2.86
  -2  -6   8   41.92    3.19
  -2  -6   8   42.78    2.88
   1   6  -8   31.67    2.65
  -1  -6   8   32.97    2.42
  -1  -6   8   34.56    2.80
   0   6  -8  104.89    5.91
   0  -6   8  108.49    5.33
   0  -6   8  109.78    5.81
  -1   6  -8    0.40    0.77
   1  -6   8    0.86    0.46
   1  -6   8    0.19    0.63
  -2   6  -8  101.55    6.01
   2  -6   8  101.56    4.79
   2  -6   8   99.80    5.43
  -3   6  -8  125.17    7.14
   3  -6   8  119.23    5.50
   3  -6   8  125.03    6.30
  -4   6  -8    0.75    0.94
   4  -6   8   -0.24    0.48
   4  -6   8    0.96    0.42
  -5   6  -8  168.25    9.38
   5  -6   8  175.96    8.25
   5  -6   8  171.26    7.04
  -6   6  -8   61.44    5.00
   6  -6   8   63.56    3.94
  -7   6  -8    9.63    2.25
   7  -6   8   12.09    1.69
  -8   6  -8  148.14    9.19
   8  -6   8  161.23    7.71
  -9   6  -8   15.05    4.36
   9  -6   8   20.57    2.08
 -10   6  -8   48.62    4.90
  10  -6   8   61.30    3.89
 -11   6  -8  134.88    9.26
  11  -6   8  146.63    7.35
 -12   6  -8    3.44    1.80
  12  -6   8    4.03    1.19
 -13   6  -8   45.07    5.23
  13  -6   8   54.62    3.82
   7   5  -8    3.26    1.13
  -7  -5   8    3.55    1.34
  -7  -5   8    3.47    1.18
   6   5  -8  150.53    8.18
  -6  -5   8  161.71    8.02
  -6  -5   8  162.03    8.39
  -5  -5   8   11.15    1.61
   4   5  -8   22.17    2.37
  -4  -5   8   20.01    2.33
  -4  -5   8   24.03    2.15
   3   5  -8  143.96    7.47
   3   5  -8  144.52    6.53
  -3  -5   8  147.70    7.48
  -3  -5   8  149.79    7.09
   2   5  -8   -0.90    0.43
   2   5  -8    0.02    0.58
  -2  -5   8    0.88    0.61
  -2  -5   8   -0.69    0.57
   1   5  -8  223.18   10.07
  -1  -5   8  215.86   10.17
   0   5  -8  255.68   11.72
   0  -5   8  252.43   11.58
   0  -5   8  265.18   11.02
  -1   5  -8    0.63    0.63
   1  -5   8    1.41    0.80
   1  -5   8    1.26    0.49
  -2   5  -8  146.48    7.56
   2  -5   8  138.12    6.25
   2  -5   8  142.90    7.01
  -3   5  -8   27.59    2.78
   3  -5   8   28.96    2.39
  -4   5  -8    6.13    1.51
   4  -5   8    7.79    1.27
   4  -5   8    9.83    0.79
  -5   5  -8  254.01   12.56
   5  -5   8  265.82   11.43
   5  -5   8  246.75   10.02
  -6   5  -8    2.95    1.28
   6  -5   8    2.92    0.90
  -7   5  -8  197.80   10.95
   7  -5   8  214.20    9.59
  -8   5  -8  135.16    8.31
   8  -5   8  138.85    6.87
  -9   5  -8    8.44    2.05
   9  -5   8    9.46    1.49
 -11   5  -8  134.83    9.11
  11  -5   8  152.49    7.38
 -12   5  -8    0.02    1.27
  12  -5   8    0.81    0.89
 -13   5  -8   71.49    6.23
  13  -5   8   79.16    4.68
   8   4  -8    1.80    1.06
  -8  -4   8    2.99    1.15
   7   4  -8   27.78    2.92
  -7  -4   8   29.99    3.06
  -7  -4   8   33.72    2.85
   6   4  -8  109.01    6.97
  -6  -4   8  117.38    6.67
  -6  -4   8  123.66    6.38
   5   4  -8   11.75    1.63
  -5  -4   8    9.02    1.64
  -5  -4   8    9.10    1.47
   4   4  -8   75.79    4.66
  -4  -4   8   80.57    4.37
  -4  -4   8   72.99    4.57
   3   4  -8  120.27    6.52
   3   4  -8  125.12    5.52
  -3  -4   8  128.76    6.13
  -3  -4   8  126.21    6.57
   2   4  -8    7.22    1.36
  -2  -4   8    6.03    1.28
  -2  -4   8    9.70    1.25
   1   4  -8  333.68   14.82
   1   4  -8  336.64   14.58
  -1  -4   8  348.60   14.23
  -1  -4   8  343.04   14.83
   0   4  -8   96.39    5.21
   0  -4   8   89.92    5.06
   0  -4   8  102.73    4.65
  -1   4  -8    0.45    0.56
   1  -4   8    0.17    0.36
   1  -4   8    0.10    0.36
  -2   4  -8  252.84   11.56
   2  -4   8  250.60   10.23
   2  -4   8  238.02   10.95
  -3   4  -8   47.98    3.63
   3  -4   8   49.30    3.18
   3  -4   8   52.10    2.46
   4  -4   8  113.42    4.72
   4  -4   8  112.88    5.73
  -5   4  -8  309.46   14.54
   5  -4   8  311.23   13.44
  -6   4  -8   -0.39    0.70
   6  -4   8   -0.56    0.52
  -7   4  -8  122.78    7.63
   7  -4   8  136.36    6.49
  -8   4  -8  172.20    9.88
   8  -4   8  188.50    8.51
  -9   4  -8    2.91    1.31
   9  -4   8    2.90    1.00
 -10   4  -8  154.49    9.41
  10  -4   8  162.56    7.74
  11  -4   8   67.15    4.63
 -12   4  -8    4.98    1.73
  12  -4   8    5.27    1.24
 -13   4  -8   83.46    6.78
  13  -4   8   88.79    5.05
 -14   4  -8    2.44    1.56
  14  -4   8    2.98    0.93
   9   3  -8   50.17    4.01
  -9  -3   8   48.43    3.76
   8   3  -8   -0.97    0.78
  -8  -3   8   -0.64    0.68
   7   3  -8  136.61    7.46
  -7  -3   8  142.72    7.23
   6   3  -8   55.72    3.97
  -6  -3   8   60.68    3.80
   5   3  -8    2.08    0.98
  -5  -3   8    4.11    1.02
   4   3  -8  204.47    9.74
  -4  -3   8  209.70    9.34
  -4  -3   8  204.17    9.77
   3   3  -8  208.49    8.61
   3   3  -8  200.38    9.74
  -3  -3   8  214.25    9.85
  -3  -3   8  217.30    9.36
   2   3  -8   27.64    2.45
   2   3  -8   32.46    2.10
  -2  -3   8   32.51    2.16
  -2  -3   8   31.94    2.57
   1   3  -8  198.93    9.01
   1   3  -8  202.11    9.30
  -1  -3   8  200.01    8.70
  -1  -3   8  202.43    9.28
   0   3  -8    4.41    0.97
   0   3  -8    3.49    0.93
   0  -3   8    3.68    0.65
   0  -3   8    4.52    1.00
  -1   3  -8  272.56   12.17
   1  -3   8  277.47   11.21
   1  -3   8  265.26   11.87
  -2   3  -8  317.79   14.04
   2  -3   8  310.54   13.59
   2  -3   8  316.18   12.85
  -3   3  -8   33.56    2.87
  -3   3  -8   36.78    1.92
   3  -3   8   36.70    2.57
   3  -3   8   38.58    1.98
   3  -3   8   38.17    1.84
  -4   3  -8  138.33    7.48
   4  -3   8  145.36    5.67
   4  -3   8  142.74    5.67
   4  -3   8  136.62    6.68
  -5   3  -8  239.29   12.67
   5  -3   8  248.77   10.77
  -6   3  -8  117.97    6.95
   6  -3   8  124.60    6.00
  -7   3  -8  220.45   11.42
   7  -3   8  233.38   10.16
  -8   3  -8   70.59    5.33
   8  -3   8   79.39    4.21
  -9   3  -8   63.22    4.99
   9  -3   8   63.92    3.79
 -10   3  -8  261.70   13.68
  10  -3   8  275.35   11.90
 -11   3  -8   65.52    5.49
  11  -3   8   70.65    4.04
 -12   3  -8   37.45    4.18
  12  -3   8   42.31    3.02
 -13   3  -8   78.12    6.44
  13  -3   8   95.60    5.10
 -14   3  -8    2.35    1.46
  14  -3   8    1.32    0.89
   9   2  -8   41.11    3.59
  -9  -2   8   45.09    3.51
   8   2  -8   10.14    1.85
  -8  -2   8   11.20    1.75
   6   2  -8   60.14    4.12
  -6  -2   8   65.45    3.92
   5   2  -8    9.83    1.58
  -5  -2   8   12.83    1.54
   4   2  -8  252.62   11.74
  -4  -2   8  267.90   11.39
   3   2  -8  129.68    6.45
  -3  -2   8  137.32    6.10
  -3  -2   8  113.27    5.17
  -3  -2   8  134.47    6.55
   2   2  -8  129.38    5.74
   2   2  -8  121.96    6.30
  -2  -2   8  122.86    6.31
  -2  -2   8  130.54    5.89
   1   2  -8  418.11   16.66
   1   2  -8  381.83   16.75
  -1  -2   8  389.06   16.78
  -1  -2   8  397.57   16.23
   0   2  -8   26.79    2.15
   0   2  -8   25.55    2.12
   0  -2   8   27.66    1.72
   0  -2   8   27.98    2.23
  -1   2  -8  248.95   11.42
   1  -2   8  263.75   11.23
   1  -2   8  255.87   10.51
  -2   2  -8  392.36   17.05
   2  -2   8  398.52   15.79
   2  -2   8  396.70   16.59
  -3   2  -8    2.04    0.82
   3  -2   8    0.97    0.60
   3  -2   8    1.82    0.30
   3  -2   8    1.02    0.27
  -4   2  -8  264.61   12.39
   4  -2   8  271.54   11.59
  -5   2  -8   16.20    2.14
   5  -2   8   20.33    1.72
   6  -2   8   49.01    3.04
  -7   2  -8  554.34   24.58
   7  -2   8  578.90   23.21
  -8   2  -8    8.23    1.82
   8  -2   8    8.81    1.24
  -9   2  -8  221.17   11.66
   9  -2   8  232.58   10.12
 -10   2  -8  145.46    8.79
  10  -2   8  158.97    7.28
 -11   2  -8    8.39    2.13
  11  -2   8   13.68    1.61
 -12   2  -8   58.49    5.24
  12  -2   8   69.55    3.97
 -13   2  -8   59.74    5.39
  13  -2   8   69.49    4.07
 -14   2  -8    7.26    2.12
  14  -2   8    5.53    1.24
 -15   2  -8   51.68    5.15
  15  -2   8   56.14    3.73
  10   1  -8   57.37    4.39
 -10  -1   8   62.00    4.32
   9   1  -8   44.78    3.77
  -9  -1   8   52.17    3.69
   8   1  -8   55.38    4.10
  -8  -1   8   59.40    3.90
   7   1  -8  163.13    8.58
  -7  -1   8  181.66    8.41
   6   1  -8    1.94    0.82
  -6  -1   8    3.21    0.90
   5   1  -8   47.68    3.44
  -5  -1   8   54.93    3.27
   4   1  -8  319.70   14.26
  -4  -1   8  333.42   13.90
   3   1  -8   33.85    2.59
  -3  -1   8   33.55    1.52
  -3  -1   8   34.85    2.28
   2   1  -8  110.92    5.70
   2   1  -8  113.61    5.10
  -2  -1   8  112.28    4.98
  -2  -1   8  116.18    5.31
  -2  -1   8  111.17    5.74
   1   1  -8  378.51   16.28
   1   1  -8  393.54   16.03
  -1  -1   8  391.92   15.79
  -1  -1   8  381.62   16.30
   0   1  -8   28.00    2.10
   0   1  -8   29.41    2.14
   0  -1   8   29.30    1.74
   0  -1   8   27.73    2.16
  -1   1  -8  243.04   10.74
  -1   1  -8  252.18   10.56
   1  -1   8  226.78    9.98
   1  -1   8  235.00   10.42
  -2   1  -8  236.81   10.71
   2  -1   8  233.28   10.21
   2  -1   8  233.31    9.49
  -3   1  -8   33.68    2.62
   3  -1   8   30.86    1.45
   3  -1   8   26.78    2.05
  -4   1  -8  332.24   14.65
   4  -1   8  320.74   13.73
  -5   1  -8   19.77    2.21
   5  -1   8   19.99    1.67
  -6   1  -8  153.71    8.26
   6  -1   8  162.10    7.23
  -7   1  -8  467.81   20.11
   7  -1   8  427.97   18.87
  -8   1  -8    0.45    0.60
   8  -1   8   -0.25    0.48
  -9   1  -8  262.74   13.25
   9  -1   8  277.64   11.69
 -10   1  -8  174.37   10.00
  10  -1   8  196.26    8.47
 -11   1  -8   30.25    3.43
  11  -1   8   30.44    2.32
 -12   1  -8  120.87    7.93
  12  -1   8  136.14    6.43
 -13   1  -8   90.45    6.62
  13  -1   8   82.14    5.17
 -14   1  -8   12.81    2.67
  14  -1   8   16.08    1.97
 -15   1  -8   71.53    6.17
  15  -1   8   86.88    4.81
  10   0  -8   78.92    5.29
 -10   0   8   81.40    5.09
   9   0  -8   18.36    2.33
  -9   0   8   19.36    2.23
   8   0  -8   62.39    4.38
  -8   0   8   67.92    4.18
   7   0  -8  155.69    8.01
  -7   0   8  158.65    7.66
   6   0  -8    0.81    0.78
  -6   0   8    0.22    0.62
   5   0  -8   90.32    5.17
  -5   0   8   97.72    4.94
   4   0  -8  171.76    8.20
  -4   0   8  175.18    7.90
   3   0  -8    5.57    1.03
  -3   0   8    7.88    0.56
  -3   0   8    7.83    1.04
  -3   0   8    5.57    0.49
   2   0  -8  335.57   13.74
   2   0  -8  328.72   14.34
  -2   0   8  336.54   13.68
  -2   0   8  345.52   13.97
   1   0  -8  293.53   12.91
   1   0  -8  301.46   12.67
  -1   0   8  308.68   12.51
  -1   0   8  305.22   12.98
   0   0  -8   24.80    1.93
   0   0   8   25.66    1.91
   0   0   8   25.51    1.59
  -1   0  -8  349.64   14.63
  -1   0  -8  355.42   14.92
   1   0   8  328.14   14.54
   1   0   8  359.56   14.24
  -2   0  -8   15.01    1.72
   2   0   8   15.73    0.97
   2   0   8   16.25    1.46
  -3   0  -8  241.68   11.07
   3   0   8  229.15    9.61
   3   0   8  238.71   10.37
   3   0   8  257.88   10.16
  -4   0  -8  101.58    5.67
   4   0   8  104.68    4.07
   4   0   8   99.22    4.91
  -5   0  -8   24.79    2.37
   5   0   8   18.19    1.57
  -6   0  -8  535.69   22.97
   6   0   8  531.59   21.67
  -7   0  -8  529.10   23.04
   7   0   8  532.72   21.58
  -8   0  -8   55.50    4.19
   8   0   8   56.35    3.22
  -9   0  -8  287.00   14.14
   9   0   8  300.67   12.50
 -10   0  -8  106.07    4.30
 -10   0  -8   92.43    6.34
 -10   0  -8   93.70    4.12
  10   0   8  107.68    5.05
 -11   0  -8   28.04    1.48
 -11   0  -8   26.32    3.19
  11   0   8   29.18    2.17
 -12   0  -8  124.13    5.50
 -12   0  -8  125.61    7.99
  12   0   8  135.72    6.31
 -13   0  -8    6.89    1.86
  13   0   8    5.79    1.13
 -14   0  -8   38.09    4.20
  14   0   8   43.88    3.02
 -15   0  -8   85.75    6.75
  15   0   8   98.23    5.23
  10  -1  -8   69.40    4.83
 -10   1   8   78.63    4.81
   9  -1  -8    0.42    0.72
  -9   1   8    2.10    0.98
   8  -1  -8   66.07    6.20
   7  -1  -8   64.83    4.33
  -7   1   8   71.82    4.16
   6  -1  -8   57.86    3.86
  -6   1   8   63.33    3.70
   5  -1  -8  304.53   13.62
  -5   1   8  316.19   13.34
   4  -1  -8  242.36   10.75
  -4   1   8  235.48   10.45
  -3   1   8   18.97    1.55
  -3   1   8   15.54    1.02
   2  -1  -8  273.53   10.66
   2  -1  -8  260.07   11.14
  -2   1   8  224.55   10.59
  -2   1   8  265.70   10.82
  -2   1   8  252.60   10.63
   1  -1  -8   33.59    2.26
   1  -1  -8   36.88    2.18
  -1   1   8   31.80    2.00
   0  -1  -8  119.93    5.66
   0   1   8  119.13    5.28
   0   1   8  118.13    5.65
  -1  -1  -8  602.89   24.59
   1   1   8  589.00   24.24
   1   1   8  606.73   23.81
  -2  -1  -8    0.58    0.42
  -2  -1  -8    0.55    0.48
   2   1   8    1.30    0.31
   2   1   8    2.15    0.54
  -3  -1  -8  402.47   17.29
   3   1   8  396.30   16.53
   3   1   8  394.39   15.93
   3   1   8  417.24   15.99
  -4  -1  -8  505.59   21.21
   4   1   8  485.20   19.52
   4   1   8  494.92   20.22
   4   1   8  508.85   19.55
  -5  -1  -8   46.22    3.35
   5   1   8   45.05    2.56
   5   1   8   43.21    1.82
  -6  -1  -8  167.09    8.57
   6   1   8  170.67    7.44
  -7  -1  -8   57.45    4.05
   7   1   8   53.08    2.21
   7   1   8   55.71    2.98
  -8  -1  -8  346.72   13.48
  -8  -1  -8  352.71   15.89
   8   1   8  350.04   14.23
   8   1   8  323.31   13.46
  -9  -1  -8  932.50   35.71
  -9  -1  -8  965.85   38.39
   9   1   8  845.07   35.65
 -10  -1  -8  198.51   10.33
 -10  -1  -8  188.57    7.94
  10   1   8  192.87    8.51
 -11  -1  -8   42.66    4.06
  11   1   8   47.56    2.83
 -12  -1  -8   56.50    3.03
 -12  -1  -8   62.74    5.10
  12   1   8   63.94    3.55
 -13  -1  -8    0.76    0.47
 -13  -1  -8    0.51    1.09
  13   1   8    0.49    0.64
 -14  -1  -8   98.08    7.25
  14   1   8  113.12    5.60
 -15  -1  -8   76.99    6.17
  15   1   8   83.53    4.65
  11  -2  -8   47.30    4.02
 -11   2   8   54.64    3.96
  10  -2  -8   30.77    2.90
 -10   2   8   28.47    2.73
   9  -2  -8   38.21    3.26
  -9   2   8   41.44    3.16
   8  -2  -8  221.56   11.02
  -8   2   8  248.32   10.90
   7  -2  -8   64.43    4.19
  -7   2   8   67.76    4.03
   6  -2  -8   41.59    3.01
  -6   2   8   42.18    2.82
   5  -2  -8  268.72   12.31
  -5   2   8  289.37   12.15
   4  -2  -8    8.01    1.29
  -4   2   8    8.87    0.78
  -4   2   8    9.98    0.72
   3  -2  -8  363.92   15.26
  -3   2   8  336.37   14.53
  -3   2   8  371.21   15.03
  -3   2   8  370.84   14.70
   2  -2  -8  395.40   14.77
   2  -2  -8  360.54   15.07
  -2   2   8  317.35   14.65
  -2   2   8  359.44   14.80
   1  -2  -8   10.70    1.19
   1  -2  -8   11.33    1.16
  -1   2   8    9.95    1.01
   0  -2  -8  400.20   16.78
   0  -2  -8  397.91   16.97
   0   2   8  425.03   16.54
  -1  -2  -8  551.17   22.57
   1   2   8  544.22   22.17
   1   2   8  548.19   22.07
  -2  -2  -8    3.73    0.68
  -2  -2  -8    4.72    0.55
  -2  -2  -8    2.86    0.78
   2   2   8    3.18    0.63
   2   2   8    2.92    0.47
  -3  -2  -8  353.52   15.41
  -3  -2  -8  356.65   14.18
   3   2   8  371.08   14.26
   3   2   8  343.62   14.19
   3   2   8  352.23   14.61
  -4  -2  -8  191.98    9.11
  -4  -2  -8  189.54    7.69
   4   2   8  189.44    7.70
   4   2   8  187.40    8.15
  -5  -2  -8  225.97    9.10
  -5  -2  -8  223.07   10.67
   5   2   8  229.01    9.08
   5   2   8  228.76    9.59
  -6  -2  -8  333.49   12.79
  -6  -2  -8  334.62   14.65
   6   2   8  295.22   12.74
   6   2   8  325.65   13.26
  -7  -2  -8   32.68    1.59
  -7  -2  -8   31.95    2.91
   7   2   8   33.01    1.97
   7   2   8   29.40    1.49
  -8  -2  -8  100.98    4.39
   8   2   8  102.44    4.76
  -9  -2  -8  469.33   20.90
  -9  -2  -8  462.24   18.72
   9   2   8  476.47   19.09
 -10  -2  -8   44.66    2.79
 -10  -2  -8   45.76    3.94
  10   2   8   46.38    2.71
 -11  -2  -8  192.41   10.48
 -11  -2  -8  189.59    8.37
  11   2   8  208.06    8.72
 -12  -2  -8   86.80    6.17
 -12  -2  -8   89.13    4.38
  12   2   8   95.08    4.65
 -13  -2  -8   -0.47    0.85
 -13  -2  -8   -0.13    0.45
  13   2   8    0.30    0.57
 -14  -2  -8   50.71    4.94
  14   2   8   61.66    3.56
 -15  -2  -8   10.58    2.38
  15   2   8   17.15    1.84
  11  -3  -8   82.07    5.53
 -11   3   8   91.77    5.42
  10  -3  -8    3.34    1.21
 -10   3   8    2.97    1.09
   9  -3  -8   34.74    3.06
  -9   3   8   39.50    3.07
   8  -3  -8  244.46   11.53
  -8   3   8  249.00   11.28
   7  -3  -8   75.26    4.59
  -7   3   8   74.74    4.36
   6  -3  -8   53.40    3.56
  -6   3   8   54.07    3.39
   5  -3  -8  466.38   20.37
  -5   3   8  478.42   20.18
  -5   3   8  516.24   19.42
   4  -3  -8    0.36    0.48
  -4   3   8    0.85    0.62
  -4   3   8    1.95    0.48
   3  -3  -8  200.95    9.25
  -3   3   8  217.20    9.15
  -3   3   8  206.22    8.84
   2  -3  -8  410.33   17.30
   2  -3  -8  473.29   17.27
  -2   3   8  376.24   17.08
  -2   3   8  412.18   17.13
   1  -3  -8    2.57    0.60
   1  -3  -8    2.51    0.56
  -1   3   8    2.28    0.58
   0  -3  -8  149.37    6.53
   0  -3  -8  151.16    6.98
   0  -3  -8  149.63    6.72
   0   3   8  149.60    6.55
  -1  -3  -8  298.59   12.25
  -1  -3  -8  300.07   12.95
  -1  -3  -8  309.28   12.49
   1   3   8  289.94   12.26
   1   3   8  301.17   12.50
  -2  -3  -8   55.87    3.50
  -2  -3  -8   59.20    3.03
  -2  -3  -8   55.47    2.79
   2   3   8   63.36    3.07
  -3  -3  -8  346.70   15.15
  -3  -3  -8  348.90   14.03
   3   3   8  350.93   14.28
  -4  -3  -8   13.03    1.61
  -4  -3  -8   16.08    1.03
   4   3   8   13.84    1.15
  -5  -3  -8  309.07   12.36
  -5  -3  -8  304.79   13.79
   5   3   8  306.19   12.57
  -6  -3  -8  194.78    8.13
  -6  -3  -8  198.43    9.67
   6   3   8  198.47    8.33
  -7  -3  -8   23.30    1.42
  -7  -3  -8   22.72    2.41
   7   3   8   24.47    1.55
  -8  -3  -8  196.91    8.24
   8   3   8  193.84    8.31
  -9  -3  -8  254.08   12.66
  -9  -3  -8  262.78   10.86
   9   3   8  266.93   10.96
 -10  -3  -8   45.83    3.94
 -10  -3  -8   49.96    2.66
  10   3   8   49.47    2.72
 -11  -3  -8  144.07    6.52
 -11  -3  -8  136.63    8.16
  11   3   8  151.20    6.61
 -12  -3  -8   17.86    2.68
 -12  -3  -8   18.61    1.64
  12   3   8   17.83    1.60
 -13  -3  -8   82.56    5.93
 -13  -3  -8   79.79    4.30
  13   3   8   81.75    4.28
 -14  -3  -8   98.80    5.21
  14   3   8  103.78    5.24
 -15  -3  -8    8.72    1.34
 -15  -3  -8   10.58    2.28
  11  -4  -8   51.16    3.94
 -11   4   8   51.66    3.85
  10  -4  -8    7.29    1.61
 -10   4   8   11.44    1.80
   9  -4  -8   78.22    5.09
  -9   4   8   87.22    4.99
   8  -4  -8   38.23    3.12
  -8   4   8   40.51    3.03
   7  -4  -8   -0.06    0.68
  -7   4   8    1.20    0.34
  -7   4   8    0.89    0.72
   6  -4  -8  247.95   11.85
  -6   4   8  270.51   11.78
  -6   4   8  278.12   11.07
   5  -4  -8  322.15   14.38
  -5   4   8  331.09   14.24
  -5   4   8  346.69   13.76
  -4   4   8   52.44    2.75
  -4   4   8   44.22    3.25
   3  -4  -8  193.38    9.03
   3  -4  -8  213.64    9.05
  -3   4   8  205.44    8.99
   2  -4  -8  146.08    6.61
   2  -4  -8  147.29    6.54
  -2   4   8  147.11    6.54
  -2   4   8  133.41    6.55
   1  -4  -8  128.40    5.75
   1  -4  -8  116.66    5.46
   1  -4  -8  117.71    5.40
  -1   4   8  113.18    5.37
  -1   4   8  108.33    5.64
   0  -4  -8  162.39    7.33
   0  -4  -8  158.13    6.83
   0  -4  -8  157.67    6.89
   0   4   8  142.68    7.27
   0   4   8  157.35    6.84
  -1  -4  -8   28.30    1.79
  -1  -4  -8   29.89    1.78
  -1  -4  -8   28.22    2.20
   1   4   8   30.77    1.87
  -2  -4  -8  453.00   18.06
  -2  -4  -8  428.51   18.81
  -2  -4  -8  453.35   18.00
   2   4   8  453.00   18.06
  -3  -4  -8  738.83   30.32
  -4  -4  -8   31.11    2.48
  -4  -4  -8   26.86    1.66
   4   4   8   29.60    1.70
  -5  -4  -8  401.11   15.66
  -5  -4  -8  378.53   16.90
   5   4   8  379.30   15.54
  -6  -4  -8  144.24    6.47
  -6  -4  -8  144.42    7.54
   6   4   8  142.13    6.14
  -7  -4  -8   44.93    2.39
  -7  -4  -8   43.77    3.45
   7   4   8   43.33    2.27
  -8  -4  -8  488.91   19.80
   8   4   8  491.98   19.65
  -9  -4  -8  235.58    9.85
  -9  -4  -8  228.18   11.44
   9   4   8  229.14    9.66
 -10  -4  -8  106.95    6.58
 -10  -4  -8  106.69    5.09
  10   4   8  106.34    4.91
 -11  -4  -8  257.11   13.07
 -11  -4  -8  271.90   11.39
 -12  -4  -8   51.57    4.37
 -12  -4  -8   52.19    3.11
  12   4   8   52.82    2.96
 -13  -4  -8   29.38    3.32
 -13  -4  -8   28.26    2.26
  13   4   8   28.78    2.08
 -14  -4  -8   65.72    3.91
  14   4   8   62.60    3.66
 -15  -4  -8   -1.12    0.73
 -15  -4  -8    0.05    0.87
  15   4   8   -0.02    0.60
  11  -5  -8   48.56    3.92
 -11   5   8   50.09    3.78
  10  -5  -8    1.10    0.91
 -10   5   8    1.16    1.00
   9  -5  -8   77.41    4.95
  -9   5   8   81.10    4.82
   8  -5  -8   87.72    5.29
  -8   5   8   93.02    4.58
  -8   5   8   89.33    5.11
   7  -5  -8    6.83    1.36
  -7   5   8    8.05    1.34
   6  -5  -8  401.13   17.77
  -6   5   8  435.69   17.76
   5  -5  -8   61.11    3.75
  -5   5   8   65.10    3.43
  -5   5   8   60.46    3.66
   4  -5  -8   86.62    4.53
   4  -5  -8   82.47    4.52
  -4   5   8   87.53    4.34
  -4   5   8   85.84    4.48
   3  -5  -8  389.87   16.12
   3  -5  -8  370.60   16.07
  -3   5   8  394.56   16.12
  -3   5   8  387.83   16.08
   2  -5  -8   20.04    1.62
   2  -5  -8   21.20    1.70
  -2   5   8   20.66    1.73
  -2   5   8   21.41    1.66
   1  -5  -8  281.41   11.97
   1  -5  -8  314.83   12.53
   1  -5  -8  294.12   12.07
  -1   5   8  265.47   12.35
  -1   5   8  273.13   11.99
   0   5   8  660.78   27.12
  -1  -5  -8   16.54    1.67
  -1  -5  -8   16.95    1.24
  -1  -5  -8   15.70    1.28
   1   5   8   13.17    1.58
  -2  -5  -8  336.71   15.06
  -2  -5  -8  342.76   14.27
  -2  -5  -8  359.86   14.43
   2   5   8  352.46   14.41
  -3  -5  -8    1.87    0.49
  -3  -5  -8    1.91    0.78
   3   5   8    2.07    0.42
  -4  -5  -8  118.97    5.36
  -4  -5  -8  118.11    6.32
   4   5   8  119.99    5.13
  -5  -5  -8  561.26   23.82
  -5  -5  -8  563.78   22.57
  -6  -5  -8  107.09    4.95
  -6  -5  -8  106.94    6.08
  -7  -5  -8  223.80   10.99
  -7  -5  -8  232.48    9.72
   7   5   8  225.87    9.32
  -8  -5  -8  426.19   17.47
  -8  -5  -8  428.75   19.01
   8   5   8  423.27   17.05
  -9  -5  -8   40.11    3.48
  -9  -5  -8   39.87    2.46
   9   5   8   38.74    2.12
 -10  -5  -8   57.53    4.43
 -10  -5  -8   55.48    3.31
  10   5   8   60.82    2.97
 -11  -5  -8   90.52    6.18
 -11  -5  -8  100.77    5.04
  11   5   8   96.69    4.53
 -12  -5  -8    0.45    0.85
 -12  -5  -8   -0.74    0.44
  12   5   8   -0.57    0.41
 -13  -5  -8   97.75    6.86
 -13  -5  -8  113.86    5.72
  13   5   8  113.07    5.27
 -14  -5  -8   69.35    6.14
 -14  -5  -8   77.72    4.54
  14   5   8   77.80    4.09
 -15  -5  -8    0.48    0.87
 -15  -5  -8    2.64    1.39
  15   5   8    0.66    0.66
  11  -6  -8   40.04    3.58
 -11   6   8   43.74    3.50
  10  -6  -8   18.07    2.33
 -10   6   8   12.67    1.96
   9  -6  -8  103.36    6.02
  -9   6   8  105.76    5.86
   8  -6  -8   50.40    3.69
  -8   6   8   53.16    3.61
  -8   6   8   53.03    3.19
   7  -6  -8   46.45    3.34
  -7   6   8   47.41    3.31
  -7   6   8   49.03    3.03
   6  -6  -8  303.45   13.68
  -6   6   8  307.31   13.63
  -6   6   8  326.69   13.46
   5  -6  -8   61.72    3.65
   5  -6  -8   57.88    3.53
  -5   6   8   55.82    3.55
  -5   6   8   60.37    3.45
   4  -6  -8  140.91    6.82
   4  -6  -8  150.61    6.97
  -4   6   8  148.22    6.90
  -4   6   8  140.17    6.79
   3  -6  -8  247.95   10.59
   3  -6  -8  238.99   10.44
  -3   6   8  236.44   10.58
  -3   6   8  238.01   10.52
   2  -6  -8    3.02    0.73
   2  -6  -8    3.13    0.80
  -2   6   8    2.75    0.85
  -2   6   8    2.93    0.74
   1  -6  -8  518.79   21.11
   1  -6  -8  544.22   21.35
  -1   6   8  503.98   21.70
   0  -6  -8  586.77   23.74
   0  -6  -8  631.80   24.43
   0  -6  -8  585.48   23.48
   0   6   8  543.21   24.26
  -1  -6  -8    4.20    0.75
  -1  -6  -8    4.26    0.99
   1   6   8    3.90    1.00
   2   6   8  710.39   29.39
  -3  -6  -8   53.99    3.52
  -3  -6  -8   52.29    2.82
   3   6   8   46.10    3.47
   3   6   8   52.80    2.46
  -4  -6  -8  137.70    6.28
  -4  -6  -8  140.18    7.22
   4   6   8  140.06    5.80
  -5  -6  -8  331.50   13.25
  -5  -6  -8  314.19   14.32
   5   6   8  305.13   12.61
  -6  -6  -8   83.30    5.14
  -6  -6  -8   86.26    4.21
   6   6   8   82.84    3.62
  -7  -6  -8  389.51   16.00
   7   6   8  381.69   15.32
  -8  -6  -8  421.17   16.86
  -8  -6  -8  399.13   18.19
   8   6   8  394.30   16.12
  -9  -6  -8   -0.52    0.43
  -9  -6  -8   -0.07    0.64
   9   6   8    0.20    0.28
 -10  -6  -8   66.45    4.89
  10   6   8   67.96    3.24
 -11  -6  -8   33.70    3.45
 -11  -6  -8   34.57    2.50
  11   6   8   34.84    2.04
 -12  -6  -8    0.23    0.58
 -12  -6  -8   -0.41    0.84
  12   6   8    0.00    0.38
 -13  -6  -8  109.67    5.85
 -13  -6  -8  105.29    6.98
  13   6   8  108.27    5.14
 -14  -6  -8   11.10    2.15
 -14  -6  -8    6.91    1.38
  11  -7  -8    9.06    1.75
 -11   7   8    9.41    1.72
  10  -7  -8   24.18    2.69
 -10   7   8   24.69    2.61
   9  -7  -8  121.41    6.68
  -9   7   8  118.02    6.47
  -9   7   8  122.79    6.23
   8  -7  -8   29.24    2.75
  -8   7   8   31.16    3.21
  -8   7   8   33.71    2.56
   7  -7  -8  179.66    8.91
  -7   7   8  185.20    8.92
  -7   7   8  195.20    8.85
   6  -7  -8  134.76    6.94
   6  -7  -8  142.84    7.13
  -6   7   8  141.06    7.01
  -6   7   8  148.24    7.03
   5  -7  -8   -0.32    0.52
   5  -7  -8    1.22    0.71
  -5   7   8   -0.02    0.59
  -5   7   8    0.54    0.55
   4  -7  -8  271.77   11.73
   4  -7  -8  251.66   11.46
  -4   7   8  262.56   11.63
  -4   7   8  272.36   11.73
   3  -7  -8  243.14   10.42
   3  -7  -8  228.51   10.14
  -3   7   8  233.64   10.34
  -3   7   8  228.17   10.48
   2  -7  -8    9.55    1.12
   2  -7  -8   12.56    1.39
  -2   7   8   11.50    1.51
   1  -7  -8  427.08   17.25
   1  -7  -8  409.38   16.88
  -1   7   8  405.45   17.67
   0  -7  -8  368.40   14.68
   0  -7  -8  365.72   15.09
   0   7   8  345.16   15.63
  -1  -7  -8  172.07    7.77
  -1  -7  -8  171.54    7.30
  -1  -7  -8  185.43    8.56
   1   7   8  165.37    8.41
  -2  -7  -8  100.80    4.24
  -2  -7  -8  100.86    5.48
  -2  -7  -8   95.14    4.72
   2   7   8   96.83    4.21
   2   7   8   86.54    5.34
  -3  -7  -8   16.81    1.89
  -3  -7  -8   16.69    1.46
   3   7   8   13.42    1.87
   3   7   8   16.67    0.99
   3   7   8   20.11    1.03
  -4  -7  -8  191.64    9.14
  -4  -7  -8  189.04    8.17
   4   7   8  177.51    9.13
   4   7   8  176.00    7.34
  -5  -7  -8  329.31   14.71
  -5  -7  -8  335.03   13.64
   5   7   8  323.86   14.80
   5   7   8  303.52   12.67
  -6  -7  -8   14.75    1.49
   6   7   8   15.92    0.88
   6   7   8   18.21    1.03
  -7  -7  -8  363.95   16.39
  -7  -7  -8  367.33   14.33
  -7  -7  -8  361.87   15.12
   7   7   8  345.09   14.31
   7   7   8  353.67   14.16
  -8  -7  -8  137.75    7.86
  -8  -7  -8  145.03    6.80
   8   7   8  144.07    5.91
  -9  -7  -8   11.13    1.98
  -9  -7  -8   12.75    1.53
   9   7   8   12.43    1.04
 -10  -7  -8   84.31    5.78
 -10  -7  -8   87.14    4.73
  10   7   8   87.43    3.94
 -11  -7  -8   30.55    2.45
 -11  -7  -8   27.32    3.13
  11   7   8   29.72    1.79
 -12  -7  -8   73.63    4.35
 -12  -7  -8   67.91    5.24
 -13  -7  -8  116.24    6.17
 -13  -7  -8  104.46    7.22
 -14  -7  -8   -0.74    0.89
 -14  -7  -8    0.80    1.19
  14   7   8    0.99    0.91
  10  -8  -8   29.30    2.90
 -10   8   8   29.67    2.85
   9  -8  -8   50.05    3.71
  -9   8   8   56.23    3.80
  -9   8   8   52.67    3.66
   8  -8  -8    0.03    0.72
  -8   8   8   -0.48    0.68
  -8   8   8   -0.13    0.78
   7  -8  -8  134.37    7.03
   7  -8  -8  140.98    7.25
  -7   8   8  139.86    7.64
  -7   8   8  142.10    7.16
   6  -8  -8  195.11    9.15
   6  -8  -8  182.14    8.86
  -6   8   8  194.10    9.10
  -6   8   8  189.25    9.03
   5  -8  -8    4.40    1.08
   5  -8  -8    4.39    0.95
  -5   8   8    2.83    0.98
  -5   8   8    4.01    1.07
   4  -8  -8  224.52    9.89
   4  -8  -8  205.46    9.51
  -4   8   8  209.89    9.76
  -4   8   8  218.08    9.96
   3  -8  -8   74.15    3.87
   3  -8  -8   73.55    4.14
  -3   8   8   68.28    4.24
   2  -8  -8  102.06    5.01
   2  -8  -8  103.86    5.36
  -2   8   8  110.43    5.76
   1  -8  -8  199.62    8.53
   1  -8  -8  195.89    8.95
  -1   8   8  199.43    9.46
   0  -8  -8   34.05    2.38
   0  -8  -8   33.43    1.95
   0   8   8   33.65    2.76
  -1  -8  -8  529.08   21.61
  -1  -8  -8  533.71   20.91
   1   8   8  516.02   22.37
  -2  -8  -8  417.58   17.63
  -2  -8  -8  418.16   15.90
  -2  -8  -8  381.17   16.65
   2   8   8  382.63   17.51
   2   8   8  416.74   15.81
   2   8   8  383.39   15.85
  -3  -8  -8    0.10    0.57
  -3  -8  -8    1.84    0.67
   3   8   8    0.00    0.60
   3   8   8    0.73    0.17
  -4  -8  -8  218.79    9.63
  -4  -8  -8  220.46   10.70
   4   8   8  210.97   10.70
  -5  -8  -8   55.46    3.36
  -5  -8  -8   60.26    4.24
   5   8   8   57.24    4.16
  -6  -8  -8  128.08    6.06
  -6  -8  -8  119.66    6.89
   6   8   8  116.82    6.99
  -7  -8  -8  612.31   25.60
  -7  -8  -8  590.84   24.79
   7   8   8  561.08   25.52
   7   8   8  596.87   22.94
  -8  -8  -8   37.62    3.48
  -8  -8  -8   36.57    2.72
   8   8   8   35.10    3.47
   8   8   8   38.88    1.73
  -9  -8  -8   87.40    4.84
  -9  -8  -8   84.63    5.75
   9   8   8   91.29    3.77
   9   8   8   80.19    5.62
 -10  -8  -8  134.46    6.64
 -10  -8  -8  125.92    7.66
  10   8   8  126.54    7.64
 -11  -8  -8   33.72    2.75
 -11  -8  -8   32.82    3.50
  11   8   8   30.81    3.34
  11   8   8   33.44    1.89
 -12  -8  -8   86.21    6.14
 -12  -8  -8   91.98    5.18
  12   8   8   80.68    5.78
 -13  -8  -8   51.34    4.61
 -13  -8  -8   53.40    3.79
  13   8   8   54.06    5.21
  10  -9  -8   58.19    4.11
 -10   9   8   50.79    3.84
 -10   9   8   52.64    3.93
   9  -9  -8   35.50    3.12
  -9   9   8   38.02    3.17
  -9   9   8   40.29    3.31
   8  -9  -8   27.21    2.65
  -8   9   8   31.07    2.85
  -8   9   8   28.72    2.77
   7  -9  -8  163.47    8.09
   7  -9  -8  151.29    7.79
  -7   9   8  161.18    8.11
  -7   9   8  158.51    7.98
   6  -9  -8   68.64    4.14
   6  -9  -8   71.07    4.45
  -6   9   8   68.90    4.35
  -6   9   8   73.77    4.52
   5  -9  -8   69.00    4.28
   5  -9  -8   71.46    4.03
  -5   9   8   69.77    4.27
  -5   9   8   70.81    4.39
   4  -9  -8  262.49   11.75
   4  -9  -8  260.80   12.07
  -4   9   8  290.31   12.49
   3  -9  -8   44.59    3.06
   3  -9  -8   42.35    2.68
  -3   9   8   47.14    3.34
   2  -9  -8  132.42    6.18
   2  -9  -8  130.51    6.63
  -2   9   8  144.33    7.89
   1  -9  -8  186.54    8.02
   1  -9  -8  185.03    8.59
   0  -9  -8   31.59    1.84
   0  -9  -8   32.33    2.39
  -1  -9  -8  466.83   18.97
   1   9   8  492.19   21.66
  -2  -9  -8  539.87   22.29
   2   9   8  498.78   20.44
   2   9   8  545.01   22.64
   2   9   8  517.00   20.50
   3   9   8   25.87    2.59
  -4  -9  -8  346.17   14.91
  -4  -9  -8  337.03   15.27
   4   9   8  314.00   15.17
  -5  -9  -8   11.10    1.84
  -5  -9  -8   11.06    1.49
   5   9   8    9.84    1.90
  -6  -9  -8  178.68    8.51
  -6  -9  -8  186.13    9.56
   6   9   8  180.74    9.60
  -7  -9  -8  273.49   13.16
  -7  -9  -8  276.25   12.11
   7   9   8  262.87   13.19
  -8  -9  -8   61.49    4.63
  -8  -9  -8   57.86    3.74
   8   9   8   54.87    4.42
  -9  -9  -8   50.71    3.41
  -9  -9  -8   47.94    4.13
   9   9   8   43.87    4.04
 -10  -9  -8  118.33    6.26
 -10  -9  -8  118.65    7.28
  10   9   8  109.40    7.10
 -11  -9  -8    6.50    1.79
 -11  -9  -8    4.08    1.15
  11   9   8    2.66    1.30
 -12  -9  -8  101.94    5.92
 -13  -9  -8   22.49    2.52
 -13  -9  -8   21.21    2.90
  13   9   8   18.23    2.79
  10 -10  -8   79.88    5.18
 -10  10   8   83.05    5.23
 -10  10   8   80.66    5.32
   9 -10  -8   35.26    3.04
  -9  10   8   34.80    3.25
  -9  10   8   34.67    3.12
   8 -10  -8    1.98    1.08
   8 -10  -8    1.73    1.08
  -8  10   8    0.93    1.03
  -8  10   8    1.60    1.05
   7 -10  -8   81.34    4.96
   7 -10  -8   77.16    4.67
  -7  10   8   80.65    5.08
  -7  10   8   77.40    4.79
   6 -10  -8    2.16    0.81
   6 -10  -8    1.60    0.96
  -6  10   8    2.23    1.08
  -6  10   8    0.06    0.81
   5 -10  -8  144.31    7.33
   5 -10  -8  139.04    6.88
  -5  10   8  147.71    7.61
  -5  10   8  140.19    7.21
   4 -10  -8  110.64    5.96
   4 -10  -8  109.99    5.92
  -4  10   8  111.20    6.24
   3 -10  -8    7.73    1.07
   3 -10  -8    6.47    1.28
  -3  10   8    6.31    1.45
   2 -10  -8  205.68    9.76
   2 -10  -8  212.48    9.18
  -2  10   8  217.51   10.33
   1 -10  -8  112.15    5.13
   1 -10  -8  108.24    5.79
  -1  10   8  115.31    6.37
   0 -10  -8    6.41    1.18
   0 -10  -8   10.39    0.90
   0  10   8   10.66    1.81
  -1 -10  -8   99.57    5.25
  -1 -10  -8   99.95    4.16
   1  10   8   84.31    4.02
   1  10   8  114.94    6.07
  -2 -10  -8    0.15    0.65
   2  10   8    0.49    0.64
  -3 -10  -8  344.18   14.98
   3  10   8  348.61   15.88
  -4 -10  -8  432.19   18.30
   4  10   8  428.83   19.27
  -5 -10  -8   33.89    2.79
   5  10   8   37.81    3.38
  -6 -10  -8  207.78    9.95
  -6 -10  -8  225.82   11.10
   6  10   8  209.87   10.94
  -7 -10  -8  139.40    7.29
  -7 -10  -8  152.56    8.43
   7  10   8  143.97    8.30
  -8 -10  -8    0.45    0.75
  -8 -10  -8    1.30    0.84
   8  10   8    0.29    1.01
  -9 -10  -8   79.73    4.89
  -9 -10  -8   88.10    5.98
   9  10   8   78.67    5.72
 -10 -10  -8   68.68    5.16
 -10 -10  -8   57.37    4.08
  10  10   8   54.00    4.65
 -11 -10  -8   27.58    2.82
  11  10   8   25.60    3.58
 -12 -10  -8  139.92    8.29
 -12 -10  -8  128.16    7.17
  12  10   8  118.60    7.71
   9 -11  -8   -0.56    0.81
   9 -11  -8   -0.34    0.73
  -9  11   8   -0.12    0.86
   8 -11  -8   57.91    4.10
   8 -11  -8   56.91    3.93
  -8  11   8   55.38    4.43
  -8  11   8   61.35    4.21
   7 -11  -8  102.20    5.79
   7 -11  -8  112.65    6.26
  -7  11   8  110.35    6.17
  -7  11   8  108.24    6.48
   6 -11  -8    2.75    1.31
   6 -11  -8    3.45    0.93
  -6  11   8    3.48    1.36
   5 -11  -8  149.05    7.15
   5 -11  -8  148.03    7.61
  -5  11   8  146.61    7.95
   4 -11  -8  119.06    6.53
   4 -11  -8  123.92    6.53
  -4  11   8  132.63    7.13
   3 -11  -8   49.28    3.50
   3 -11  -8   52.19    3.02
  -3  11   8   50.67    3.94
   2 -11  -8  311.97   14.30
   2 -11  -8  325.91   13.58
  -2  11   8  337.90   15.03
   1 -11  -8   50.36    3.56
   1 -11  -8   58.32    2.91
  -1  11   8   56.08    4.16
   0 -11  -8  134.42    5.72
   0 -11  -8  132.93    6.77
   0  11   8  133.13    7.37
  -1 -11  -8  290.80   12.93
   1  11   8  328.85   13.97
   1  11   8  257.67   11.37
  -2 -11  -8  132.19    6.86
   2  11   8  140.17    7.69
  -3 -11  -8  102.25    5.60
   3  11   8  104.44    6.30
  -4 -11  -8  153.74    7.70
   4  11   8  153.39    8.47
  -5 -11  -8   19.39    2.09
   5  11   8   20.75    2.75
  -6 -11  -8  150.28    7.78
   6  11   8  157.73    8.74
  -7 -11  -8  117.76    6.44
   7  11   8  117.07    7.29
  -8 -11  -8    1.40    0.98
   8  11   8    0.85    1.08
   9  11   8  106.65    6.93
 -10 -11  -8    6.77    1.59
 -11 -11  -8   33.52    3.24
  11  11   8   36.58    3.88
   8 -12  -8  106.19    6.19
   8 -12  -8  101.54    5.73
  -8  12   8  100.88    6.53
  -8  12   8   95.47    5.94
   7 -12  -8   38.64    3.04
   7 -12  -8   39.76    3.36
  -7  12   8   33.02    4.03
  -7  12   8   42.43    3.44
   6 -12  -8    4.43    1.08
   6 -12  -8    7.07    1.42
  -6  12   8    6.09    1.63
  -6  12   8    5.27    1.33
   5 -12  -8   91.00    5.45
   5 -12  -8   97.26    5.03
  -5  12   8   93.20    5.96
   4 -12  -8    9.02    1.22
   4 -12  -8    8.35    1.50
  -4  12   8    7.72    1.75
   3 -12  -8   96.82    5.61
   3 -12  -8  101.48    4.89
  -3  12   8   93.29    6.03
   2 -12  -8  177.96    9.15
  -2  12   8  202.08    9.98
   1 -12  -8    0.77    0.75
   1 -12  -8    2.35    0.51
  -1  12   8    2.71    1.24
   0 -12  -8  198.97    8.21
   0 -12  -8  198.53    9.62
   0  12   8  204.67   10.30
  -1 -12  -8   97.35    5.71
   1  12   8  109.40    6.43
   2  12   8   -0.19    0.87
  -3 -12  -8  122.76    6.63
   3  12   8  123.44    7.31
  -4 -12  -8   93.47    5.56
   4  12   8   98.93    6.32
  -5 -12  -8   27.67    2.76
   5  12   8   31.39    3.35
  -6 -12  -8  193.79    9.69
   6  12   8  199.00   10.56
  -7 -12  -8   29.65    3.38
   7  12   8   31.37    3.53
  -8 -12  -8   39.76    3.41
   8  12   8   35.67    4.34
  -9 -12  -8  102.76    6.22
   9  12   8  105.83    6.93
 -10 -12  -8    1.48    1.17
  10  12   8    0.94    1.22
 -11 -12  -8   39.08    3.60
  11  12   8   39.17    3.93
   8 -13  -8  125.06    6.78
  -8  13   8  125.30    7.75
  -8  13   8  133.89    7.29
   7 -13  -8   22.67    2.55
  -7  13   8   25.56    3.08
  -7  13   8   22.95    2.65
   6 -13  -8    7.85    1.34
   6 -13  -8    8.10    1.66
  -6  13   8    7.49    1.88
  -6  13   8    6.20    1.45
   5 -13  -8   98.58    5.99
  -5  13   8  108.82    6.73
   4 -13  -8    0.93    0.59
   4 -13  -8    0.76    0.87
  -4  13   8    1.18    1.25
   3 -13  -8   95.78    6.37
   3 -13  -8   96.48    4.85
  -3  13   8   98.58    6.45
   2 -13  -8  108.27    6.52
   2 -13  -8  121.19    5.54
  -2  13   8  125.79    7.28
   1 -13  -8   34.60    3.11
  -1  13   8   39.91    3.72
   0 -13  -8  199.66   10.02
   0  13   8  214.09   10.82
  -1 -13  -8   80.47    5.22
   1  13   8   94.89    6.06
  -2 -13  -8   14.88    1.97
   2  13   8   16.06    2.55
  -3 -13  -8  122.12    7.05
   3  13   8  141.99    7.99
  -4 -13  -8    6.66    1.54
   4  13   8    9.38    2.01
  -5 -13  -8   45.46    4.22
   5  13   8   41.40    4.13
  -6 -13  -8  134.01    8.02
   6  13   8  178.90   10.53
  -7 -13  -8    1.60    1.18
   7  13   8    1.39    1.27
  -8 -13  -8   41.73    3.73
   8  13   8   45.44    4.27
  -9 -13  -8   21.83    2.81
   9  13   8   29.85    3.52
   6 -14  -8   37.08    3.37
   6 -14  -8   36.02    2.74
  -6  14   8   34.51    3.74
   5 -14  -8   51.49    3.34
   5 -14  -8   51.46    3.99
  -5  14   8   53.37    4.59
   4 -14  -8    0.25    0.55
   4 -14  -8    0.86    0.92
  -4  14   8    0.78    1.22
   3 -14  -8  118.52    6.70
   3 -14  -8  115.23    5.59
  -3  14   8  115.10    7.26
   2 -14  -8   60.18    4.40
  -2  14   8   75.92    5.29
   1 -14  -8   44.78    3.70
  -1  14   8   47.48    4.11
   0 -14  -8  122.79    7.11
   0  14   8  133.85    7.88
  -1 -14  -8    7.74    1.72
   1  14   8    8.37    1.95
  -2 -14  -8   57.33    4.36
   2  14   8   67.02    5.11
  -3 -14  -8  115.07    6.77
   3  14   8  123.77    7.50
  -4 -14  -8   -0.12    0.68
   4  14   8   -0.07    1.05
  -5 -14  -8  109.01    6.59
   5  14   8  117.50    7.33
  -6 -14  -8  105.28    6.68
   6  14   8  121.47    7.54
  -7 -14  -8    1.39    1.19
   7  14   8    3.13    1.55
  -8 -14  -8   57.23    4.65
   8  14   8   68.01    5.35
   5 -15  -8   18.88    2.51
  -5  15   8   19.21    3.05
   4 -15  -8   20.80    2.68
  -4  15   8   24.91    3.31
   3 -15  -8  125.12    7.26
  -3  15   8  130.70    8.05
   2 -15  -8    0.82    0.94
  -2  15   8   -0.21    1.64
   1 -15  -8   97.91    6.71
  -1  15   8  112.87    7.10
   0 -15  -8  170.87    9.35
   0  15   8  189.63   10.28
  -1 -15  -8   -0.26    0.93
   1  15   8    1.09    1.37
  -2 -15  -8  113.02    6.84
   2  15   8  117.94    7.56
  -3 -15  -8   89.45    5.82
   3  15   8   88.76    6.41
  -4 -15  -8   -0.88    0.83
   4  15   8   -1.35    1.04
  -5 -15  -8  117.09    7.19
   5  15   8  127.28    7.96
  -6 -15  -8   64.24    4.89
   6  15   8   62.97    5.30
   2 -16  -8    0.38    0.77
  -2  16   8   -0.10    1.24
   1 -16  -8   81.25    5.62
  -1  16   8   86.62    6.38
   0 -16  -8  101.97    6.52
   0  16   8  114.70    7.50
  -1 -16  -8    0.52    1.12
   1  16   8    1.96    1.26
  -2 -16  -8   56.01    4.60
   2  16   8   64.53    5.39
  -3 -16  -8   11.85    2.15
   3  16   8   11.71    2.42
  -4 -16  -8   12.12    2.14
   4  16   8   13.26    2.61
   0   9  -9   29.50    3.25
   0  -9   9   32.59    3.07
   0  -9   9   30.29    2.57
  -1   9  -9   71.26    5.22
   1  -9   9   74.17    4.84
   1  -9   9   77.23    4.72
  -2   9  -9   -0.10    1.08
   2  -9   9   -0.76    0.87
  -3   9  -9   63.80    5.23
   3  -9   9   70.81    4.52
  -4   9  -9   29.66    3.56
   4  -9   9   35.70    3.05
  -5   9  -9    3.68    1.63
   5  -9   9    3.76    1.17
  -6   9  -9   41.31    4.54
   6  -9   9   46.64    3.53
  -7   9  -9    8.16    2.37
   7  -9   9   11.65    1.82
  -2  -8   9   40.50    3.44
  -2  -8   9   34.13    2.82
  -1  -8   9   -0.49    0.79
  -1  -8   9    1.38    0.72
   0  -8   9   94.47    5.52
   0  -8   9   89.27    4.95
  -1   8  -9   28.63    3.14
   1  -8   9   33.10    2.51
   1  -8   9   35.43    3.03
  -2   8  -9    5.96    1.65
   2  -8   9    5.58    1.34
   2  -8   9    6.08    1.08
  -3   8  -9  142.57    8.44
   3  -8   9  147.15    7.53
  -4   8  -9   31.83    3.62
   4  -8   9   37.26    3.07
  -5   8  -9    6.11    1.89
   5  -8   9    4.61    1.27
  -6   8  -9   75.53    6.04
   6  -8   9   78.11    4.82
  -7   8  -9    2.28    1.31
   7  -8   9    2.51    1.11
  -8   8  -9   46.14    4.95
   8  -8   9   49.90    3.68
  -9   8  -9   74.90    6.65
   9  -8   9   85.14    5.10
 -10   8  -9   -1.27    1.07
  10  -8   9   -0.93    0.76
  -4  -7   9   -0.39    0.68
  -4  -7   9   -0.53    0.79
  -3  -7   9   75.25    4.93
  -3  -7   9   75.76    4.56
  -2  -7   9   29.73    2.94
  -2  -7   9   30.84    2.59
   1   7  -9   15.29    1.97
  -1  -7   9   13.99    1.72
  -1  -7   9   14.76    2.12
   0  -7   9  195.31    8.89
   0  -7   9  193.73    9.52
  -1   7  -9   40.78    3.50
  -2   7  -9   21.11    2.71
   2  -7   9   22.38    1.76
   2  -7   9   19.43    2.29
  -3   7  -9  103.66    6.45
   3  -7   9   97.83    4.70
   3  -7   9   95.23    6.11
  -4   7  -9   -0.85    0.87
  -5   7  -9   59.69    4.90
   5  -7   9   48.45    4.11
  -6   7  -9  124.84    9.20
   6  -7   9  140.69    7.06
  -7   7  -9   -0.59    1.01
   7  -7   9    0.73    0.62
  -8   7  -9   68.72    5.89
   8  -7   9   66.54    4.36
  -9   7  -9   49.91    5.21
   9  -7   9   50.56    3.72
 -10   7  -9   -0.63    1.34
  10  -7   9   -0.24    0.67
 -11   7  -9   40.37    4.94
  11  -7   9   56.41    3.89
   5   6  -9   61.16    4.45
  -5  -6   9   66.82    4.25
  -5  -6   9   59.63    4.43
   4   6  -9   11.75    1.97
  -4  -6   9    9.52    1.71
  -4  -6   9   14.06    1.89
  -3  -6   9  105.45    5.69
  -3  -6   9  105.44    6.11
  -2  -6   9   76.64    4.34
   1   6  -9   17.00    2.01
  -1  -6   9   19.04    2.19
  -1  -6   9   16.34    1.73
   0   6  -9  162.44    8.27
   0  -6   9  161.75    7.52
   0  -6   9  166.04    8.20
  -1   6  -9    5.70    1.39
   1  -6   9    6.92    1.35
   1  -6   9    6.91    1.03
  -2   6  -9  133.13    7.36
   2  -6   9  132.40    6.01
   2  -6   9  128.18    6.75
  -3   6  -9  157.79    8.58
   3  -6   9  158.44    7.78
   3  -6   9  152.38    6.80
  -4   6  -9    6.62    1.70
   4  -6   9    8.39    1.47
  -5   6  -9   70.96    5.37
   5  -6   9   76.29    4.51
  -6   6  -9   76.22    5.79
   6  -6   9   81.39    4.72
  -7   6  -9   21.09    3.21
   7  -6   9   27.17    2.77
  -8   6  -9  102.63    8.29
   8  -6   9  121.40    6.23
  -9   6  -9   31.05    4.05
   9  -6   9   38.42    3.06
 -10   6  -9    7.98    2.45
  10  -6   9    9.18    1.62
 -11   6  -9   43.12    4.97
  11  -6   9   48.15    3.54
 -12   6  -9    0.49    1.32
  12  -6   9   -0.97    0.76
   6   5  -9   47.21    3.84
  -6  -5   9   47.58    3.54
  -6  -5   9   46.55    3.86
   5   5  -9   23.69    2.72
  -5  -5   9   25.49    3.13
  -5  -5   9   25.49    2.45
   4   5  -9   47.25    3.65
  -4  -5   9   42.13    3.51
  -4  -5   9   44.27    3.25
  -3  -5   9   80.37    4.63
  -3  -5   9   91.14    5.93
   2   5  -9   19.84    2.13
   2   5  -9   18.23    1.78
  -2  -5   9   18.62    2.22
  -2  -5   9   20.28    1.85
   1   5  -9   52.96    3.49
  -1  -5   9   52.23    3.70
  -1  -5   9   56.01    3.23
   0   5  -9   62.89    4.03
   0  -5   9   62.96    3.43
   0  -5   9   59.88    3.99
  -1   5  -9   19.61    2.19
   1  -5   9   17.17    1.44
   1  -5   9   14.32    1.92
  -2   5  -9  195.47    9.87
   2  -5   9  193.96    8.48
   2  -5   9  206.34    9.42
  -3   5  -9  121.64    7.04
   3  -5   9  124.59    5.48
   3  -5   9  126.62    6.41
  -4   5  -9    1.67    1.07
   4  -5   9    2.47    0.42
   4  -5   9    1.89    0.80
  -5   5  -9  106.26    6.68
   5  -5   9  106.39    5.65
  -6   5  -9    3.04    1.28
   6  -5   9    3.58    0.99
  -7   5  -9   61.43    5.10
   7  -5   9   63.18    3.96
  -8   5  -9  140.12    8.80
   8  -5   9  152.74    7.41
   9  -5   9    0.50    0.76
 -10   5  -9   99.51    7.43
  10  -5   9  109.06    5.84
 -11   5  -9   87.51    6.99
  11  -5   9   90.51    5.15
 -12   5  -9   -1.21    1.06
  12  -5   9   -1.39    0.66
 -13   5  -9   57.64    5.70
  13  -5   9   64.78    4.27
   7   4  -9    8.31    1.72
  -7  -4   9    7.59    1.73
  -7  -4   9   10.75    1.79
   6   4  -9  118.03    6.81
  -6  -4   9  122.54    6.50
  -6  -4   9  120.44    6.90
   5   4  -9    0.11    0.74
  -5  -4   9    0.46    0.89
   4   4  -9   42.27    3.88
  -4  -4   9   48.50    3.20
  -4  -4   9   46.79    3.65
   3   4  -9   76.80    4.83
  -3  -4   9   80.23    4.89
  -3  -4   9   80.88    4.40
   2   4  -9   22.83    2.44
  -2  -4   9   27.35    2.45
  -2  -4   9   30.15    2.15
   1   4  -9  259.29   12.15
   1   4  -9  272.77   11.88
  -1  -4   9  277.86   12.03
  -1  -4   9  259.65   12.12
   0   4  -9  246.68   11.08
   0  -4   9  236.48   11.01
   0  -4   9  237.51   10.27
  -1   4  -9   42.65    3.31
   1  -4   9   49.29    2.59
   1  -4   9   45.04    3.22
  -2   4  -9  268.04   12.37
   2  -4   9  266.56   10.94
   2  -4   9  258.18   11.81
   3  -4   9   76.42    4.41
   3  -4   9   76.09    3.50
  -4   4  -9   64.08    4.60
   4  -4   9   65.84    2.87
   4  -4   9   65.15    3.96
  -5   4  -9  261.70   13.00
   5  -4   9  274.41   11.97
  -6   4  -9    0.98    1.02
   6  -4   9    0.27    0.68
  -7   4  -9  194.62   10.69
   7  -4   9  203.91    9.33
  -8   4  -9  258.90   13.66
   8  -4   9  280.46   12.13
  -9   4  -9   23.98    3.10
   9  -4   9   25.85    2.40
 -11   4  -9   27.44    3.53
  11  -4   9   29.04    2.46
 -12   4  -9   27.34    3.91
  12  -4   9   32.25    2.76
 -13   4  -9   72.97    6.44
  13  -4   9   80.38    4.79
   8   3  -9    3.14    1.15
  -8  -3   9    3.85    1.20
   7   3  -9   26.42    2.86
  -7  -3   9   31.09    2.77
   6   3  -9  109.44    6.41
  -6  -3   9  114.53    6.11
  -6  -3   9  113.36    6.55
  -5  -3   9    0.12    0.64
   4   3  -9   82.29    5.00
  -4  -3   9   80.82    4.95
  -4  -3   9   84.68    4.59
   3   3  -9   86.14    5.11
  -3  -3   9   83.99    5.10
  -3  -3   9   92.52    4.71
   2   3  -9   21.65    2.26
   2   3  -9   24.53    1.78
  -2  -3   9   22.54    1.80
  -2  -3   9   17.27    2.16
   1   3  -9  159.47    7.42
   1   3  -9  154.47    7.73
  -1  -3   9  156.16    7.07
  -1  -3   9  157.03    7.71
   0   3  -9   42.60    2.95
   0   3  -9   37.66    2.85
   0  -3   9   41.87    2.40
   0  -3   9   37.75    2.90
  -1   3  -9   75.06    4.50
   1  -3   9   74.61    3.60
   1  -3   9   72.62    4.28
  -2   3  -9  404.44   17.89
   2  -3   9  414.87   17.44
   2  -3   9  412.62   16.51
  -3   3  -9   59.11    4.07
   3  -3   9   54.86    2.61
   3  -3   9   55.10    3.50
   4  -3   9  193.85    7.72
   4  -3   9  190.29    8.92
   4  -3   9  195.92    7.74
  -5   3  -9  123.04    7.18
   5  -3   9  129.03    6.31
  -6   3  -9   10.31    2.01
   6  -3   9   11.92    1.53
  -7   3  -9  160.94    9.13
   7  -3   9  168.54    7.83
  -8   3  -9   85.78    6.01
   8  -3   9   90.75    4.87
  -9   3  -9   41.96    4.08
   9  -3   9   40.54    2.95
 -10   3  -9  189.42   10.92
  10  -3   9  202.58    9.18
 -11   3  -9   49.17    5.44
 -12   3  -9   30.59    3.96
  12  -3   9   29.22    2.57
 -13   3  -9   69.07    6.18
  13  -3   9   83.38    4.66
 -14   3  -9   -0.62    0.97
  14  -3   9   -0.48    0.67
   8   2  -9    0.19    0.97
  -8  -2   9    0.15    0.83
   7   2  -9   99.86    6.17
  -7  -2   9  111.79    5.96
   6   2  -9   40.86    3.39
  -6  -2   9   44.01    3.19
   5   2  -9   19.05    2.26
  -5  -2   9   23.88    2.12
   4   2  -9  123.28    6.70
  -4  -2   9  125.02    6.76
  -4  -2   9  133.36    6.32
   3   2  -9   18.86    2.07
  -3  -2   9   19.47    1.74
  -3  -2   9   19.10    2.11
   2   2  -9  100.76    4.73
   2   2  -9   94.38    5.36
  -2  -2   9  102.74    5.49
   1   2  -9  268.33   11.96
   1   2  -9  270.43   11.61
  -1  -2   9  253.57   11.88
  -1  -2   9  274.82   11.31
   0   2  -9    1.54    0.62
   0   2  -9    1.01    0.60
   0  -2   9    1.51    0.76
   0  -2   9    1.05    0.44
  -1   2  -9  200.95    9.32
   1  -2   9  191.51    8.26
   1  -2   9  197.56    9.07
  -2   2  -9  398.41   17.10
   2  -2   9  384.24   16.56
  -3   2  -9    0.32    0.62
   3  -2   9    0.30    0.28
   3  -2   9   -0.29    0.48
   3  -2   9    0.16    0.20
  -4   2  -9   86.30    5.32
   4  -2   9   89.56    3.53
   4  -2   9   83.64    4.60
   5  -2   9  283.82   12.33
  -6   2  -9   56.71    4.33
   6  -2   9   56.62    3.42
  -7   2  -9   75.43    5.43
   7  -2   9   84.02    4.42
  -8   2  -9   75.21    5.47
   8  -2   9   83.46    4.44
  -9   2  -9   40.37    3.92
   9  -2   9   36.06    2.71
 -10   2  -9  113.51    7.72
  10  -2   9  134.21    6.31
 -11   2  -9    3.57    1.63
  11  -2   9    6.86    1.25
 -12   2  -9   59.85    5.40
  12  -2   9   64.91    3.95
 -13   2  -9   67.17    5.85
  13  -2   9   75.17    4.39
 -14   2  -9    1.68    1.30
  14  -2   9    2.71    1.02
   9   1  -9   51.24    4.14
  -9  -1   9   51.54    3.84
   8   1  -9    3.59    1.16
  -8  -1   9    6.60    1.43
   7   1  -9  118.11    6.81
  -7  -1   9  129.40    6.59
   6   1  -9   41.96    3.50
  -6  -1   9   53.94    3.42
   5   1  -9   29.38    2.79
  -5  -1   9   36.49    2.60
   4   1  -9  126.11    6.64
  -4  -1   9  128.76    6.24
   3   1  -9    4.36    1.11
  -3  -1   9    3.50    0.44
  -3  -1   9    4.95    0.93
  -3  -1   9    5.06    0.37
  -3  -1   9    4.63    1.04
   2   1  -9  155.14    6.82
   2   1  -9  154.13    7.56
  -2  -1   9  153.58    7.55
  -2  -1   9  158.59    7.06
   1   1  -9  134.88    6.73
  -1  -1   9  138.49    6.21
  -1  -1   9  138.72    6.81
   0   1  -9    9.59    1.27
   0   1  -9    8.52    1.22
   0  -1   9    7.61    0.94
   0  -1   9    5.66    1.09
  -1   1  -9  261.00   11.52
  -1   1  -9  266.04   11.91
   1  -1   9  234.73   11.64
   1  -1   9  257.58   10.51
  -2   1  -9  290.53   13.01
   2  -1   9  290.43   11.68
   2  -1   9  286.14   12.95
  -3   1  -9  143.51    7.30
   3  -1   9  141.63    5.85
   3  -1   9  140.43    6.64
   3  -1   9  134.11    5.74
  -4   1  -9  161.53    8.41
   4  -1   9  160.28    7.66
   4  -1   9  170.82    6.52
  -5   1  -9  154.30    8.14
  -6   1  -9   81.84    5.34
   6  -1   9   80.08    4.32
  -7   1  -9  211.15   11.02
   7  -1   9  227.77    9.80
  -8   1  -9    0.19    0.87
   8  -1   9    1.74    0.73
  -9   1  -9  167.38    9.43
   9  -1   9  174.05    7.93
 -10   1  -9   69.57    5.46
  10  -1   9   73.15    4.04
 -11   1  -9   -0.99    0.80
  11  -1   9   -0.56    0.48
  12  -1   9  155.31    7.47
 -13   1  -9   41.11    4.46
  13  -1   9   48.39    3.21
 -14   1  -9   42.82    4.53
  14  -1   9   46.79    3.31
 -15   1  -9   93.40    7.42
  15  -1   9  112.32    5.81
   9   0  -9   42.30    3.70
  -9   0   9   46.45    3.55
   8   0  -9   26.46    2.85
  -8   0   9   32.11    2.79
   7   0  -9   74.72    4.87
  -7   0   9   76.57    5.16
   6   0  -9   -0.06    0.56
  -6   0   9    0.81    0.60
   5   0  -9   71.88    4.49
  -5   0   9   78.22    4.24
   4   0  -9   95.48    5.43
  -4   0   9  104.16    5.14
   3   0  -9   23.31    2.07
  -3   0   9   22.86    1.83
  -3   0   9   19.13    1.14
  -3   0   9   23.39    1.18
   2   0  -9  289.57   13.20
   2   0  -9  306.27   12.57
  -2   0   9  314.10   12.81
   1   0  -9   58.72    3.30
   1   0  -9   55.12    3.48
  -1   0   9   62.03    3.15
  -1   0   9   58.03    3.56
   0   0  -9  126.88    5.96
   0   0  -9  120.23    5.89
   0   0   9  111.27    5.90
   0   0   9  116.81    5.34
  -1   0  -9  406.99   17.15
  -1   0  -9  427.61   17.49
   1   0   9  405.23   17.13
   1   0   9  397.11   16.45
  -2   0  -9   31.20    2.57
   2   0   9   28.20    1.58
   2   0   9   30.10    2.19
  -3   0  -9    3.68    1.00
   3   0   9    4.62    0.47
   3   0   9    4.79    0.53
   3   0   9    3.72    0.80
  -4   0  -9  594.74   24.77
   4   0   9  577.13   23.76
   4   0   9  559.68   22.74
   4   0   9  602.88   22.80
  -5   0  -9   22.72    2.42
   5   0   9   19.33    1.75
  -6   0  -9  267.26   12.79
   6   0   9  269.05   11.54
  -7   0  -9  464.54   20.67
  -8   0  -9   16.67    2.28
   8   0   9   17.44    1.68
  -9   0  -9   75.48    5.51
   9   0   9   81.66    4.22
 -10   0  -9   93.44    6.39
  10   0   9  101.56    5.01
 -11   0  -9   24.12    3.06
  11   0   9   27.32    2.14
 -12   0  -9  187.14   10.90
  12   0   9  208.58    9.12
 -13   0  -9   51.35    4.85
 -14   0  -9   23.90    3.53
  14   0   9   24.06    2.28
 -15   0  -9   65.10    5.90
  15   0   9   75.74    4.39
  10  -1  -9  104.07    6.59
 -10   1   9  115.32    6.39
   9  -1  -9    2.03    1.05
  -9   1   9    1.25    0.93
   8  -1  -9   88.06    5.59
  -8   1   9   95.21    5.34
   7  -1  -9  157.48   10.49
  -7   1   9  161.90    7.86
   6  -1  -9    0.31    0.68
  -6   1   9    1.41    0.74
   5  -1  -9   95.20    5.53
  -5   1   9  107.89    5.34
   4  -1  -9   83.75    4.80
  -4   1   9   88.04    4.56
   3  -1  -9  166.24    7.64
  -3   1   9  148.57    6.54
   2  -1  -9  480.19   18.42
   2  -1  -9  455.97   18.99
  -2   1   9  400.39   18.37
  -2   1   9  476.67   18.61
   1  -1  -9   90.12    4.79
   1  -1  -9   86.89    4.63
  -1   1   9   85.05    4.22
  -1   1   9   87.11    4.67
   0  -1  -9  239.21   10.34
   0  -1  -9  230.14   10.24
   0   1   9  229.75   10.28
   0   1   9  231.89    9.78
  -1  -1  -9  393.93   16.44
  -1  -1  -9  397.07   16.77
   1   1   9  396.21   16.45
   1   1   9  386.64   15.87
  -2  -1  -9   59.54    3.79
  -2  -1  -9   64.08    3.48
   2   1   9   63.05    3.44
   2   1   9   57.75    2.84
  -3  -1  -9   71.63    4.21
   3   1   9   65.83    2.93
   3   1   9   59.79    3.47
   3   1   9   64.48    3.45
  -4  -1  -9  178.22    8.72
   4   1   9  171.43    6.99
   4   1   9  171.37    7.76
  -5  -1  -9   23.58    2.43
   5   1   9   20.97    1.73
   5   1   9   22.07    0.96
  -6  -1  -9  366.22   16.60
   6   1   9  368.89   15.28
  -7  -1  -9  185.11    9.88
   7   1   9  204.32    8.63
  -8  -1  -9    8.74    1.75
   8   1   9    7.70    1.22
  -9  -1  -9   19.52    2.68
   9   1   9   16.26    1.58
 -10  -1  -9   41.91    1.79
 -10  -1  -9   36.42    3.65
  10   1   9   43.47    2.65
 -11  -1  -9   72.58    3.20
 -11  -1  -9   68.81    5.49
  11   1   9   78.55    4.05
 -12  -1  -9  110.42    7.49
  12   1   9  117.61    5.71
 -13  -1  -9   -0.58    1.11
  13   1   9    1.35    0.73
 -14  -1  -9   62.96    5.58
  14   1   9   67.47    3.96
 -15  -1  -9   58.67    5.36
  15   1   9   62.04    3.90
  10  -2  -9   80.76    5.52
 -10   2   9   89.58    5.37
   9  -2  -9    1.89    1.09
  -9   2   9    1.69    0.99
   8  -2  -9   41.25    3.58
  -8   2   9   51.32    3.49
   7  -2  -9   34.10    2.92
  -7   2   9   36.31    2.74
   6  -2  -9   26.63    2.52
  -6   2   9   28.63    2.36
   5  -2  -9  121.86    6.54
  -5   2   9  132.24    6.32
   4  -2  -9  101.88    5.48
  -4   2   9   97.08    4.38
  -4   2   9  111.06    4.39
  -4   2   9  105.54    5.26
   3  -2  -9  105.95    5.52
  -3   2   9  113.51    5.68
  -3   2   9  101.27    4.75
   2  -2  -9   74.46    3.59
  -2   2   9   70.60    3.64
  -2   2   9   62.01    3.52
   1  -2  -9  132.49    6.38
   1  -2  -9  118.86    6.10
  -1   2   9  132.14    5.88
   0  -2  -9 1000.00   40.03
  -1  -2  -9  357.94   15.10
  -1  -2  -9  369.66   15.52
   1   2   9  363.82   14.71
   1   2   9  355.11   15.12
  -2  -2  -9  143.17    6.51
  -2  -2  -9  142.74    7.04
   2   2   9  142.24    6.27
   2   2   9  135.14    6.45
  -3  -2  -9  527.48   22.32
  -3  -2  -9  561.77   21.00
   3   2   9  513.11   20.95
   3   2   9  511.13   21.45
  -4  -2  -9  244.84    9.58
  -4  -2  -9  235.16   11.10
   4   2   9  235.91    9.57
   4   2   9  236.01   10.13
   4   2   9  230.24    9.57
  -5  -2  -9  147.62    7.83
  -5  -2  -9  159.22    6.18
   5   2   9  150.67    6.77
   5   2   9  150.78    6.15
   5   2   9  144.93    6.17
  -6  -2  -9  284.35   11.02
  -6  -2  -9  267.86   12.98
   6   2   9  278.76   11.67
  -7  -2  -9   27.05    3.25
  -7  -2  -9   29.18    1.39
   7   2   9   28.37    1.91
  -8  -2  -9  108.52    6.63
  -8  -2  -9  112.57    4.62
   8   2   9  109.63    5.22
  -9  -2  -9  374.16   16.68
  -9  -2  -9  356.43   14.03
   9   2   9  320.40   13.93
   9   2   9  359.73   15.06
 -10  -2  -9   27.38    3.05
 -10  -2  -9   29.57    1.64
  10   2   9   31.10    2.11
 -11  -2  -9   97.33    6.74
  11   2   9  108.06    5.12
 -12  -2  -9   69.59    3.49
 -12  -2  -9   68.24    5.50
  12   2   9   75.23    3.94
 -13  -2  -9    2.26    0.62
  13   2   9    2.09    0.79
 -14  -2  -9   76.86    6.09
 -15  -2  -9   48.07    4.91
  15   2   9   51.95    3.43
  10  -3  -9   71.89    5.02
 -10   3   9   73.54    4.74
   9  -3  -9   20.63    2.62
  -9   3   9   23.05    2.41
   8  -3  -9  113.38    6.67
  -8   3   9  128.73    6.52
   7  -3  -9   17.02    2.12
  -7   3   9   23.00    2.08
   6  -3  -9   97.46    5.55
  -6   3   9  100.66    5.31
   5  -3  -9  230.01   11.05
  -5   3   9  255.09    9.85
  -5   3   9  244.60   10.85
   4  -3  -9   12.29    1.66
  -4   3   9   15.55    1.16
  -4   3   9   15.25    1.59
   3  -3  -9  297.21   12.91
  -3   3   9  304.19   13.07
  -3   3   9  288.73   12.30
   2  -3  -9  294.56   12.74
  -2   3   9  296.46   12.49
   1  -3  -9   41.14    2.55
   1  -3  -9   38.67    2.50
  -1   3   9   34.15    2.47
  -1   3   9   37.14    2.30
   0  -3  -9  367.12   15.55
   0  -3  -9  392.41   15.35
   0  -3  -9  358.87   15.77
   0   3   9  376.89   15.33
  -1  -3  -9  204.92    8.99
  -1  -3  -9  216.21    8.76
  -1  -3  -9  198.65    9.41
   1   3   9  204.10    8.74
   1   3   9  208.14    9.04
  -2  -3  -9    1.97    0.45
  -2  -3  -9    2.06    0.69
  -2  -3  -9    1.61    0.53
   2   3   9    1.66    0.46
   2   3   9    4.02    0.72
  -3  -3  -9  303.40   13.40
  -3  -3  -9  292.45   12.12
   3   3   9  300.31   12.49
  -4  -3  -9  108.71    4.81
  -4  -3  -9  114.30    6.15
   4   3   9  111.86    5.17
  -5  -3  -9  202.28    8.27
  -5  -3  -9  202.79    9.86
   5   3   9  198.54    8.62
  -6  -3  -9  238.29   11.50
  -6  -3  -9  240.65    9.73
   6   3   9  237.64   10.06
  -7  -3  -9    4.92    0.60
   7   3   9    4.87    0.74
  -8  -3  -9   34.24    3.31
  -8  -3  -9   36.50    1.94
   8   3   9   37.05    2.21
  -9  -3  -9  162.41    6.91
  -9  -3  -9  142.65    8.48
   9   3   9  157.16    6.88
 -10  -3  -9    0.24    0.84
 -10  -3  -9    0.41    0.33
 -11  -3  -9  124.34    5.64
 -11  -3  -9  116.51    7.56
  11   3   9  130.09    5.85
 -12  -3  -9   10.77    2.27
 -12  -3  -9   13.11    1.32
  12   3   9   14.06    1.50
 -13  -3  -9   21.96    3.19
 -13  -3  -9   20.50    1.77
  13   3   9   26.37    2.02
 -14  -3  -9  117.78    8.03
  14   3   9  128.74    6.14
 -15  -3  -9   20.24    3.17
  15   3   9   20.21    1.96
  10  -4  -9    5.63    1.49
 -10   4   9   11.15    1.76
   9  -4  -9   22.14    2.46
  -9   4   9   24.09    2.34
   8  -4  -9  138.41    7.62
  -8   4   9  151.73    7.44
   7  -4  -9    1.62    0.96
  -7   4   9    2.44    0.92
   6  -4  -9   48.50    3.60
  -6   4   9   59.11    2.73
  -6   4   9   55.75    3.48
   5  -4  -9  175.41    8.65
  -5   4   9  192.90    7.87
  -5   4   9  178.06    8.45
   4  -4  -9    3.27    0.85
  -4   4   9    2.57    0.66
  -4   4   9    1.73    0.74
  -3   4   9  247.28   10.60
   2  -4  -9  103.03    4.79
   2  -4  -9   95.31    4.85
  -2   4   9   94.50    4.71
  -2   4   9   87.81    4.73
   1  -4  -9  174.53    7.93
   1  -4  -9  180.06    7.81
   1  -4  -9  188.06    8.17
  -1   4   9  176.24    7.81
  -1   4   9  163.03    8.10
   0  -4  -9  406.53   16.39
   0  -4  -9  416.63   16.98
   0  -4  -9  400.57   16.53
   0   4   9  410.90   16.43
   0   4   9  366.36   16.94
  -1  -4  -9  174.34    8.04
  -1  -4  -9  172.24    7.45
  -1  -4  -9  169.71    7.30
   1   4   9  155.70    7.25
   1   4   9  167.12    7.46
  -2  -4  -9  265.61   11.99
  -2  -4  -9  260.64   11.04
  -2  -4  -9  268.14   11.22
   2   4   9  272.04   11.24
  -3  -4  -9  323.34   14.69
  -3  -4  -9  341.36   13.60
   3   4   9  334.40   13.74
  -4  -4  -9    0.20    0.34
  -4  -4  -9    0.18    0.56
   4   4   9   -0.39    0.26
  -5  -4  -9  361.52   15.18
  -5  -4  -9  369.10   16.44
   5   4   9  376.74   15.05
  -6  -4  -9  202.47   10.15
   6   4   9  209.17    8.70
  -7  -4  -9   -0.76    0.48
   7   4   9   -0.11    0.30
  -8  -4  -9  289.74   14.03
  -8  -4  -9  292.71   12.20
   8   4   9  304.49   12.23
  -9  -4  -9   66.08    3.30
  -9  -4  -9   62.46    4.77
   9   4   9   64.98    3.26
 -10  -4  -9   81.68    5.60
 -10  -4  -9   77.42    3.93
  10   4   9   78.23    3.87
 -11  -4  -9  169.17    9.70
 -11  -4  -9  176.02    7.84
  11   4   9  181.47    7.77
 -12  -4  -9   21.61    2.94
 -12  -4  -9   26.39    1.96
  12   4   9   27.17    1.98
 -13  -4  -9   22.30    3.11
  13   4   9   21.88    1.87
 -14  -4  -9  100.26    7.04
 -14  -4  -9   94.55    5.17
  14   4   9  103.61    5.11
 -15  -4  -9    5.29    1.49
 -15  -4  -9    6.77    1.86
  15   4   9    4.18    1.02
  10  -5  -9    5.38    1.44
 -10   5   9    6.96    1.47
   9  -5  -9   78.29    5.11
  -9   5   9   78.04    4.82
   8  -5  -9   55.68    3.96
  -8   5   9   50.89    3.65
   7  -5  -9    3.02    1.11
  -7   5   9    4.61    1.18
  -7   5   9    4.79    0.78
   6  -5  -9   83.50    4.94
  -6   5   9   87.94    4.81
   5  -5  -9   61.38    3.81
  -5   5   9   59.57    3.71
  -5   5   9   65.48    3.42
   4  -5  -9   70.27    4.13
  -4   5   9   74.57    3.84
  -4   5   9   70.91    4.04
   3  -5  -9  213.67    9.91
   3  -5  -9  224.81    9.90
  -3   5   9  227.36    9.84
  -3   5   9  225.87    9.88
   2  -5  -9   65.93    3.70
   2  -5  -9   69.81    3.74
  -2   5   9   69.68    3.73
  -2   5   9   69.08    3.87
   1  -5  -9  239.79    9.91
   1  -5  -9  204.63    9.39
   1  -5  -9  217.94    9.41
  -1   5   9  209.04    9.38
  -1   5   9  207.67    9.79
   0  -5  -9  299.52   12.40
   0  -5  -9  282.26   11.76
   0  -5  -9  279.13   11.75
   0   5   9  262.97   12.33
   0   5   9  268.63   11.73
  -1  -5  -9   48.08    2.59
  -1  -5  -9   44.85    2.58
  -1  -5  -9   44.83    3.11
   1   5   9   48.83    2.66
   1   5   9   41.68    3.13
  -2  -5  -9  404.91   16.32
  -2  -5  -9  397.00   17.26
  -2  -5  -9  398.03   16.35
   2   5   9  401.24   16.33
  -3  -5  -9  202.63    9.86
  -3  -5  -9  209.09    8.89
   3   5   9  214.48    8.85
  -4  -5  -9    0.62    0.50
   4   5   9    0.68    0.32
  -5  -5  -9  278.96   11.60
  -5  -5  -9  286.25   13.01
   5   5   9  273.54   11.43
  -6  -5  -9  105.62    6.16
  -6  -5  -9  107.38    4.89
   6   5   9  103.73    4.67
  -7  -5  -9   32.95    3.10
  -7  -5  -9   31.74    2.03
   7   5   9   34.12    1.88
  -8  -5  -9  433.02   17.21
  -8  -5  -9  401.34   18.79
   8   5   9  423.31   16.89
  -9  -5  -9   35.39    3.29
  -9  -5  -9   34.35    2.23
   9   5   9   34.11    2.00
 -10  -5  -9   81.38    5.56
 -10  -5  -9   78.21    4.14
  10   5   9   81.38    3.86
 -11  -5  -9   71.61    5.50
 -11  -5  -9   77.57    4.14
  11   5   9   81.12    3.85
 -12  -5  -9   -0.18    0.74
 -12  -5  -9   -0.45    0.51
  12   5   9   -0.62    0.33
 -13  -5  -9  123.60    8.99
 -13  -5  -9  126.42    6.29
  13   5   9  128.94    5.95
 -14  -5  -9   79.66    4.57
 -14  -5  -9   79.51    6.05
  14   5   9   76.72    4.12
  15   5   9   -0.70    0.56
  10  -6  -9   -1.54    0.69
 -10   6   9   -0.59    0.78
   9  -6  -9  125.72    7.17
  -9   6   9  135.72    7.04
   8  -6  -9   40.89    3.40
  -8   6   9   44.48    3.31
   7  -6  -9   14.75    2.05
  -7   6   9   21.04    2.17
  -7   6   9   20.85    1.74
   6  -6  -9  142.80    7.32
  -6   6   9  150.64    6.90
  -6   6   9  142.99    7.20
   5  -6  -9    5.76    1.20
  -5   6   9    5.96    1.19
  -5   6   9    6.62    1.18
   4  -6  -9  138.62    7.21
   4  -6  -9  156.41    7.34
  -4   6   9  156.94    7.18
  -4   6   9  157.74    7.33
   3  -6  -9  176.78    8.08
   3  -6  -9  163.44    7.96
  -3   6   9  182.62    8.15
  -3   6   9  174.90    8.05
   2  -6  -9   -0.21    0.49
   2  -6  -9    0.79    0.50
  -2   6   9   -0.46    0.40
  -2   6   9   -0.14    0.50
   1  -6  -9  337.60   13.87
   1  -6  -9  320.94   13.71
  -1   6   9  324.29   14.30
   0  -6  -9  481.89   19.41
   0  -6  -9  519.85   20.16
   0  -6  -9  465.84   19.22
   0   6   9  424.89   19.92
  -1  -6  -9   27.65    2.40
  -1  -6  -9   26.18    1.74
  -1  -6  -9   30.38    1.96
   1   6   9   23.43    2.33
  -2  -6  -9  348.56   14.32
  -2  -6  -9  357.00   14.10
  -2  -6  -9  355.17   15.25
   2   6   9  314.83   15.18
   2   6   9  346.79   14.09
  -3  -6  -9   39.83    2.39
  -3  -6  -9   41.92    3.11
  -4  -6  -9  106.37    4.95
  -4  -6  -9  102.52    5.88
   4   6   9  103.71    4.59
  -5  -6  -9  337.68   14.14
  -5  -6  -9  345.77   15.46
   5   6   9  339.49   13.70
  -6  -6  -9  258.15   10.52
  -6  -6  -9  243.80   12.57
   6   6   9  233.82   10.13
  -7  -6  -9  228.31   11.21
  -7  -6  -9  222.80    9.74
   7   6   9  224.56    9.21
  -8  -6  -9  244.27   10.42
  -8  -6  -9  235.26   11.88
   8   6   9  240.41    9.83
  -9  -6  -9   10.14    1.43
  -9  -6  -9   15.24    2.29
   9   6   9   14.35    1.05
 -10  -6  -9   87.77    4.63
 -10  -6  -9   89.38    6.03
  10   6   9   88.28    4.07
 -11  -6  -9   58.89    4.78
 -11  -6  -9   60.56    3.56
  11   6   9   61.07    3.06
 -12  -6  -9   -0.96    0.50
 -12  -6  -9   -0.18    0.73
 -13  -6  -9  121.20    6.18
 -13  -6  -9  116.77    8.53
 -14  -6  -9   39.54    3.02
 -14  -6  -9   38.75    4.25
  14   6   9   40.39    2.58
  10  -7  -9   31.52    3.14
 -10   7   9   35.29    3.12
   9  -7  -9   82.28    5.24
  -9   7   9   82.70    5.07
   8  -7  -9    2.29    1.10
  -8   7   9    2.98    0.85
  -8   7   9    0.82    0.94
   7  -7  -9   65.89    4.24
  -7   7   9   62.38    4.13
  -7   7   9   68.09    3.94
   6  -7  -9  131.81    7.03
  -6   7   9  146.78    6.94
  -6   7   9  142.37    7.10
   5  -7  -9   -0.14    0.61
   5  -7  -9   -0.42    0.56
  -5   7   9   -0.27    0.61
  -5   7   9   -0.88    0.47
   4  -7  -9  238.75   10.65
   4  -7  -9  225.12   10.47
  -4   7   9  239.29   10.60
  -4   7   9  237.38   10.60
   3  -7  -9  186.16    8.54
   3  -7  -9  188.80    8.69
  -3   7   9  194.16    8.84
  -3   7   9  183.50    8.65
   2  -7  -9   13.28    1.43
   2  -7  -9   14.83    1.60
  -2   7   9   14.63    1.60
  -2   7   9   15.30    1.75
   1  -7  -9  395.35   16.04
   1  -7  -9  384.71   16.26
  -1   7   9  382.15   16.76
   0  -7  -9  343.30   14.10
   0  -7  -9  332.21   13.74
   0   7   9  321.44   14.70
  -1  -7  -9   16.67    1.26
  -1  -7  -9   15.52    1.90
  -1  -7  -9   16.41    1.43
   1   7   9   12.54    1.67
  -2  -7  -9  468.42   19.59
  -2  -7  -9  486.96   20.56
  -2  -7  -9  493.09   19.41
   2   7   9  446.19   20.51
   2   7   9  494.82   19.45
  -3  -7  -9   60.98    3.41
  -3  -7  -9   66.64    4.23
   3   7   9   65.64    2.98
   3   7   9   58.53    4.20
  -4  -7  -9   77.18    4.78
  -4  -7  -9   73.98    3.88
   4   7   9   71.00    4.81
   4   7   9   75.68    3.32
  -5  -7  -9  147.96    8.22
  -5  -7  -9  132.39    6.24
   5   7   9  129.09    5.53
   5   7   9  129.05    7.48
  -6  -7  -9   60.22    3.33
  -6  -7  -9   57.20    4.17
   6   7   9   56.25    2.56
  -7  -7  -9  380.08   17.22
  -7  -7  -9  389.54   15.84
   7   7   9  361.15   14.91
  -8  -7  -9  145.94    8.22
  -8  -7  -9  151.45    6.97
   8   7   9  144.08    6.44
  -9  -7  -9   -0.32    0.73
   9   7   9    0.63    0.29
 -10  -7  -9  145.81    6.88
 -10  -7  -9  134.56    8.15
 -11  -7  -9   51.92    4.45
 -11  -7  -9   50.85    3.30
  11   7   9   47.20    2.54
 -12  -7  -9    5.34    1.21
 -12  -7  -9    6.27    1.75
  12   7   9    3.99    0.67
 -13  -7  -9   74.94    5.78
 -13  -7  -9   76.96    4.58
  13   7   9   70.66    3.67
 -14  -7  -9    2.21    1.28
  10  -8  -9   40.55    3.54
 -10   8   9   43.87    3.56
   9  -8  -9   85.85    5.31
  -9   8   9   79.37    5.06
   8  -8  -9   -0.87    0.72
  -8   8   9   -0.84    0.69
   7  -8  -9  130.28    7.01
  -7   8   9  140.07    7.05
   6  -8  -9  107.52    5.94
   6  -8  -9  118.94    6.19
  -6   8   9  112.33    6.03
  -6   8   9  110.90    5.97
   5  -8  -9    0.13    0.67
   5  -8  -9   -0.79    0.47
  -5   8   9   -0.49    0.63
  -5   8   9    0.20    0.64
   4  -8  -9  108.84    5.65
   4  -8  -9  101.56    5.37
  -4   8   9  109.26    5.70
  -4   8   9  100.86    5.54
   3  -8  -9   19.33    1.89
   3  -8  -9   14.74    1.59
  -3   8   9   16.04    1.78
  -3   8   9   15.15    1.85
   2  -8  -9   47.12    3.04
   2  -8  -9   47.68    2.86
  -2   8   9   48.83    3.42
   1  -8  -9  410.45   17.22
   1  -8  -9  400.75   16.80
  -1   8   9  415.76   17.80
   0  -8  -9  104.36    5.24
   0  -8  -9   98.67    4.68
   0   8   9   98.38    5.68
  -1  -8  -9    2.82    0.60
  -1  -8  -9    4.00    0.89
   1   8   9    3.81    1.09
  -2  -8  -9   47.04    2.95
  -2  -8  -9   50.69    3.70
  -2  -8  -9   52.14    2.47
   2   8   9   46.08    3.63
   2   8   9   48.85    2.43
  -3  -8  -9   17.19    1.65
   3   8   9   19.05    1.07
   3   8   9   17.25    1.06
  -4  -8  -9  129.28    7.04
  -4  -8  -9  130.51    6.09
   4   8   9  124.08    7.11
   4   8   9  119.04    5.09
  -5  -8  -9  313.59   14.46
  -5  -8  -9  314.73   13.32
   5   8   9  279.60   12.17
   5   8   9  339.74   12.28
   5   8   9  306.10   14.60
  -6  -8  -9   26.79    2.95
  -6  -8  -9   24.72    2.09
   6   8   9   25.88    1.20
   6   8   9   22.39    2.80
   6   8   9   29.94    1.29
  -7  -8  -9   67.14    4.81
   7   8   9   66.80    5.00
   7   8   9   69.65    2.86
  -8  -8  -9   59.55    3.55
  -8  -8  -9   56.41    4.47
   8   8   9   57.44    2.51
   8   8   9   55.07    4.47
  -9  -8  -9   75.91    4.22
  -9  -8  -9   67.85    5.08
   9   8   9   65.56    5.17
   9   8   9   73.42    3.15
 -10  -8  -9  151.08    7.34
 -10  -8  -9  154.24    8.69
  10   8   9  139.00    8.52
 -11  -8  -9   11.05    1.64
 -11  -8  -9   14.18    2.45
  11   8   9   11.39    1.09
  11   8   9    9.80    2.10
 -12  -8  -9  104.32    5.80
 -13  -8  -9  123.43    7.83
  13   8   9  111.43    7.35
   9  -9  -9   22.63    2.63
  -9   9   9   25.66    2.51
  -9   9   9   27.67    2.76
   8  -9  -9    8.83    1.59
  -8   9   9   10.60    1.79
  -8   9   9    9.86    1.64
   7  -9  -9  133.94    7.28
   7  -9  -9  146.85    7.59
  -7   9   9  142.90    7.43
  -7   9   9  148.40    7.51
   6  -9  -9   60.36    4.02
   6  -9  -9   74.40    4.49
  -6   9   9   66.51    4.29
  -6   9   9   65.07    4.29
   5  -9  -9   50.74    3.33
   5  -9  -9   49.76    3.54
  -5   9   9   49.16    3.50
  -5   9   9   53.51    3.63
   4  -9  -9  143.61    7.04
   4  -9  -9  131.96    6.64
  -4   9   9  135.55    7.10
  -4   9   9  140.26    6.99
   3  -9  -9    0.87    0.56
   3  -9  -9    0.22    0.66
  -3   9   9    0.59    0.79
   2  -9  -9  245.11   11.43
   2  -9  -9  264.36   11.11
  -2   9   9  262.80   11.98
   1  -9  -9  168.59    7.65
   1  -9  -9  174.91    8.19
  -1   9   9  178.39    8.76
   0  -9  -9   11.97    1.10
   0  -9  -9   13.76    1.60
   0   9   9   12.36    1.89
  -1  -9  -9  322.26   12.92
  -1  -9  -9  317.31   13.72
   1   9   9  313.59   14.51
  -2  -9  -9  182.14    8.39
   2   9   9  180.60    9.27
   2   9   9  185.75    7.36
   2   9   9  176.50    7.43
  -3  -9  -9   29.77    2.90
  -3  -9  -9   26.11    2.12
   3   9   9   25.87    1.23
   3   9   9   26.74    1.22
   3   9   9   27.69    2.85
  -4  -9  -9  184.25    8.75
  -4  -9  -9  204.85    9.90
   4   9   9  184.93    9.82
  -5  -9  -9   88.75    5.69
  -5  -9  -9   88.88    4.74
   5   9   9   81.95    5.65
  -6  -9  -9   83.17    5.58
  -6  -9  -9   85.28    4.68
   6   9   9   85.02    5.68
  -7  -9  -9  214.85   10.83
  -7  -9  -9  202.24    9.54
   7   9   9  204.12   10.85
  -8  -9  -9   37.74    3.67
  -8  -9  -9   40.96    2.95
   8   9   9   37.61    3.77
  -9  -9  -9  102.40    6.62
  -9  -9  -9  101.48    5.48
   9   9   9   92.23    6.47
 -10  -9  -9  138.49    6.96
 -10  -9  -9  135.67    8.13
  10   9   9  125.64    7.98
 -11  -9  -9    7.31    1.49
 -11  -9  -9    9.78    2.16
  11   9   9   10.95    2.17
 -12  -9  -9   83.77    6.28
 -13  -9  -9   44.30    4.26
 -13  -9  -9   39.59    3.37
  13   9   9   33.48    3.72
  -9  10   9   10.54    1.83
   8 -10  -9   50.95    3.94
   8 -10  -9   45.93    3.60
  -8  10   9   55.42    3.95
  -8  10   9   50.90    3.94
   7 -10  -9  126.57    6.83
   7 -10  -9  116.11    6.46
  -7  10   9  124.96    6.87
  -7  10   9  121.42    6.69
   6 -10  -9    4.77    1.13
   6 -10  -9    4.65    1.56
  -6  10   9    5.84    1.43
   5 -10  -9   90.01    5.08
   5 -10  -9   97.29    5.51
  -5  10   9   93.19    5.36
  -5  10   9   97.02    5.63
   4 -10  -9  112.10    5.89
   4 -10  -9  122.00    6.33
  -4  10   9  111.14    6.14
  -4  10   9  124.37    6.60
   3 -10  -9    2.67    0.74
   3 -10  -9    2.20    0.92
  -3  10   9    3.60    1.19
   2 -10  -9  236.10   10.18
   2 -10  -9  228.38   10.68
  -2  10   9  237.20   11.21
   1 -10  -9  146.88    7.44
   1 -10  -9  157.84    6.91
  -1  10   9  156.36    8.09
   0 -10  -9    0.64    0.37
   0 -10  -9    0.25    0.58
   0  10   9    0.61    0.81
  -1 -10  -9  103.10    4.49
  -1 -10  -9   98.72    5.39
   1  10   9  105.72    6.18
  -2 -10  -9    8.43    1.37
   2  10   9    6.77    0.63
   2  10   9    9.27    0.57
   2  10   9    7.54    1.63
  -3 -10  -9   36.12    2.75
   3  10   9   36.00    3.40
  -4 -10  -9  478.01   20.29
   4  10   9  486.39   21.46
  -5 -10  -9    1.33    0.87
  -5 -10  -9   -0.07    0.64
   5  10   9    0.62    0.93
  -6 -10  -9   55.93    3.72
  -6 -10  -9   61.66    4.67
   6  10   9   57.27    4.62
  -7 -10  -9  279.98   13.45
  -7 -10  -9  262.22   12.15
   7  10   9  265.91   13.44
  -8 -10  -9   11.97    2.34
  -8 -10  -9   12.86    1.86
   8  10   9   13.35    2.27
  -9 -10  -9   97.04    6.41
  -9 -10  -9   89.63    5.35
   9  10   9   95.88    6.51
 -10 -10  -9   73.67    4.69
 -10 -10  -9   71.22    5.55
  10  10   9   77.43    5.70
 -11 -10  -9   12.92    2.64
 -11 -10  -9   12.20    1.94
  11  10   9    9.53    2.10
 -12 -10  -9  127.52    7.95
 -12 -10  -9  116.81    6.61
  12  10   9  108.05    7.39
  -9  11   9    1.51    1.09
   8 -11  -9   58.66    4.26
   8 -11  -9   53.41    3.91
  -8  11   9   55.00    4.31
  -8  11   9   58.79    4.19
   7 -11  -9  113.90    6.57
   7 -11  -9  126.31    6.94
  -7  11   9  128.34    6.89
  -7  11   9  122.97    7.09
   6 -11  -9    8.51    1.36
   6 -11  -9    7.82    1.56
  -6  11   9    3.72    1.20
  -6  11   9    5.28    1.46
   5 -11  -9  156.39    7.68
  -5  11   9  162.40    8.47
   4 -11  -9  103.12    5.32
   4 -11  -9  103.88    5.77
  -4  11   9  101.55    6.11
   3 -11  -9   23.14    2.23
   3 -11  -9   24.12    1.99
  -3  11   9   22.99    2.63
   2 -11  -9  208.34   10.27
   2 -11  -9  226.16    9.71
  -2  11   9  230.90   11.03
   1 -11  -9  159.36    8.08
   1 -11  -9  166.20    7.32
  -1  11   9  171.83    8.77
   0 -11  -9   43.49    3.22
   0  11   9   48.83    3.87
  -1 -11  -9  221.10   10.08
  -1 -11  -9  213.43    8.70
   1  11   9  200.73    8.68
   1  11   9  229.36   10.97
  -2 -11  -9   22.26    2.24
   2  11   9   26.41    2.95
  -3 -11  -9   43.14    3.19
   3  11   9   46.04    3.94
  -4 -11  -9   85.33    5.07
   4  11   9   91.95    5.91
  -5 -11  -9   -0.71    0.70
   5  11   9    0.70    1.04
  -6 -11  -9   97.43    5.58
   6  11   9   99.16    6.52
  -7 -11  -9  116.35    6.47
   7  11   9  123.44    7.61
  -8 -11  -9    2.14    1.02
  -8 -11  -9    2.08    1.30
   8  11   9    3.56    1.66
  -9 -11  -9   54.77    4.47
   9  11   9   59.42    4.96
 -10 -11  -9   30.10    3.20
 -10 -11  -9   36.43    4.03
  10  11   9   32.90    3.70
 -11 -11  -9   15.54    2.32
 -11 -11  -9   23.46    3.34
  11  11   9   16.59    3.00
   8 -12  -9   69.92    4.71
   8 -12  -9   79.71    5.19
  -8  12   9   77.32    5.42
  -8  12   9   78.64    5.10
   7 -12  -9   77.81    4.81
   7 -12  -9   79.18    5.14
  -7  12   9   76.81    5.38
  -7  12   9   76.37    4.94
   6 -12  -9    7.44    1.32
   6 -12  -9    5.21    1.44
  -6  12   9    5.70    1.85
  -6  12   9    7.10    1.52
   5 -12  -9   72.88    4.23
   5 -12  -9   61.40    4.46
  -5  12   9   70.27    4.60
  -5  12   9   75.91    5.09
   4 -12  -9   28.36    3.19
   4 -12  -9   35.28    2.53
  -4  12   9   33.11    3.27
   3 -12  -9   33.46    2.94
   3 -12  -9   41.72    2.68
  -3  12   9   42.13    3.65
   2 -12  -9  224.28   10.96
   2 -12  -9  233.75   10.18
  -2  12   9  247.84   11.81
   1 -12  -9   46.74    2.52
   1 -12  -9   40.33    3.17
  -1  12   9   43.41    3.69
   0 -12  -9   76.56    3.65
   0 -12  -9   77.14    4.77
   0  12   9   91.56    5.70
  -1 -12  -9  100.82    5.80
   1  12   9  109.24    6.63
  -2 -12  -9    4.81    1.26
   2  12   9    3.61    1.28
  -3 -12  -9  151.39    7.95
   3  12   9  163.84    8.90
  -4 -12  -9   14.84    2.02
   4  12   9   15.28    2.29
  -5 -12  -9   22.62    2.33
   5  12   9   25.74    3.19
  -6 -12  -9  181.29    9.42
   6  12   9  199.59   10.56
  -7 -12  -9   44.93    3.67
   7  12   9   48.95    4.35
  -8 -12  -9   43.11    3.52
   8  12   9   39.46    4.12
  -9 -12  -9  108.20    6.44
   9  12   9  113.83    7.42
 -10 -12  -9   -2.06    0.81
  10  12   9   -0.91    0.91
 -11 -12  -9   25.85    2.85
  11  12   9   28.06    3.48
   7 -13  -9   20.36    2.56
   7 -13  -9   22.05    2.37
  -7  13   9   23.69    3.06
  -7  13   9   21.54    2.60
   6 -13  -9   31.01    2.61
   6 -13  -9   32.89    3.16
  -6  13   9   30.23    3.00
  -6  13   9   31.43    3.40
   5 -13  -9   82.53    5.37
   5 -13  -9   86.98    4.83
  -5  13   9   87.69    5.88
   4 -13  -9    2.35    0.79
   4 -13  -9    2.90    1.04
  -4  13   9    2.66    1.34
   3 -13  -9   39.49    3.37
   3 -13  -9   43.51    2.78
   2 -13  -9  137.71    7.69
   2 -13  -9  149.01    6.66
  -2  13   9  147.44    8.48
   1 -13  -9    9.48    1.04
   1 -13  -9    6.81    1.76
  -1  13   9    9.63    1.91
   0 -13  -9   94.00    5.66
   0  13   9   99.33    6.28
  -1 -13  -9   56.24    4.08
   1  13   9   64.87    4.77
  -2 -13  -9   16.92    2.24
   2  13   9   17.83    2.72
  -3 -13  -9   60.49    4.33
   3  13   9   69.47    5.07
  -4 -13  -9   18.29    2.46
   4  13   9   22.00    3.46
  -5 -13  -9   64.35    4.99
   5  13   9   53.57    5.58
  -6 -13  -9  199.25   10.31
   6  13   9  219.52   11.49
  -7 -13  -9    3.64    1.27
   7  13   9    7.21    2.14
  -8 -13  -9   40.81    3.70
   8  13   9   49.07    4.55
  -9 -13  -9   69.50    4.95
   9  13   9   72.31    5.67
   6 -14  -9   56.76    4.35
  -6  14   9   61.96    4.90
  -6  14   9   54.74    4.21
   5 -14  -9  112.09    5.95
   5 -14  -9  113.47    6.71
  -5  14   9  122.71    7.46
   4 -14  -9   -1.35    0.75
   4 -14  -9    1.22    0.73
  -4  14   9   -0.68    0.81
   3 -14  -9  103.05    5.03
   3 -14  -9   89.58    5.86
  -3  14   9  100.62    6.61
   2 -14  -9   75.94    5.10
  -2  14   9   81.82    5.79
   1 -14  -9    0.56    0.94
  -1  14   9    1.28    1.24
   0 -14  -9  134.20    7.46
   0  14   9  138.87    8.13
  -1 -14  -9   71.07    4.86
   1  14   9   74.24    5.53
  -2 -14  -9   31.08    3.10
   2  14   9   32.26    3.66
  -3 -14  -9   85.81    5.62
   3  14   9   97.29    6.51
  -4 -14  -9    5.90    1.47
   4  14   9    5.94    1.88
  -5 -14  -9   51.19    4.10
   5  14   9   63.31    5.16
  -6 -14  -9   67.50    4.88
   6  14   9   69.34    5.59
  -7 -14  -9    3.56    1.35
   7  14   9    1.32    1.42
  -8 -14  -9  103.51    6.82
   8  14   9  130.90    8.02
   4 -15  -9   10.06    1.84
  -4  15   9    5.84    1.86
   3 -15  -9   64.70    4.86
  -3  15   9   75.60    5.66
   2 -15  -9   35.47    3.43
  -2  15   9   39.45    4.06
   1 -15  -9    6.74    1.55
  -1  15   9    4.81    1.79
   0 -15  -9   59.33    4.50
   0  15   9   61.21    4.97
  -1 -15  -9    0.55    0.77
   1  15   9    0.47    1.25
  -2 -15  -9   64.35    4.81
   2  15   9   71.95    5.46
  -3 -15  -9  126.47    7.51
   3  15   9  137.99    8.41
  -4 -15  -9   -1.49    0.85
   4  15   9    0.34    1.33
  -5 -15  -9   88.77    6.03
   5  15   9  100.12    6.91
  -6 -15  -9   42.00    3.86
   6  15   9   43.90    4.43
   2 -16  -9   19.46    2.68
  -2  16   9   17.85    3.13
   1 -16  -9    9.33    1.93
  -1  16   9    8.49    2.24
   0 -16  -9   55.22    4.46
   0  16   9   56.89    4.93
  -1 -16  -9    0.31    1.04
   1  16   9    1.04    1.39
  -2 -16  -9   26.34    3.06
   2  16   9   24.35    3.51
  -3 -16  -9   22.65    2.96
   3  16   9   27.61    3.64
  -4 -16  -9   16.18    2.58
   4  16   9   18.90    3.22
   0  -8  10   38.85    3.30
   0  -8  10   39.11    2.93
  -1   8 -10   63.78    4.89
   1  -8  10   74.13    4.75
  -2   8 -10    5.87    1.60
   2  -8  10    6.78    1.54
   3  -8  10   90.04    5.44
  -4   8 -10   48.51    4.61
   4  -8  10   57.63    4.00
  -5   8 -10   10.39    2.41
   5  -8  10    9.59    1.61
  -6   8 -10   85.50    6.67
   6  -8  10   96.91    5.57
  -7   8 -10   19.69    3.35
   7  -8  10   24.01    2.66
  -8   8 -10   36.93    4.53
   8  -8  10   37.78    3.25
  -2  -7  10   41.26    3.14
  -2  -7  10   41.43    3.51
  -1  -7  10   -0.10    0.78
  -1  -7  10    1.37    0.71
   0   7 -10   64.54    4.47
   0  -7  10   65.90    3.86
   0  -7  10   66.42    4.51
  -1   7 -10   15.62    2.29
   1  -7  10   16.45    2.21
   1  -7  10   14.52    1.59
  -2   7 -10    5.94    1.60
   2  -7  10    8.19    1.54
  -3   7 -10   96.63    6.42
   3  -7  10  100.05    5.74
  -4   7 -10   30.45    3.49
   4  -7  10   34.58    3.02
   5  -7  10   33.78    2.96
  -6   7 -10   89.43    6.59
   6  -7  10   85.07    5.24
  -7   7 -10    0.68    1.30
   7  -7  10    1.29    0.97
  -8   7 -10   55.88    5.38
   8  -7  10   60.96    4.16
  -9   7 -10   51.41    5.41
   9  -7  10   61.65    4.19
 -10   7 -10    1.06    1.56
  10  -7  10    2.39    0.95
  -4  -6  10    4.89    1.28
  -4  -6  10    1.98    1.30
  -3  -6  10   66.91    4.21
  -3  -6  10   63.44    4.55
  -2  -6  10   33.76    2.66
  -2  -6  10   32.65    3.10
   1   6 -10   19.53    2.40
  -1  -6  10   19.37    1.95
  -1  -6  10   18.11    2.32
   0   6 -10  130.22    7.07
   0  -6  10  126.65    6.24
   0  -6  10  130.34    7.02
  -1   6 -10   15.66    2.24
   1  -6  10   13.65    2.14
   1  -6  10   20.93    2.33
  -2   6 -10   50.38    4.00
   2  -6  10   47.51    3.55
   2  -6  10   46.20    2.73
  -3   6 -10   94.44    6.02
   3  -6  10   95.57    4.35
   3  -6  10   82.28    5.77
  -4   6 -10   -0.68    0.73
   4  -6  10   -0.98    0.63
  -5   6 -10  102.63    6.91
   5  -6  10  109.45    5.97
  -6   6 -10  167.33    9.94
   6  -6  10  181.06    8.70
  -7   6 -10    0.40    1.14
   7  -6  10    1.78    0.94
  -8   6 -10   78.81    6.34
   8  -6  10   80.95    4.86
  -9   6 -10   73.02    6.30
   9  -6  10   74.24    4.69
 -10   6 -10    5.58    2.19
  10  -6  10    3.87    1.21
 -11   6 -10   44.01    5.03
  11  -6  10   47.98    3.52
   5   5 -10   61.97    4.68
  -5  -5  10   69.38    4.86
  -5  -5  10   69.37    4.40
   4   5 -10   -0.13    0.76
  -4  -5  10   -0.04    0.82
  -4  -5  10   -0.18    0.63
   3   5 -10   43.05    3.52
  -3  -5  10   42.78    3.07
  -3  -5  10   40.65    3.48
  -2  -5  10   11.21    1.49
  -2  -5  10   10.76    1.79
   1   5 -10   37.86    2.96
  -1  -5  10   47.05    4.00
  -1  -5  10   40.06    2.75
   0   5 -10  160.99    8.32
   0  -5  10  171.27    8.49
   0  -5  10  170.58    7.66
  -1   5 -10   12.89    1.93
   1  -5  10   14.28    1.37
   1  -5  10   10.81    1.69
  -2   5 -10   45.41    3.65
   2  -5  10   43.65    2.55
   2  -5  10   49.32    3.48
  -3   5 -10   99.34    6.16
   3  -5  10  101.55    5.60
   3  -5  10   97.74    4.53
  -4   5 -10    4.12    1.42
   4  -5  10    3.66    1.10
  -5   5 -10  129.71    7.87
   5  -5  10  134.70    6.89
  -6   5 -10   92.34    6.41
   6  -5  10   94.12    5.33
  -7   5 -10   10.80    2.32
   8  -5  10  121.97    6.49
  -9   5 -10    7.44    2.25
   9  -5  10   14.40    1.81
 -10   5 -10   39.36    4.63
  10  -5  10   44.52    3.37
 -11   5 -10   74.58    6.40
  11  -5  10   83.05    4.94
 -12   5 -10    2.79    1.49
  12  -5  10    3.00    1.15
   6   4 -10   43.83    3.69
  -6  -4  10   39.43    3.62
  -6  -4  10   38.10    3.16
   5   4 -10    6.09    1.51
  -5  -4  10    5.32    1.32
  -5  -4  10    4.60    1.35
   4   4 -10   46.98    3.77
  -4  -4  10   47.62    3.79
  -4  -4  10   51.11    3.76
   3   4 -10   75.31    4.95
  -3  -4  10   79.78    5.04
  -3  -4  10   81.19    4.50
   2   4 -10    0.01    0.72
  -2  -4  10   -0.34    0.70
  -2  -4  10    0.41    0.54
   1   4 -10   64.72    3.94
  -1  -4  10   65.48    3.70
  -1  -4  10   69.14    4.38
   0   4 -10   73.88    4.52
   0  -4  10   74.52    3.89
   0  -4  10   73.88    4.61
  -1   4 -10    3.15    1.05
   1  -4  10    3.76    0.70
   1  -4  10    2.97    0.98
  -2   4 -10  152.96    8.65
   2  -4  10  156.90    7.68
   2  -4  10  147.74    6.63
  -3   4 -10   97.56    5.97
   3  -4  10   97.80    5.42
  -4   4 -10   36.84    3.50
   4  -4  10   39.95    1.87
   4  -4  10   41.05    3.02
  -5   4 -10  121.00    7.34
   5  -4  10  124.94    6.41
  -6   4 -10   19.89    2.80
   6  -4  10   23.68    2.30
  -7   4 -10  106.39    7.18
   7  -4  10  117.46    6.06
  -8   4 -10  252.41   13.54
   8  -4  10  272.16   11.98
   9  -4  10   44.39    3.37
 -10   4 -10   52.66    5.14
  10  -4  10   53.27    3.70
 -11   4 -10   53.38    5.35
  11  -4  10   57.81    3.89
 -12   4 -10    4.49    1.89
  12  -4  10    4.92    1.30
 -13   4 -10   58.68    5.83
  13  -4  10   64.63    4.24
   7   3 -10   37.57    3.52
  -7  -3  10   42.52    3.38
  -7  -3  10   40.16    3.72
   6   3 -10   66.42    4.75
  -6  -3  10   76.37    5.12
  -6  -3  10   73.59    4.58
   5   3 -10    4.41    1.23
  -5  -3  10    6.63    1.61
  -5  -3  10    4.62    1.14
   4   3 -10   85.71    5.37
  -4  -3  10   90.79    4.94
  -4  -3  10   89.25    5.46
   3   3 -10   53.88    3.96
  -3  -3  10   57.20    4.04
  -3  -3  10   60.05    3.59
   2   3 -10    7.64    1.48
  -2  -3  10   11.05    1.35
  -2  -3  10   11.63    1.67
   1   3 -10  162.28    7.67
   1   3 -10  159.35    8.09
  -1  -3  10  166.75    7.38
  -1  -3  10  156.87    8.02
   0   3 -10  115.29    6.10
   0  -3  10  116.50    6.22
   0  -3  10  115.76    5.43
  -1   3 -10   44.81    3.35
   1  -3  10   45.63    3.17
   1  -3  10   43.46    2.48
  -2   3 -10  183.18    9.11
   2  -3  10  178.91    7.68
   2  -3  10  182.30    8.68
  -3   3 -10   32.02    3.40
   3  -3  10   36.70    2.82
   3  -3  10   37.45    1.90
  -4   3 -10  104.61    6.27
   4  -3  10   99.22    5.43
   4  -3  10  103.58    4.23
  -5   3 -10  175.72    9.38
   5  -3  10  174.75    8.35
  -6   3 -10    1.65    1.20
   6  -3  10    2.14    0.90
  -7   3 -10  123.47    7.61
   7  -3  10  122.07    6.30
  -8   3 -10  111.32    7.43
   8  -3  10  122.05    6.12
  -9   3 -10    3.10    1.50
   9  -3  10    2.68    0.99
 -10   3 -10   96.20    7.73
 -11   3 -10   26.39    3.74
  11  -3  10   34.83    2.79
 -12   3 -10   32.05    4.16
  12  -3  10   33.44    2.84
 -13   3 -10  113.89    8.51
  13  -3  10  132.70    6.70
   7   2 -10   36.24    3.45
  -7  -2  10   42.50    3.33
   6   2 -10   64.45    4.72
  -6  -2  10   77.82    4.60
  -6  -2  10   75.29    5.06
   5   2 -10    5.35    1.36
  -5  -2  10    5.85    1.45
  -5  -2  10    6.99    1.29
   4   2 -10   86.90    5.41
  -4  -2  10  103.39    5.21
  -4  -2  10   91.93    5.70
   3   2 -10   57.47    4.06
  -3  -2  10   64.26    3.68
  -3  -2  10   63.10    4.11
   2   2 -10   44.08    3.41
   2   2 -10   49.29    2.77
  -2  -2  10   51.76    3.04
  -2  -2  10   50.66    3.57
   1   2 -10  130.38    6.32
   1   2 -10  128.71    6.73
  -1  -2  10  124.68    6.65
  -1  -2  10  134.48    6.09
   0   2 -10   22.51    2.13
   0   2 -10   24.36    2.21
   0  -2  10   19.13    2.12
   0  -2  10   22.56    1.66
  -1   2 -10  141.12    7.26
   1  -2  10  145.16    6.25
   1  -2  10  138.04    7.02
  -2   2 -10  436.11   18.72
   2  -2  10  418.42   18.16
   2  -2  10  430.90   17.20
  -3   2 -10   17.47    2.15
   3  -2  10   17.43    1.11
   3  -2  10   18.42    1.94
  -4   2 -10   87.64    5.42
   4  -2  10   82.07    4.65
   4  -2  10   85.79    3.50
   4  -2  10   81.81    3.45
  -5   2 -10  113.57    6.88
   5  -2  10  123.49    6.08
  -6   2 -10   -0.23    0.64
   6  -2  10   -0.65    0.54
  -7   2 -10  258.76   13.16
   7  -2  10  269.84   11.78
  -8   2 -10  129.47    7.94
   8  -2  10  129.49    6.49
  -9   2 -10   23.90    3.03
   9  -2  10   25.37    2.30
 -10   2 -10   69.14    5.73
  10  -2  10   81.02    4.46
 -11   2 -10    8.62    2.24
 -12   2 -10   71.04    6.14
  12  -2  10   79.67    4.59
 -13   2 -10  126.88    8.76
  13  -2  10  133.33    6.79
 -14   2 -10    1.00    1.33
  14  -2  10   -0.29    0.68
   8   1 -10   11.30    2.01
  -8  -1  10   16.34    2.15
   7   1 -10  120.06    7.14
  -7  -1  10  135.13    6.87
   6   1 -10   65.03    4.53
  -6  -1  10   67.91    4.23
  -5  -1  10   33.96    2.69
   4   1 -10  112.89    6.34
  -4  -1  10  112.22    6.37
  -4  -1  10  121.05    5.92
   3   1 -10   22.97    2.38
  -3  -1  10   27.30    2.52
  -3  -1  10   25.65    2.05
   2   1 -10   88.09    4.97
   2   1 -10   83.76    4.11
  -2  -1  10   90.04    4.42
  -2  -1  10   77.86    4.82
   1   1 -10  330.99   15.15
   1   1 -10  352.63   14.79
  -1  -1  10  355.52   15.28
  -1  -1  10  355.89   14.54
   0   1 -10   -0.24    0.47
   0   1 -10    0.25    0.50
   0  -1  10   -0.74    0.54
   0  -1  10    0.59    0.39
  -1   1 -10  182.47    8.55
  -1   1 -10  182.78    8.34
   1  -1  10  161.98    8.18
   1  -1  10  169.86    7.44
  -2   1 -10  154.79    7.68
   2  -1  10  144.75    6.29
   2  -1  10  144.91    7.16
  -3   1 -10    3.59    1.14
   3  -1  10    1.53    0.34
   3  -1  10    1.31    0.61
  -4   1 -10  104.96    6.27
   4  -1  10  109.67    4.43
   4  -1  10  104.66    4.37
   4  -1  10  113.97    5.60
  -5   1 -10  115.33    6.78
   5  -1  10  117.98    5.88
  -6   1 -10   88.44    5.84
   6  -1  10   92.65    4.85
  -7   1 -10  247.65   12.79
   7  -1  10  269.85   11.47
  -8   1 -10   52.68    4.43
   8  -1  10   50.43    3.26
  -9   1 -10   15.04    2.39
   9  -1  10   14.80    1.75
 -10   1 -10   28.87    3.49
  10  -1  10   31.31    2.44
 -11   1 -10    0.89    1.27
  11  -1  10    0.95    0.75
 -12   1 -10  128.19    8.66
  12  -1  10  142.52    6.94
 -13   1 -10   85.91    6.86
  13  -1  10   97.21    5.19
 -14   1 -10    3.46    1.67
  14  -1  10    2.74    1.05
   8   0 -10   -0.36    0.77
  -8   0  10    1.63    1.04
   7   0 -10   67.51    4.70
  -7   0  10   67.99    4.33
   6   0 -10    5.51    1.44
   5   0 -10   60.33    4.30
  -5   0  10   71.91    4.07
   4   0 -10   92.91    5.46
  -4   0  10   98.72    5.09
   3   0 -10   15.17    1.89
  -3   0  10   15.74    1.18
  -3   0  10   16.60    1.62
   2   0 -10  166.56    7.28
   2   0 -10  160.07    7.99
  -2   0  10  174.99    8.02
  -2   0  10  159.88    8.05
   1   0 -10  147.06    7.43
   1   0 -10  159.16    7.14
  -1   0  10  151.05    6.88
  -1   0  10  152.70    7.51
   0   0 -10    9.49    1.31
   0   0 -10    7.26    1.20
   0   0  10   11.75    1.12
   0   0  10    8.75    1.38
  -1   0 -10  341.10   14.69
  -1   0 -10  352.51   14.99
   1   0  10  335.89   14.67
   1   0  10  335.00   13.90
  -2   0 -10   50.39    3.55
   2   0  10   50.80    3.12
   2   0  10   45.60    2.41
  -3   0 -10  179.98    8.84
   3   0  10  168.48    7.15
   3   0  10  175.51    8.09
  -4   0 -10  130.03    7.04
   4   0  10  123.03    5.11
   4   0  10  126.01    6.17
   5   0  10  113.76    5.66
  -6   0 -10  233.28   11.61
   6   0  10  233.01   10.30
  -7   0 -10  165.93    9.14
   7   0  10  172.84    7.84
  -8   0 -10   32.10    3.26
   8   0  10   33.19    2.35
  -9   0 -10  272.80   13.83
   9   0  10  278.85   12.02
 -10   0 -10   63.35    5.21
  10   0  10   75.07    4.03
 -11   0 -10    3.43    1.60
  11   0  10    4.03    0.95
 -12   0 -10  136.38    8.93
  12   0  10  149.29    7.05
 -13   0 -10   33.87    4.14
  13   0  10   42.12    2.94
 -14   0 -10   34.00    4.18
  14   0  10   36.85    2.87
   9  -1 -10   11.42    2.06
  -9   1  10   11.01    1.86
   8  -1 -10   45.53    3.86
  -8   1  10   53.89    3.75
   7  -1 -10   62.92    4.54
  -7   1  10   67.19    4.24
   6  -1 -10    4.87    1.62
  -6   1  10    8.92    1.40
   5  -1 -10  119.49    6.73
  -5   1  10  135.92    6.50
   4  -1 -10   33.29    2.82
  -4   1  10   37.71    2.59
   3  -1 -10    4.17    0.99
  -3   1  10    4.38    0.57
  -3   1  10    3.79    0.87
   2  -1 -10  528.06   20.04
   2  -1 -10  487.75   20.68
  -2   1  10  427.88   19.95
  -2   1  10  527.46   20.72
   1  -1 -10  187.86    8.88
   1  -1 -10  195.72    8.61
  -1   1  10  197.80    8.41
  -1   1  10  182.32    8.85
   0  -1 -10  111.58    5.80
   0  -1 -10  118.53    5.86
   0   1  10  113.00    5.85
   0   1  10  117.71    5.33
  -1  -1 -10  362.86   15.48
   1   1  10  348.69   14.49
  -2  -1 -10   37.31    2.95
   2   1  10   42.41    2.72
   2   1  10   36.95    2.04
  -3  -1 -10   88.07    5.09
   3   1  10   81.21    3.65
   3   1  10   78.81    4.35
  -4  -1 -10  529.93   22.25
   4   1  10  497.10   21.10
   4   1  10  530.91   20.29
   4   1  10  498.25   20.20
  -5  -1 -10    1.79    1.01
   5   1  10    1.80    0.22
   5   1  10    1.08    0.69
  -6  -1 -10  301.04   14.31
   6   1  10  306.43   13.05
  -7  -1 -10  207.24   10.83
   7   1  10  218.80    9.46
  -8  -1 -10    2.74    1.24
   8   1  10    3.15    0.78
  -9  -1 -10  183.57   10.17
   9   1  10  192.73    8.51
 -10  -1 -10   18.78    2.93
  10   1  10   21.68    1.86
 -11  -1 -10   59.18    5.12
  11   1  10   63.35    3.62
  12   1  10  180.09    8.32
 -13  -1 -10   20.09    3.21
 -14  -1 -10   41.00    4.36
  14   1  10   50.60    3.34
 -15  -1 -10   71.09    6.20
  15   1  10   77.11    4.51
   9  -2 -10   -0.31    0.62
  -9   2  10   -0.75    0.79
   8  -2 -10  110.82    6.65
  -8   2  10  118.17    6.32
   7  -2 -10  159.84    8.43
  -7   2  10  163.61    8.03
   6  -2 -10    0.55    0.72
  -6   2  10    0.78    0.75
   5  -2 -10   70.49    4.49
  -5   2  10   74.67    4.23
   4  -2 -10   39.70    3.07
  -4   2  10   42.96    2.82
   3  -2 -10   82.79    4.79
  -3   2  10   82.25    4.03
  -3   2  10   96.15    4.63
   2  -2 -10  240.40   11.13
   2  -2 -10  245.63   11.72
  -2   2  10  261.65   10.84
   1  -2 -10   83.85    4.68
   1  -2 -10   88.46    4.53
  -1   2  10   87.56    4.34
  -1   2  10   87.87    4.74
   0  -2 -10  410.16   17.33
   0  -2 -10  392.85   16.81
   0   2  10  382.49   17.27
   0   2  10  403.32   16.30
  -1  -2 -10  513.89   21.69
  -1  -2 -10  512.83   21.31
   1   2  10  533.89   20.84
   1   2  10  508.72   21.34
  -2  -2 -10   14.08    1.71
  -2  -2 -10   13.13    1.37
   2   2  10   11.95    1.44
   2   2  10   14.44    1.12
  -3  -2 -10  149.22    7.80
   3   2  10  154.60    7.11
   3   2  10  157.00    6.53
  -4  -2 -10  200.93    9.80
   4   2  10  199.99    8.78
   4   2  10  192.27    8.09
  -5  -2 -10   35.04    3.15
   5   2  10   36.04    2.40
   5   2  10   36.99    1.76
   5   2  10   37.11    1.74
  -6  -2 -10  305.94   14.08
   6   2  10  300.35   11.60
   6   2  10  271.50   11.53
   6   2  10  297.96   12.45
  -7  -2 -10   82.68    5.29
   7   2  10   66.48    2.98
   7   2  10   79.64    3.93
  -8  -2 -10   61.99    4.59
   8   2  10   52.02    2.19
  -9  -2 -10  138.30    8.07
   9   2  10  151.52    6.45
   9   2  10  122.72    5.39
 -10  -2 -10   10.53    2.22
 -10  -2 -10   15.39    0.82
  10   2  10   14.60    1.48
 -11  -2 -10  138.24    5.99
 -11  -2 -10  129.89    8.36
  11   2  10  143.06    6.54
 -12  -2 -10   62.20    5.46
  12   2  10   73.22    3.89
 -13  -2 -10   -0.73    0.97
 -14  -2 -10   83.44    6.74
  14   2  10   95.51    4.96
 -15  -2 -10   30.50    3.94
  15   2  10   33.66    2.62
   9  -3 -10    0.87    0.96
  -9   3  10    1.78    1.01
   8  -3 -10   80.18    5.39
  -8   3  10   89.16    5.13
   7  -3 -10   44.72    3.61
  -7   3  10   47.80    3.38
   6  -3 -10   29.60    2.76
  -6   3  10   32.72    2.62
   5  -3 -10   84.45    5.12
  -5   3  10   94.50    4.93
   4  -3 -10   23.05    2.21
  -4   3  10   22.17    1.40
  -4   3  10   21.04    1.95
   3  -3 -10  186.61    8.81
  -3   3  10  195.25    8.54
  -3   3  10  180.56    8.11
   2  -3 -10  368.54   14.11
   2  -3 -10  321.81   14.31
  -2   3  10  334.88   14.03
  -2   3  10  303.90   13.98
   1  -3 -10   41.59    2.67
  -1   3  10   41.60    2.48
  -1   3  10   35.70    2.65
   0  -3 -10  265.80   11.45
   0  -3 -10  250.18   11.17
   0   3  10  255.86   11.25
   0   3  10  253.71   10.86
  -1  -3 -10  259.42   11.50
  -1  -3 -10  253.02   11.02
   1   3  10  248.52   11.03
   1   3  10  255.69   10.70
  -2  -3 -10   46.57    2.87
  -2  -3 -10   51.83    2.61
  -2  -3 -10   49.87    3.39
   2   3  10   47.41    2.92
   2   3  10   47.46    2.57
  -3  -3 -10  555.15   23.78
  -3  -3 -10  593.53   22.45
   3   3  10  557.83   22.86
   3   3  10  543.03   22.42
  -4  -3 -10   89.39    5.28
  -4  -3 -10   90.15    3.89
   4   3  10   81.59    4.26
   4   3  10   81.48    3.87
  -5  -3 -10  158.21    6.34
  -5  -3 -10  143.72    7.92
   5   3  10  147.63    6.78
  -6  -3 -10  119.42    7.05
  -6  -3 -10  124.07    5.23
   6   3  10  126.49    5.75
  -7  -3 -10   59.40    2.65
  -7  -3 -10   52.09    4.22
   7   3  10   55.99    3.09
  -8  -3 -10  111.96    4.78
  -8  -3 -10  110.06    6.77
   8   3  10  111.37    5.26
  -9  -3 -10  163.76    6.63
  -9  -3 -10  154.24    8.83
   9   3  10  152.64    7.66
 -10  -3 -10   27.45    3.18
 -10  -3 -10   24.61    1.52
  10   3  10   25.40    1.87
 -11  -3 -10  268.78   14.08
 -11  -3 -10  284.76   11.72
  11   3  10  281.99   11.91
 -12  -3 -10   52.12    4.77
 -12  -3 -10   51.18    2.80
  12   3  10   55.93    3.17
 -13  -3 -10   17.59    2.89
  13   3  10   18.51    1.78
 -14  -3 -10   52.54    5.01
 -15  -3 -10   22.20    3.44
  15   3  10   28.90    2.38
   9  -4 -10    9.32    1.81
  -9   4  10   11.97    1.88
   8  -4 -10   60.53    4.37
  -8   4  10   59.38    4.02
   7  -4 -10    7.05    1.49
  -7   4  10    6.04    1.31
   6  -4 -10  103.97    5.97
  -6   4  10  109.66    5.73
   5  -4 -10  121.37    6.69
  -5   4  10  128.89    6.49
  -5   4  10  136.84    5.74
   4  -4 -10    1.67    0.77
  -4   4  10    0.52    0.60
   3  -4 -10  164.34    8.15
  -3   4  10  172.13    7.76
  -3   4  10  182.88    8.04
   2  -4 -10  113.82    5.58
  -2   4  10  102.25    5.36
   1  -4 -10   34.52    2.44
   1  -4 -10   36.70    2.54
   1  -4 -10   36.89    2.31
  -1   4  10   31.65    2.24
  -1   4  10   32.84    2.49
   0  -4 -10  358.07   14.77
   0  -4 -10  362.41   15.02
   0  -4 -10  369.05   15.39
   0   4  10  331.99   15.41
   0   4  10  359.96   14.80
  -1  -4 -10  217.35    9.16
  -1  -4 -10  207.39    9.34
  -1  -4 -10  217.73    9.95
   1   4  10  213.46    9.18
   1   4  10  212.50    9.42
  -2  -4 -10   47.99    2.63
  -2  -4 -10   47.33    2.81
  -2  -4 -10   52.88    3.49
   2   4  10   50.23    2.89
   2   4  10   45.58    2.64
  -3  -4 -10  318.31   14.56
  -3  -4 -10  334.47   13.35
   3   4  10  323.49   13.60
  -4  -4 -10   21.10    2.22
  -4  -4 -10   21.41    1.45
   4   4  10   23.26    1.67
  -5  -4 -10  299.66   13.16
  -5  -4 -10  321.66   14.68
   5   4  10  335.05   13.28
  -6  -4 -10  228.70   11.36
   6   4  10  232.52    9.80
  -7  -4 -10    7.02    1.61
   7   4  10    6.07    1.13
  -8  -4 -10   94.08    4.16
  -8  -4 -10   84.29    5.80
   8   4  10   86.87    4.26
  -9  -4 -10   80.13    3.84
  -9  -4 -10   76.16    5.57
   9   4  10   85.67    4.04
 -10  -4 -10   85.61    4.08
 -10  -4 -10   82.21    5.89
 -11  -4 -10  368.24   15.15
 -11  -4 -10  350.60   17.49
  11   4  10  381.12   15.26
 -12  -4 -10   56.46    3.22
 -12  -4 -10   58.08    4.99
  12   4  10   60.56    3.32
 -13  -4 -10   43.14    4.27
 -13  -4 -10   44.48    2.81
  13   4  10   46.71    2.87
 -14  -4 -10   99.71    7.29
  14   4  10  106.26    5.26
  15   4  10   23.42    2.04
   9  -5 -10   25.16    2.94
  -9   5  10   30.10    2.66
   8  -5 -10   59.22    4.27
  -8   5  10   59.03    3.95
   7  -5 -10   -1.07    0.68
  -7   5  10   -1.13    0.56
   6  -5 -10  100.84    5.79
  -6   5  10  107.90    5.67
   5  -5 -10   91.93    5.39
  -5   5  10  102.79    5.35
  -5   5  10  100.78    4.79
   4  -5 -10   12.07    1.56
  -4   5  10   14.75    1.42
  -4   5  10   14.60    1.68
   3  -5 -10  290.79   13.16
  -3   5  10  308.52   12.98
  -3   5  10  306.54   13.04
   2  -5 -10   25.65    1.96
  -2   5  10   22.66    1.92
  -2   5  10   23.20    2.02
   1  -5 -10   95.98    4.90
   1  -5 -10  110.30    5.41
   1  -5 -10  101.67    5.05
  -1   5  10   92.95    5.26
  -1   5  10   96.13    4.91
   0  -5 -10  376.14   15.68
   0  -5 -10  397.39   16.37
   0  -5 -10  370.09   15.77
   0   5  10  360.56   16.40
   0   5  10  387.60   15.75
  -1  -5 -10  170.78    7.34
  -1  -5 -10  169.32    8.09
  -1  -5 -10  165.07    7.38
   1   5  10  164.01    7.34
   1   5  10  166.05    7.44
   1   5  10  150.49    8.09
  -2  -5 -10  259.45   12.01
  -2  -5 -10  266.29   11.06
  -2  -5 -10  254.82   11.09
   2   5  10  268.17   11.17
  -3  -5 -10  338.78   15.18
  -3  -5 -10  340.48   14.00
   3   5  10  338.92   14.05
  -4  -5 -10    1.46    0.86
  -4  -5 -10    3.57    0.67
   4   5  10    1.87    0.52
  -5  -5 -10  249.19   13.03
  -5  -5 -10  263.04   10.84
   5   5  10  263.57   10.82
  -6  -5 -10  133.39    5.89
  -6  -5 -10  128.32    7.30
   6   5  10  131.53    5.81
  -7  -5 -10    6.12    0.87
  -7  -5 -10    5.95    1.54
   7   5  10    6.40    0.88
  -8  -5 -10  251.39   12.61
  -8  -5 -10  256.55   10.76
   8   5  10  256.85   10.63
  -9  -5 -10   12.29    1.27
  -9  -5 -10   13.23    2.31
   9   5  10   13.96    1.21
 -10  -5 -10   78.18    5.82
 -10  -5 -10   89.61    4.35
  10   5  10   88.51    4.16
 -11  -5 -10  244.35   13.30
  11   5  10  280.99   11.53
 -12  -5 -10    3.73    1.45
 -12  -5 -10    2.67    0.78
  12   5  10    3.28    0.74
 -13  -5 -10   42.83    4.27
 -13  -5 -10   36.60    2.72
  13   5  10   38.11    2.46
 -14  -5 -10   93.60    6.89
  14   5  10   91.52    4.70
   9  -6 -10   60.69    4.49
  -9   6  10   63.56    4.29
   8  -6 -10   41.45    3.55
  -8   6  10   47.14    3.49
  -7   6  10   12.53    1.82
   6  -6 -10  100.75    5.86
  -6   6  10  105.75    5.74
  -6   6  10  111.29    5.30
   5  -6 -10   47.64    3.42
  -5   6  10   51.98    3.40
   4  -6 -10   85.23    4.90
   4  -6 -10   90.61    4.92
  -4   6  10   91.39    4.88
  -4   6  10   88.26    4.66
   3  -6 -10  242.38   11.07
   3  -6 -10  255.73   11.10
  -3   6  10  248.33   11.06
  -3   6  10  249.76   11.05
   2  -6 -10    3.71    0.91
   2  -6 -10    3.33    0.83
  -2   6  10    4.27    0.94
   1  -6 -10  261.27   11.17
   1  -6 -10  263.11   11.20
  -1   6  10  250.32   11.14
  -1   6  10  253.36   11.67
   0  -6 -10  491.86   20.06
   0  -6 -10  512.58   20.78
   0  -6 -10  487.57   19.99
   0   6  10  461.41   20.75
  -1  -6 -10   90.86    4.48
  -1  -6 -10   90.95    4.39
  -1  -6 -10   94.33    5.22
   1   6  10   90.68    4.45
   1   6  10   79.46    5.11
  -2  -6 -10   64.85    3.53
  -2  -6 -10   69.59    3.49
  -2  -6 -10   71.12    4.40
   2   6  10   70.51    3.52
   2   6  10   61.82    4.34
  -3  -6 -10   89.83    5.38
  -3  -6 -10   86.59    4.39
   3   6  10   94.08    4.30
  -4  -6 -10   88.64    5.37
  -4  -6 -10   87.40    4.26
   4   6  10   83.05    4.01
  -5  -6 -10  536.89   23.39
  -5  -6 -10  546.29   21.95
   5   6  10  542.27   21.64
  -6  -6 -10  223.74    9.67
  -6  -6 -10  226.64   11.18
   6   6  10  224.64    9.33
  -7  -6 -10   29.54    1.96
  -7  -6 -10   29.08    3.02
   7   6  10   26.10    1.63
  -8  -6 -10   98.03    4.84
  -8  -6 -10   99.64    6.36
   8   6  10   99.43    4.45
  -9  -6 -10   13.86    2.18
  -9  -6 -10   15.28    1.51
   9   6  10   15.18    1.18
 -10  -6 -10   91.08    6.30
 -10  -6 -10   98.53    4.91
  10   6  10   96.22    4.41
 -11  -6 -10   85.97    6.22
  11   6  10   90.53    4.22
 -12  -6 -10    4.60    1.04
 -12  -6 -10    5.28    1.99
  12   6  10    5.41    0.83
 -13  -6 -10  173.29    8.06
 -13  -6 -10  160.89    9.78
  13   6  10  166.82    7.44
 -14  -6 -10   68.97    5.75
   9  -7 -10   97.75    6.13
  -9   7  10  107.18    6.04
   8  -7 -10   25.71    2.76
  -8   7  10   26.52    2.64
  -7   7  10   22.26    2.24
   6  -7 -10   72.39    4.60
  -6   7  10   74.78    4.54
  -6   7  10   78.08    4.28
   5  -7 -10    6.04    1.26
   5  -7 -10    6.27    1.28
  -5   7  10    8.11    1.31
  -5   7  10    7.20    1.35
   4  -7 -10  245.56   11.32
   4  -7 -10  251.99   11.39
  -4   7  10  252.81   11.36
  -4   7  10  258.76   11.32
   3  -7 -10  111.32    5.69
   3  -7 -10  105.93    5.55
  -3   7  10  108.50    5.74
  -3   7  10  111.01    5.67
   2  -7 -10   16.30    1.74
   2  -7 -10   16.00    1.72
  -2   7  10   16.51    1.86
  -2   7  10   17.22    1.77
   1  -7 -10  440.19   18.22
   1  -7 -10  449.42   18.39
  -1   7  10  430.03   18.90
   0  -7 -10  301.94   12.99
   0  -7 -10  338.86   13.86
   0  -7 -10  280.83   12.70
   0   7  10  292.74   13.70
  -1  -7 -10   10.13    1.07
  -1  -7 -10   10.87    1.30
  -1  -7 -10   10.61    1.71
   1   7  10    6.86    1.46
   1   7  10   10.94    1.14
  -2  -7 -10  191.69    8.18
  -2  -7 -10  199.71    9.49
  -2  -7 -10  189.30    8.49
   2   7  10  194.04    8.21
   2   7  10  176.29    9.41
  -3  -7 -10   54.80    3.10
   3   7  10   48.46    4.42
   3   7  10   55.98    2.78
  -4  -7 -10   53.34    3.96
  -4  -7 -10   53.45    3.08
   4   7  10   52.87    2.82
   4   7  10   50.93    3.95
  -5  -7 -10  193.83    9.63
  -5  -7 -10  192.65    8.31
   5   7  10  170.55    8.21
  -6  -7 -10    4.29    1.31
  -6  -7 -10    2.90    0.85
  -7  -7 -10  229.77    9.98
  -7  -7 -10  224.37   11.44
  -8  -7 -10   74.91    5.33
  -8  -7 -10   76.00    4.10
   8   7  10   75.03    3.39
  -9  -7 -10    1.78    1.20
  -9  -7 -10    2.89    0.81
   9   7  10    2.52    0.45
 -10  -7 -10  151.53    8.85
 -10  -7 -10  157.17    7.27
  10   7  10  146.43    6.43
 -11  -7 -10   90.94    4.68
 -11  -7 -10   76.28    5.83
  11   7  10   79.12    3.81
 -12  -7 -10    5.66    1.17
 -12  -7 -10    4.68    1.88
  12   7  10    4.43    0.71
 -13  -7 -10  134.72    8.33
 -13  -7 -10  131.23    6.59
  13   7  10  113.99    5.69
 -14  -7 -10   15.84    2.84
 -14  -7 -10   16.00    2.11
   9  -8 -10   70.10    4.74
  -9   8  10   65.26    4.51
   8  -8 -10   -1.54    0.64
  -8   8  10   -0.45    0.72
  -7   8  10   50.11    3.57
  -7   8  10   49.84    3.46
   6  -8 -10  144.12    7.39
   6  -8 -10  145.75    8.04
  -6   8  10  131.46    7.83
  -6   8  10  149.67    7.25
   5  -8 -10   -0.24    0.60
   5  -8 -10   -1.05    0.50
  -5   8  10   -0.31    0.64
  -5   8  10   -0.19    0.66
   4  -8 -10  242.55   11.15
   4  -8 -10  252.78   11.34
  -4   8  10  253.25   11.36
  -4   8  10  243.51   11.24
   3  -8 -10  209.20    9.53
   3  -8 -10  198.35    9.27
  -3   8  10  201.96    9.47
  -3   8  10  206.61    9.68
   2  -8 -10   14.87    1.72
   2  -8 -10   15.74    1.66
  -2   8  10   13.51    1.82
  -2   8  10   13.84    1.69
   1  -8 -10  216.03    9.76
   1  -8 -10  230.41   10.12
  -1   8  10  225.35   10.77
   0  -8 -10   28.69    2.00
   0  -8 -10   31.81    2.35
  -1  -8 -10  106.85    5.22
  -1  -8 -10  130.98    7.34
   1   8  10  114.20    5.31
   1   8  10  111.76    7.21
  -2  -8 -10  623.16   24.26
  -2  -8 -10  596.34   24.79
  -2  -8 -10  641.03   25.94
   2   8  10  572.00   25.83
   2   8  10  604.10   24.24
  -3  -8 -10   66.59    4.57
  -3  -8 -10   66.96    3.72
   3   8  10   64.04    3.10
   3   8  10   66.38    4.64
  -4  -8 -10   68.53    3.76
  -4  -8 -10   68.20    4.70
   4   8  10   64.19    4.74
   4   8  10   66.33    3.02
  -5  -8 -10  154.88    7.14
  -5  -8 -10  155.11    8.28
   5   8  10  146.61    6.21
   5   8  10  150.70    8.44
  -6  -8 -10    8.34    1.24
  -6  -8 -10    9.24    1.89
   6   8  10    6.40    1.69
   6   8  10   12.25    1.15
   6   8  10    8.46    0.64
  -7  -8 -10  155.68    8.46
   7   8  10  150.91    8.62
   7   8  10  143.46    6.06
  -8  -8 -10   57.25    3.43
  -8  -8 -10   57.44    4.55
   8   8  10   50.05    4.39
   8   8  10   55.19    2.47
  -9  -8 -10   45.62    3.13
  -9  -8 -10   44.30    4.13
   9   8  10   50.34    2.55
 -10  -8 -10  149.43    7.21
 -10  -8 -10  139.32    8.57
  10   8  10  148.17    6.16
 -11  -8 -10   27.43    2.54
 -11  -8 -10   27.57    3.31
 -12  -8 -10   48.84    3.53
 -12  -8 -10   47.28    4.52
 -13  -8 -10   82.32    4.83
 -13  -8 -10   75.42    6.00
  13   8  10   71.29    5.70
   9  -9 -10   83.79    5.44
  -9   9  10   86.40    5.32
   8  -9 -10   -0.96    0.86
  -8   9  10   -1.12    0.64
  -8   9  10   -0.54    0.63
   7  -9 -10   69.52    5.18
  -7   9  10   78.05    4.79
  -7   9  10   81.49    4.81
   6  -9 -10   86.74    5.31
   6  -9 -10  101.45    5.61
  -6   9  10   96.28    5.54
  -6   9  10   95.69    5.48
   5  -9 -10   16.70    2.04
   5  -9 -10   17.53    2.10
  -5   9  10   17.82    2.16
  -5   9  10   20.05    2.19
   4  -9 -10  154.42    7.79
   4  -9 -10  151.16    7.52
  -4   9  10  158.99    7.79
  -4   9  10  160.03    7.96
   3  -9 -10   24.42    2.28
   3  -9 -10   22.40    2.01
  -3   9  10   24.35    2.47
  -3   9  10   22.01    2.10
   2  -9 -10  116.07    6.10
   2  -9 -10  114.63    5.77
  -2   9  10  123.96    6.57
   1  -9 -10  374.65   15.91
   1  -9 -10  379.25   16.38
  -1   9  10  395.08   17.09
   0  -9 -10   10.65    1.13
   0  -9 -10    9.87    1.42
   0   9  10   10.78    1.85
  -1  -9 -10   53.35    2.71
  -1  -9 -10   48.20    3.19
   1   9  10   49.53    3.79
  -2  -9 -10  157.80    7.82
  -2  -9 -10  184.97    9.01
  -2  -9 -10  171.02    7.14
   2   9  10  162.79    7.10
   2   9  10  165.46    8.84
  -3  -9 -10   10.32    1.44
  -3  -9 -10   12.89    2.09
   3   9  10   10.20    0.79
   3   9  10    9.08    1.85
  -4  -9 -10  288.09   12.07
  -4  -9 -10  288.31   13.24
   4   9  10  279.12   13.35
   4   9  10  243.18   10.78
  -5  -9 -10  134.19    7.65
  -5  -9 -10  135.53    6.54
   5   9  10  126.32    7.62
   5   9  10  131.27    5.18
  -6  -9 -10   14.04    1.66
  -6  -9 -10    9.80    2.01
   6   9  10   13.14    2.13
  -7  -9 -10   94.78    5.21
  -7  -9 -10  101.11    6.43
   7   9  10   98.66    6.50
  -8  -9 -10    8.51    2.01
  -8  -9 -10   15.05    2.00
   8   9  10   11.14    2.35
  -9  -9 -10   72.41    4.31
  -9  -9 -10   71.15    5.46
   9   9  10   70.84    5.45
 -10  -9 -10  171.67    8.29
 -10  -9 -10  168.20    9.64
  10   9  10  165.43    9.72
 -11  -9 -10    0.44    0.96
 -11  -9 -10   -0.34    0.75
  11   9  10   -0.34    0.97
 -12  -9 -10   59.92    5.20
 -12  -9 -10   58.20    4.13
  12   9  10   62.55    5.13
 -13  -9 -10   76.11    4.81
 -13  -9 -10   78.85    6.11
  13   9  10   72.39    5.76
   8 -10 -10   -0.17    0.82
  -8  10  10   -0.72    0.74
  -8  10  10   -0.92    0.67
   7 -10 -10   74.98    4.81
   7 -10 -10   78.96    5.07
  -7  10  10   77.79    5.00
  -7  10  10   78.91    4.97
   6 -10 -10   16.40    2.21
   6 -10 -10   20.03    2.21
  -6  10  10   17.82    2.33
  -6  10  10   17.86    2.26
   5 -10 -10   47.56    3.37
  -5  10  10   52.54    3.76
   4 -10 -10  179.31    8.78
   4 -10 -10  171.85    8.38
  -4  10  10  173.67    8.69
  -4  10  10  187.32    9.10
   3 -10 -10   -0.98    0.59
   3 -10 -10   -0.22    0.57
  -3  10  10    0.27    0.73
   2 -10 -10  203.19    9.91
   2 -10 -10  207.31    9.46
  -2  10  10  230.09   10.61
   1 -10 -10  169.79    7.57
   1 -10 -10  158.87    8.06
  -1  10  10  174.24    8.77
   0 -10 -10    2.36    0.92
   0 -10 -10    3.27    0.65
   0  10  10    3.30    1.24
  -1 -10 -10  216.33   10.19
   1  10  10  230.21   11.17
  -2 -10 -10   74.14    4.33
   2  10  10   71.25    3.29
   2  10  10   77.25    5.18
  -3 -10 -10  132.20    6.22
   3  10  10  115.55    4.67
   3  10  10  132.87    7.30
   3  10  10   98.71    4.77
  -4 -10 -10  238.95   11.61
  -4 -10 -10  221.45   10.40
   4  10  10  224.96   11.60
  -5 -10 -10   10.29    2.04
  -5 -10 -10   10.34    1.59
   5  10  10    9.15    1.99
  -6 -10 -10  104.23    6.71
  -6 -10 -10  104.62    5.67
   6  10  10  108.27    6.90
  -7 -10 -10  172.05    8.65
  -7 -10 -10  191.57   10.11
   7  10  10  181.56   10.13
  -8 -10 -10    2.67    0.98
  -8 -10 -10    4.75    1.52
   8  10  10    2.01    1.36
  -9 -10 -10  117.45    6.42
  -9 -10 -10  124.53    7.74
   9  10  10  119.02    7.75
 -10 -10 -10   73.63    5.66
 -10 -10 -10   73.15    4.62
  10  10  10   65.12    5.47
 -11 -10 -10    8.11    2.12
  11  10  10    5.42    1.82
 -12 -10 -10   75.15    5.90
 -12 -10 -10   71.14    4.74
  12  10  10   66.44    5.51
   8 -11 -10   13.95    2.06
   8 -11 -10   13.22    2.13
  -8  11  10   16.84    2.37
  -8  11  10   12.93    2.08
   7 -11 -10   74.24    4.78
   7 -11 -10   76.09    5.07
  -7  11  10   79.75    5.08
  -7  11  10   78.30    5.20
   6 -11 -10   -1.29    0.64
   6 -11 -10   -0.39    0.84
  -6  11  10    0.48    0.81
  -6  11  10   -0.64    0.84
   5 -11 -10   99.70    5.97
   5 -11 -10  105.36    5.65
  -5  11  10  103.05    6.00
  -5  11  10  109.32    6.29
   4 -11 -10  133.16    6.68
  -4  11  10  133.76    7.39
   3 -11 -10   -0.59    0.48
   3 -11 -10   -0.70    0.54
  -3  11  10    0.09    0.78
   2 -11 -10  276.97   12.84
   2 -11 -10  278.50   12.21
  -2  11  10  297.43   13.56
   1 -11 -10  127.17    6.76
   1 -11 -10  133.63    6.07
  -1  11  10  129.35    7.39
   0 -11 -10    1.70    0.48
   0 -11 -10    0.69    0.74
   0  11  10    2.42    1.23
  -1 -11 -10  199.08    9.43
  -1 -11 -10  196.53    8.23
   1  11  10  189.20    8.21
   1  11  10  211.85   10.41
  -2 -11 -10   47.83    3.27
   2  11  10   48.43    3.96
   2  11  10   36.99    1.79
  -3 -11 -10  140.30    7.24
   3  11  10  146.77    8.28
  -4 -11 -10  399.58   17.49
   4  11  10  410.71   18.77
  -5 -11 -10   30.38    2.74
   5  11  10   33.79    3.55
  -6 -11 -10   15.95    2.03
  -6 -11 -10   15.81    2.66
   6  11  10   14.32    2.60
  -7 -11 -10   66.42    4.34
  -7 -11 -10   68.43    5.37
   7  11  10   72.95    5.60
  -8 -11 -10    4.60    1.23
  -8 -11 -10    3.83    1.89
   8  11  10    2.20    1.50
  -9 -11 -10  168.90    8.71
  -9 -11 -10  179.39   10.10
   9  11  10  170.83   10.03
 -10 -11 -10   17.38    2.33
 -10 -11 -10   23.68    3.28
  10  11  10   17.83    2.95
 -11 -11 -10   10.70    2.41
 -11 -11 -10   12.81    2.03
  11  11  10   10.85    2.38
   7 -12 -10   77.21    4.86
   7 -12 -10   76.69    5.09
  -7  12  10   77.47    5.46
  -7  12  10   81.95    5.22
   6 -12 -10   -0.17    0.62
   6 -12 -10    0.01    0.90
  -6  12  10   -0.16    0.87
   5 -12 -10   71.26    4.76
   5 -12 -10   73.08    4.35
  -5  12  10   70.90    4.99
  -5  12  10   70.36    4.69
   4 -12 -10   26.29    2.74
   4 -12 -10   31.27    2.50
  -4  12  10   28.83    3.08
   3 -12 -10   47.60    3.67
   3 -12 -10   57.32    3.40
  -3  12  10   59.40    4.45
   2 -12 -10  167.86    8.82
   2 -12 -10  178.76    8.15
  -2  12  10  192.88    9.68
   1 -12 -10   56.97    4.09
   1 -12 -10   67.24    3.42
  -1  12  10   65.04    4.73
   0 -12 -10   56.65    3.99
   0  12  10   62.86    4.71
  -1 -12 -10  171.40    8.94
   1  12  10  197.91   10.04
  -2 -12 -10    0.50    0.62
   2  12  10   -0.73    0.92
  -3 -12 -10   82.02    5.05
   3  12  10   87.82    5.86
  -4 -12 -10  109.36    6.24
   4  12  10  118.74    7.30
  -5 -12 -10    3.73    1.12
   5  12  10    2.95    1.43
  -6 -12 -10  161.67    8.12
   6  12  10  149.72    9.28
  -7 -12 -10   80.31    5.01
   7  12  10   76.54    6.09
  -8 -12 -10   29.69    2.94
   8  12  10   32.54    3.65
  -9 -12 -10   99.50    6.12
   9  12  10  109.92    7.36
 -10 -12 -10   19.15    2.50
  10  12  10   21.67    3.24
   6 -13 -10    0.50    0.96
  -6  13  10    1.37    0.99
  -6  13  10   -0.09    1.02
   5 -13 -10   65.59    4.03
   5 -13 -10   62.45    4.51
  -5  13  10   69.85    5.02
  -5  13  10   56.25    4.24
   4 -13 -10   30.07    3.03
   4 -13 -10   34.96    2.64
  -4  13  10   34.86    3.54
   3 -13 -10   45.06    3.68
   3 -13 -10   53.55    3.28
  -3  13  10   53.30    4.40
   2 -13 -10  159.25    8.70
   2 -13 -10  173.99    7.85
  -2  13  10  189.98   10.86
   1 -13 -10   16.44    2.18
   1 -13 -10   16.91    1.39
  -1  13  10   15.73    3.99
   0  13  10   51.32    5.08
  -1 -13 -10   67.25    5.01
   1  13  10   69.04    5.23
  -2 -13 -10    0.08    0.80
  -3 -13 -10  112.79    7.01
   4  13  10   46.89    4.37
  -5 -13 -10    9.21    1.76
   5  13  10   10.69    2.29
  -6 -13 -10  115.96    6.74
   6  13  10  122.17    7.84
  -7 -13 -10    8.30    1.78
   7  13  10    7.88    2.22
  -8 -13 -10   72.81    5.00
   8  13  10   73.33    5.76
  -9 -13 -10   39.60    3.62
   9  13  10   43.82    4.49
   5 -14 -10   22.14    2.29
   5 -14 -10   19.30    2.57
  -5  14  10   16.22    2.66
  -5  14  10   19.14    2.49
   4 -14 -10    2.22    0.89
   4 -14 -10    5.01    1.43
  -4  14  10    3.70    1.50
   3 -14 -10   87.04    5.61
  -3  14  10   94.40    6.29
   2 -14 -10   87.11    5.63
  -2  14  10   97.44    6.36
   1 -14 -10    0.10    0.77
  -1  14  10    0.49    1.19
   0 -14 -10  108.42    6.59
   0  14  10  124.88    7.56
  -1 -14 -10    8.06    1.60
   1  14  10   10.16    2.16
  -2 -14 -10   37.95    3.46
   2  14  10   43.28    4.18
  -3 -14 -10  105.60    6.43
   3  14  10  114.90    7.27
  -4 -14 -10   39.40    3.63
   4  14  10   48.55    4.52
  -5 -14 -10   70.49    5.00
   5  14  10   75.90    5.90
  -6 -14 -10  149.45    8.34
   6  14  10  158.34    9.35
  -7 -14 -10    0.39    1.04
   7  14  10   -1.77    1.08
  -8 -14 -10   56.12    4.42
   8  14  10   63.10    5.44
   4 -15 -10    0.11    0.85
  -4  15  10   -0.56    0.98
   3 -15 -10   65.06    4.74
  -3  15  10   75.86    5.69
   2 -15 -10   17.97    2.41
  -2  15  10   18.03    2.95
   1 -15 -10   25.72    2.91
  -1  15  10   29.22    3.62
   0 -15 -10   94.98    6.07
   0  15  10  100.53    6.85
  -1 -15 -10    6.03    1.47
   1  15  10    2.49    1.65
  -2 -15 -10   81.70    5.67
   2  15  10   96.79    6.69
  -3 -15 -10  118.76    7.25
   3  15  10  134.48    8.30
  -4 -15 -10    9.93    2.00
   4  15  10   11.30    2.45
  -5 -15 -10   49.27    4.25
   5  15  10   56.96    5.08
  -6 -15 -10   58.26    4.48
   6  15  10   61.61    5.40
   1 -16 -10   30.44    3.32
  -1  16  10   38.59    4.18
   0 -16 -10   57.58    4.65
   0  16  10   65.53    5.51
  -1 -16 -10    2.43    1.33
   1  16  10   -0.07    1.22
  -2 -16 -10   26.43    3.09
   2  16  10   28.63    3.49
  -3 -16 -10   39.64    3.70
   3  16  10   46.18    4.63
   0  -7  11   63.94    4.50
   0  -7  11   56.74    3.64
   1  -7  11  118.13    6.75
  -2   7 -11    5.53    1.54
   2  -7  11    4.80    1.36
  -3   7 -11   39.72    3.84
   3  -7  11   42.64    3.49
  -4   7 -11   40.52    4.09
   4  -7  11   41.94    3.46
  -5   7 -11   18.12    3.00
   5  -7  11   21.68    2.47
  -6   7 -11   79.83    6.29
   6  -7  11   76.78    4.98
  -7   7 -11    2.62    1.57
   7  -7  11    3.72    1.23
  -8   7 -11   20.40    3.55
   8  -7  11   22.82    2.60
  -2  -6  11   82.70    5.41
  -2  -6  11   79.71    4.74
  -1  -6  11    3.27    0.93
  -1  -6  11    1.83    1.09
   0   6 -11   37.47    4.10
   0  -6  11   41.54    2.77
   0  -6  11   44.03    3.54
  -1   6 -11   18.60    2.51
   1  -6  11   19.43    1.71
   1  -6  11   19.12    2.43
  -2   6 -11   20.96    2.62
   2  -6  11   20.29    2.45
  -3   6 -11   69.39    5.13
   3  -6  11   72.07    4.69
  -4   6 -11   14.56    2.48
   4  -6  11    9.99    1.70
   5  -6  11   77.38    4.89
  -6   6 -11   57.15    5.09
   6  -6  11   62.33    4.12
  -7   6 -11    2.47    1.49
   7  -6  11    3.91    1.22
  -8   6 -11   38.37    4.23
   8  -6  11   39.94    3.29
  -9   6 -11   19.35    3.38
   9  -6  11   24.36    2.57
 -10   6 -11   12.31    2.81
  10  -6  11   10.92    1.84
  -3  -5  11   72.59    5.02
  -3  -5  11   74.68    4.49
  -2  -5  11    5.96    1.10
  -2  -5  11    4.78    1.33
  -1  -5  11   25.81    2.21
  -1  -5  11   25.71    2.80
   0  -5  11  111.28    6.33
   0  -5  11  107.99    5.43
  -1   5 -11    2.01    1.03
   1  -5  11    1.19    0.97
  -2   5 -11   41.86    3.62
   2  -5  11   39.60    2.44
   2  -5  11   48.15    3.53
  -3   5 -11   56.85    4.55
   3  -5  11   70.18    4.32
  -4   5 -11    0.77    1.02
   4  -5  11    0.56    0.93
  -5   5 -11   90.54    6.28
   5  -5  11   92.94    5.39
  -6   5 -11   42.67    4.23
   6  -5  11   43.65    3.38
  -7   5 -11   17.05    2.92
   7  -5  11   15.77    2.11
  -8   5 -11   69.12    5.90
   8  -5  11   76.23    4.69
  -9   5 -11   38.82    4.55
   9  -5  11   44.14    3.40
 -10   5 -11   13.26    2.91
  10  -5  11   19.37    2.32
 -11   5 -11   30.40    4.35
  11  -5  11   43.05    3.36
   4   4 -11   21.17    2.70
  -4  -4  11   23.27    2.76
  -4  -4  11   25.00    2.37
   3   4 -11   89.40    5.68
  -3  -4  11   93.73    5.19
  -3  -4  11   90.90    5.71
   2   4 -11   -0.74    0.42
  -2  -4  11   -0.32    0.48
  -2  -4  11   -0.05    0.78
   1   4 -11   91.09    4.99
  -1  -4  11   89.90    4.75
  -1  -4  11   90.80    5.52
   0   4 -11  126.54    6.86
   0  -4  11  129.73    6.19
   0  -4  11  138.00    7.18
   1  -4  11    1.69    0.57
  -2   4 -11   78.11    5.12
   2  -4  11   79.03    4.83
   2  -4  11   76.06    3.78
  -3   4 -11   75.65    5.02
   3  -4  11   65.54    3.42
   3  -4  11   73.47    4.53
  -4   4 -11   61.05    4.66
   4  -4  11   59.20    3.93
  -5   4 -11  114.49    7.27
   5  -4  11  123.21    6.44
  -6   4 -11   34.48    3.71
   6  -4  11   37.67    3.43
  -7   4 -11   46.62    4.46
   7  -4  11   46.28    3.48
  -8   4 -11  143.77    9.15
   8  -4  11  152.09    7.62
  -9   4 -11    6.93    2.13
   9  -4  11    8.68    1.56
 -10   4 -11   42.80    4.64
  10  -4  11   50.65    3.63
 -11   4 -11   79.83    6.78
  11  -4  11   88.79    5.18
 -12   4 -11   -0.02    1.16
  12  -4  11   -0.49    0.83
   5   3 -11    6.25    1.52
  -5  -3  11    8.15    1.47
   4   3 -11   82.43    5.39
  -4  -3  11   84.34    4.91
  -4  -3  11   85.11    5.46
   3   3 -11   49.66    3.91
  -3  -3  11   56.66    3.54
  -3  -3  11   52.80    4.02
   2   3 -11    2.89    1.13
  -2  -3  11    3.95    0.93
  -2  -3  11    3.47    1.23
   1   3 -11  138.72    7.99
  -1  -3  11  132.67    6.39
   0   3 -11   91.54    5.26
   0  -3  11   93.62    5.46
  -1   3 -11    2.04    0.96
   1  -3  11    1.36    0.54
   1  -3  11    0.75    0.79
  -2   3 -11  119.47    6.73
   2  -3  11  111.77    5.21
   2  -3  11  120.05    6.32
  -3   3 -11    7.19    1.51
   3  -3  11    6.98    1.26
  -4   3 -11  125.58    7.24
   4  -3  11  118.61    6.40
  -5   3 -11  133.04    7.81
   5  -3  11  132.87    6.85
  -6   3 -11   23.95    3.02
   6  -3  11   25.11    2.39
  -7   3 -11   71.56    5.57
   7  -3  11   72.56    4.36
  -8   3 -11   91.13    6.73
   8  -3  11  106.41    5.57
  -9   3 -11    0.92    1.33
   9  -3  11    0.14    0.72
 -10   3 -11   65.32    5.71
  10  -3  11   67.39    4.25
 -11   3 -11   31.47    3.89
  11  -3  11   35.83    2.97
 -12   3 -11   10.69    2.72
  12  -3  11   18.28    2.19
 -13   3 -11   67.79    6.39
  13  -3  11   79.05    4.76
   6   2 -11   74.47    5.26
  -6  -2  11   75.84    4.83
  -6  -2  11   93.34    5.75
   5   2 -11    2.29    1.10
  -5  -2  11    1.65    0.88
  -5  -2  11    2.94    1.17
   4   2 -11  135.93    7.45
  -4  -2  11  128.48    7.40
  -4  -2  11  143.18    6.92
   3   2 -11   43.21    3.50
  -3  -2  11   43.38    2.92
  -3  -2  11   40.80    3.47
   2   2 -11    8.09    1.54
  -2  -2  11    8.62    1.59
   1   2 -11  135.51    7.34
   1   2 -11  145.58    6.87
  -1  -2  11  133.54    7.31
  -1  -2  11  150.11    6.69
   0   2 -11   46.03    3.29
   0   2 -11   49.23    3.43
   0  -2  11   45.40    2.70
   0  -2  11   47.48    3.46
  -1   2 -11   77.69    4.81
   1  -2  11   77.05    3.81
   1  -2  11   80.17    4.73
  -2   2 -11  173.95    9.08
   2  -2  11  185.74    8.81
   2  -2  11  185.40    7.72
  -3   2 -11    0.31    0.68
   3  -2  11    0.51    0.30
   3  -2  11   -0.14    0.67
  -4   2 -11  178.86    9.41
   4  -2  11  173.30    7.14
   4  -2  11  184.54    8.61
  -5   2 -11  143.19    8.22
   5  -2  11  151.13    7.36
  -6   2 -11    4.77    1.57
   6  -2  11    6.11    1.15
  -7   2 -11   82.50    5.94
   7  -2  11   91.50    4.98
  -8   2 -11   10.30    2.29
   8  -2  11   14.44    1.78
  -9   2 -11   36.45    3.99
   9  -2  11   36.37    2.76
 -10   2 -11  135.49    8.95
  10  -2  11  159.66    8.15
 -11   2 -11   29.29    3.84
  11  -2  11   31.89    2.73
 -12   2 -11    1.82    1.58
  12  -2  11    5.05    1.27
 -13   2 -11   26.46    3.93
  13  -2  11   28.29    2.63
   7   1 -11   58.36    4.52
  -7  -1  11   63.43    4.25
   6   1 -11   61.98    4.52
  -6  -1  11   65.76    4.20
  -6  -1  11   59.38    4.53
   5   1 -11   17.61    2.36
  -5  -1  11   17.08    2.44
  -5  -1  11   14.97    2.06
   4   1 -11  124.88    7.11
  -4  -1  11  135.72    6.65
  -4  -1  11  133.14    7.22
   3   1 -11   32.90    2.87
  -3  -1  11   32.85    2.50
  -3  -1  11   33.39    3.03
   2   1 -11   56.20    2.99
   2   1 -11   50.09    3.74
  -2  -1  11   53.34    3.83
  -2  -1  11   59.93    3.37
   1   1 -11  108.82    6.02
   1   1 -11  110.61    5.57
  -1  -1  11  111.00    6.08
  -1  -1  11  112.01    5.36
   0   1 -11   41.68    3.04
   0   1 -11   42.25    3.13
   0  -1  11   41.34    2.48
   0  -1  11   40.77    3.13
  -1   1 -11  120.43    6.42
   1  -1  11  118.55    6.25
   1  -1  11  116.89    5.35
  -2   1 -11  103.54    5.92
   2  -1  11  100.39    4.53
   2  -1  11   98.56    5.41
  -3   1 -11   46.23    3.70
   3  -1  11   45.81    2.24
   3  -1  11   46.05    3.21
  -4   1 -11  245.50   11.85
   4  -1  11  230.15    9.56
   4  -1  11  249.52   10.96
  -5   1 -11  134.41    7.71
   5  -1  11  135.33    6.75
  -6   1 -11   32.48    3.33
   6  -1  11   29.08    2.48
  -7   1 -11  250.78   13.24
   7  -1  11  284.57   12.00
  -8   1 -11   56.59    4.74
   8  -1  11   60.06    3.71
  -9   1 -11   57.62    5.02
   9  -1  11   63.35    3.81
 -10   1 -11   80.12    6.30
  10  -1  11   89.11    4.85
 -11   1 -11    0.32    1.08
 -12   1 -11   80.54    6.68
  12  -1  11   94.91    5.10
 -13   1 -11   76.78    6.69
  13  -1  11   99.57    5.24
 -14   1 -11   -1.67    0.80
   7   0 -11  130.15    7.64
  -7   0  11  142.97    7.28
   6   0 -11   89.12    5.71
  -6   0  11   94.63    5.34
   5   0 -11   26.41    2.86
  -5   0  11   31.93    2.63
  -4   0  11   48.11    3.23
   3   0 -11    0.21    0.61
  -3   0  11   -0.63    0.46
  -3   0  11   -0.98    0.58
   2   0 -11  157.12    7.81
   2   0 -11  163.29    6.90
  -2   0  11  161.26    7.21
  -2   0  11  134.29    6.81
  -2   0  11  155.61    7.86
   1   0 -11  235.08   10.37
   1   0 -11  217.64   10.72
  -1   0  11  246.14   10.60
  -1   0  11  237.91   10.92
   0   0 -11    1.52    0.76
   0   0 -11    1.72    0.74
   0   0  11    1.26    0.48
   0   0  11    1.15    0.76
  -1   0 -11  161.22    7.82
  -1   0 -11  154.67    7.56
   1   0  11  154.03    6.75
   1   0  11  145.36    7.50
  -2   0 -11   17.08    2.11
   2   0  11   13.91    1.14
   2   0  11   15.16    1.78
  -3   0 -11   11.66    1.95
   3   0  11   10.05    1.37
   3   0  11   10.58    0.86
  -4   0 -11  295.99   14.34
   4   0  11  271.44   12.40
   4   0  11  260.27   11.23
   4   0  11  308.12   11.74
  -5   0 -11   12.40    2.10
   5   0  11   11.96    1.61
  -6   0 -11  144.40    8.14
   6   0  11  140.10    6.87
  -7   0 -11  302.88   15.23
   7   0  11  332.93   13.84
  -8   0 -11   35.28    3.69
   8   0  11   38.66    2.74
  -9   0 -11   31.27    3.64
   9   0  11   33.97    2.56
 -10   0 -11   28.71    3.41
  10   0  11   32.88    2.51
 -11   0 -11    1.86    1.39
  11   0  11    1.08    0.79
 -12   0 -11  132.72    9.04
  12   0  11  153.36    7.21
 -13   0 -11   57.97    5.45
  13   0  11   58.02    3.73
 -14   0 -11    1.01    1.22
  14   0  11    0.19    0.78
   8  -1 -11    7.68    1.76
  -8   1  11    8.80    1.60
   7  -1 -11   89.07    5.71
  -7   1  11   90.04    5.31
   6  -1 -11    4.34    1.40
  -6   1  11    6.05    1.34
   5  -1 -11   88.99    5.57
  -5   1  11   97.66    5.23
   4  -1 -11  116.01    6.53
  -4   1  11  124.05    6.13
   3  -1 -11   -0.65    0.57
  -3   1  11    0.08    0.22
  -3   1  11   -0.32    0.49
   2  -1 -11  106.42    5.82
  -2   1  11  104.96    5.90
  -2   1  11  111.46    5.38
   1  -1 -11   89.57    5.10
   1  -1 -11   93.33    4.80
  -1   1  11   93.65    4.61
  -1   1  11   90.29    5.17
   0  -1 -11   24.77    2.16
   0  -1 -11   18.82    2.04
   0   1  11   21.73    1.70
   0   1  11   22.01    2.05
  -1  -1 -11  171.49    8.49
  -1  -1 -11  176.84    8.29
   1   1  11  171.60    8.26
   1   1  11  178.58    7.59
  -2  -1 -11   16.89    2.02
   2   1  11   15.13    1.19
   2   1  11   16.76    1.78
  -3  -1 -11  225.61   10.86
   3   1  11  221.96   10.08
  -4  -1 -11  194.14   10.09
   4   1  11  192.20    7.97
   4   1  11  203.82    9.03
  -5  -1 -11   29.37    2.98
   5   1  11   25.11    1.19
   5   1  11   25.54    2.19
   5   1  11   26.78    1.19
  -6  -1 -11  335.85   15.59
   6   1  11  322.90   14.08
  -7  -1 -11  189.48   10.25
   7   1  11  197.99    8.85
  -8  -1 -11   -0.05    0.87
   8   1  11   -0.50    0.46
  -9  -1 -11  133.59    8.30
   9   1  11  144.47    6.73
 -10  -1 -11   45.38    4.44
  10   1  11   49.15    3.10
 -11  -1 -11   13.83    3.12
  11   1  11   14.96    1.75
 -12  -1 -11   97.88    7.35
  12   1  11  111.58    5.56
  13   1  11   19.76    2.03
 -14  -1 -11   34.89    4.26
  14   1  11   38.18    2.98
   8  -2 -11   60.17    4.66
  -8   2  11   71.51    4.50
   7  -2 -11   55.13    4.21
  -7   2  11   63.51    4.12
   6  -2 -11    2.21    1.09
  -6   2  11    3.97    1.19
  -5   2  11  131.96    6.68
   4  -2 -11   35.34    3.03
  -4   2  11   39.29    2.78
   3  -2 -11    3.35    1.07
  -3   2  11    4.96    0.73
  -3   2  11    4.24    0.99
   2  -2 -11  210.55    8.61
   2  -2 -11  188.01    9.09
  -2   2  11  196.31    8.68
  -2   2  11  172.13    8.48
   1  -2 -11    9.54    1.31
   1  -2 -11   11.00    1.57
  -1   2  11    9.02    1.44
  -1   2  11   12.09    1.30
   0  -2 -11  148.69    7.28
   0  -2 -11  155.49    7.38
   0   2  11  151.75    6.81
   0   2  11  146.44    7.33
  -1  -2 -11   29.77    2.58
  -1  -2 -11   32.40    2.44
   1   2  11   30.26    1.96
   1   2  11   33.57    2.49
  -2  -2 -11   25.63    2.13
  -2  -2 -11   26.07    2.46
   2   2  11   22.92    2.02
   2   2  11   26.09    1.66
  -3  -2 -11  420.27   18.31
   3   2  11  415.60   16.68
   3   2  11  408.12   17.93
  -4  -2 -11  234.11   11.28
   4   2  11  227.80    9.42
  -5  -2 -11    0.43    0.74
   5   2  11    1.02    0.27
   5   2  11    0.46    0.24
  -6  -2 -11  383.64   16.99
   6   2  11  337.64   14.22
   6   2  11  356.53   14.26
   6   2  11  382.55   15.39
  -7  -2 -11  101.45    6.65
   7   2  11  112.79    5.37
  -8  -2 -11    1.32    1.04
   8   2  11    1.33    0.66
  -9  -2 -11  266.49   13.75
   9   2  11  279.28   11.82
 -10  -2 -11   61.92    5.20
  10   2  11   64.78    3.65
 -11  -2 -11   31.34    3.73
  11   2  11   31.64    2.38
 -12  -2 -11  107.36    7.59
  12   2  11  110.51    5.57
 -13  -2 -11    3.70    1.73
 -14  -2 -11   53.07    5.23
  14   2  11   60.74    3.70
   8  -3 -11  143.69    8.24
  -8   3  11  162.93    8.02
   7  -3 -11   99.79    6.10
  -7   3  11  101.96    5.71
   6  -3 -11    3.07    1.04
  -6   3  11    3.67    1.08
   5  -3 -11  146.18    7.75
  -5   3  11  153.89    7.43
   4  -3 -11   19.11    2.09
  -4   3  11   21.72    1.34
  -4   3  11   22.55    2.03
   3  -3 -11   67.49    4.26
  -3   3  11   70.54    3.93
   2  -3 -11  226.26   10.86
   2  -3 -11  275.15   10.65
  -2   3  11  212.25   10.44
  -2   3  11  245.87   10.57
   1  -3 -11    0.27    0.52
   1  -3 -11   -0.43    0.48
  -1   3  11   -0.03    0.61
  -1   3  11   -0.58    0.47
  -1   3  11    0.32    0.55
   0  -3 -11  127.34    6.34
   0  -3 -11  127.49    6.46
   0   3  11  132.69    5.99
   0   3  11  124.12    6.34
  -1  -3 -11  288.74   12.66
  -1  -3 -11  267.87   12.65
   1   3  11  278.82   12.31
   1   3  11  282.18   11.77
  -2  -3 -11   13.45    1.48
  -2  -3 -11   11.72    1.74
   2   3  11   12.04    1.17
   2   3  11   11.56    1.42
  -3  -3 -11   46.32    3.54
   3   3  11   46.03    2.47
   3   3  11   46.02    2.90
  -4  -3 -11  117.54    6.71
   4   3  11  117.84    5.71
  -5  -3 -11  108.24    4.53
  -5  -3 -11  102.68    6.22
   5   3  11   98.04    5.05
   5   3  11  100.84    4.52
  -6  -3 -11  296.60   11.14
  -6  -3 -11  268.63   13.28
   6   3  11  261.91   11.11
   6   3  11  272.69   11.77
  -7  -3 -11   50.35    2.20
  -7  -3 -11   46.52    3.90
   7   3  11   39.29    2.04
   7   3  11   49.47    2.81
  -8  -3 -11   37.08    1.74
  -8  -3 -11   33.13    3.48
   8   3  11   34.93    2.33
  -9  -3 -11  136.03    8.42
  -9  -3 -11  147.90    5.92
   9   3  11  145.25    6.67
 -10  -3 -11    4.59    1.62
 -10  -3 -11    3.95    0.55
  10   3  11    2.58    0.80
 -11  -3 -11   49.53    4.56
  11   3  11   55.09    3.21
 -12  -3 -11   73.06    5.98
  12   3  11   78.23    4.15
 -13  -3 -11    0.63    1.17
  13   3  11   -0.01    0.65
 -14  -3 -11   59.90    5.58
  14   3  11   69.64    3.92
   8  -4 -11   88.66    5.96
  -8   4  11  111.57    5.94
   7  -4 -11   10.82    1.86
  -7   4  11   15.58    2.03
   6  -4 -11   46.14    3.69
  -6   4  11   54.53    4.09
   5  -4 -11   82.64    5.08
  -5   4  11   85.18    4.79
   4  -4 -11   15.94    1.99
  -4   4  11   16.74    1.82
   3  -4 -11  135.39    6.97
  -3   4  11  136.37    6.42
  -3   4  11  141.04    6.70
   2  -4 -11  161.38    7.84
  -2   4  11  168.12    7.58
  -2   4  11  158.05    7.63
   1  -4 -11    7.24    1.20
  -1   4  11    8.06    1.29
  -1   4  11    8.86    1.39
   0  -4 -11   39.42    2.78
   0  -4 -11   44.94    3.07
   0   4  11   43.12    2.94
   0   4  11   41.89    2.59
   0   4  11   40.05    3.08
  -1  -4 -11   13.35    1.41
  -1  -4 -11   10.41    1.20
  -1  -4 -11    9.96    1.56
   1   4  11    9.99    1.24
   1   4  11    9.60    1.18
  -2  -4 -11  157.13    8.09
  -2  -4 -11  158.34    7.39
  -2  -4 -11  168.39    7.13
   2   4  11  159.98    7.44
   2   4  11  159.49    7.12
  -3  -4 -11  483.71   20.89
  -3  -4 -11  491.24   19.47
   3   4  11  485.76   19.86
   3   4  11  468.33   19.49
  -4  -4 -11   79.33    3.83
  -4  -4 -11   83.13    5.33
   4   4  11   85.07    4.23
   4   4  11   77.76    3.85
  -5  -4 -11  154.47    8.35
  -5  -4 -11  157.76    6.66
   5   4  11  151.39    7.00
  -6  -4 -11  195.66   10.43
   6   4  11  213.12    8.98
  -7  -4 -11   43.00    2.34
  -7  -4 -11   39.71    3.59
   7   4  11   41.35    2.54
  -8  -4 -11  143.71    8.37
  -8  -4 -11  144.89    6.25
   8   4  11  145.81    6.59
  -9  -4 -11  108.62    7.03
 -10  -4 -11    2.08    1.27
 -10  -4 -11    1.89    0.57
  10   4  11    2.17    0.76
 -11  -4 -11  135.97    5.99
 -11  -4 -11  132.86    8.41
  11   4  11  134.03    6.28
 -12  -4 -11   41.82    4.38
 -12  -4 -11   41.74    2.65
  12   4  11   44.83    2.78
 -13  -4 -11   12.77    2.64
  13   4  11   17.65    1.69
 -14  -4 -11   80.66    6.53
  14   4  11   83.79    4.56
  -9   5  11   82.93    5.22
   8  -5 -11  128.18    7.43
  -8   5  11  135.57    7.12
   7  -5 -11    6.31    1.57
  -7   5  11    5.53    1.28
  -6   5  11   65.26    4.67
   5  -5 -11   46.59    3.53
  -5   5  11   52.12    3.43
  -5   5  11   50.16    2.97
   4  -5 -11   -0.08    0.62
  -4   5  11    0.55    0.46
  -4   5  11   -0.31    0.61
   3  -5 -11  187.39    9.11
  -3   5  11  199.50    8.94
  -3   5  11  193.34    8.80
   2  -5 -11   60.25    3.77
  -2   5  11   61.40    3.77
  -2   5  11   64.68    3.62
   1  -5 -11    1.38    0.75
   1  -5 -11    1.87    0.66
   1  -5 -11    1.16    0.62
  -1   5  11    0.83    0.56
  -1   5  11    1.07    0.67
   0  -5 -11  214.54    9.33
   0  -5 -11  213.03    9.51
   0  -5 -11  215.06    9.94
   0   5  11  212.94    9.37
   0   5  11  219.89    9.63
   0   5  11  197.79   10.03
  -1  -5 -11   61.05    4.04
  -1  -5 -11   59.83    3.50
  -1  -5 -11   65.04    3.43
   1   5  11   65.27    3.67
   1   5  11   59.49    4.16
   1   5  11   65.90    3.46
  -2  -5 -11   95.04    4.69
  -2  -5 -11  101.32    5.69
  -2  -5 -11   99.18    4.90
   2   5  11   97.55    4.90
   2   5  11   95.17    4.72
  -3  -5 -11  175.36    7.58
  -3  -5 -11  167.81    8.74
   3   5  11  173.92    7.75
  -4  -5 -11    0.69    0.90
  -4  -5 -11    0.37    0.41
   4   5  11    0.30    0.43
  -5  -5 -11  226.21   11.30
  -5  -5 -11  226.63    9.66
   5   5  11  233.01    9.81
  -6  -5 -11  230.61    9.55
  -6  -5 -11  218.18   11.25
   6   5  11  227.44    9.64
  -7  -5 -11    5.26    1.49
  -7  -5 -11    7.28    0.86
   7   5  11    5.39    0.84
  -8  -5 -11  131.07    7.84
  -8  -5 -11  132.40    5.91
   8   5  11  131.63    5.95
  -9  -5 -11   34.69    2.15
  -9  -5 -11   36.95    3.72
   9   5  11   35.31    2.19
 -10  -5 -11   23.76    3.07
 -10  -5 -11   18.38    1.57
  10   5  11   17.34    1.75
 -11  -5 -11  160.27    9.77
 -11  -5 -11  171.77    7.61
  11   5  11  176.79    7.59
 -12  -5 -11   35.39    2.38
 -12  -5 -11   37.82    3.92
  12   5  11   32.83    2.27
 -13  -5 -11   39.30    4.07
 -13  -5 -11   32.49    2.47
  13   5  11   34.86    2.35
 -14  -5 -11   42.81    4.60
  -9   6  11   82.05    5.19
   8  -6 -11   64.90    4.62
  -8   6  11   64.43    4.34
   7  -6 -11    4.84    1.38
  -7   6  11    6.02    1.27
  -6   6  11   99.75    5.27
  -6   6  11   97.82    5.58
   5  -6 -11   31.44    2.79
  -5   6  11   31.52    2.26
  -5   6  11   33.02    2.68
   4  -6 -11   43.47    3.23
  -4   6  11   51.01    3.27
  -4   6  11   44.21    2.91
   3  -6 -11  311.51   14.11
   3  -6 -11  327.71   14.05
  -3   6  11  325.29   14.01
  -3   6  11  326.57   14.02
   2  -6 -11   38.36    2.80
   2  -6 -11   43.98    2.87
  -2   6  11   40.93    2.81
  -2   6  11   39.76    2.96
   1  -6 -11   80.22    4.25
  -1   6  11   78.64    4.25
  -1   6  11   74.77    4.62
   0  -6 -11  158.69    7.20
   0  -6 -11  170.60    7.93
   0  -6 -11  147.72    7.17
   0   6  11  152.51    7.26
   0   6  11  144.61    7.86
  -1  -6 -11   58.42    3.17
  -1  -6 -11   55.45    3.81
  -1  -6 -11   53.84    3.12
   1   6  11   50.95    3.11
   1   6  11   51.15    3.86
   1   6  11   53.88    3.22
  -2  -6 -11  424.87   17.96
  -2  -6 -11  408.97   16.81
  -2  -6 -11  408.61   16.79
   2   6  11  382.26   17.98
  -3  -6 -11  195.74    8.83
   3   6  11  209.86    8.86
  -4  -6 -11   18.43    2.32
  -4  -6 -11   16.34    1.51
   4   6  11   18.16    1.45
  -5  -6 -11  300.76   13.75
  -5  -6 -11  276.59   12.04
   5   6  11  284.11   11.92
  -6  -6 -11  206.42    9.10
  -6  -6 -11  206.22   10.72
   6   6  11  218.05    8.94
  -7  -6 -11   78.96    5.47
  -7  -6 -11   81.59    4.03
   7   6  11   77.42    3.78
  -8  -6 -11  245.00   12.96
  -8  -6 -11  272.57   11.25
   8   6  11  270.39   10.95
  -9  -6 -11   48.06    2.85
  -9  -6 -11   47.15    4.27
   9   6  11   47.51    2.56
 -10  -6 -11   15.16    1.48
 -10  -6 -11   11.90    2.44
  10   6  11   12.96    1.25
 -11  -6 -11  100.59    7.15
 -11  -6 -11  113.94    5.42
 -12  -6 -11    2.02    1.24
 -12  -6 -11    3.29    0.88
  12   6  11    3.20    0.67
 -13  -6 -11   21.61    2.08
 -13  -6 -11   22.43    3.43
  13   6  11   20.69    1.72
 -14  -6 -11   48.16    4.83
  14   6  11   50.53    2.99
   8  -7 -11   73.87    5.01
  -8   7  11   72.49    4.75
   7  -7 -11   18.16    2.37
  -7   7  11   18.53    2.29
   6  -7 -11   74.46    6.75
  -6   7  11   89.18    4.69
  -6   7  11   88.52    5.11
   5  -7 -11    9.75    1.63
  -5   7  11   10.99    1.46
  -5   7  11   11.79    1.69
   4  -7 -11   44.47    3.39
   4  -7 -11   55.64    3.56
  -4   7  11   49.00    3.29
  -4   7  11   56.90    3.56
   3  -7 -11  152.92    7.58
   3  -7 -11  157.16    7.61
  -3   7  11  155.81    7.57
  -3   7  11  157.70    7.69
   2  -7 -11   10.48    1.42
   2  -7 -11    8.10    1.32
  -2   7  11    7.75    1.33
  -2   7  11    8.89    1.57
   1  -7 -11  274.81   12.50
   1  -7 -11  292.73   12.63
  -1   7  11  296.28   13.27
  -1   7  11  296.25   12.68
   0  -7 -11  207.63    9.46
   0  -7 -11  229.62   10.30
   0  -7 -11  209.46    9.36
   0   7  11  198.12   10.20
  -1  -7 -11    0.75    0.54
  -1  -7 -11    0.32    0.49
  -1  -7 -11   -0.31    0.73
   1   7  11   -0.02    0.45
  -2  -7 -11   74.26    3.76
  -2  -7 -11   72.61    3.94
  -2  -7 -11   70.84    4.72
   2   7  11   77.15    3.84
   2   7  11   70.76    4.87
  -3  -7 -11   29.97    2.96
  -3  -7 -11   31.44    2.29
   3   7  11   31.80    3.12
   3   7  11   35.33    2.09
  -4  -7 -11   67.07    3.57
  -4  -7 -11   60.48    4.48
   4   7  11   62.56    3.20
   4   7  11   64.59    4.67
  -5  -7 -11  448.89   20.12
  -5  -7 -11  458.18   18.63
   5   7  11  447.22   18.16
  -6  -7 -11   87.07    4.40
  -6  -7 -11   88.59    5.68
   6   7  11   80.84    3.88
  -7  -7 -11   25.92    2.84
  -7  -7 -11   26.56    2.00
   7   7  11   22.99    1.49
  -8  -7 -11   70.16    5.20
  -8  -7 -11   66.93    3.73
   8   7  11   66.39    3.18
  -9  -7 -11   -0.57    0.51
   9   7  11   -0.42    0.26
 -10  -7 -11   77.10    4.11
 -10  -7 -11   69.61    5.53
  10   7  11   67.58    3.36
 -11  -7 -11   77.52    4.34
  11   7  11   76.92    3.68
 -12  -7 -11    8.82    1.39
 -12  -7 -11   15.49    2.65
  12   7  11   14.26    1.37
 -13  -7 -11   63.84    5.52
 -13  -7 -11   62.20    3.97
 -14  -7 -11   20.47    3.13
   8  -8 -11   29.87    3.01
  -8   8  11   33.34    3.03
   7  -8 -11   32.98    3.08
  -7   8  11   35.15    3.05
   6  -8 -11   73.60    5.31
  -6   8  11   83.39    4.92
   5  -8 -11    1.64    1.01
   5  -8 -11    0.63    0.84
  -5   8  11    3.03    1.09
   4  -8 -11  105.66    5.66
   4  -8 -11   94.13    5.48
  -4   8  11  102.52    5.58
   3  -8 -11   74.77    4.69
   3  -8 -11   78.51    4.58
  -3   8  11   82.23    4.64
  -3   8  11   77.89    5.33
   2  -8 -11    0.90    0.65
   2  -8 -11    1.69    0.86
  -2   8  11    1.03    0.87
  -2   8  11    1.13    0.78
   1  -8 -11  169.71    7.76
   1  -8 -11  158.76    7.88
  -1   8  11  163.66    7.95
  -1   8  11  176.66    8.64
   0  -8 -11   37.23    2.46
   0  -8 -11   38.86    2.68
   0   8  11   35.11    3.16
  -1  -8 -11   63.99    3.49
  -1  -8 -11   64.31    3.81
  -1  -8 -11   71.98    4.63
   1   8  11   69.05    3.61
   1   8  11   64.02    4.57
  -2  -8 -11  177.47    7.83
  -2  -8 -11  183.93    9.25
  -2  -8 -11  180.98    8.33
   2   8  11  183.88    7.89
   2   8  11  172.52    9.30
  -3  -8 -11    1.64    0.97
  -3  -8 -11    0.62    0.67
   3   8  11    0.61    0.87
   3   8  11    1.49    0.49
  -4  -8 -11  133.69    6.28
  -4  -8 -11  129.14    7.33
   4   8  11  125.30    5.60
   4   8  11  127.91    7.53
  -5  -8 -11  265.47   11.50
  -5  -8 -11  266.92   12.91
   5   8  11  257.35   13.03
  -6  -8 -11   -0.76    0.60
  -6  -8 -11   -1.01    0.49
   6   8  11   -0.91    0.63
   6   8  11   -0.54    0.23
  -7  -8 -11   89.46    6.01
   7   8  11   87.95    6.09
  -8  -8 -11   84.59    5.94
  -8  -8 -11   83.99    4.55
  -9  -8 -11   10.74    2.21
  -9  -8 -11   12.27    1.59
   9   8  11   10.69    0.85
 -10  -8 -11  140.52    6.68
 -10  -8 -11  128.07    8.08
  10   8  11  127.41    5.59
 -11  -8 -11   38.15    2.89
 -11  -8 -11   36.30    3.83
 -12  -8 -11    8.61    2.24
 -12  -8 -11    7.67    1.41
 -13  -8 -11   57.64    3.79
 -13  -8 -11   55.41    5.17
   8  -9 -11    1.71    1.02
  -8   9  11    1.30    1.01
   7  -9 -11   89.43    5.64
  -7   9  11   94.72    5.68
  -7   9  11  100.93    5.55
   6  -9 -11   88.62    5.31
  -6   9  11   86.31    5.20
  -6   9  11   80.19    4.96
   5  -9 -11   -0.50    0.82
   5  -9 -11    2.10    0.96
  -5   9  11   -0.14    0.76
  -5   9  11    0.60    0.85
   4  -9 -11  120.36    6.50
   4  -9 -11  130.81    6.80
  -4   9  11  126.81    6.72
  -4   9  11  133.42    6.88
   3  -9 -11   73.23    4.36
   3  -9 -11   71.12    4.18
  -3   9  11   70.13    4.38
  -3   9  11   70.92    4.55
   2  -9 -11   36.95    2.76
   2  -9 -11   37.66    2.92
  -2   9  11   36.38    2.91
  -2   9  11   44.47    3.34
   1  -9 -11  133.92    6.39
   1  -9 -11  131.65    6.71
  -1   9  11  135.62    7.33
   0  -9 -11    8.22    1.35
   0  -9 -11    8.04    1.18
   0   9  11    9.49    1.77
  -1  -9 -11  134.98    6.70
  -1  -9 -11  135.23    6.16
   1   9  11  135.95    6.23
   1   9  11  135.88    7.61
  -2  -9 -11  354.64   15.61
  -2  -9 -11  328.38   14.42
  -2  -9 -11  339.24   13.77
   2   9  11  324.33   13.73
   2   9  11  328.45   15.59
  -3  -9 -11   -0.23    0.54
  -3  -9 -11    0.61    0.81
   3   9  11   -0.16    0.82
  -4  -9 -11  287.96   12.63
  -4  -9 -11  314.28   14.07
   4   9  11  273.26   11.62
   4   9  11  283.40   14.05
  -5  -9 -11  125.71    7.31
  -5  -9 -11  123.06    6.07
   5   9  11  109.87    4.93
   5   9  11  124.72    7.50
  -6  -9 -11    0.37    0.55
  -6  -9 -11    0.67    0.92
   6   9  11    0.27    0.18
   6   9  11    0.28    0.86
  -7  -9 -11  122.18    7.35
  -7  -9 -11  117.22    5.93
   7   9  11  106.77    4.63
   7   9  11  118.72    7.43
  -8  -9 -11   60.70    4.88
  -8  -9 -11   55.98    3.58
   8   9  11   55.11    4.92
  -9  -9 -11   45.68    4.33
  -9  -9 -11   45.55    3.16
   9   9  11   41.91    4.18
 -10  -9 -11  202.28    9.32
 -10  -9 -11  193.08   10.88
  10   9  11  185.91   12.02
 -11  -9 -11    5.49    1.78
 -11  -9 -11    1.84    1.03
  11   9  11    3.69    1.75
 -12  -9 -11   31.44    2.72
 -12  -9 -11   30.95    3.81
  12   9  11   32.24    3.81
 -13  -9 -11   45.17    4.58
  13   9  11   46.01    4.52
   8 -10 -11   -0.85    0.66
  -8  10  11   -0.36    0.83
   7 -10 -11   43.44    3.55
  -7  10  11   43.97    3.47
   6 -10 -11   21.97    2.37
  -6  10  11   22.71    2.53
  -6  10  11   20.11    2.47
   5 -10 -11   32.87    2.99
   5 -10 -11   32.22    2.79
  -5  10  11   35.16    3.03
  -5  10  11   32.55    3.00
   4 -10 -11   84.49    4.95
  -4  10  11   92.23    5.45
   3 -10 -11    4.08    1.06
   3 -10 -11    5.44    1.21
  -3  10  11    5.74    1.30
  -3  10  11    5.62    1.43
   2 -10 -11   54.04    3.73
  -2  10  11   58.36    4.17
   1 -10 -11   94.97    5.38
   1 -10 -11   95.56    4.94
  -1  10  11  103.26    6.09
   0 -10 -11   -0.33    0.40
   0 -10 -11   -0.17    0.63
   0  10  11   -1.25    0.64
  -1 -10 -11   93.58    5.23
  -1 -10 -11   95.08    4.49
   1  10  11  100.76    6.16
   1  10  11   92.15    4.51
  -2 -10 -11  110.16    5.79
   2  10  11  108.74    6.72
  -3 -10 -11   16.91    1.90
  -3 -10 -11   21.20    2.74
   3  10  11   15.31    1.06
   3  10  11   20.49    2.77
  -4 -10 -11  271.24   12.66
  -4 -10 -11  260.61   11.31
   4  10  11  261.42   12.74
   4  10  11  210.94    9.76
  -5 -10 -11   11.51    1.66
  -5 -10 -11   14.93    2.50
   5  10  11   11.27    2.30
  -6 -10 -11   15.65    2.62
  -6 -10 -11   13.97    1.77
   6  10  11   14.75    2.58
  -7 -10 -11  217.37   11.41
  -7 -10 -11  211.22    9.96
   7  10  11  211.89   11.58
  -8 -10 -11   37.98    3.74
  -8 -10 -11   32.24    2.73
   8  10  11   31.44    3.77
  -9 -10 -11   60.13    4.01
  -9 -10 -11   62.27    5.29
   9  10  11   60.36    5.41
 -10 -10 -11  116.28    6.37
 -10 -10 -11  116.87    7.73
  10  10  11  115.78    7.76
 -11 -10 -11   -0.32    1.04
  11  10  11   -0.42    1.09
 -12 -10 -11   71.84    5.79
 -12 -10 -11   69.16    4.53
  12  10  11   56.30    5.20
   7 -11 -11   59.73    4.30
   7 -11 -11   68.63    4.61
  -7  11  11   65.24    4.60
  -7  11  11   62.59    4.53
   6 -11 -11    1.57    0.99
   6 -11 -11    0.37    1.05
  -6  11  11   -0.36    0.94
  -6  11  11    1.82    0.98
   5 -11 -11   77.19    4.70
   5 -11 -11   75.52    4.92
  -5  11  11   74.91    4.93
  -5  11  11   78.98    5.11
   4 -11 -11  159.32    7.94
   4 -11 -11  163.48    8.34
  -4  11  11  166.01    8.65
  -4  11  11  160.71    8.34
   3 -11 -11    0.39    0.61
  -3  11  11    0.75    0.93
   2 -11 -11   87.67    5.05
   2 -11 -11   80.66    5.03
  -2  11  11   90.62    5.68
   1 -11 -11   96.84    5.71
   1 -11 -11  105.62    5.17
  -1  11  11  110.35    6.50
   0 -11 -11    2.31    0.60
   0 -11 -11    2.09    0.86
   0  11  11    2.72    1.29
  -1 -11 -11  155.13    6.60
  -1 -11 -11  146.54    7.56
   1  11  11  161.07    8.63
   1  11  11  145.13    6.57
  -2 -11 -11   90.81    5.20
   2  11  11   85.53    3.94
   2  11  11  100.48    6.29
  -3 -11 -11  150.41    7.49
   3  11  11  145.34    8.51
  -4 -11 -11  186.41    8.85
   4  11  11  176.96    9.98
  -5 -11 -11   87.36    5.17
  -5 -11 -11   97.58    6.40
   5  11  11   88.13    6.32
  -6 -11 -11   13.82    1.89
   6  11  11   11.66    2.39
  -7 -11 -11   85.96    4.96
  -7 -11 -11   86.38    6.32
   7  11  11   69.26    6.58
  -8 -11 -11    6.95    1.95
  -8 -11 -11    7.46    1.51
   8  11  11    5.67    1.94
  -9 -11 -11   61.31    4.15
  -9 -11 -11   64.02    5.34
   9  11  11   58.29    5.27
 -10 -11 -11   16.48    2.83
 -10 -11 -11   19.12    2.34
  10  11  11   17.72    3.09
 -11 -11 -11    9.14    1.73
 -11 -11 -11    9.90    2.36
  11  11  11    8.72    2.16
   6 -12 -11   -0.52    0.82
   6 -12 -11   -1.11    0.71
  -6  12  11   -1.11    0.85
  -6  12  11    0.17    0.92
   5 -12 -11   54.95    3.69
   5 -12 -11   52.03    4.03
  -5  12  11   53.82    3.96
   4 -12 -11   33.46    2.72
   4 -12 -11   32.39    3.02
  -4  12  11   33.80    3.10
  -4  12  11   32.18    3.27
   3 -12 -11    1.75    0.77
   3 -12 -11    0.82    0.86
  -3  12  11    1.67    1.14
   2 -12 -11   97.19    5.78
   2 -12 -11  101.65    5.21
  -2  12  11  105.34    6.48
   1 -12 -11   13.72    1.50
   1 -12 -11   16.25    2.13
  -1  12  11   16.70    2.58
   0 -12 -11   24.49    2.41
   0 -12 -11   24.14    1.70
   0  12  11   26.77    3.18
  -1 -12 -11   96.85    5.51
  -1 -12 -11   95.05    4.19
   1  12  11   84.27    4.12
   1  12  11  106.40    6.49
  -2 -12 -11   22.81    2.43
   2  12  11   28.63    3.27
  -3 -12 -11   99.29    5.65
   3  12  11   96.67    6.45
  -4 -12 -11   44.72    3.42
   4  12  11   45.18    4.27
  -5 -12 -11   -0.08    0.72
  -6 -12 -11  160.14    8.54
   6  12  11  183.26   10.14
  -7 -12 -11   77.66    5.64
   7  12  11   92.86    6.66
  -8 -12 -11    3.84    1.54
  -8 -12 -11    3.11    1.22
   8  12  11    3.31    1.71
  -9 -12 -11  116.45    7.84
  -9 -12 -11  110.17    6.52
   9  12  11  115.15    7.87
 -10 -12 -11   10.03    1.80
 -10 -12 -11   11.99    2.63
  10  12  11    7.86    2.24
  -6  13  11   14.53    2.25
   5 -13 -11  116.59    6.90
  -5  13  11  124.91    7.48
  -5  13  11  121.07    6.97
   4 -13 -11   13.55    1.81
   4 -13 -11   10.88    1.86
  -4  13  11    9.36    1.73
  -4  13  11    9.40    2.08
   3 -13 -11   25.59    2.74
   3 -13 -11   27.04    2.30
  -3  13  11   28.86    3.30
   2 -13 -11  101.71    6.17
   2 -13 -11  109.44    5.44
  -2  13  11  113.87    7.00
   1 -13 -11    4.35    1.27
   1 -13 -11    4.16    0.77
  -1  13  11    6.17    1.81
   0 -13 -11   64.49    4.56
   0  13  11   75.42    5.34
  -1 -13 -11  141.77    8.20
   1  13  11  178.40    9.36
  -2 -13 -11    2.71    1.30
   2  13  11    2.30    1.40
   3  13  11   34.21    3.77
  -4 -13 -11  129.24    7.24
   4  13  11  130.63    8.14
  -5 -13 -11   -0.06    0.83
   5  13  11   -0.30    0.83
  -6 -13 -11   53.28    4.10
   6  13  11   60.47    5.08
  -7 -13 -11   12.00    2.01
   7  13  11   11.25    2.60
  -8 -13 -11   30.55    3.18
   8  13  11   37.07    4.20
  -9 -13 -11   81.99    5.34
   9  13  11   82.42    6.43
   4 -14 -11    6.38    1.20
   4 -14 -11    5.57    1.55
  -4  14  11    7.40    1.86
   3 -14 -11   41.11    3.57
   3 -14 -11   43.56    3.07
  -3  14  11   46.58    4.30
   2 -14 -11   46.59    3.84
  -2  14  11   51.72    4.49
   1 -14 -11   -1.42    0.65
  -1  14  11    0.42    0.92
   0 -14 -11   82.26    5.36
   0  14  11   85.83    6.01
  -1 -14 -11   56.95    4.35
   1  14  11   66.11    5.24
  -2 -14 -11   15.25    2.30
   2  14  11   19.44    3.02
  -3 -14 -11   90.70    5.79
   3  14  11   95.82    6.60
  -4 -14 -11   45.19    3.84
   4  14  11   53.44    4.83
  -5 -14 -11   14.33    2.32
   5  14  11   18.92    3.25
  -6 -14 -11   46.43    3.89
   6  14  11   49.83    4.87
  -7 -14 -11    1.53    1.13
   7  14  11    1.07    1.04
  -8 -14 -11   59.72    4.50
   8  14  11   55.15    5.22
   3 -15 -11   78.91    5.37
  -3  15  11   78.84    5.96
   2 -15 -11   44.61    3.81
  -2  15  11   49.58    4.59
   1 -15 -11    0.37    0.89
  -1  15  11    0.50    1.18
   0 -15 -11   76.90    5.33
   0  15  11   86.98    6.15
  -1 -15 -11   -0.43    0.79
   1  15  11   -0.37    1.11
  -2 -15 -11   33.99    3.41
   2  15  11   37.26    4.07
  -3 -15 -11  130.19    7.60
   3  15  11  138.25    8.63
  -4 -15 -11    6.60    1.69
   4  15  11    9.61    2.38
  -5 -15 -11   46.38    4.03
   5  15  11   47.62    4.83
  -6 -15 -11   62.92    4.81
   6  15  11   70.62    5.86
   1  16  11   10.61    2.47
  -2 -16 -11   50.97    4.22
   2  16  11   58.15    5.21
   1  -6  12   57.73    4.34
  -2   6 -12    6.26    1.74
   2  -6  12    5.15    1.44
  -3   6 -12   21.83    2.79
   3  -6  12   21.30    2.56
  -4   6 -12    3.64    1.60
   4  -6  12    5.12    1.39
  -5   6 -12   63.76    5.38
   5  -6  12   69.92    4.67
  -6   6 -12  105.05    7.58
   6  -6  12  125.22    6.70
  -7   6 -12    1.39    1.34
   7  -6  12    0.29    0.94
  -8   6 -12   18.87    3.35
   8  -6  12   21.12    2.52
  -1  -5  12    2.93    1.29
  -1  -5  12    3.66    0.99
   0  -5  12   15.02    1.58
   0  -5  12   12.58    2.06
  -1   5 -12    8.70    1.79
   1  -5  12   13.80    1.98
   1  -5  12   16.33    1.94
  -2   5 -12   25.77    2.94
   2  -5  12   23.50    2.69
  -3   5 -12   40.25    3.71
   3  -5  12   40.17    3.44
  -4   5 -12   -0.95    0.78
   4  -5  12    0.37    0.86
   5  -5  12   80.48    4.99
  -6   5 -12   40.43    4.21
   6  -5  12   43.31    3.47
   7  -5  12   -0.22    0.76
  -8   5 -12   69.48    6.04
   8  -5  12   78.48    4.88
  -9   5 -12    5.63    2.02
   9  -5  12    8.54    1.61
 -10   5 -12   15.41    3.19
  10  -5  12   19.37    2.23
   3   4 -12   70.83    5.08
  -3  -4  12   77.17    4.55
  -3  -4  12   72.77    5.14
  -2  -4  12   -0.27    0.87
  -2  -4  12    1.08    0.78
  -1  -4  12   44.92    3.00
  -1  -4  12   42.50    3.68
   0  -4  12  142.61    6.58
   0  -4  12  132.84    7.49
  -1   4 -12    2.19    1.03
   1  -4  12    4.93    1.31
  -2   4 -12   42.30    3.59
   2  -4  12   43.70    3.50
  -3   4 -12   21.67    2.69
   3  -4  12   21.29    2.47
  -4   4 -12    3.96    1.39
   4  -4  12    7.71    1.48
  -5   4 -12  154.01    8.94
   5  -4  12  150.93    7.86
  -6   4 -12   28.61    3.39
   6  -4  12   26.19    2.66
  -7   4 -12   16.46    2.90
   7  -4  12   20.58    2.39
  -8   4 -12   92.56    6.93
   8  -4  12  104.89    5.75
  -9   4 -12    7.10    2.21
   9  -4  12    7.65    1.54
 -10   4 -12   49.59    5.30
  10  -4  12   60.65    4.11
 -11   4 -12   70.17    6.45
  11  -4  12   79.64    4.92
   4   3 -12   30.30    3.17
  -4  -3  12   29.83    3.04
  -4  -3  12   35.27    2.92
   3   3 -12   93.86    6.00
  -3  -3  12   91.16    5.99
  -3  -3  12  113.01    6.23
   2   3 -12    1.81    1.05
  -2  -3  12    2.91    0.90
  -2  -3  12    0.53    0.99
  -1  -3  12   49.95    3.90
  -1  -3  12   52.15    3.20
   0  -3  12   74.06    3.93
   0  -3  12   71.47    4.79
  -1   3 -12    0.03    0.80
   1  -3  12   -0.10    0.77
   1  -3  12   -0.47    0.43
  -2   3 -12  130.23    7.07
   2  -3  12  110.42    6.55
  -3   3 -12   34.10    3.24
   3  -3  12   35.33    2.14
  -4   3 -12   59.65    4.72
  -5   3 -12   86.16    5.96
  -6   3 -12   20.34    2.90
   6  -3  12   17.73    2.26
  -7   3 -12   99.37    7.02
   7  -3  12  111.94    5.99
  -8   3 -12  129.85    8.36
   8  -3  12  128.58    6.85
  -9   3 -12    2.64    1.48
   9  -3  12    3.74    1.12
 -10   3 -12   90.02    7.23
  10  -3  12  105.07    5.72
 -11   3 -12   24.16    3.71
  11  -3  12   28.33    2.69
 -12   3 -12    6.16    2.23
  12  -3  12    5.81    1.40
   5   2 -12    2.71    1.17
  -5  -2  12    0.70    0.79
  -5  -2  12    0.32    1.00
   4   2 -12   73.91    5.16
  -4  -2  12   81.83    4.70
  -4  -2  12   76.07    5.25
   3   2 -12   35.75    3.34
  -3  -2  12   38.80    2.87
  -3  -2  12   39.90    3.50
   2   2 -12    1.30    1.02
  -2  -2  12    1.62    0.76
  -2  -2  12    0.88    0.95
   1   2 -12  109.67    5.58
   1   2 -12  103.31    6.15
  -1  -2  12  112.40    6.36
  -1  -2  12  110.52    5.42
   0   2 -12   79.38    4.69
   0  -2  12   78.83    4.09
  -1   2 -12   15.21    2.09
   1  -2  12   16.93    2.12
   1  -2  12   15.77    1.40
  -2   2 -12  149.40    7.89
   2  -2  12  140.67    6.31
   2  -2  12  144.48    7.48
  -3   2 -12   23.98    2.70
   3  -2  12   23.61    2.45
  -4   2 -12   82.01    5.52
   4  -2  12   80.90    4.87
  -5   2 -12  145.34    8.38
   5  -2  12  143.79    7.37
  -6   2 -12    8.25    1.95
   6  -2  12    7.62    1.41
  -7   2 -12   84.00    6.19
   7  -2  12   89.18    5.07
  -8   2 -12  124.49    8.06
  -9   2 -12    0.80    0.92
   9  -2  12    0.60    0.82
 -10   2 -12   94.52    7.19
  10  -2  12   99.90    5.49
 -11   2 -12   55.87    5.53
  11  -2  12   67.11    4.20
 -12   2 -12    8.33    2.32
  12  -2  12   13.44    1.93
   5   1 -12    2.52    1.16
  -5  -1  12    2.13    1.04
  -5  -1  12    1.71    1.18
   4   1 -12  123.71    7.15
  -4  -1  12  131.05    7.23
  -4  -1  12  126.86    7.28
   3   1 -12   59.13    4.34
  -3  -1  12   63.29    3.79
  -3  -1  12   61.49    4.42
   2   1 -12    2.98    1.21
  -2  -1  12    5.40    1.03
  -2  -1  12    6.40    1.44
   1   1 -12   88.92    6.16
   1   1 -12  100.41    5.17
  -1  -1  12  102.69    5.97
  -1  -1  12  102.71    5.05
   0   1 -12   49.35    3.61
   0   1 -12   49.71    3.40
   0  -1  12   45.05    3.52
  -1   1 -12   38.92    3.07
   1  -1  12   35.73    2.19
   1  -1  12   32.85    2.82
   2  -1  12   92.35    4.28
   2  -1  12   92.80    5.33
  -3   1 -12   -0.01    0.72
   3  -1  12   -0.75    0.63
  -4   1 -12  127.46    7.53
   4  -1  12  127.54    5.29
   4  -1  12  134.25    6.76
  -5   1 -12   93.46    6.06
   5  -1  12   86.31    5.06
  -6   1 -12   -0.70    0.68
   6  -1  12   -0.48    0.63
  -7   1 -12  105.56    7.09
   7  -1  12  114.02    5.91
  -8   1 -12    5.44    1.79
   8  -1  12    5.36    1.22
  -9   1 -12   74.09    6.93
   9  -1  12   76.06    4.51
 -10   1 -12  145.00    9.28
  10  -1  12  157.50    7.58
 -11   1 -12   22.24    3.40
  11  -1  12   21.86    2.34
 -12   1 -12   45.39    4.89
  12  -1  12   44.44    3.32
 -13   1 -12   21.20    3.37
  13  -1  12   21.97    2.33
   6   0 -12    3.38    1.22
  -6   0  12    4.88    1.55
  -6   0  12    5.36    1.36
   5   0 -12   11.93    2.05
  -5   0  12   17.50    2.04
  -5   0  12   11.99    2.11
   4   0 -12   89.59    5.70
  -4   0  12   91.69    5.74
  -4   0  12   98.18    5.25
   3   0 -12    6.51    1.43
  -3   0  12    5.55    1.41
  -3   0  12    5.63    1.15
   2   0 -12   47.70    3.70
  -2   0  12   46.10    3.54
  -2   0  12   50.22    3.08
   1   0 -12  105.34    5.27
   1   0 -12   96.54    5.71
  -1   0  12   98.68    5.78
  -1   0  12  102.36    5.07
   0   0 -12    8.84    1.49
   0   0 -12    6.02    1.30
   0   0  12    8.22    1.07
   0   0  12    6.00    1.27
  -1   0 -12   88.49    5.27
   1   0  12   91.09    4.32
   1   0  12   88.61    5.18
  -2   0 -12   41.93    3.36
   2   0  12   40.38    2.25
   2   0  12   40.51    3.09
  -3   0 -12   31.03    2.98
   3   0  12   26.95    1.56
   3   0  12   23.56    2.38
  -4   0 -12  314.64   14.79
   4   0  12  301.62   12.44
   4   0  12  325.19   13.87
  -5   0 -12  110.77    6.84
   5   0  12  114.34    5.94
  -6   0 -12   20.70    2.76
   6   0  12   17.28    2.02
  -7   0 -12  209.68   11.32
   7   0  12  216.24    9.86
  -8   0 -12    3.21    1.48
   8   0  12    4.40    1.08
  -9   0 -12   90.30    6.67
   9   0  12   97.92    5.20
 -10   0 -12  163.39    9.96
  10   0  12  172.81    8.13
 -11   0 -12   -0.91    0.90
  11   0  12   -1.33    0.54
 -12   0 -12   81.44    6.66
  12   0  12   95.93    5.15
 -13   0 -12   65.08    6.14
  13   0  12   81.33    4.63
   7  -1 -12   79.29    5.47
  -7   1  12   83.06    5.06
   6  -1 -12    3.36    1.29
  -6   1  12    6.03    1.35
   5  -1 -12   47.21    3.91
  -5   1  12   55.48    3.65
   4  -1 -12   49.18    3.89
  -4   1  12   55.63    4.18
  -4   1  12   57.51    3.62
  -3   1  12    0.03    0.63
   2  -1 -12  185.28    9.24
  -2   1  12  193.48    8.65
  -2   1  12  186.02    9.30
   1  -1 -12  178.70    8.87
   1  -1 -12  184.48    8.41
  -1   1  12  183.33    8.22
  -1   1  12  179.19    8.92
   0  -1 -12    0.68    0.62
   0  -1 -12    1.06    0.75
   0   1  12    2.33    0.67
   0   1  12    0.92    0.84
  -1  -1 -12  104.03    5.75
  -1  -1 -12  110.01    6.01
   1   1  12  108.65    5.05
   1   1  12  106.55    5.78
  -2  -1 -12   27.90    2.71
   2   1  12   26.38    1.71
   2   1  12   26.40    2.29
   3   1  12   36.33    2.79
   3   1  12   39.17    2.06
  -4  -1 -12  261.96   12.42
   4   1  12  258.55   11.34
   4   1  12  236.29   10.11
  -5  -1 -12   26.33    2.94
   5   1  12   27.00    1.22
   5   1  12   28.35    2.37
   5   1  12   25.36    1.19
  -6  -1 -12   99.55    6.48
   6   1  12   99.91    5.29
  -7  -1 -12  190.44   10.61
   7   1  12  205.06    9.18
  -8  -1 -12    9.39    2.08
   8   1  12    7.23    1.28
  -9  -1 -12   82.12    6.20
   9   1  12   94.70    4.89
  10   1  12   89.25    4.87
 -11  -1 -12   -1.11    0.91
  11   1  12   -0.73    0.57
 -12  -1 -12   51.24    5.09
  12   1  12   63.54    3.79
 -13  -1 -12   40.37    4.64
  13   1  12   48.93    3.35
 -14  -1 -12   35.15    4.35
  14   1  12   36.26    2.85
   7  -2 -12   49.08    4.08
  -7   2  12   54.79    3.83
   6  -2 -12    0.24    0.69
  -6   2  12    1.01    0.92
   5  -2 -12   62.31    4.50
  -5   2  12   72.11    4.29
   4  -2 -12   45.82    3.57
  -4   2  12   52.04    3.34
   3  -2 -12   14.80    2.06
  -3   2  12   19.72    1.94
   2  -2 -12  136.22    6.97
  -2   2  12  142.07    6.51
  -2   2  12  140.27    7.12
  -2   2  12  115.12    6.16
   1  -2 -12  117.20    5.75
   1  -2 -12  111.80    6.06
  -1   2  12  116.12    6.18
  -1   2  12  115.36    5.56
  -1   2  12  102.63    5.75
   0  -2 -12   19.66    2.13
   0  -2 -12   22.67    2.14
   0   2  12   23.90    2.21
   0   2  12   23.69    1.83
  -1  -2 -12  133.92    6.89
  -1  -2 -12  128.91    6.60
   1   2  12  128.68    6.63
   1   2  12  129.03    5.96
  -2  -2 -12   -0.04    0.58
   2   2  12    0.19    0.39
   2   2  12   -0.94    0.52
   3   2  12  258.59   11.24
   3   2  12  241.06   10.31
  -4  -2 -12  259.96   12.53
   4   2  12  254.18   10.61
   4   2  12  258.97   11.46
  -5  -2 -12    6.25    1.62
   5   2  12    5.79    0.57
   5   2  12    5.72    1.07
   5   2  12    6.20    0.63
  -6  -2 -12  136.77    7.73
   6   2  12  136.65    6.34
   6   2  12  113.96    4.99
  -7  -2 -12  109.03    7.15
   7   2  12  118.86    5.77
  -8  -2 -12   22.15    3.01
   8   2  12   21.71    1.95
  -9  -2 -12  208.06   11.60
   9   2  12  220.21    9.69
 -10  -2 -12   31.35    3.78
  10   2  12   37.78    2.63
 -11  -2 -12   13.31    2.76
  11   2  12   16.52    1.82
 -12  -2 -12   87.50    6.93
  12   2  12   96.80    5.06
 -13  -2 -12    7.72    2.08
  13   2  12    9.06    1.40
 -14  -2 -12   30.43    4.02
  14   2  12   30.77    2.59
   7  -3 -12   46.43    4.00
  -7   3  12   52.88    3.75
   6  -3 -12    7.19    1.63
  -6   3  12    9.45    1.55
   5  -3 -12   98.12    6.12
  -5   3  12  119.15    6.58
   4  -3 -12    9.57    2.60
  -4   3  12    9.18    1.43
   3  -3 -12   24.15    2.54
  -3   3  12   28.78    2.33
   2  -3 -12  218.05   10.33
  -2   3  12  203.15    9.76
  -2   3  12  239.39    9.97
   1  -3 -12   21.33    1.94
   1  -3 -12   17.83    2.00
  -1   3  12   18.28    1.95
  -1   3  12   14.06    1.75
  -1   3  12   19.38    1.73
   0  -3 -12  119.54    6.14
   0  -3 -12  114.29    6.02
   0   3  12  115.58    5.58
   0   3  12  114.02    6.09
  -1  -3 -12  199.84    9.47
  -1  -3 -12  208.23    9.88
   1   3  12  209.45    9.60
   1   3  12  207.30    9.01
  -2  -3 -12   28.91    2.67
  -2  -3 -12   23.75    2.16
   2   3  12   27.41    1.86
   2   3  12   27.23    2.31
   3   3  12  238.86   10.80
   3   3  12  245.34   10.18
  -4  -3 -12   83.36    5.50
   4   3  12   86.35    4.62
   4   3  12   86.59    3.99
  -5  -3 -12    0.28    0.78
   5   3  12    0.04    0.30
   5   3  12    0.17    0.55
  -6  -3 -12  127.78    7.71
   6   3  12  134.46    6.39
   6   3  12  132.30    5.55
  -7  -3 -12   64.26    5.00
   7   3  12   62.82    2.80
   7   3  12   67.40    3.69
  -8  -3 -12   29.41    3.36
   8   3  12   31.23    2.26
  -9  -3 -12  161.04    9.76
   9   3  12  187.92    8.10
 -10  -3 -12    4.95    1.54
  10   3  12    4.58    0.98
 -11  -3 -12   46.74    4.63
  11   3  12   43.65    2.88
 -12  -3 -12   60.34    5.55
  12   3  12   66.20    3.75
 -13  -3 -12    1.27    1.47
 -14  -3 -12   38.78    4.54
  14   3  12   47.13    3.09
   7  -4 -12   29.25    3.15
  -7   4  12   32.35    2.90
   6  -4 -12   14.00    2.15
  -6   4  12   21.82    2.28
   5  -4 -12  143.82    7.69
   4  -4 -12    0.46    0.90
  -4   4  12    2.12    0.84
   3  -4 -12   54.82    3.82
  -3   4  12   58.94    3.59
  -3   4  12   56.10    3.25
   2  -4 -12  168.43    8.22
  -2   4  12  176.67    7.92
  -2   4  12  159.28    7.90
   1  -4 -12    5.74    1.12
   1  -4 -12    4.38    1.08
  -1   4  12    6.19    1.08
  -1   4  12    5.76    1.18
  -1   4  12    4.07    1.05
   0  -4 -12   97.97    5.43
   0  -4 -12  106.76    5.71
   0   4  12  100.54    5.81
   0   4  12  105.95    5.59
   0   4  12  108.49    5.26
  -1  -4 -12   82.14    4.55
  -1  -4 -12   81.65    4.93
   1   4  12   81.03    4.60
   1   4  12   85.57    4.26
  -2  -4 -12  272.66   12.55
  -2  -4 -12  264.17   11.75
  -2  -4 -12  273.05   11.37
   2   4  12  263.35   11.80
   2   4  12  266.98   11.37
  -3  -4 -12  367.81   17.78
  -3  -4 -12  395.17   15.59
   3   4  12  373.58   15.58
  -4  -4 -12   72.78    4.85
  -4  -4 -12   73.57    3.50
   4   4  12   68.51    3.50
   4   4  12   67.03    4.20
  -5  -4 -12   45.25    3.81
  -5  -4 -12   46.94    2.40
   5   4  12   40.84    2.36
   5   4  12   41.74    2.76
  -6  -4 -12  279.87   13.76
   6   4  12  283.10   12.52
  -7  -4 -12   10.66    0.90
  -7  -4 -12    8.41    1.95
   7   4  12    8.95    1.38
  -8  -4 -12   70.26    5.40
  -8  -4 -12   77.99    3.47
   8   4  12   76.56    4.00
  -9  -4 -12  135.20    8.63
  -9  -4 -12  149.72    6.22
   9   4  12  153.09    6.81
 -10  -4 -12    9.44    2.18
 -10  -4 -12   10.46    0.97
  10   4  12    9.88    1.30
 -11  -4 -12   97.07    7.23
  11   4  12  106.92    5.16
 -12  -4 -12   81.59    6.53
  12   4  12   88.11    4.52
 -13  -4 -12    3.06    1.59
  13   4  12    0.65    0.75
 -14  -4 -12   55.28    5.42
  14   4  12   59.61    3.53
   8  -5 -12   52.02    4.24
  -8   5  12   51.40    3.85
   7  -5 -12    5.82    1.45
  -7   5  12    5.99    1.43
   6  -5 -12   66.90    4.73
  -6   5  12   73.09    4.49
   5  -5 -12  106.13    6.14
   4  -5 -12    1.09    0.86
  -4   5  12    2.11    0.93
  -4   5  12    0.96    0.51
   3  -5 -12  113.29    6.25
  -3   5  12  122.53    6.05
  -3   5  12  115.80    5.82
   2  -5 -12  103.30    5.71
  -2   5  12  104.64    5.63
  -2   5  12  110.61    5.52
   1  -5 -12   11.47    1.64
   1  -5 -12    7.61    1.30
  -1   5  12    6.90    1.36
  -1   5  12    7.76    1.27
   0  -5 -12  194.24    9.16
   0  -5 -12  194.12    8.98
   0  -5 -12  195.77    9.34
   0   5  12  184.75    9.48
   0   5  12  199.46    9.09
   0   5  12  195.82    8.80
  -1  -5 -12  194.79    8.54
  -1  -5 -12  198.43    9.46
  -1  -5 -12  187.02    8.78
   1   5  12  182.16    9.54
   1   5  12  196.34    8.91
   1   5  12  190.96    8.57
  -2  -5 -12  120.84    5.74
  -2  -5 -12  118.53    5.97
  -2  -5 -12  127.54    7.61
   2   5  12  127.89    6.17
   2   5  12  118.60    5.76
  -3  -5 -12  267.99   12.52
  -3  -5 -12  256.02   11.06
   3   5  12  252.59   11.11
   3   5  12  270.45   11.43
  -4  -5 -12    5.45    0.82
  -4  -5 -12    5.99    1.47
   4   5  12    7.20    1.06
  -5  -5 -12  169.04    9.05
  -5  -5 -12  167.52    7.26
   5   5  12  162.37    7.51
  -6  -5 -12  273.41   11.18
  -6  -5 -12  263.73   13.19
   6   5  12  265.29   11.40
  -7  -5 -12    8.91    0.99
  -7  -5 -12   10.46    2.05
   7   5  12    8.53    1.09
  -8  -5 -12   94.73    4.42
  -8  -5 -12   90.19    6.37
   8   5  12   97.38    4.64
  -9  -5 -12   49.88    2.68
  -9  -5 -12   44.62    4.36
   9   5  12   53.95    3.20
 -10  -5 -12   18.97    1.51
 -10  -5 -12   22.36    3.09
  10   5  12   17.10    1.64
 -11  -5 -12  129.35    5.84
 -11  -5 -12  125.98    8.30
  11   5  12  127.90    5.99
 -12  -5 -12    1.79    1.37
  12   5  12    1.29    0.64
 -13  -5 -12   20.10    3.24
 -14  -5 -12   64.58    5.89
  14   5  12   70.28    3.86
   8  -6 -12   51.21    4.15
  -8   6  12   51.15    3.91
   7  -6 -12    6.66    1.55
  -7   6  12    5.08    1.30
   6  -6 -12   64.68    4.53
  -6   6  12   74.81    4.53
  -5   6  12   25.38    1.94
  -5   6  12   20.62    2.30
   4  -6 -12   17.68    1.99
  -4   6  12   16.42    2.01
  -4   6  12   18.26    1.77
   3  -6 -12  123.69    6.63
  -3   6  12  130.89    6.44
  -3   6  12  126.67    6.46
   2  -6 -12   28.49    2.54
   2  -6 -12   34.94    2.57
  -2   6  12   35.30    2.57
  -2   6  12   31.92    2.68
   1  -6 -12   18.23    1.82
   1  -6 -12   17.93    1.90
  -1   6  12   19.17    2.11
  -1   6  12   22.59    1.95
   0  -6 -12  312.48   13.98
   0  -6 -12  325.02   13.90
   0  -6 -12  337.08   14.64
   0   6  12  315.07   14.77
   0   6  12  332.47   14.15
   0   6  12  330.50   13.96
  -1  -6 -12    4.53    0.96
  -1  -6 -12    3.90    0.90
  -1  -6 -12    4.47    1.36
   1   6  12    3.73    0.91
   1   6  12    2.93    0.97
  -2  -6 -12  116.81    6.66
  -2  -6 -12  121.96    5.79
  -2  -6 -12  117.47    5.66
   2   6  12  123.30    5.85
   2   6  12  110.86    6.78
   2   6  12  117.73    5.72
  -3  -6 -12  209.49    9.00
  -3  -6 -12  200.44   10.21
   3   6  12  202.35    9.05
  -4  -6 -12    0.97    0.89
  -4  -6 -12    0.30    0.51
   4   6  12    0.12    0.47
  -5  -6 -12  317.23   13.08
  -5  -6 -12  311.32   14.82
   5   6  12  306.96   13.05
  -6  -6 -12  106.69    6.72
  -6  -6 -12  107.14    5.09
   6   6  12  105.96    5.03
  -7  -6 -12   38.80    3.74
  -7  -6 -12   35.45    2.30
   7   6  12   36.85    2.24
  -8  -6 -12  170.53    9.80
  -8  -6 -12  183.29    7.90
   8   6  12  180.35    7.77
  -9  -6 -12   51.61    2.97
  -9  -6 -12   53.24    4.68
   9   6  12   52.86    2.86
 -10  -6 -12   11.35    2.44
 -10  -6 -12   12.03    1.36
  10   6  12   11.75    1.26
 -11  -6 -12  107.45    5.17
 -11  -6 -12   97.78    7.20
  11   6  12  106.33    4.98
 -12  -6 -12   -0.02    0.67
 -12  -6 -12   -0.19    1.09
  12   6  12    0.31    0.56
 -13  -6 -12   96.73    7.13
  13   6  12   93.04    4.65
   7  -7 -12    0.60    0.95
  -7   7  12    0.67    0.99
   6  -7 -12   55.19    4.11
  -6   7  12   59.00    3.99
   5  -7 -12   21.07    2.73
  -5   7  12   19.62    1.90
  -5   7  12   21.38    2.26
   4  -7 -12   80.77    4.93
  -4   7  12   83.05    4.83
   3  -7 -12  239.00   10.78
   3  -7 -12  215.97   10.73
  -3   7  12  242.44   10.85
  -3   7  12  238.40   10.76
   2  -7 -12   12.05    1.62
   2  -7 -12    8.92    1.44
  -2   7  12    9.79    1.50
  -2   7  12   12.36    1.82
   1  -7 -12   72.45    4.11
   1  -7 -12   69.40    4.03
  -1   7  12   68.15    4.05
   0  -7 -12  129.89    6.79
   0  -7 -12  117.12    5.97
   0   7  12  121.71    6.82
   0   7  12  121.28    6.53
   0   7  12  113.79    5.98
  -1  -7 -12   40.10    2.67
  -1  -7 -12   41.95    2.83
  -1  -7 -12   44.18    3.48
   1   7  12   44.22    2.88
   1   7  12   41.15    2.81
   1   7  12   40.41    3.50
  -2  -7 -12  480.67   20.64
  -2  -7 -12  474.11   19.35
   2   7  12  449.46   20.77
   2   7  12  474.30   19.40
  -3  -7 -12  362.51   16.09
  -3  -7 -12  350.18   14.71
   3   7  12  329.17   16.14
   3   7  12  352.14   14.58
  -4  -7 -12    3.30    0.84
  -4  -7 -12    2.11    1.17
   4   7  12    3.29    1.26
   4   7  12    2.90    0.71
  -5  -7 -12  261.00   11.28
  -5  -7 -12  263.41   12.88
   5   7  12  261.16   10.99
  -6  -7 -12   62.60    3.48
  -6  -7 -12   63.90    4.84
   6   7  12   59.69    3.12
  -7  -7 -12   82.51    4.26
  -7  -7 -12   81.17    5.77
   7   7  12   81.61    3.89
  -8  -7 -12  106.16    5.26
  -8  -7 -12  106.55    6.91
   8   7  12  106.49    4.83
  -9  -7 -12   11.41    2.40
  -9  -7 -12   11.75    1.42
   9   7  12   11.19    1.09
 -10  -7 -12   66.77    3.69
  10   7  12   57.93    3.07
 -11  -7 -12   59.18    3.50
 -11  -7 -12   57.15    5.17
  11   7  12   58.42    3.01
 -12  -7 -12   -0.75    0.72
 -12  -7 -12    0.23    1.09
  12   7  12   -0.20    0.40
 -13  -7 -12   80.07    6.53
 -13  -7 -12   79.02    4.55
   7  -8 -12    4.03    1.34
  -7   8  12    5.98    1.44
   6  -8 -12   55.58    4.12
  -6   8  12   57.91    4.05
  -6   8  12   60.18    4.07
   5  -8 -12    1.72    0.95
  -5   8  12    1.97    1.06
  -5   8  12    0.76    0.87
   4  -8 -12   61.26    4.11
   4  -8 -12   59.34    4.09
  -4   8  12   65.98    4.10
  -4   8  12   66.35    4.26
   3  -8 -12  193.66    9.11
   3  -8 -12  178.80    8.93
  -3   8  12  184.94    8.98
  -3   8  12  193.76    9.22
   2  -8 -12    5.11    1.23
   2  -8 -12    6.03    1.16
  -2   8  12    5.96    1.33
  -2   8  12    4.20    1.13
   1  -8 -12  157.58    7.66
   1  -8 -12  163.81    7.80
  -1   8  12  162.82    8.40
  -1   8  12  159.44    7.80
   0  -8 -12   44.18    3.05
   0  -8 -12   45.19    2.91
   0   8  12   47.82    3.74
   0   8  12   46.82    3.12
  -1  -8 -12    4.69    0.87
  -1  -8 -12    5.32    1.12
  -1  -8 -12    4.62    1.40
   1   8  12    4.65    1.42
   1   8  12    3.78    0.87
  -2  -8 -12  150.86    7.30
  -2  -8 -12  162.66    8.42
  -2  -8 -12  157.97    7.05
   2   8  12  151.61    7.04
   2   8  12  149.68    8.48
  -3  -8 -12  165.68    8.67
  -3  -8 -12  158.02    7.42
   3   8  12  144.76    8.63
   3   8  12  161.95    7.07
  -4  -8 -12   64.80    4.78
  -4  -8 -12   64.71    4.01
   4   8  12   59.03    4.78
   4   8  12   60.19    3.19
  -5  -8 -12  295.87   14.19
   5   8  12  293.96   14.49
   5   8  12  289.98   12.05
  -6  -8 -12    0.75    1.08
   6   8  12    0.83    1.17
   6   8  12    0.90    0.41
  -7  -8 -12   75.20    4.45
  -7  -8 -12   73.78    5.42
   7   8  12   70.00    3.35
  -8  -8 -12  111.00    7.18
  -8  -8 -12  117.88    5.73
   8   8  12  109.62    4.88
  -9  -8 -12    0.30    0.60
  -9  -8 -12   -0.80    0.81
   9   8  12   -0.25    0.30
 -10  -8 -12   45.10    4.53
 -10  -8 -12   49.67    3.15
  10   8  12   44.95    2.34
 -11  -8 -12   64.51    3.95
 -11  -8 -12   64.11    5.49
 -12  -8 -12   55.44    3.64
 -12  -8 -12   54.23    5.05
 -13  -8 -12   65.47    4.04
 -13  -8 -12   51.91    5.18
   7  -9 -12   33.13    3.12
  -7   9  12   32.82    3.13
   6  -9 -12   52.11    3.89
  -6   9  12   49.29    4.13
   5  -9 -12   -0.54    0.77
   5  -9 -12   -0.59    0.64
  -5   9  12   -0.42    0.77
   4  -9 -12  104.35    6.10
   4  -9 -12  120.64    6.37
  -4   9  12  113.67    6.27
  -4   9  12  115.68    6.29
   3  -9 -12   84.32    4.81
   3  -9 -12   76.32    4.81
  -3   9  12   85.99    5.15
  -3   9  12   83.25    4.96
   2  -9 -12   28.33    2.63
   2  -9 -12   29.71    2.47
  -2   9  12   32.27    2.74
  -2   9  12   34.60    3.00
   1  -9 -12   83.07    4.94
   1  -9 -12   88.18    4.75
  -1   9  12   95.97    5.69
  -1   9  12   87.77    5.04
   0  -9 -12    3.80    0.85
   0  -9 -12    2.23    0.87
   0   9  12    1.80    1.06
  -1  -9 -12  150.98    7.30
  -1  -9 -12  148.60    6.85
   1   9  12  150.50    8.31
   1   9  12  146.70    6.90
  -2  -9 -12  296.57   12.28
  -2  -9 -12  283.10   12.78
  -2  -9 -12  310.37   14.07
   2   9  12  282.27   14.04
   2   9  12  286.99   12.27
  -3  -9 -12   42.54    2.90
  -3  -9 -12   44.19    3.85
   3   9  12   39.90    3.79
   3   9  12   37.79    2.30
  -4  -9 -12  109.23    6.67
  -4  -9 -12  104.48    5.43
   4   9  12   98.61    4.62
   4   9  12  103.31    6.75
  -5  -9 -12  127.83    6.36
  -5  -9 -12  132.29    7.69
   5   9  12  123.69    7.86
  -6  -9 -12    0.16    0.99
  -6  -9 -12    1.62    0.71
   6   9  12    1.06    0.33
   6   9  12    1.13    1.19
  -7  -9 -12  104.59    6.95
  -7  -9 -12  118.30    5.72
   7   9  12  113.75    7.39
   7   9  12   99.02    4.49
  -8  -9 -12   52.55    4.66
  -8  -9 -12   55.96    3.52
   8   9  12   51.61    4.85
  -9  -9 -12   16.01    1.78
  -9  -9 -12   10.72    2.74
   9   9  12   14.36    2.87
 -10  -9 -12   85.54    6.57
 -10  -9 -12  104.93    5.35
  10   9  12   85.58    6.62
 -11  -9 -12   22.46    3.32
 -11  -9 -12   18.80    2.22
  11   9  12   18.80    3.00
 -12  -9 -12   34.22    3.95
 -12  -9 -12   33.89    2.90
  12   9  12   28.95    3.75
   7 -10 -12   26.27    2.78
  -7  10  12   27.16    2.92
   6 -10 -12    9.16    1.72
   6 -10 -12    9.88    1.73
  -6  10  12    7.97    1.66
  -6  10  12    9.10    1.70
   5 -10 -12    1.18    0.95
   5 -10 -12    2.98    1.05
  -5  10  12    1.49    0.95
  -5  10  12    0.43    0.90
   4 -10 -12  119.76    6.75
   4 -10 -12  121.26    6.61
  -4  10  12  126.97    6.88
  -4  10  12  136.40    7.12
   3 -10 -12   42.14    3.19
  -3  10  12   45.74    3.63
   2 -10 -12   60.43    4.10
   2 -10 -12   61.28    3.82
  -2  10  12   63.57    4.20
  -2  10  12   70.24    4.68
   1 -10 -12   64.24    4.20
  -1  10  12   71.87    4.89
   0 -10 -12   -1.10    0.51
   0 -10 -12   -0.37    0.45
   0  10  12    0.13    0.81
  -1 -10 -12  108.90    5.77
  -1 -10 -12  105.91    5.11
   1  10  12  105.13    5.15
   1  10  12  109.00    6.72
  -2 -10 -12  146.35    7.37
   2  10  12  151.85    8.51
   2  10  12  149.72    6.60
  -3 -10 -12    3.00    1.36
  -3 -10 -12    3.50    1.03
   3  10  12    4.68    1.47
   3  10  12    2.38    0.51
  -4 -10 -12  293.37   13.47
  -4 -10 -12  267.19   11.87
   4  10  12  239.97   10.61
   4  10  12  260.65   13.36
  -5 -10 -12   65.69    3.90
  -5 -10 -12   66.74    4.96
   5  10  12   52.56    2.57
   5  10  12   65.83    5.25
  -6 -10 -12    3.47    0.98
  -6 -10 -12    3.10    1.48
   6  10  12    3.34    1.46
  -7 -10 -12  122.95    7.79
  -7 -10 -12  125.33    6.46
   7  10  12  124.57    8.07
  -8 -10 -12    6.30    1.35
  -8 -10 -12    8.43    2.06
   8  10  12    6.99    2.40
  -9 -10 -12   53.18    3.69
  -9 -10 -12   53.19    4.89
   9  10  12   51.45    5.03
 -10 -10 -12  116.99    7.82
 -10 -10 -12  118.31    6.32
  10  10  12  110.78    7.92
 -11 -10 -12   -0.58    0.87
 -11 -10 -12    0.51    1.24
  11  10  12    0.88    1.14
 -12 -10 -12   52.79    5.08
 -12 -10 -12   51.52    3.89
  12  10  12   54.58    5.19
   6 -11 -12    0.55    0.93
   6 -11 -12    1.28    1.00
  -6  11  12    0.46    1.05
  -6  11  12    1.10    1.11
   5 -11 -12   63.49    4.37
   5 -11 -12   67.88    4.60
  -5  11  12   67.41    4.72
  -5  11  12   64.48    4.59
   4 -11 -12  127.59    7.14
   4 -11 -12  134.88    6.94
  -4  11  12  133.93    7.45
  -4  11  12  130.72    7.22
   3 -11 -12    1.66    1.05
   3 -11 -12    2.30    0.98
  -3  11  12    1.61    0.96
  -3  11  12    1.19    1.09
   2 -11 -12   93.17    4.98
   2 -11 -12   88.03    5.99
  -2  11  12   92.74    5.93
   1 -11 -12   85.52    5.23
   1 -11 -12   92.86    4.83
  -1  11  12   95.61    6.05
   0 -11 -12   13.60    1.46
   0  11  12   14.80    2.41
  -1 -11 -12  157.97    6.95
  -1 -11 -12  151.11    7.80
   1  11  12  148.52    6.91
   1  11  12  169.79    9.01
  -2 -11 -12   76.55    4.59
   2  11  12   69.73    3.52
   2  11  12   83.05    5.71
  -3 -11 -12   59.73    3.84
   3  11  12   58.98    4.78
   3  11  12   50.23    2.65
  -4 -11 -12  239.51   11.07
   4  11  12  238.33   12.46
  -5 -11 -12   98.80    5.60
  -5 -11 -12  102.43    6.82
   5  11  12  100.75    6.93
  -6 -11 -12   14.94    1.97
  -7 -11 -12  137.78    7.24
  -7 -11 -12  141.83    8.68
   7  11  12  142.32    8.93
  -8 -11 -12   18.91    3.13
  -8 -11 -12   22.16    2.38
   8  11  12   21.54    3.41
  -9 -11 -12   50.73    4.83
  -9 -11 -12   52.19    3.79
   9  11  12   49.74    5.02
 -10 -11 -12   41.24    3.30
 -10 -11 -12   40.43    4.36
  10  11  12   36.51    4.35
 -11 -11 -12   -0.89    0.86
 -11 -11 -12   -0.75    0.99
  11  11  12   -0.02    1.02
   5 -12 -12   74.37    4.97
  -5  12  12   72.80    5.24
  -5  12  12   74.55    5.01
   4 -12 -12  127.10    6.57
   4 -12 -12  116.37    6.81
  -4  12  12  121.39    6.93
   3 -12 -12    1.08    0.71
   3 -12 -12   -0.41    0.83
  -3  12  12    0.41    0.84
   2 -12 -12   72.46    4.18
   2 -12 -12   69.86    4.70
  -2  12  12   76.27    5.34
   1 -12 -12   45.82    3.65
   1 -12 -12   52.05    3.13
  -1  12  12   55.06    4.47
   0 -12 -12   41.97    2.57
   0  12  12   43.87    4.02
  -1 -12 -12  151.37    6.36
  -1 -12 -12  150.14    7.57
   1  12  12  154.93    8.58
   1  12  12  127.42    6.25
  -2 -12 -12   29.11    2.78
   2  12  12   33.81    3.46
  -3 -12 -12   73.48    4.66
  -4 -12 -12   75.23    4.61
   4  12  12   65.05    6.33
  -5 -12 -12    5.89    1.40
   5  12  12    8.29    2.13
  -6 -12 -12   50.65    3.69
   6  12  12   45.48    4.64
  -7 -12 -12   49.74    4.74
   7  12  12   39.33    4.49
  -8 -12 -12    7.75    2.13
  -8 -12 -12    4.18    1.34
   8  12  12    2.67    1.67
  -9 -12 -12   78.53    5.12
  -9 -12 -12   85.73    6.55
   9  12  12   82.26    6.57
 -10 -12 -12   24.22    3.55
 -10 -12 -12   25.25    2.66
  10  12  12   20.40    3.14
   5 -13 -12   32.27    3.31
   5 -13 -12   31.95    3.13
  -5  13  12   31.01    3.26
  -5  13  12   30.33    3.38
   4 -13 -12   10.10    1.87
   4 -13 -12   17.74    2.15
  -4  13  12   16.38    2.63
  -4  13  12   11.63    2.03
   3 -13 -12   23.78    2.22
   3 -13 -12   18.07    2.46
  -3  13  12   21.95    2.98
   2 -13 -12  145.42    8.06
   2 -13 -12  155.88    7.32
  -2  13  12  159.38    8.90
   1 -13 -12   25.99    2.78
   1 -13 -12   28.11    2.15
  -1  13  12   32.18    3.55
   0 -13 -12   43.82    3.56
   0  13  12   45.37    4.27
  -1 -13 -12   75.70    4.95
   1  13  12   82.11    5.92
  -2 -13 -12    2.16    1.16
   2  13  12    2.02    1.45
  -3 -13 -12   70.50    4.87
   3  13  12   86.33    6.15
  -4 -13 -12   50.12    3.85
   4  13  12   54.18    4.90
  -5 -13 -12    4.56    1.37
   5  13  12    6.07    1.80
  -6 -13 -12  137.03    7.68
   6  13  12  147.20    9.04
  -7 -13 -12   50.63    3.95
   7  13  12   53.36    5.12
  -8 -13 -12    3.83    1.27
   8  13  12    5.03    1.96
  -9 -13 -12   31.07    3.03
   9  13  12   32.23    4.09
   3 -14 -12    6.91    1.60
  -3  14  12   11.68    2.35
   2 -14 -12   42.58    3.68
  -2  14  12   47.76    4.41
   1 -14 -12    4.51    1.40
  -1  14  12    5.09    1.72
   0 -14 -12  133.51    7.71
   0  14  12  150.29    8.74
  -1 -14 -12   76.89    5.23
   1  14  12   85.62    6.18
  -2 -14 -12    9.51    1.85
   2  14  12    7.24    2.03
  -3 -14 -12   87.89    5.71
   3  14  12  104.27    6.94
  -4 -14 -12   65.32    4.65
   4  14  12   64.86    5.56
  -5 -14 -12   13.11    2.11
   5  14  12   10.66    2.47
  -6 -14 -12   81.91    5.44
   6  14  12   87.06    6.68
  -7 -14 -12    0.30    0.97
   7  14  12    1.79    1.58
   1 -15 -12    3.20    1.35
  -1  15  12    5.61    1.89
   0 -15 -12   65.14    4.91
   0  15  12   76.61    5.84
  -1 -15 -12   36.71    3.51
   1  15  12   40.66    4.32
  -2 -15 -12   25.52    2.77
   2  15  12   23.77    3.50
  -3 -15 -12   89.90    5.87
   3  15  12   93.68    6.84
  -4 -15 -12    8.12    1.84
   4  15  12    8.99    2.33
  -5 -15 -12   52.31    4.33
   5  15  12   60.29    5.51
   2  -5  13   27.71    3.01
   3  -5  13   82.78    5.41
  -4   5 -13    4.55    1.66
   4  -5  13    2.08    1.22
  -5   5 -13   53.10    4.85
   5  -5  13   54.68    4.11
  -6   5 -13   60.43    5.30
   6  -5  13   65.88    4.49
  -7   5 -13   -1.32    0.77
   7  -5  13   -1.39    0.63
   0  -4  13   36.72    3.47
   1  -4  13    8.37    1.64
  -2   4 -13   79.77    5.34
   2  -4  13   71.87    4.90
  -3   4 -13   90.69    6.06
   3  -4  13   90.33    5.62
  -4   4 -13    0.22    1.07
   4  -4  13   -0.51    0.79
   5  -4  13   75.90    4.94
  -6   4 -13   45.19    4.46
   6  -4  13   49.74    3.77
  -7   4 -13    7.50    2.07
   7  -4  13    7.11    1.53
  -8   4 -13   83.66    6.69
   8  -4  13   90.52    5.42
  -9   4 -13   18.79    3.28
   9  -4  13   24.08    2.62
  -2  -3  13    5.43    1.48
  -1  -3  13   53.31    3.30
  -1  -3  13   50.53    4.11
   0  -3  13   49.33    3.94
   0  -3  13   49.57    3.02
  -1   3 -13   -0.41    0.76
   1  -3  13   -0.22    0.47
   1  -3  13   -0.45    0.85
  -2   3 -13   87.52    5.69
   2  -3  13   91.26    5.54
  -3   3 -13   19.46    2.72
   3  -3  13   21.13    2.50
  -4   3 -13    3.09    1.26
   4  -3  13    2.49    1.09
  -5   3 -13  149.82    8.85
   5  -3  13  152.56    7.92
   6  -3  13   21.18    2.49
  -7   3 -13    5.60    1.87
   7  -3  13    5.38    1.22
  -8   3 -13   42.82    4.45
   8  -3  13   41.43    3.41
  -9   3 -13   -0.20    1.06
   9  -3  13   -0.76    0.71
 -10   3 -13   42.81    4.84
  10  -3  13   46.37    3.58
 -11   3 -13   54.50    5.57
  11  -3  13   56.11    4.02
   3   2 -13   77.04    5.33
  -3  -2  13   82.98    4.79
  -3  -2  13   81.32    5.51
   2   2 -13    3.69    1.28
  -2  -2  13    4.27    1.35
  -2  -2  13    4.38    0.98
  -1  -2  13   42.36    2.87
  -1  -2  13   41.91    3.64
   0   2 -13   33.95    2.84
   0  -2  13   34.25    3.20
   0  -2  13   33.66    2.35
  -1   2 -13   14.91    2.09
   1  -2  13   16.32    1.60
   1  -2  13   14.98    2.17
  -2   2 -13  148.26    8.12
   2  -2  13  150.15    7.86
  -3   2 -13    7.82    1.73
   3  -2  13   10.67    1.78
  -4   2 -13   63.77    4.89
   4  -2  13   65.18    4.36
  -5   2 -13  162.62    9.41
   5  -2  13  172.30    8.51
  -6   2 -13   22.84    3.05
   6  -2  13   19.71    2.44
   7  -2  13   43.95    3.40
  -8   2 -13   39.90    4.31
   8  -2  13   37.36    3.12
  -9   2 -13    2.74    1.54
   9  -2  13    1.71    0.83
 -10   2 -13  132.31    9.11
  10  -2  13  143.66    7.32
 -11   2 -13   35.28    4.43
  11  -2  13   40.46    3.24
   4   1 -13   52.82    4.40
  -4  -1  13   64.98    4.04
  -4  -1  13   59.82    4.64
   3   1 -13   26.69    3.01
  -3  -1  13   38.30    3.20
  -3  -1  13   29.89    3.16
   2   1 -13   25.08    2.84
  -2  -1  13   27.78    2.98
  -2  -1  13   33.73    2.47
   1   1 -13  114.92    6.60
  -1  -1  13  118.93    5.75
  -1  -1  13  108.96    6.47
   0  -1  13   17.02    2.16
   0  -1  13   20.01    1.75
  -1   1 -13   61.50    4.84
   1  -1  13   59.44    4.15
   1  -1  13   63.35    3.31
  -2   1 -13  116.96    6.59
   2  -1  13  104.64    5.00
  -3   1 -13   38.38    3.44
   3  -1  13   31.91    1.84
   3  -1  13   32.76    2.82
  -4   1 -13   46.84    4.07
   4  -1  13   47.78    3.50
  -5   1 -13   63.31    5.01
   5  -1  13   67.27    4.27
  -6   1 -13    2.37    1.33
   6  -1  13    3.55    1.13
  -7   1 -13   82.81    6.12
  -8   1 -13   70.98    6.51
   8  -1  13   76.94    4.63
  -9   1 -13    4.25    1.67
   9  -1  13    3.09    1.06
 -10   1 -13   57.93    5.58
  10  -1  13   69.98    4.29
 -11   1 -13   19.11    3.30
  11  -1  13   27.11    2.60
 -12   1 -13   26.14    3.94
  12  -1  13   28.81    2.64
   5   0 -13    2.81    1.28
  -5   0  13    6.17    1.60
  -5   0  13    3.92    1.13
   4   0 -13  126.01    7.46
  -4   0  13  144.33    7.07
  -4   0  13  129.90    7.64
   3   0 -13   21.21    2.62
  -3   0  13   23.61    2.20
  -3   0  13   21.63    2.69
   2   0 -13   30.19    2.99
  -2   0  13   28.28    2.99
  -2   0  13   31.23    2.42
   1   0 -13   85.62    4.57
   1   0 -13   79.25    5.09
  -1   0  13   77.61    5.18
  -1   0  13   90.89    4.56
   0   0 -13    0.77    0.72
   0   0  13   -0.52    0.44
  -1   0 -13   76.33    4.74
   1   0  13   72.26    4.67
   1   0  13   70.15    3.72
  -2   0 -13   72.70    4.76
   2   0  13   65.15    4.30
   2   0  13   68.32    3.41
  -3   0 -13    7.57    1.70
   3   0  13    6.31    1.28
   3   0  13    7.02    0.80
  -4   0 -13  141.93    7.90
   4   0  13  126.63    5.56
   4   0  13  138.59    7.04
  -5   0 -13   58.06    4.76
   5   0  13   57.38    3.84
  -6   0 -13   10.36    2.17
   6   0  13    9.21    1.44
  -7   0 -13   64.28    5.35
   7   0  13   72.14    4.31
  -8   0 -13    4.60    1.75
   8   0  13    4.61    1.12
  -9   0 -13   41.54    4.22
 -10   0 -13   47.55    4.99
  10   0  13   62.49    3.83
 -11   0 -13   -1.91    0.92
  11   0  13   -0.77    0.74
 -12   0 -13   54.18    5.33
  12   0  13   60.12    3.92
 -13   0 -13   47.29    5.27
  13   0  13   60.22    3.88
   5  -1 -13   34.05    3.34
  -5   1  13   42.80    3.20
  -5   1  13   39.11    3.67
   4  -1 -13  125.62    7.49
  -4   1  13  136.70    7.76
  -4   1  13  148.76    7.15
   3  -1 -13   -0.10    0.51
  -3   1  13   -0.59    0.78
  -3   1  13    0.12    0.70
   2  -1 -13   87.64    5.54
  -2   1  13   88.06    5.53
  -2   1  13  100.18    5.04
   1  -1 -13   97.29    4.93
  -1   1  13  100.00    4.85
  -1   1  13   75.77    4.75
   0  -1 -13    3.46    1.15
   0  -1 -13    4.49    1.11
   0   1  13    1.91    0.72
   0   1  13    4.43    1.14
  -1  -1 -13   75.30    4.81
  -1  -1 -13   88.54    5.13
   1   1  13   77.65    4.84
   1   1  13   80.42    4.07
  -2  -1 -13   57.42    4.11
   2   1  13   51.43    3.70
   2   1  13   51.91    2.82
  -3  -1 -13   36.26    3.20
   3   1  13   29.80    2.67
   3   1  13   27.36    1.74
  -4  -1 -13  227.84   13.03
   4   1  13  221.59    9.34
   4   1  13  242.58   10.74
  -5  -1 -13    5.18    1.59
   5   1  13    5.05    1.21
  -6  -1 -13   40.56    3.91
   6   1  13   45.15    3.19
  -7  -1 -13  164.41    9.57
   7   1  13  167.41    8.02
  -8  -1 -13   -0.51    0.89
   8   1  13   -0.30    0.58
   9   1  13   72.17    4.29
 -10  -1 -13  105.15    7.65
  10   1  13  118.96    6.11
 -11  -1 -13    1.11    1.26
  11   1  13    0.69    0.79
 -12  -1 -13   72.59    6.38
  12   1  13   79.82    4.58
 -13  -1 -13   28.32    4.05
  13   1  13   30.68    2.64
   6  -2 -13   -1.01    0.81
  -6   2  13   -1.40    0.62
   5  -2 -13   80.49    5.54
  -5   2  13  101.63    5.44
   4  -2 -13   88.74    5.72
  -4   2  13   99.63    5.41
  -4   2  13  101.61    6.17
   3  -2 -13    1.68    0.99
  -3   2  13    1.45    1.09
  -3   2  13    0.98    0.75
  -2   2  13  139.84    6.84
   1  -2 -13   28.62    2.33
   1  -2 -13   27.42    2.68
  -1   2  13   28.41    2.76
  -1   2  13   28.12    2.20
   0  -2 -13   44.53    3.12
   0  -2 -13   39.56    3.10
   0   2  13   34.67    3.12
   0   2  13   45.48    2.76
  -1  -2 -13  151.65    7.74
  -1  -2 -13  149.28    7.49
   1   2  13  147.24    6.73
   1   2  13  141.44    7.47
  -2  -2 -13   35.70    3.16
   2   2  13   31.74    2.80
   2   2  13   38.03    2.22
  -3  -2 -13   78.13    5.07
   3   2  13   70.06    4.37
   3   2  13   73.08    3.56
  -4  -2 -13  107.93    6.63
   4   2  13  111.43    5.75
   4   2  13  102.56    4.69
  -5  -2 -13    0.12    0.79
   5   2  13    0.21    0.63
  -6  -2 -13  102.63    6.70
   6   2  13  101.82    5.42
  -7  -2 -13   87.04    6.21
   7   2  13   94.16    5.01
  -8  -2 -13    7.43    1.94
   8   2  13    7.17    1.22
  -9  -2 -13  117.43    8.03
   9   2  13  131.01    6.35
 -10  -2 -13   55.31    5.25
  10   2  13   63.97    3.78
 -11  -2 -13   10.22    2.42
  11   2  13   11.89    1.65
 -12  -2 -13   70.00    6.10
  12   2  13   79.30    4.43
 -13  -2 -13   31.98    4.20
  13   2  13   36.91    2.82
   6  -3 -13    0.32    0.89
  -6   3  13   -0.24    0.77
   5  -3 -13  138.88    7.96
  -5   3  13  155.09    7.58
   4  -3 -13   75.12    4.97
   3  -3 -13   31.47    2.96
  -3   3  13   33.57    3.13
  -3   3  13   34.29    2.65
   2  -3 -13  156.19    7.87
  -2   3  13  154.17    7.92
  -2   3  13  157.24    7.32
  -2   3  13  136.79    7.06
   1  -3 -13   27.28    2.25
   1  -3 -13   21.59    2.33
  -1   3  13   21.28    2.13
  -1   3  13   23.03    2.05
  -1   3  13   21.55    2.43
   0  -3 -13   46.50    3.46
   0  -3 -13   56.23    3.63
   0   3  13   48.43    3.58
   0   3  13   46.12    3.59
   0   3  13   54.83    3.18
  -1  -3 -13  290.16   13.14
  -1  -3 -13  301.43   13.54
   1   3  13  290.71   13.21
   1   3  13  296.96   12.55
  -2  -3 -13    6.70    1.48
   2   3  13    5.55    0.89
   2   3  13    4.38    1.09
  -3  -3 -13  130.41    7.36
   3   3  13  126.08    6.53
   3   3  13  130.08    5.83
  -4  -3 -13  168.44    9.10
   4   3  13  165.10    7.21
   4   3  13  171.38    8.05
  -5  -3 -13    0.57    0.83
   5   3  13    0.38    0.55
  -6  -3 -13   58.48    4.70
   6   3  13   57.74    3.48
   6   3  13   53.17    2.53
  -7  -3 -13   24.64    3.15
   7   3  13   26.49    2.18
  -8  -3 -13   56.96    4.83
   8   3  13   57.92    3.51
  -9  -3 -13  202.31   11.48
   9   3  13  211.24    9.41
 -10  -3 -13   16.38    2.90
  10   3  13   18.05    1.84
 -11  -3 -13   12.04    2.61
  11   3  13   13.39    1.73
 -12  -3 -13   39.94    4.59
  12   3  13   43.56    3.00
 -13  -3 -13    0.74    1.29
  13   3  13   -1.14    0.60
   6  -4 -13   13.91    2.31
  -6   4  13   19.32    2.24
   5  -4 -13   83.31    5.49
  -5   4  13   90.43    5.16
   4  -4 -13   18.76    2.23
  -3   4  13   63.20    3.58
  -3   4  13   69.26    4.06
   2  -4 -13  132.20    7.09
  -2   4  13  131.25    6.69
  -2   4  13  143.05    6.78
  -2   4  13  136.40    7.27
   1  -4 -13    9.46    1.53
   1  -4 -13   12.54    1.66
  -1   4  13    6.47    1.25
  -1   4  13    8.81    1.58
  -1   4  13   10.34    1.71
   0  -4 -13   31.41    2.73
   0  -4 -13   35.82    2.92
   0   4  13   38.04    2.97
   0   4  13   32.50    2.92
   0   4  13   38.31    2.51
  -1  -4 -13   88.30    5.02
  -1  -4 -13   91.80    5.51
   1   4  13   93.50    4.67
   1   4  13   89.62    5.11
  -2  -4 -13    2.48    0.83
  -2  -4 -13    2.47    1.05
   2   4  13    2.74    0.75
   2   4  13    2.58    0.86
  -3  -4 -13  137.51    7.66
   3   4  13  135.13    6.77
   3   4  13  137.65    6.25
  -4  -4 -13   24.97    2.86
   4   4  13   30.71    2.34
   4   4  13   26.04    1.79
  -5  -4 -13   49.53    2.49
  -5  -4 -13   44.17    3.89
   5   4  13   40.96    2.90
   5   4  13   42.83    2.43
  -6  -4 -13  142.48    8.41
   6   4  13  150.04    6.85
   6   4  13  145.19    6.95
  -7  -4 -13   21.36    1.34
  -7  -4 -13   18.34    2.63
   7   4  13   18.67    1.82
   7   4  13   20.57    1.30
  -8  -4 -13   97.13    6.68
  -8  -4 -13   98.64    4.11
   8   4  13   93.46    4.83
   8   4  13   88.28    4.08
  -9  -4 -13  128.96    8.41
   9   4  13  140.61    6.50
 -10  -4 -13   -0.02    0.65
  10   4  13   -0.94    0.42
 -11  -4 -13   85.67    6.74
  11   4  13   93.55    4.77
 -12  -4 -13   74.92    6.45
  12   4  13   74.51    4.13
 -13  -4 -13    3.14    1.53
   6  -5 -13   54.94    4.32
  -6   5  13   62.19    4.09
   5  -5 -13  135.44    7.66
  -5   5  13  146.89    7.34
   4  -5 -13    1.16    0.98
   3  -5 -13   95.75    5.70
  -3   5  13   99.92    5.17
  -3   5  13  104.37    5.49
   2  -5 -13  121.17    6.59
  -2   5  13  126.27    6.32
  -2   5  13  122.42    6.37
   1  -5 -13   13.74    1.84
   1  -5 -13   17.12    1.97
  -1   5  13   12.89    1.83
  -1   5  13   14.32    1.65
  -1   5  13   13.10    1.90
   0  -5 -13  131.32    6.59
   0  -5 -13  134.55    6.89
   0   5  13  129.99    6.25
   0   5  13  124.49    6.60
   0   5  13  117.86    6.95
  -1  -5 -13    0.12    0.72
  -1  -5 -13    1.85    0.79
   1   5  13    0.92    0.84
   1   5  13    1.03    0.71
   1   5  13    1.48    0.63
  -2  -5 -13  102.68    5.43
  -2  -5 -13  110.41    6.24
  -2  -5 -13  105.08    5.12
   2   5  13  100.19    5.45
   2   5  13  102.81    5.15
  -3  -5 -13  315.11   14.86
  -3  -5 -13  330.93   13.41
   3   5  13  314.40   13.80
   3   5  13  314.56   13.42
  -4  -5 -13   44.90    2.65
  -4  -5 -13   49.40    3.98
   4   5  13   43.91    2.67
   4   5  13   47.57    3.06
  -5  -5 -13    2.86    0.65
  -5  -5 -13    3.44    1.36
   5   5  13    3.43    0.68
   5   5  13    3.45    0.79
  -6  -5 -13   90.30    4.25
  -6  -5 -13   87.17    6.10
   6   5  13   90.15    4.62
  -7  -5 -13   27.09    3.31
  -7  -5 -13   29.71    1.85
   7   5  13   30.36    2.18
  -8  -5 -13  215.68    8.80
  -8  -5 -13  199.17   11.24
   8   5  13  207.61    9.18
  -9  -5 -13   97.13    6.90
  -9  -5 -13  101.89    4.53
   9   5  13   95.08    4.87
 -10  -5 -13    6.94    1.98
  10   5  13    9.52    1.26
 -11  -5 -13  138.92    9.22
  11   5  13  155.93    6.95
 -12  -5 -13   62.56    5.61
  12   5  13   69.58    3.76
 -13  -5 -13   -0.02    1.05
   6  -6 -13   55.62    4.35
  -6   6  13   63.15    4.18
   5  -6 -13   57.37    4.27
  -5   6  13   62.78    4.09
   4  -6 -13    9.76    1.71
  -4   6  13    9.85    1.62
  -4   6  13   13.63    1.50
   3  -6 -13  129.99    7.09
  -3   6  13  139.50    6.91
   2  -6 -13  114.62    6.27
  -2   6  13  117.98    6.29
  -2   6  13  116.19    6.04
   1  -6 -13   45.73    3.25
  -1   6  13   44.21    3.28
  -1   6  13   48.13    3.15
  -1   6  13   43.65    3.93
   0  -6 -13  144.94    6.95
   0  -6 -13  156.32    7.74
   0  -6 -13  141.33    7.14
   0   6  13  142.94    7.23
   0   6  13  145.95    6.99
   0   6  13  136.69    7.72
  -1  -6 -13   75.79    4.81
  -1  -6 -13   75.99    4.06
  -1  -6 -13   73.50    4.20
   1   6  13   68.54    4.91
   1   6  13   70.71    4.31
   1   6  13   72.64    4.04
  -2  -6 -13   75.95    4.37
  -2  -6 -13   75.74    5.00
  -2  -6 -13   72.97    4.16
   2   6  13   70.30    5.10
   2   6  13   78.21    4.29
  -3  -6 -13   85.42    5.50
  -3  -6 -13   85.53    4.35
   3   6  13   81.21    4.35
   3   6  13   85.26    4.58
  -4  -6 -13    1.80    0.68
  -4  -6 -13    1.73    1.02
   4   6  13    1.34    0.59
  -5  -6 -13  150.40    8.63
  -5  -6 -13  156.81    7.03
   5   6  13  158.70    7.19
  -6  -6 -13  195.10   10.70
  -6  -6 -13  211.35    8.80
   6   6  13  196.40    8.85
  -7  -6 -13   10.80    2.26
  -7  -6 -13   11.19    1.31
   7   6  13   13.07    1.31
  -8  -6 -13  131.20    8.27
  -8  -6 -13  139.62    6.24
   8   6  13  137.58    6.67
  -9  -6 -13   76.80    5.98
  -9  -6 -13   75.06    3.89
   9   6  13   79.27    3.95
 -10  -6 -13   26.37    3.55
 -10  -6 -13   27.21    1.95
  10   6  13   24.70    1.90
 -11  -6 -13  106.15    7.71
  11   6  13  114.79    5.35
 -12  -6 -13   17.93    3.22
  12   6  13   15.44    1.61
 -13  -6 -13   21.25    3.21
  13   6  13   18.17    1.74
   6  -7 -13  105.03    6.50
  -6   7  13  119.71    6.42
   5  -7 -13    9.65    1.78
  -5   7  13   13.31    1.95
  -4   7  13   24.88    2.18
  -4   7  13   22.74    2.43
   3  -7 -13   66.07    4.37
  -3   7  13   68.71    4.23
   2  -7 -13   63.02    3.88
   2  -7 -13   57.46    3.94
  -2   7  13   61.86    3.89
  -2   7  13   61.05    4.16
   1  -7 -13  125.95    6.59
   1  -7 -13  130.77    6.48
  -1   7  13  127.93    7.12
  -1   7  13  128.45    6.52
   0  -7 -13  106.81    5.78
   0  -7 -13  126.91    6.60
   0  -7 -13  114.17    5.79
   0   7  13  114.30    5.84
   0   7  13  111.32    5.91
   0   7  13  105.28    6.54
  -1  -7 -13    1.35    0.92
  -1  -7 -13    0.69    0.56
  -1  -7 -13    0.70    0.68
   1   7  13   -0.39    0.56
   1   7  13    1.70    0.73
   1   7  13    0.66    0.84
  -2  -7 -13   36.73    3.31
  -2  -7 -13   34.88    2.48
   2   7  13   32.11    3.29
   2   7  13   33.54    2.44
  -3  -7 -13   15.94    2.24
   3   7  13   14.57    1.56
   3   7  13   12.08    2.25
  -4  -7 -13    0.56    0.50
  -4  -7 -13   -0.02    0.77
   4   7  13   -0.01    0.89
   4   7  13    0.73    0.56
  -5  -7 -13  192.70   10.25
  -5  -7 -13  200.48    8.66
   5   7  13  185.20    8.45
  -6  -7 -13   41.49    2.65
  -6  -7 -13   39.29    3.90
   6   7  13   41.68    2.47
  -7  -7 -13   43.74    2.72
  -7  -7 -13   43.68    4.17
   7   7  13   43.14    2.50
  -8  -7 -13  104.88    5.18
  -8  -7 -13  107.28    7.07
   8   7  13  104.03    4.91
  -9  -7 -13   14.19    1.49
   9   7  13   12.97    1.24
 -10  -7 -13   37.95    4.20
  10   7  13   39.55    2.36
 -11  -7 -13   76.77    6.32
  11   7  13   84.26    4.02
 -12  -7 -13    2.18    1.06
 -12  -7 -13    2.97    1.66
  12   7  13    1.99    0.62
 -13  -7 -13   80.44    6.56
   6  -8 -13   98.39    5.88
  -6   8  13   87.33    5.44
   5  -8 -13    1.47    0.92
  -5   8  13    1.18    1.01
  -5   8  13    0.65    0.70
   4  -8 -13   54.23    4.49
  -4   8  13   62.21    4.08
   3  -8 -13  194.17    9.51
   3  -8 -13  190.88    9.45
  -3   8  13  190.26   10.05
  -3   8  13  204.48    9.60
   2  -8 -13    0.23    0.80
   2  -8 -13    0.01    0.68
  -2   8  13    0.12    0.71
  -2   8  13    0.41    0.91
   1  -8 -13   59.00    3.81
   1  -8 -13   61.84    3.88
  -1   8  13   66.38    4.55
  -1   8  13   60.82    3.91
   0  -8 -13  136.75    6.80
   0  -8 -13  129.43    6.66
   0   8  13  142.55    7.76
   0   8  13  139.45    6.82
   0   8  13  135.27    6.86
  -1  -8 -13   20.67    2.14
  -1  -8 -13   16.99    1.86
  -1  -8 -13   19.93    2.54
   1   8  13   18.96    1.96
   1   8  13   20.54    1.95
   1   8  13   17.82    2.49
  -2  -8 -13   85.98    4.76
  -2  -8 -13   93.51    5.83
  -2  -8 -13   87.62    4.63
   2   8  13   92.18    6.05
   2   8  13   91.17    4.70
  -3  -8 -13   32.57    3.23
  -3  -8 -13   29.26    2.27
   3   8  13   24.07    3.10
   3   8  13   28.10    2.07
  -4  -8 -13   24.36    2.97
  -4  -8 -13   23.87    2.00
   4   8  13   24.66    3.08
   4   8  13   23.22    1.78
  -5  -8 -13  111.39    5.41
  -5  -8 -13  102.39    6.66
   5   8  13  105.04    4.96
   5   8  13  104.82    6.99
  -6  -8 -13    3.19    0.85
  -6  -8 -13    1.53    1.16
   6   8  13    2.21    1.43
   6   8  13    2.10    0.55
  -7  -8 -13   90.35    6.37
  -7  -8 -13   92.74    4.79
   7   8  13   89.56    4.22
  -8  -8 -13   96.89    5.01
  -8  -8 -13   95.27    6.75
  -9  -8 -13    0.66    1.18
  -9  -8 -13    0.31    0.58
 -10  -8 -13  103.69    7.37
 -10  -8 -13  114.52    5.69
 -11  -8 -13   76.31    6.09
 -12  -8 -13    0.70    1.15
 -12  -8 -13   -0.39    0.74
   6  -9 -13   59.80    4.36
  -6   9  13   62.62    4.30
   5  -9 -13    2.33    1.04
  -5   9  13    2.60    1.09
  -5   9  13    1.20    1.03
   4  -9 -13   56.11    4.07
   4  -9 -13   55.52    4.05
  -4   9  13   64.18    4.24
  -4   9  13   63.04    4.16
   3  -9 -13  111.03    6.19
   3  -9 -13  108.97    6.12
  -3   9  13  113.11    6.25
  -3   9  13  115.58    6.43
   2  -9 -13    0.52    0.81
   2  -9 -13    2.37    0.90
  -2   9  13    1.06    0.83
  -2   9  13    1.47    0.97
   1  -9 -13   96.62    5.61
   1  -9 -13  105.70    5.60
  -1   9  13  102.94    5.77
  -1   9  13  114.20    6.51
   0  -9 -13   30.81    2.39
   0  -9 -13   27.97    2.49
   0   9  13   30.58    2.37
   0   9  13   27.99    3.04
   0   9  13   29.97    2.55
  -1  -9 -13   54.53    3.31
  -1  -9 -13   52.44    3.52
   1   9  13   56.41    3.38
   1   9  13   58.19    4.52
  -2  -9 -13  100.93    5.50
  -2  -9 -13  111.54    6.64
  -2  -9 -13  105.64    5.18
   2   9  13  102.58    6.67
   2   9  13  105.73    5.20
  -3  -9 -13   41.90    3.87
  -3  -9 -13   43.13    2.93
   3   9  13   40.84    3.94
   3   9  13   40.48    2.50
  -4  -9 -13   64.61    4.95
  -4  -9 -13   64.85    3.83
   4   9  13   62.67    3.24
   4   9  13   59.27    4.89
  -5  -9 -13   56.86    3.46
  -5  -9 -13   56.62    4.65
   5   9  13   51.88    2.74
   5   9  13   52.22    4.75
  -6  -9 -13   -0.50    0.53
  -6  -9 -13   -0.84    0.74
   6   9  13   -1.64    0.87
   6   9  13    0.57    0.37
  -7  -9 -13  113.51    7.45
  -7  -9 -13  115.71    5.90
   7   9  13  115.32    7.74
  -8  -9 -13   80.44    6.01
  -8  -9 -13   76.19    4.40
   8   9  13   72.43    6.02
  -9  -9 -13   10.99    2.46
  -9  -9 -13   12.85    1.71
   9   9  13    9.55    2.43
 -10  -9 -13  121.34    6.08
 -10  -9 -13  110.31    7.73
  10   9  13  107.90    7.86
 -11  -9 -13   64.15    4.03
 -11  -9 -13   61.82    5.50
  11   9  13   61.90    5.68
 -12  -9 -13   21.00    3.33
 -12  -9 -13   23.69    2.42
   6 -10 -13   65.82    4.55
  -6  10  13   60.32    4.47
   5 -10 -13    4.91    1.36
   5 -10 -13    5.97    1.50
  -5  10  13    5.31    1.37
  -5  10  13    4.85    1.37
   4 -10 -13  104.59    6.12
   4 -10 -13  110.18    6.11
  -4  10  13  104.11    6.18
  -4  10  13  107.72    6.20
   3 -10 -13   17.74    2.17
   3 -10 -13   17.90    2.24
  -3  10  13   16.92    2.23
  -3  10  13   20.53    2.49
   2 -10 -13   14.67    1.96
   2 -10 -13   10.50    1.77
  -2  10  13   15.22    2.37
  -2  10  13    9.28    1.97
   1 -10 -13  100.68    5.61
   1 -10 -13   90.31    5.17
  -1  10  13  104.61    6.32
  -1  10  13   98.76    5.65
   0 -10 -13   15.50    1.83
   0 -10 -13   10.55    1.67
   0  10  13   12.41    1.54
   0  10  13   15.10    2.40
  -1 -10 -13   95.36    4.75
  -1 -10 -13   85.59    5.09
   1  10  13   97.73    6.23
   1  10  13   90.32    4.72
  -2 -10 -13  101.80    5.50
   2  10  13  100.44    6.65
   2  10  13   98.26    4.85
  -3 -10 -13    1.51    0.80
  -3 -10 -13    1.52    1.25
   3  10  13    1.04    1.19
   3  10  13    0.73    0.45
  -4 -10 -13   62.72    3.78
  -4 -10 -13   57.71    4.60
   4  10  13   48.76    2.71
   4  10  13   60.21    4.96
  -5 -10 -13   19.83    2.98
  -5 -10 -13   23.59    2.19
   5  10  13   21.59    3.16
  -6 -10 -13    5.43    1.26
  -6 -10 -13    7.01    2.39
   6  10  13    6.71    1.94
  -7 -10 -13  118.25    6.08
  -7 -10 -13  113.01    7.47
   7  10  13  107.67    7.56
  -8 -10 -13   39.30    2.96
  -8 -10 -13   39.66    4.15
   8  10  13   32.65    4.15
  -9 -10 -13   43.27    3.30
  -9 -10 -13   43.52    4.34
   9  10  13   43.33    4.72
 -10 -10 -13   74.26    6.11
 -10 -10 -13   77.44    4.65
  10  10  13   74.34    6.41
 -11 -10 -13   18.65    3.21
  11  10  13   15.73    3.19
   5 -11 -13   41.53    3.53
   5 -11 -13   36.57    3.24
  -5  11  13   39.86    3.44
  -5  11  13   38.10    3.51
   4 -11 -13  142.07    7.44
   4 -11 -13  136.96    7.58
  -4  11  13  143.93    7.88
  -4  11  13  140.37    7.68
   3 -11 -13   20.54    2.30
   3 -11 -13   20.98    2.19
  -3  11  13   18.41    2.73
  -3  11  13   22.17    2.57
   2 -11 -13   40.68    3.45
   2 -11 -13   49.05    3.35
  -2  11  13   46.35    3.64
  -2  11  13   49.12    4.09
   1 -11 -13   92.10    5.06
   1 -11 -13   93.47    5.54
  -1  11  13  103.67    6.41
   0 -11 -13    2.01    0.75
   0 -11 -13    2.38    1.00
   0  11  13    2.37    1.32
   0  11  13    3.18    0.78
  -1 -11 -13   77.58    4.06
  -1 -11 -13   77.16    4.70
   1  11  13   75.97    4.04
   1  11  13   83.44    5.76
  -2 -11 -13   93.88    5.24
   2  11  13   82.47    4.23
   2  11  13   94.82    6.30
  -3 -11 -13   28.99    2.68
   3  11  13   28.41    3.48
   3  11  13   23.41    1.54
  -4 -11 -13   89.68    5.37
  -4 -11 -13  109.28    8.02
   4  11  13   95.99    7.68
  -5 -11 -13    7.88    2.06
  -5 -11 -13    8.45    1.53
   5  11  13    7.81    2.00
  -6 -11 -13   62.19    5.05
  -6 -11 -13   50.81    3.80
   6  11  13   58.41    5.23
  -7 -11 -13  154.92    9.32
  -7 -11 -13  156.17    7.83
   7  11  13  148.95    9.48
  -8 -11 -13   26.93    2.73
  -8 -11 -13   31.08    3.87
   8  11  13   32.53    4.07
  -9 -11 -13   24.43    2.54
  -9 -11 -13   20.94    3.05
   9  11  13   21.09    3.53
 -10 -11 -13   41.12    4.43
  10  11  13   35.45    4.41
 -11 -11 -13    7.24    2.23
 -11 -11 -13    6.99    1.46
  11  11  13    4.66    1.87
   4 -12 -13   64.55    4.71
  -4  12  13   77.28    5.26
  -4  12  13   69.31    4.90
   3 -12 -13    0.34    0.89
   3 -12 -13    0.84    0.80
  -3  12  13   -0.55    0.84
  -3  12  13    0.87    1.12
   2 -12 -13   39.28    2.95
   2 -12 -13   36.83    3.30
  -2  12  13   43.94    3.98
  -2  12  13   41.91    3.47
   1 -12 -13   29.61    2.43
   1 -12 -13   30.98    2.93
  -1  12  13   33.57    3.63
   0 -12 -13   11.25    1.80
   0 -12 -13    9.95    1.38
   0  12  13    9.69    2.54
   0  12  13    9.46    1.29
  -1 -12 -13  118.04    6.72
   1  12  13  112.72    5.61
   1  12  13  141.61    8.17
   2  12  13   27.17    3.47
  -3 -12 -13   30.39    2.77
   3  12  13   28.59    3.63
  -4 -12 -13   94.55    5.60
   4  12  13   98.52    6.82
  -5 -12 -13    6.81    1.52
   5  12  13    6.01    2.00
  -6 -12 -13   49.89    4.76
   6  12  13   48.05    4.85
  -7 -12 -13   49.59    4.71
  -7 -12 -13   49.96    4.23
   7  12  13   52.11    5.13
  -8 -12 -13    7.53    1.60
  -8 -12 -13   10.69    2.56
   8  12  13    6.36    2.24
  -9 -12 -13  128.08    7.15
  -9 -12 -13  128.97    8.64
   9  12  13  134.43    8.95
 -10 -12 -13   94.98    5.79
 -10 -12 -13   97.33    7.27
  10  12  13   94.90    7.34
   3 -13 -13   -0.25    0.86
   3 -13 -13   -0.53    0.80
  -3  13  13   -0.29    0.95
  -3  13  13   -0.14    1.10
   2 -13 -13   62.24    4.50
  -2  13  13   68.42    5.24
   1 -13 -13   29.28    2.91
  -1  13  13   24.84    3.29
   0 -13 -13   23.41    2.65
   0  13  13   28.15    3.40
  -1 -13 -13  130.03    7.37
   1  13  13  146.21    8.61
  -2 -13 -13   16.85    2.30
   2  13  13   21.97    3.20
  -3 -13 -13   11.81    1.99
   3  13  13   18.58    2.80
  -4 -13 -13   67.55    4.66
   4  13  13   72.74    5.90
  -5 -13 -13    1.88    1.03
   5  13  13    1.30    1.54
  -6 -13 -13   58.16    4.30
   6  13  13   65.71    5.68
  -7 -13 -13   37.51    3.39
   7  13  13   40.74    4.57
  -8 -13 -13   -0.31    0.90
   8  13  13    0.42    1.32
   2 -14 -13   56.33    4.36
  -2  14  13   60.51    5.08
   1 -14 -13    5.49    1.48
  -1  14  13    6.59    1.91
   0 -14 -13   22.33    2.72
   0  14  13   31.63    3.65
  -1 -14 -13   11.51    1.98
  -2 -14 -13    0.07    0.94
   2  14  13   -0.73    0.68
  -3 -14 -13   78.05    5.26
   3  14  13   84.63    6.40
  -4 -14 -13   34.94    3.37
   4  14  13   44.79    4.41
  -5 -14 -13   22.70    2.74
   5  14  13   25.78    3.78
  -6 -14 -13  101.37    6.33
   6  14  13  113.47    7.91
  -7 -14 -13    7.62    1.63
   7  14  13    7.02    2.11
   0 -15 -13   51.94    4.36
   0  15  13   67.31    5.48
  -1 -15 -13   12.98    2.20
   1  15  13   17.46    3.04
  -2 -15 -13   -0.56    0.85
   2  15  13   -1.03    1.17
  -3 -15 -13   90.21    5.97
   3  15  13  100.99    7.23
  -4 -15 -13   12.42    2.15
   4  15  13   14.33    2.95
  -3   4 -14   80.32    5.73
   3  -4  14   82.65    5.43
  -4   4 -14    3.73    1.63
   4  -4  14    6.15    1.46
  -5   4 -14   17.75    2.81
   5  -4  14   22.75    2.61
  -6   4 -14   24.76    3.50
   6  -4  14   26.09    2.77
   0  -3  14   63.46    4.70
   1  -3  14    0.88    1.02
  -2   3 -14   59.41    4.55
   2  -3  14   61.83    4.47
  -3   3 -14   53.95    4.45
   3  -3  14   50.83    4.02
  -4   3 -14   -0.33    1.00
   4  -3  14   -0.86    0.66
  -5   3 -14   29.82    3.68
   5  -3  14   29.48    2.93
  -6   3 -14   24.04    3.43
   6  -3  14   27.67    2.80
  -7   3 -14   31.77    3.86
   7  -3  14   36.83    3.20
  -8   3 -14   83.80    6.74
   8  -3  14   98.95    5.74
  -9   3 -14   20.35    3.15
   9  -3  14   22.90    2.59
  -1  -2  14   68.19    3.96
  -1  -2  14   66.79    4.84
   0  -2  14   26.90    2.11
   0  -2  14   28.41    3.05
  -1   2 -14    7.80    1.67
   1  -2  14    7.15    1.54
  -2   2 -14  114.64    6.78
   2  -2  14  110.86    6.55
  -3   2 -14   38.43    3.57
   3  -2  14   37.28    3.34
  -4   2 -14   -1.08    0.81
   4  -2  14   -0.96    0.70
  -5   2 -14   67.09    5.38
   5  -2  14   76.83    4.84
  -6   2 -14    7.81    2.10
   6  -2  14    7.66    1.76
  -7   2 -14    8.79    2.19
   7  -2  14   14.01    2.01
  -8   2 -14   41.90    4.53
   8  -2  14   43.52    3.49
  -9   2 -14    0.71    1.19
   9  -2  14    0.55    0.85
 -10   2 -14   29.89    4.19
  10  -2  14   38.58    3.19
   2   1 -14    0.56    0.89
  -2  -1  14    0.12    0.90
   1   1 -14   32.81    3.10
  -1  -1  14   38.14    2.64
  -1  -1  14   28.76    3.15
   0  -1  14   23.35    2.76
   0  -1  14   24.43    2.01
  -1   1 -14   33.98    3.08
   1  -1  14   33.63    2.24
   1  -1  14   35.37    3.26
  -2   1 -14  168.10    8.65
   2  -1  14  145.40    8.14
  -3   1 -14    5.22    1.50
   3  -1  14    4.11    1.28
  -4   1 -14   18.33    2.60
   4  -1  14   17.14    2.31
  -5   1 -14  101.05    6.93
   5  -1  14  106.08    6.00
  -6   1 -14   -0.54    0.95
   6  -1  14   -1.45    0.63
  -7   1 -14   19.94    3.14
   7  -1  14   26.00    2.57
  -8   1 -14   18.24    3.03
   8  -1  14   17.92    2.25
  -9   1 -14   37.54    4.39
   9  -1  14   41.90    3.32
 -10   1 -14  122.48    8.60
  10  -1  14  123.78    6.71
 -11   1 -14   13.45    2.86
  11  -1  14   18.11    2.25
   3   0 -14   36.21    3.45
  -3   0  14   37.25    2.92
  -3   0  14   38.10    3.58
   2   0 -14   12.04    2.03
  -2   0  14   18.36    1.90
  -2   0  14   12.25    2.12
   1   0 -14   78.73    5.24
  -1   0  14   78.81    5.27
  -1   0  14   81.86    4.44
   0   0 -14    1.06    0.81
   0   0  14    0.48    0.99
  -1   0 -14   60.76    4.25
   1   0  14   62.02    4.39
  -2   0 -14  126.62    7.03
   2   0  14  117.48    6.57
   2   0  14  112.40    5.38
  -3   0 -14    9.20    1.85
   3   0  14    8.04    1.60
   3   0  14    9.93    1.04
  -4   0 -14   83.62    5.83
   4   0  14   86.07    5.17
  -5   0 -14   54.55    4.59
   5   0  14   51.76    4.17
  -6   0 -14    3.70    1.58
   6   0  14    3.91    1.17
   7   0  14  110.57    6.10
  -8   0 -14   24.35    3.49
   8   0  14   29.71    2.56
  -9   0 -14    2.34    1.52
   9   0  14    5.09    1.27
 -10   0 -14   90.18    7.12
  10   0  14   92.95    5.34
 -11   0 -14    0.92    1.36
  11   0  14   -0.86    0.70
 -12   0 -14   40.48    4.62
  12   0  14   47.21    3.45
   4  -1 -14   73.77    5.30
  -4   1  14   86.02    4.91
  -4   1  14   76.79    5.48
   3  -1 -14    4.11    1.32
  -3   1  14    3.30    1.27
  -3   1  14    3.43    1.01
   2  -1 -14   46.62    3.99
  -2   1  14   61.28    3.62
  -2   1  14   54.38    4.23
   1  -1 -14   96.99    5.93
  -1   1  14   95.56    5.96
  -1   1  14  103.03    5.25
   0  -1 -14   -0.31    0.76
   0  -1 -14    0.33    0.73
   0   1  14   -0.44    0.84
   0   1  14    0.10    0.56
  -1  -1 -14   95.91    5.63
   1   1  14   93.13    4.66
   1   1  14   89.53    5.55
  -2  -1 -14   93.06    5.77
   2   1  14   87.54    4.33
  -3  -1 -14    4.90    1.46
   3   1  14    3.76    1.21
   3   1  14    5.87    0.82
  -4  -1 -14  143.24    8.35
   4   1  14  148.08    7.54
  -5  -1 -14   44.98    4.16
   5   1  14   39.42    3.19
  -6  -1 -14   34.29    3.71
   6   1  14   32.38    2.79
  -7  -1 -14   64.91    5.40
   7   1  14   72.72    4.36
  -8  -1 -14    3.38    1.52
  -9  -1 -14   76.40    6.28
   9   1  14   86.77    4.91
 -10  -1 -14   61.71    5.73
  10   1  14   69.83    4.22
 -11  -1 -14   -0.78    0.97
  11   1  14   -0.97    0.66
 -12  -1 -14   53.90    5.61
  12   1  14   68.67    4.18
   4  -2 -14   61.16    4.68
  -4   2  14   74.93    5.23
  -4   2  14   77.36    4.61
   3  -2 -14    0.64    0.93
  -3   2  14    0.28    1.01
  -3   2  14    2.97    0.96
   2  -2 -14   62.22    4.50
  -2   2  14   64.76    4.64
  -2   2  14   69.37    4.04
   1  -2 -14   42.59    2.90
   1  -2 -14   34.24    3.20
  -1   2  14   38.93    3.38
  -1   2  14   39.43    2.76
  -1   2  14   32.24    2.68
   0  -2 -14    9.35    1.62
   0  -2 -14    9.49    2.00
   0   2  14    8.34    1.80
   0   2  14    9.67    1.32
  -1  -2 -14   98.35    5.87
  -1  -2 -14  109.45    6.12
   1   2  14  105.23    6.01
   1   2  14  105.56    5.15
  -2  -2 -14  107.71    6.36
   2   2  14  103.81    5.97
   2   2  14  106.28    5.03
  -3  -2 -14   28.74    3.06
   3   2  14   28.47    1.80
   3   2  14   28.32    2.69
  -4  -2 -14  170.68    9.21
   4   2  14  176.72    8.29
   4   2  14  150.88    6.92
  -5  -2 -14    7.48    1.84
   5   2  14    7.17    1.36
  -6  -2 -14   71.67    5.45
   6   2  14   69.65    4.29
  -7  -2 -14   92.65    6.68
   7   2  14  101.16    5.42
   8   2  14   -0.71    0.54
  -9  -2 -14  102.10    7.43
   9   2  14  111.20    5.78
 -10  -2 -14   40.95    4.55
 -11  -2 -14    5.48    1.98
  11   2  14    6.95    1.32
 -12  -2 -14  131.17    9.18
  12   2  14  140.24    6.96
   5  -3 -14   45.85    3.98
  -5   3  14   49.72    3.63
  -5   3  14   46.60    4.02
   4  -3 -14   44.17    3.83
  -4   3  14   49.39    3.51
  -4   3  14   50.50    4.01
   3  -3 -14    4.35    1.27
  -3   3  14    4.70    1.48
   2  -3 -14   68.27    4.70
  -2   3  14   69.73    4.79
  -2   3  14   73.71    4.24
   1  -3 -14   23.98    2.17
   1  -3 -14   16.11    2.24
  -1   3  14   18.19    2.38
  -1   3  14   20.22    1.98
   0  -3 -14   34.18    2.91
   0  -3 -14   32.35    2.92
   0   3  14   30.82    2.87
   0   3  14   35.32    2.50
   0   3  14   33.49    3.02
  -1  -3 -14  151.21    8.01
  -1  -3 -14  165.29    8.40
   1   3  14  165.50    7.44
   1   3  14  159.90    8.13
  -2  -3 -14   18.79    2.50
   2   3  14   20.12    1.66
   2   3  14   19.61    2.30
  -3  -3 -14   76.53    5.21
   3   3  14   74.53    4.56
   3   3  14   72.74    3.72
  -4  -3 -14  183.18    9.70
   4   3  14  170.98    7.58
   4   3  14  179.91    8.60
  -5  -3 -14    2.11    1.17
   5   3  14    0.51    0.70
  -6  -3 -14   29.81    3.47
   6   3  14   32.28    2.58
  -7  -3 -14   73.37    5.67
   7   3  14   67.88    4.13
  -8  -3 -14   29.44    3.46
   8   3  14   30.05    2.48
  -9  -3 -14  107.35    7.62
   9   3  14  113.34    5.79
 -10  -3 -14   29.43    3.82
  10   3  14   27.67    2.37
 -11  -3 -14   35.05    4.24
 -12  -3 -14  106.19    8.05
  12   3  14  118.49    5.98
 -13  -3 -14    7.48    2.31
  13   3  14    5.83    1.20
   5  -4 -14   73.57    5.17
  -5   4  14   75.24    4.68
   4  -4 -14   25.48    2.86
  -4   4  14   34.40    2.84
   3  -4 -14   11.95    1.97
  -3   4  14   13.57    2.10
   2  -4 -14   43.21    3.45
  -2   4  14   45.42    3.11
  -2   4  14   43.46    3.60
  -2   4  14   51.36    3.34
   1  -4 -14    1.78    0.92
   1  -4 -14    0.94    0.72
  -1   4  14    0.27    0.78
  -1   4  14   -0.41    0.56
  -1   4  14    0.71    0.73
   0  -4 -14  104.84    5.93
   0   4  14  105.54    6.04
   0   4  14  107.94    5.44
  -1  -4 -14  245.72   11.37
  -1  -4 -14  258.62   11.87
   1   4  14  219.15   11.78
   1   4  14  247.01   11.47
   1   4  14  260.49   10.87
  -2  -4 -14    4.11    1.24
   2   4  14    4.28    1.14
   2   4  14    3.97    0.88
  -3  -4 -14   80.12    5.43
   3   4  14   81.71    4.74
   3   4  14   75.28    3.98
  -4  -4 -14   36.28    3.56
   4   4  14   35.51    2.77
   4   4  14   37.07    2.25
  -5  -4 -14   47.04    4.16
   5   4  14   47.29    3.20
   5   4  14   45.54    2.52
  -6  -4 -14  184.29   10.52
   6   4  14  196.39    9.05
   6   4  14  200.64    8.67
  -7  -4 -14   94.86    6.87
   7   4  14   98.96    5.21
  -8  -4 -14   42.68    4.30
   8   4  14   40.99    2.92
  -9  -4 -14  116.84    8.02
   9   4  14  121.93    6.04
 -10  -4 -14    4.85    1.78
  10   4  14    5.52    1.11
 -11  -4 -14   93.00    7.16
  11   4  14   95.15    5.04
 -12  -4 -14   26.49    3.90
 -13  -4 -14    3.05    1.53
  13   4  14    1.19    0.87
   5  -5 -14   76.33    5.26
  -5   5  14   80.16    4.88
   4  -5 -14   11.26    1.96
  -4   5  14   19.04    2.20
   3  -5 -14   22.41    2.53
  -3   5  14   23.75    2.72
  -2   5  14   33.11    2.63
  -2   5  14   29.91    2.57
   1  -5 -14    0.57    0.81
  -1   5  14   -0.40    0.69
  -1   5  14    0.38    0.73
  -1   5  14   -0.69    0.61
   0  -5 -14  118.93    6.33
   0  -5 -14  106.38    6.00
   0   5  14  109.05    5.63
   0   5  14  105.76    6.44
   0   5  14  111.05    6.15
  -1  -5 -14  118.24    6.30
  -1  -5 -14  122.94    6.77
   1   5  14  119.16    5.92
   1   5  14  122.80    6.43
   1   5  14  113.19    6.95
  -2  -5 -14    2.73    1.12
  -2  -5 -14    3.65    1.02
   2   5  14    3.50    1.06
   2   5  14    2.71    0.91
  -3  -5 -14  107.92    6.64
   3   5  14  108.39    5.32
   3   5  14  108.84    5.76
  -4  -5 -14   43.45    3.92
  -4  -5 -14   48.03    2.74
   4   5  14   44.97    2.73
   4   5  14   44.61    3.07
  -5  -5 -14    9.35    2.01
  -5  -5 -14   11.57    1.22
   5   5  14    9.43    1.12
   5   5  14   11.42    1.50
  -6  -5 -14   90.99    6.45
  -6  -5 -14  102.44    4.49
   6   5  14   88.02    4.41
   6   5  14   89.29    4.85
  -7  -5 -14    8.61    1.07
  -7  -5 -14    7.12    1.94
   7   5  14    7.68    0.94
   7   5  14    6.56    1.08
  -8  -5 -14   55.49    5.02
   8   5  14   54.40    3.37
   8   5  14   59.88    3.06
  -9  -5 -14   69.86    5.88
   9   5  14   73.79    3.98
 -10  -5 -14    7.01    1.98
  10   5  14    4.70    0.98
 -11  -5 -14  102.27    7.60
  11   5  14  115.50    5.54
 -12  -5 -14   39.21    4.58
  12   5  14   40.11    2.71
 -13  -5 -14    3.47    1.75
  13   5  14    1.57    0.94
   5  -6 -14   68.58    4.86
  -5   6  14   70.96    4.56
   4  -6 -14    0.95    0.99
  -4   6  14    3.14    1.13
   3  -6 -14   45.93    3.56
  -3   6  14   42.45    3.22
   2  -6 -14   20.41    2.35
  -2   6  14   22.29    2.23
  -2   6  14   20.75    2.43
   1  -6 -14    6.01    1.36
  -1   6  14    5.62    1.17
  -1   6  14    5.43    1.25
  -1   6  14    5.98    1.36
   0  -6 -14  172.16    8.48
   0  -6 -14  153.83    7.96
   0   6  14  166.63    8.14
   0   6  14  165.23    7.77
   0   6  14  149.93    8.52
  -1  -6 -14    2.90    0.80
  -1  -6 -14    1.52    0.84
  -1  -6 -14    2.12    1.11
   1   6  14    1.27    0.71
   1   6  14    1.96    0.84
   1   6  14    2.16    1.01
  -2  -6 -14  120.26    5.83
  -2  -6 -14  123.06    6.98
  -2  -6 -14  119.64    6.12
   2   6  14  116.75    5.88
   2   6  14  111.86    7.06
   2   6  14  121.19    6.21
  -3  -6 -14  211.66    9.37
  -3  -6 -14  200.67   10.32
   3   6  14  183.23   10.36
   3   6  14  195.26    9.17
  -4  -6 -14    6.26    1.70
  -4  -6 -14    3.86    0.90
   4   6  14    3.61    0.84
   4   6  14    3.92    0.93
  -5  -6 -14   93.50    6.23
  -5  -6 -14   92.66    4.52
   5   6  14   85.89    4.51
   5   6  14   88.83    4.73
  -6  -6 -14   93.04    4.52
  -6  -6 -14   94.07    6.46
   6   6  14   88.48    4.73
  -7  -6 -14    2.06    0.63
  -7  -6 -14    1.46    1.35
   7   6  14    0.60    0.63
  -8  -6 -14  152.96    6.68
   8   6  14  144.77    6.87
  -9  -6 -14   81.14    6.40
  -9  -6 -14   87.74    4.14
   9   6  14   82.29    4.32
 -10  -6 -14   19.26    3.20
  10   6  14   21.19    1.84
 -11  -6 -14   88.92    7.04
  11   6  14   93.30    4.67
 -12  -6 -14   45.98    5.08
  12   6  14   54.37    3.13
   5  -7 -14   64.25    4.72
  -5   7  14   69.00    4.46
   4  -7 -14   10.58    1.76
  -4   7  14   11.49    1.81
   3  -7 -14   76.62    4.93
  -3   7  14   79.96    4.79
  -3   7  14   78.45    4.67
   2  -7 -14   27.54    2.69
  -2   7  14   27.12    2.69
  -2   7  14   28.58    2.52
   1  -7 -14   47.45    3.59
  -1   7  14   50.87    3.43
  -1   7  14   52.97    3.71
  -1   7  14   49.36    3.89
   0  -7 -14  131.52    6.70
   0  -7 -14  146.01    7.39
   0  -7 -14  124.61    6.45
   0   7  14  125.79    6.52
   0   7  14  123.13    6.73
   0   7  14  123.55    7.31
  -1  -7 -14   25.60    2.28
  -1  -7 -14   24.38    2.12
  -1  -7 -14   27.14    2.81
   1   7  14   22.66    2.37
   1   7  14   24.92    2.31
   1   7  14   21.52    2.83
  -2  -7 -14  114.53    5.91
  -2  -7 -14  119.15    6.92
  -2  -7 -14  115.59    5.77
   2   7  14  111.58    7.07
   2   7  14  114.44    5.87
   2   7  14  116.13    5.98
  -3  -7 -14  151.72    6.99
  -3  -7 -14  152.66    8.37
   3   7  14  143.92    7.01
   3   7  14  147.42    7.09
   3   7  14  137.68    8.44
  -4  -7 -14    1.17    1.08
  -4  -7 -14    0.71    0.66
   4   7  14   -0.09    0.94
   4   7  14    0.75    0.62
  -5  -7 -14  133.09    6.28
  -5  -7 -14  126.09    7.90
   5   7  14  135.68    6.36
  -6  -7 -14   76.92    4.09
  -6  -7 -14   79.01    5.72
  -7  -7 -14   29.22    2.15
  -7  -7 -14   28.37    3.46
  -8  -7 -14  108.99    7.72
   8   7  14  127.70    6.03
  -9  -7 -14   62.74    5.47
  -9  -7 -14   68.03    3.65
   9   7  14   67.16    3.51
 -10  -7 -14   19.02    3.24
 -10  -7 -14   22.73    1.90
 -11  -7 -14   41.01    4.60
  11   7  14   41.63    2.55
 -12  -7 -14   -0.21    1.10
  12   7  14   -0.94    0.79
   5  -8 -14   26.13    2.83
  -5   8  14   25.37    2.71
   4  -8 -14   23.03    2.56
  -4   8  14   23.46    2.52
  -4   8  14   23.60    2.31
  -3   8  14   49.01    4.18
  -3   8  14   43.90    3.43
   2  -8 -14    6.19    1.35
  -2   8  14    6.53    1.54
   1  -8 -14  127.68    6.65
   1  -8 -14  127.99    6.74
  -1   8  14  125.13    6.75
  -1   8  14  129.31    6.71
  -1   8  14  133.67    7.41
   0  -8 -14   60.19    3.89
   0  -8 -14   61.10    3.84
   0   8  14   61.54    3.91
   0   8  14   64.17    4.65
   0   8  14   57.26    3.83
  -1  -8 -14    0.65    0.60
  -1  -8 -14    1.15    1.04
  -1  -8 -14    0.79    0.67
   1   8  14    0.89    1.06
   1   8  14    0.56    0.68
   1   8  14   -1.10    0.73
  -2  -8 -14  130.58    7.45
  -2  -8 -14  120.76    6.22
  -2  -8 -14  125.83    6.22
   2   8  14  128.30    6.29
   2   8  14  123.59    7.63
   2   8  14  119.75    6.29
  -3  -8 -14   81.56    4.49
  -3  -8 -14   88.94    5.77
   3   8  14   75.96    5.75
   3   8  14   77.22    4.34
  -4  -8 -14    9.90    2.03
  -4  -8 -14    8.19    1.28
   4   8  14    9.95    1.29
   4   8  14   10.17    2.26
  -5  -8 -14  112.97    7.13
  -5  -8 -14  111.74    5.48
   5   8  14  100.56    7.10
   5   8  14  103.57    5.14
  -6  -8 -14   10.36    1.41
  -6  -8 -14    7.99    2.01
   6   8  14    8.78    2.19
   6   8  14    8.83    1.16
  -7  -8 -14   65.77    3.76
   7   8  14   65.13    3.38
  -8  -8 -14   91.18    4.84
  -8  -8 -14   98.41    6.91
   8   8  14   90.75    4.39
  -9  -8 -14    2.85    0.91
  -9  -8 -14    4.06    1.61
   9   8  14    1.88    0.57
 -10  -8 -14   38.96    4.22
 -11  -8 -14  107.01    5.48
 -11  -8 -14  103.76    7.66
 -12  -8 -14    1.27    1.17
   5  -9 -14    8.44    1.75
  -5   9  14   10.65    1.87
   4  -9 -14   52.02    3.94
  -4   9  14   54.56    4.01
   3  -9 -14   96.61    6.29
   3  -9 -14   87.91    5.48
  -3   9  14   97.35    5.66
  -3   9  14  100.18    5.85
   2  -9 -14    5.80    1.31
   2  -9 -14    4.31    1.13
  -2   9  14    4.34    1.30
  -2   9  14    3.96    1.32
   1  -9 -14   51.31    3.65
   1  -9 -14   59.55    3.78
  -1   9  14   53.02    4.30
  -1   9  14   55.63    3.86
  -1   9  14   49.21    3.57
   0  -9 -14   58.00    3.75
   0  -9 -14   59.32    3.87
   0   9  14   58.57    4.60
   0   9  14   57.95    3.89
   0   9  14   62.53    3.88
  -1  -9 -14   25.14    2.46
  -1  -9 -14   25.91    2.21
   1   9  14   29.53    3.26
   1   9  14   25.41    2.33
   1   9  14   30.18    2.57
  -2  -9 -14  196.18    9.36
  -2  -9 -14  212.97   10.72
   2   9  14  198.95    9.14
   2   9  14  198.05   10.84
  -3  -9 -14   22.19    2.88
  -3  -9 -14   20.79    1.98
   3   9  14   17.53    2.74
   3   9  14   16.16    1.65
  -4  -9 -14   71.61    5.33
  -4  -9 -14   70.86    4.06
   4   9  14   62.33    5.22
   4   9  14   67.41    3.60
  -5  -9 -14  142.36    6.83
  -5  -9 -14  145.40    8.46
   5   9  14  132.96    8.55
   5   9  14  131.42    6.17
  -6  -9 -14    1.77    0.89
   6   9  14   -0.15    0.40
  -7  -9 -14   70.60    5.68
  -7  -9 -14   72.74    4.14
   7   9  14   68.33    5.71
  -8  -9 -14   55.21    5.06
  -8  -9 -14   61.83    3.72
   8   9  14   57.42    5.40
  -9  -9 -14    3.16    0.95
  -9  -9 -14    6.68    1.95
   9   9  14    1.67    1.52
 -10  -9 -14   78.99    6.38
 -10  -9 -14   83.76    4.62
  10   9  14   70.83    6.33
 -11  -9 -14   28.01    2.53
 -11  -9 -14   28.74    3.88
  11   9  14   28.34    4.02
   4 -10 -14   19.84    2.43
   4 -10 -14   17.43    2.33
  -4  10  14   22.30    2.64
  -4  10  14   17.50    2.39
   3 -10 -14   42.34    3.41
   3 -10 -14   44.11    3.51
  -3  10  14   47.18    3.83
  -3  10  14   43.61    3.59
   2 -10 -14   20.12    2.35
   2 -10 -14   21.64    2.28
  -2  10  14   24.44    2.92
  -2  10  14   19.47    2.42
   1 -10 -14   62.28    4.06
   1 -10 -14   59.43    3.86
  -1  10  14   52.93    3.99
  -1  10  14   61.51    4.66
   0 -10 -14    9.10    1.60
   0 -10 -14    8.81    1.37
   0  10  14    9.59    2.02
   0  10  14   10.07    1.69
   0  10  14    7.23    1.25
  -1 -10 -14   52.64    3.22
  -1 -10 -14   45.61    3.41
   1  10  14   47.07    3.18
   1  10  14   51.43    4.44
  -2 -10 -14  107.83    5.91
   2  10  14  117.22    7.36
   2  10  14  107.04    5.41
  -3 -10 -14    2.18    1.27
  -3 -10 -14    1.27    0.86
   3  10  14    1.60    1.39
   3  10  14    0.82    0.52
  -4 -10 -14  118.97    6.25
  -4 -10 -14  118.66    7.60
   4  10  14  123.58    8.10
  -5 -10 -14   90.75    4.96
  -5 -10 -14  101.97    7.46
   5  10  14   82.37    6.45
   5  10  14   79.13    3.96
  -6 -10 -14    5.44    1.68
  -6 -10 -14    3.71    1.11
   6  10  14    3.57    1.70
  -7 -10 -14  151.44    7.58
  -7 -10 -14  150.73    9.20
   7  10  14  158.25    9.74
  -8 -10 -14   21.30    2.18
  -8 -10 -14   22.00    3.30
   8  10  14   19.76    3.16
  -9 -10 -14   25.77    2.48
  -9 -10 -14   22.26    3.47
   9  10  14   23.77    3.78
 -10 -10 -14  160.59    7.83
 -10 -10 -14  157.21    9.83
  10  10  14  147.74    9.84
 -11 -10 -14   28.56    3.86
  11  10  14   31.29    4.25
   4 -11 -14  123.62    6.81
   4 -11 -14  119.05    6.92
  -4  11  14  125.46    7.08
   3 -11 -14    8.39    1.66
   3 -11 -14    5.59    1.41
  -3  11  14   11.15    2.36
  -3  11  14    8.86    1.70
   2 -11 -14   30.17    2.73
   2 -11 -14   28.00    2.81
  -2  11  14   31.38    3.38
  -2  11  14   24.95    2.83
   1 -11 -14  119.40    6.27
   1 -11 -14  116.26    6.61
  -1  11  14  131.57    7.76
  -1  11  14  118.62    6.73
   0 -11 -14    2.88    1.09
   0 -11 -14    3.01    0.90
   0  11  14    2.06    0.81
   0  11  14    2.34    1.25
   1  11  14  106.03    5.75
  -2 -11 -14   68.79    4.37
  -3 -11 -14    5.09    1.28
   3  11  14    3.91    0.71
   3  11  14    6.47    1.96
  -4 -11 -14  137.19    7.27
  -4 -11 -14  152.75    8.85
   4  11  14  139.43    8.85
  -5 -11 -14  125.29    7.85
  -5 -11 -14  111.80    6.32
   5  11  14  123.27    8.11
  -6 -11 -14    7.32    2.03
  -6 -11 -14    2.83    1.07
   6  11  14    4.66    1.94
  -7 -11 -14  108.91    7.58
  -7 -11 -14  110.98    6.08
   7  11  14  112.29    7.95
  -8 -11 -14   25.82    3.35
  -8 -11 -14   24.72    2.47
   8  11  14   19.26    3.46
  -9 -11 -14   43.49    4.67
  -9 -11 -14   43.64    3.69
   9  11  14   39.46    4.63
 -10 -11 -14   51.52    3.80
 -10 -11 -14   49.77    4.91
  10  11  14   51.42    5.33
   3 -12 -14    0.63    0.88
   3 -12 -14    1.86    1.06
  -3  12  14    0.20    1.23
  -3  12  14    0.82    1.00
   2 -12 -14   73.41    4.45
   2 -12 -14   71.79    4.85
  -2  12  14   69.26    4.90
  -2  12  14   76.37    5.55
   1 -12 -14   73.86    4.99
   1 -12 -14   84.29    4.66
  -1  12  14   90.29    6.07
  -1  12  14   75.47    5.13
   0 -12 -14   -0.18    0.63
   0 -12 -14   -0.69    0.68
   0  12  14   -0.65    0.53
   0  12  14   -1.80    0.87
  -1 -12 -14   44.47    3.42
  -1 -12 -14   38.26    2.68
   1  12  14   48.37    4.49
  -2 -12 -14   16.10    2.16
   2  12  14   17.83    2.92
  -3 -12 -14   21.43    2.41
   3  12  14   22.77    3.39
  -4 -12 -14   82.29    5.84
   4  12  14  102.52    7.08
  -5 -12 -14   15.69    2.42
   5  12  14   15.61    2.96
  -6 -12 -14   77.13    6.06
  -6 -12 -14   68.02    4.63
   6  12  14   69.83    5.91
  -7 -12 -14   87.19    6.62
  -7 -12 -14   83.97    5.13
   7  12  14   80.33    6.54
  -8 -12 -14    0.62    1.31
  -8 -12 -14    0.83    0.82
   8  12  14   -0.83    1.14
  -9 -12 -14   48.63    4.96
  -9 -12 -14   47.02    3.74
   9  12  14   49.40    5.20
   2 -13 -14   59.76    3.97
   2 -13 -14   60.38    4.49
  -2  13  14   74.96    5.47
  -2  13  14   61.08    4.56
   1 -13 -14   22.67    2.65
  -1  13  14   26.15    3.33
   0 -13 -14   34.97    3.27
   0  13  14   46.68    4.40
  -1 -13 -14  100.55    6.16
   1  13  14  117.12    7.51
  -2 -13 -14    7.94    1.60
   2  13  14    9.79    2.34
  -3 -13 -14    8.58    1.87
   3  13  14    9.42    2.29
  -4 -13 -14   96.49    5.82
   4  13  14   97.53    7.02
  -5 -13 -14    0.31    0.84
   5  13  14   -0.83    1.13
  -6 -13 -14   55.69    4.22
   6  13  14   68.78    5.90
  -7 -13 -14   80.02    5.16
   7  13  14   79.76    6.66
  -8 -13 -14    6.21    1.53
   8  13  14    5.81    2.01
   0 -14 -14   32.55    3.19
   0  14  14   37.47    4.14
  -1 -14 -14   44.22    3.71
   1  14  14   46.18    4.57
  -2 -14 -14   -0.80    0.77
   2  14  14   -1.47    0.93
  -3 -14 -14   48.00    3.92
   3  14  14   52.77    5.04
  -4 -14 -14   39.47    3.65
   4  14  14   46.37    4.77
  -5 -14 -14    9.66    1.86
   5  14  14   10.12    2.59
  -6 -14 -14   72.07    4.98
   6  14  14   81.00    6.53
   2  -2  15   72.64    5.10
  -3   2 -15   43.96    4.01
   3  -2  15   47.78    3.88
   4  -2  15    7.16    1.56
  -5   2 -15   67.97    5.44
   5  -2  15   67.78    4.70
  -6   2 -15    6.44    1.90
   6  -2  15    7.06    1.53
  -7   2 -15   53.40    4.99
   7  -2  15   52.33    4.01
  -8   2 -15  102.67    7.47
   8  -2  15  103.71    6.12
   0  -1  15   20.13    2.74
   1  -1  15   17.56    2.51
  -2   1 -15   55.56    4.46
   2  -1  15   61.05    4.42
  -3   1 -15   21.70    2.91
   3  -1  15   18.82    2.49
  -4   1 -15   31.43    3.37
   4  -1  15   27.97    2.93
  -5   1 -15   67.76    6.01
   5  -1  15   70.05    4.69
  -6   1 -15    2.67    1.48
   6  -1  15    3.43    1.18
  -7   1 -15   37.54    4.15
   7  -1  15   38.22    3.30
  -8   1 -15   30.64    3.95
   8  -1  15   35.11    3.08
  -9   1 -15    1.28    1.35
   9  -1  15    1.22    0.95
   1   0 -15   39.20    3.58
  -1   0  15   38.42    3.67
  -1   0  15   42.43    2.91
   0   0  15    1.53    0.72
   0   0  15    1.61    0.98
  -1   0 -15   26.20    2.77
   1   0  15   24.24    2.76
   1   0  15   20.23    1.77
  -2   0 -15   83.03    5.54
   2   0  15   86.06    5.45
  -3   0 -15   -0.12    0.71
   3   0  15   -0.36    0.79
  -4   0 -15   49.90    4.40
   4   0  15   53.86    3.95
  -5   0 -15   74.03    5.68
   5   0  15   78.97    4.97
  -6   0 -15    9.58    2.14
   6   0  15   10.52    1.69
  -7   0 -15   97.63    7.07
   7   0  15  101.33    5.86
  -8   0 -15   45.63    4.71
   8   0  15   49.14    3.68
  -9   0 -15    9.20    2.32
   9   0  15    6.23    1.35
 -10   0 -15   46.30    5.11
  10   0  15   56.76    3.90
   2  -1 -15   29.30    3.17
  -2   1  15   31.26    2.58
  -2   1  15   32.01    3.32
   1  -1 -15   34.40    3.38
  -1   1  15   38.82    2.81
  -1   1  15   38.23    3.52
   0   1  15    3.43    0.92
   0   1  15    2.29    1.12
   1   1  15   46.06    3.81
   1   1  15   47.09    2.84
  -2  -1 -15   78.08    5.26
   2   1  15   74.03    3.83
   2   1  15   77.56    5.04
  -3  -1 -15    0.77    0.95
   3   1  15   -0.70    0.69
  -4  -1 -15   73.17    5.39
   4   1  15   69.25    4.65
  -5  -1 -15   35.57    3.79
   5   1  15   36.13    3.10
   6   1  15   24.06    2.56
  -7  -1 -15  107.50    7.50
   7   1  15  114.38    6.20
  -8  -1 -15    7.99    2.00
   8   1  15    9.76    1.63
  -9  -1 -15   11.39    2.60
   9   1  15   13.52    1.96
 -10  -1 -15   60.59    5.80
  10   1  15   71.07    4.40
 -11  -1 -15   -0.26    1.09
  11   1  15    2.48    1.02
   3  -2 -15    1.76    1.14
  -3   2  15    2.37    1.28
  -3   2  15    2.20    0.96
   2  -2 -15   45.16    3.94
  -2   2  15   51.99    4.14
  -2   2  15   50.39    3.45
   1  -2 -15   16.99    2.44
  -1   2  15   18.09    2.48
  -1   2  15   18.82    1.97
   0  -2 -15    5.48    1.44
   0   2  15    5.15    1.76
   0   2  15    7.14    1.15
   0   2  15    6.64    1.61
  -1  -2 -15  117.06    6.55
   1   2  15  108.68    6.48
  -2  -2 -15   24.10    2.82
   2   2  15   21.71    1.92
   2   2  15   24.72    2.67
  -3  -2 -15   27.42    3.03
   3   2  15   24.29    1.69
   3   2  15   23.41    2.63
  -4  -2 -15  115.50    7.11
   4   2  15  105.28    6.67
  -5  -2 -15    9.42    2.06
  -6  -2 -15   78.05    5.94
  -7  -2 -15   85.73    6.43
   7   2  15   85.48    5.12
  -8  -2 -15    3.54    1.56
   8   2  15    3.80    1.13
  -9  -2 -15   70.63    6.03
   9   2  15   72.42    4.45
 -10  -2 -15   41.53    4.71
  10   2  15   48.74    3.40
 -11  -2 -15    0.65    1.25
  11   2  15   -0.14    0.75
   3  -3 -15   -0.75    0.77
  -3   3  15   -0.41    0.80
  -3   3  15   -0.16    0.82
   2  -3 -15   64.88    4.61
  -2   3  15   63.59    4.67
   1  -3 -15    9.37    1.74
  -1   3  15    9.37    1.86
  -1   3  15   12.28    1.72
   0  -3 -15   44.21    3.37
   0  -3 -15   37.72    3.35
   0   3  15   42.91    2.89
   0   3  15   41.05    3.47
   0   3  15   36.48    3.17
  -1  -3 -15  126.57    7.01
  -1  -3 -15  121.58    6.83
   1   3  15  132.11    6.15
   1   3  15  118.87    6.87
  -2  -3 -15   62.28    4.44
   2   3  15   53.81    3.52
  -3  -3 -15   30.10    3.27
   3   3  15   29.53    2.73
  -4  -3 -15   79.92    5.71
   4   3  15   76.68    3.76
   4   3  15   81.34    4.88
  -5  -3 -15    5.58    1.76
   5   3  15    3.21    1.15
  -6  -3 -15   81.89    6.05
   6   3  15   78.57    4.75
   7   3  15   51.77    3.55
  -8  -3 -15    0.52    1.12
   8   3  15   -0.03    0.67
  -9  -3 -15   67.58    5.91
 -10  -3 -15   29.21    4.01
  10   3  15   34.02    2.72
 -11  -3 -15    3.69    1.86
  11   3  15    5.27    1.21
 -12  -3 -15   36.89    4.61
  12   3  15   45.60    3.16
   3  -4 -15   19.48    2.57
  -3   4  15   25.57    2.47
  -3   4  15   22.61    2.78
   2  -4 -15   48.55    3.89
  -2   4  15   47.88    3.93
   1  -4 -15    4.35    1.30
  -1   4  15    5.04    1.44
  -1   4  15    5.01    1.19
   0  -4 -15   51.40    3.84
   0  -4 -15   54.51    3.82
   0   4  15   53.74    3.39
   0   4  15   52.83    3.91
   0   4  15   47.24    3.79
  -1  -4 -15   37.67    3.36
  -1  -4 -15   38.96    3.66
   1   4  15   41.35    2.72
   1   4  15   32.30    3.32
  -2  -4 -15    7.73    1.69
   2   4  15    5.73    1.00
   2   4  15    4.70    1.26
  -3  -4 -15   89.20    5.84
   3   4  15   85.78    5.10
   3   4  15   80.60    4.28
  -4  -4 -15   88.58    6.10
   4   4  15   92.78    5.16
   4   4  15   80.84    4.20
  -5  -4 -15    2.53    1.37
   5   4  15    2.63    0.91
   5   4  15    2.78    0.59
  -6  -4 -15   25.32    3.36
   6   4  15   29.60    2.52
   7   4  15   13.04    1.75
  -8  -4 -15   72.49    5.88
   8   4  15   70.86    4.27
  -9  -4 -15  104.03    7.61
   9   4  15  107.83    5.66
 -10  -4 -15   17.40    3.14
  10   4  15   14.25    1.77
 -11  -4 -15   21.14    3.47
  11   4  15   24.44    2.19
 -12  -4 -15   70.68    6.29
  12   4  15   69.37    4.18
   4  -5 -15    6.88    1.63
  -4   5  15    7.60    1.72
  -4   5  15    5.40    1.32
   3  -5 -15   56.14    4.29
  -3   5  15   58.16    3.93
  -3   5  15   60.04    4.42
   2  -5 -15   70.90    4.87
  -2   5  15   74.54    5.00
  -2   5  15   75.76    5.01
   1  -5 -15   -0.79    0.63
  -1   5  15   -0.69    0.69
  -1   5  15   -0.96    0.58
   0  -5 -15  125.32    6.58
   0   5  15  110.91    5.84
   0   5  15  102.11    6.47
  -1  -5 -15   76.89    4.99
  -1  -5 -15   69.63    4.57
   1   5  15   69.09    5.12
   1   5  15   78.22    4.81
   1   5  15   75.65    4.23
  -2  -5 -15    7.93    1.69
   2   5  15    9.59    1.30
   2   5  15    9.85    1.99
   2   5  15    7.27    1.45
  -3  -5 -15  161.73    8.95
   3   5  15  160.47    8.04
  -4  -5 -15   64.39    5.02
   4   5  15   62.53    4.00
   4   5  15   64.53    3.50
  -5  -5 -15   30.16    3.45
   5   5  15   28.39    1.99
   5   5  15   27.56    2.46
  -6  -5 -15   78.93    6.03
   6   5  15   82.43    4.71
   6   5  15   86.16    4.05
   7   5  15   36.68    2.78
  -8  -5 -15   30.04    3.78
   8   5  15   26.69    2.33
  -9  -5 -15   33.86    3.98
   9   5  15   37.64    2.70
 -10  -5 -15   -0.83    1.04
  10   5  15   -0.31    0.68
 -11  -5 -15   82.72    6.88
  11   5  15   87.94    4.71
 -12  -5 -15    9.78    2.55
  12   5  15   17.55    1.85
   4  -6 -15    1.45    1.15
  -4   6  15    2.19    0.97
   3  -6 -15   23.47    2.75
  -3   6  15   31.33    2.73
  -3   6  15   28.76    3.01
   2  -6 -15   19.22    2.36
  -2   6  15   19.06    2.43
  -2   6  15   16.74    2.07
   1  -6 -15   32.01    2.95
  -1   6  15   30.28    2.98
  -1   6  15   32.31    2.66
  -1   6  15   34.80    3.07
   0  -6 -15  161.11    8.13
   0  -6 -15  147.99    7.73
   0   6  15  151.19    7.85
   0   6  15  136.89    8.10
   0   6  15  150.11    7.36
  -1  -6 -15   45.15    3.51
  -1  -6 -15   55.98    4.14
   1   6  15   51.68    3.41
   1   6  15   56.72    3.87
   1   6  15   51.18    4.23
  -2  -6 -15   13.00    2.20
   2   6  15    7.65    1.29
   2   6  15   10.02    2.05
   2   6  15   10.44    1.64
  -3  -6 -15   94.40    4.70
  -3  -6 -15   88.69    6.01
   3   6  15   80.10    5.94
   3   6  15   89.06    4.68
   3   6  15   88.23    5.08
  -4  -6 -15   12.85    1.62
  -4  -6 -15   11.10    2.19
   4   6  15   10.54    1.55
  -5  -6 -15   61.47    4.97
  -5  -6 -15   62.31    3.36
   5   6  15   57.54    3.34
   5   6  15   57.34    3.63
  -6  -6 -15   99.87    4.63
  -6  -6 -15   91.92    6.57
   6   6  15   85.66    4.55
   6   6  15   91.54    4.91
  -7  -6 -15   -1.00    0.48
  -7  -6 -15   -1.55    0.85
   7   6  15   -0.91    0.50
  -8  -6 -15   70.87    5.84
   8   6  15   65.45    3.81
  -9  -6 -15   56.82    5.32
   9   6  15   55.33    3.32
 -10  -6 -15    1.31    1.17
  10   6  15    1.61    0.80
 -11  -6 -15   67.81    6.20
  11   6  15   74.23    4.03
 -12  -6 -15   14.08    2.97
  12   6  15   18.05    1.82
   4  -7 -15    5.25    1.50
  -4   7  15    6.48    1.51
   3  -7 -15   78.85    5.22
  -3   7  15   84.67    5.05
   2  -7 -15   19.73    2.53
  -2   7  15   23.28    2.36
  -2   7  15   18.63    2.35
  -1   7  15   49.73    3.98
  -1   7  15   52.59    3.65
   0  -7 -15  119.10    6.53
   0   7  15  120.20    6.32
   0   7  15  121.50    6.64
   0   7  15  124.60    7.28
  -1  -7 -15   10.00    1.48
  -1  -7 -15   10.78    2.03
  -1  -7 -15    9.58    1.62
   1   7  15   10.18    1.63
   1   7  15    9.77    1.52
   1   7  15   11.94    2.16
  -2  -7 -15   65.02    4.84
  -2  -7 -15   61.91    3.72
   2   7  15   63.85    3.78
   2   7  15   53.40    4.69
   2   7  15   62.13    3.98
  -3  -7 -15   85.89    4.62
  -3  -7 -15   86.92    5.93
   3   7  15   84.22    4.64
   3   7  15   88.30    4.90
   3   7  15   82.49    6.08
  -4  -7 -15   -0.87    0.45
  -4  -7 -15    0.10    0.97
   4   7  15   -0.26    0.50
   4   7  15   -1.23    0.81
   4   7  15   -1.11    0.50
  -5  -7 -15  101.33    6.74
  -5  -7 -15   98.70    5.03
   5   7  15   97.67    5.13
   5   7  15   95.62    5.03
  -6  -7 -15   59.93    3.40
  -7  -7 -15   -0.03    0.59
  -7  -7 -15   -0.30    1.01
   7   7  15   -0.90    0.44
  -8  -7 -15   57.26    3.15
  -8  -7 -15   55.89    5.18
   8   7  15   49.85    3.09
  -9  -7 -15   11.10    2.53
 -10  -7 -15   26.93    3.80
  10   7  15   27.44    2.08
 -11  -7 -15   38.73    4.62
   4  -8 -15    5.50    1.47
  -4   8  15    4.68    1.37
   3  -8 -15   68.50    4.65
  -3   8  15   67.12    4.47
   2  -8 -15   -0.87    0.65
  -2   8  15   -1.11    0.56
  -2   8  15   -0.34    0.77
   1  -8 -15   72.37    4.64
  -1   8  15   78.13    5.14
  -1   8  15   68.69    4.61
  -1   8  15   72.85    5.08
   0  -8 -15  170.25    8.19
   0  -8 -15  153.49    7.87
   0   8  15  158.93    8.12
   0   8  15  157.71    7.96
   0   8  15  165.15    9.01
  -1  -8 -15    2.98    0.96
  -1  -8 -15    1.75    0.91
  -1  -8 -15    2.50    1.35
   1   8  15    1.03    0.82
   1   8  15    0.68    0.88
   1   8  15    2.43    1.24
  -2  -8 -15   65.57    4.83
  -2  -8 -15   55.33    3.59
   2   8  15   59.20    3.80
   2   8  15   52.33    4.69
   2   8  15   60.87    3.78
  -3  -8 -15  111.14    5.62
  -3  -8 -15  107.20    6.90
   3   8  15  110.18    7.24
   3   8  15  105.61    5.59
   3   8  15  105.10    5.66
  -4  -8 -15    2.58    0.81
  -4  -8 -15    4.19    1.60
   4   8  15    2.62    1.38
   4   8  15    3.47    0.85
   4   8  15    1.26    0.72
  -5  -8 -15   84.35    4.49
  -5  -8 -15   87.03    7.12
   5   8  15   78.09    6.20
   5   8  15   81.71    4.37
  -6  -8 -15   26.67    2.19
  -6  -8 -15   29.65    3.59
   6   8  15   21.70    3.41
   6   8  15   30.26    2.11
  -7  -8 -15   18.25    3.04
  -7  -8 -15   17.41    1.76
   7   8  15   17.58    1.60
  -8  -8 -15   74.61    4.02
  -8  -8 -15   66.52    5.66
  -9  -8 -15    0.40    1.25
  -9  -8 -15   -0.84    0.62
   9   8  15    0.16    0.44
 -10  -8 -15   50.48    4.95
 -11  -8 -15   63.62    5.84
   3  -9 -15   23.39    2.74
  -3   9  15   25.52    2.74
  -3   9  15   26.97    2.77
   2  -9 -15   -0.20    0.73
  -2   9  15    1.40    1.06
  -2   9  15   -0.93    0.74
   1  -9 -15  111.55    6.25
   1  -9 -15  115.96    6.39
  -1   9  15  122.98    7.10
  -1   9  15  116.21    6.40
  -1   9  15  110.51    6.31
   0  -9 -15   55.91    3.68
   0  -9 -15   42.07    3.74
   0   9  15   52.90    3.73
   0   9  15   55.22    4.61
  -1  -9 -15    6.25    1.35
  -1  -9 -15    5.09    1.13
   1   9  15    5.86    1.32
   1   9  15    6.37    1.84
   1   9  15    4.27    1.13
  -2  -9 -15  128.11    6.75
  -2  -9 -15  143.18    8.09
   2   9  15  132.85    6.66
   2   9  15  131.68    8.24
   2   9  15  128.61    6.80
  -3  -9 -15   50.91    3.42
  -3  -9 -15   56.99    4.69
   3   9  15   50.03    4.71
   3   9  15   50.95    3.30
  -4  -9 -15   12.77    1.66
   4   9  15   11.43    1.39
  -5  -9 -15   67.74    3.96
  -5  -9 -15   67.37    5.40
   5   9  15   69.77    5.75
   5   9  15   63.03    3.57
  -6  -9 -15   25.84    3.46
  -6  -9 -15   24.06    2.22
   6   9  15   26.18    3.66
  -7  -9 -15   36.68    4.16
  -7  -9 -15   39.28    2.82
   7   9  15   35.38    4.04
  -8  -9 -15   53.87    3.51
  -8  -9 -15   57.14    5.23
   8   9  15   55.48    5.38
  -9  -9 -15   -0.36    0.83
  -9  -9 -15   -1.34    0.67
   9   9  15   -0.75    0.99
 -10  -9 -15   51.75    3.44
 -10  -9 -15   44.82    4.90
  10   9  15   50.18    5.23
 -11  -9 -15   60.16    5.62
  11   9  15   49.16    5.19
   3 -10 -15    4.38    1.22
   3 -10 -15    5.85    1.43
  -3  10  15    3.47    1.69
   2 -10 -15    1.03    0.96
  -2  10  15    2.77    1.18
  -2  10  15    1.28    1.11
   1 -10 -15  109.86    5.97
   1 -10 -15  105.33    6.00
  -1  10  15  110.95    6.89
  -1  10  15   98.31    5.82
  -1  10  15  107.83    6.14
   0 -10 -15   37.89    2.92
   0 -10 -15   31.61    2.97
   0  10  15   35.67    3.68
   0  10  15   32.05    3.00
   0  10  15   31.12    2.78
  -1 -10 -15   15.68    1.90
   1  10  15   14.46    1.76
   1  10  15   14.80    3.09
  -2 -10 -15  157.29    7.89
   2  10  15  159.36    7.53
  -3 -10 -15    5.26    1.26
  -3 -10 -15    5.78    1.84
   3  10  15    6.35    1.96
   3  10  15    3.88    1.01
  -4 -10 -15    3.78    1.57
  -4 -10 -15    3.04    1.02
   4  10  15    2.92    1.49
   4  10  15    2.50    0.63
  -5 -10 -15   25.08    3.29
  -5 -10 -15   23.77    2.33
   5  10  15   20.46    3.09
   5  10  15   19.74    1.57
  -6 -10 -15   -0.42    0.75
  -6 -10 -15   -0.03    0.86
   6  10  15   -1.25    1.01
  -7 -10 -15   76.04    5.97
  -7 -10 -15   75.90    4.51
   7  10  15   74.30    6.30
  -8 -10 -15   37.76    2.99
  -8 -10 -15   36.60    4.17
   8  10  15   36.42    4.45
  -9 -10 -15    2.70    1.62
  -9 -10 -15    2.13    1.11
   9  10  15    0.28    1.30
 -10 -10 -15   55.85    3.63
 -10 -10 -15   45.42    4.92
  10  10  15   47.04    5.20
   2 -11 -15   43.42    3.64
   2 -11 -15   49.19    3.71
  -2  11  15   52.14    4.43
  -2  11  15   56.28    5.29
   1 -11 -15   86.95    5.09
   1 -11 -15   80.36    5.22
  -1  11  15   99.80    6.35
  -1  11  15   80.25    4.97
  -1  11  15   88.70    5.50
   0 -11 -15    6.62    1.55
   0 -11 -15    7.35    1.36
   0  11  15    5.63    1.42
   0  11  15    6.55    1.24
   0  11  15    6.92    1.87
  -1 -11 -15   74.73    4.19
  -1 -11 -15   74.79    4.64
   1  11  15   65.53    4.53
   1  11  15   76.73    5.74
   1  11  15   67.17    4.06
  -2 -11 -15   98.68    5.56
   2  11  15   97.48    6.85
   2  11  15   91.63    4.86
   3  11  15   -0.13    0.46
   3  11  15   -0.81    0.93
  -4 -11 -15   51.75    4.67
  -4 -11 -15   43.90    3.37
   4  11  15   44.38    4.48
  -5 -11 -15   77.27    6.01
  -5 -11 -15   72.15    4.54
   5  11  15   70.97    6.05
  -6 -11 -15   -0.17    1.19
  -6 -11 -15    0.19    0.82
   6  11  15   -0.67    1.02
  -7 -11 -15   79.54    6.21
  -7 -11 -15   73.91    4.63
   7  11  15   69.97    6.23
  -8 -11 -15    8.69    2.34
  -8 -11 -15    8.40    1.64
   8  11  15   12.59    2.85
  -9 -11 -15   27.49    3.84
   9  11  15   27.18    4.02
   2 -12 -15   22.62    2.61
  -2  12  15   22.94    2.74
  -2  12  15   20.65    2.92
   1 -12 -15   37.56    3.31
   1 -12 -15   37.57    3.07
  -1  12  15   35.80    4.97
  -1  12  15   40.89    4.06
   0 -12 -15    0.37    0.75
   0 -12 -15   -0.38    0.78
   0  12  15   -0.33    1.11
   0  12  15   -0.50    0.82
   0  12  15   -0.87    0.60
  -1 -12 -15  129.96    7.34
   1  12  15  148.96    8.83
  -2 -12 -15   39.91    3.38
   2  12  15   42.94    4.47
  -3 -12 -15   -0.03    0.71
   3  12  15    1.25    1.32
  -4 -12 -15   50.95    3.86
   4  12  15   63.06    5.46
  -5 -12 -15   30.50    2.86
   5  12  15   29.48    3.71
  -6 -12 -15    1.40    0.85
  -6 -12 -15    0.81    1.04
   6  12  15    0.71    1.29
  -7 -12 -15   37.35    3.24
  -7 -12 -15   35.52    4.04
   7  12  15   34.34    4.32
  -8 -12 -15    2.66    1.28
  -8 -12 -15    2.39    1.60
   8  12  15    1.55    1.31
   0 -13 -15    0.99    0.95
   0  13  15    1.18    1.27
  -1 -13 -15   69.47    4.95
   1  13  15   90.55    6.46
  -2 -13 -15   28.62    2.91
   2  13  15   36.03    4.94
  -3 -13 -15    3.53    1.29
   3  13  15    6.19    2.00
  -4 -13 -15   55.44    4.08
   4  13  15   56.79    5.35
  -5 -13 -15    0.19    0.85
   5  13  15    1.13    1.40
  -6 -13 -15   26.17    2.79
   6  13  15   27.22    3.97
   2   0  16   40.97    3.55
  -3   0 -16    3.73    1.49
   3   0  16    3.34    1.26
   4   0  16   34.70    3.23
  -5   0 -16   40.72    4.29
   5   0  16   47.09    3.76
  -6   0 -16    3.56    1.36
   6   0  16    4.89    1.36
  -7   0 -16   47.95    4.77
   7   0  16   53.00    3.94
  -8   0 -16   26.13    3.61
   8   0  16   29.31    2.86
   1   1  16   34.86    3.32
  -2  -1 -16   66.07    4.84
   2   1  16   66.46    4.73
  -3  -1 -16   -0.02    0.84
   3   1  16    0.28    0.63
  -4  -1 -16   71.47    5.41
   4   1  16   70.43    4.78
  -5  -1 -16   54.93    4.86
   5   1  16   51.07    4.01
  -6  -1 -16    0.91    1.09
   6   1  16    0.06    0.84
  -7  -1 -16   58.36    5.26
   7   1  16   60.89    4.22
  -8  -1 -16   33.55    4.01
   8   1  16   30.52    2.92
  -9  -1 -16   11.38    2.64
   9   1  16   15.24    2.12
   0   2  16   -0.83    0.55
  -1  -2 -16   18.66    2.54
   1   2  16   21.04    2.63
  -2  -2 -16   27.02    3.06
   2   2  16   28.03    2.96
  -3  -2 -16   30.98    3.31
   3   2  16   28.46    2.94
  -4  -2 -16   75.82    5.68
   4   2  16   82.04    5.15
   5   2  16   46.30    3.65
  -6  -2 -16   23.69    3.48
   6   2  16   21.86    2.54
  -7  -2 -16   48.47    4.82
   7   2  16   47.89    3.61
  -8  -2 -16    4.62    1.85
   8   2  16    8.13    1.49
  -9  -2 -16   28.01    3.70
   9   2  16   27.02    2.59
 -10  -2 -16   44.27    4.94
  10   2  16   47.50    3.50
   1  -3 -16   18.66    2.55
  -1   3  16   17.44    2.27
  -1   3  16   17.69    2.49
   0  -3 -16   19.52    2.49
   0   3  16   16.66    2.46
   0   3  16   19.36    1.96
  -1  -3 -16  129.78    7.36
   1   3  16  135.25    7.47
  -2  -3 -16   32.61    3.29
   2   3  16   31.89    2.23
   2   3  16   31.62    3.06
  -3  -3 -16   30.33    3.25
   3   3  16   26.77    2.78
   3   3  16   22.63    1.94
  -4  -3 -16   97.21    6.56
   4   3  16   93.85    5.68
   5   3  16    0.56    0.78
  -6  -3 -16   65.57    5.50
   6   3  16   57.22    4.06
  -7  -3 -16   99.69    7.17
   7   3  16   99.33    5.69
  -8  -3 -16    0.07    0.98
   8   3  16    0.19    0.64
  -9  -3 -16   35.67    4.36
   9   3  16   38.66    3.03
 -10  -3 -16   39.48    4.69
  10   3  16   43.73    3.33
   2  -4 -16   43.96    3.87
  -2   4  16   51.21    3.55
  -2   4  16   45.56    3.96
   1  -4 -16    5.03    1.43
  -1   4  16    4.32    1.29
  -1   4  16    4.55    1.35
   0  -4 -16   32.51    3.22
   0  -4 -16   38.10    3.20
   0   4  16   38.91    2.83
   0   4  16   31.90    3.05
   0   4  16   35.26    3.30
  -1  -4 -16  130.26    7.30
   1   4  16  125.96    7.19
   1   4  16  128.52    6.37
  -2  -4 -16   27.89    2.99
   2   4  16   32.19    3.03
  -3  -4 -16   27.71    3.14
   3   4  16   21.11    1.98
   3   4  16   25.62    2.69
  -4  -4 -16   68.28    5.31
   4   4  16   63.92    4.36
  -5  -4 -16    0.29    1.09
  -6  -4 -16   98.96    7.02
  -7  -4 -16   30.16    3.84
   7   4  16   34.49    3.19
  -8  -4 -16    4.57    1.75
   8   4  16    2.81    0.98
  -9  -4 -16   75.50    6.38
   9   4  16   77.50    4.60
 -10  -4 -16   34.26    4.32
  10   4  16   37.74    2.87
   2  -5 -16   52.22    4.10
  -2   5  16   45.57    3.94
  -2   5  16   52.38    3.61
   1  -5 -16    9.21    1.83
  -1   5  16    8.48    1.52
  -1   5  16    6.18    1.50
   0  -5 -16   41.10    3.47
   0   5  16   40.30    3.51
   0   5  16   40.24    3.49
   0   5  16   45.55    3.13
  -1  -5 -16   31.31    3.21
  -1  -5 -16   29.74    2.90
   1   5  16   27.89    2.87
   1   5  16   31.29    2.50
  -2  -5 -16    1.61    1.12
   2   5  16    1.47    1.05
   2   5  16    0.63    0.69
   2   5  16    1.09    0.95
  -3  -5 -16  106.87    6.65
   3   5  16   92.70    4.97
  -4  -5 -16   56.62    4.83
   4   5  16   57.21    3.94
  -5  -5 -16    4.74    2.01
   5   5  16    3.30    1.09
  -6  -5 -16  119.85    7.89
   6   5  16  118.07    6.32
  -7  -5 -16   21.44    3.22
   7   5  16   17.82    2.04
  -8  -5 -16    7.18    2.27
   8   5  16    5.27    1.14
  -9  -5 -16   51.05    5.29
   9   5  16   57.58    4.00
 -10  -5 -16    0.27    1.23
  10   5  16   -0.18    0.68
 -11  -5 -16   22.48    3.69
  11   5  16   24.59    2.17
   2  -6 -16   44.37    3.73
  -2   6  16   42.46    3.69
  -2   6  16   44.86    3.38
   1  -6 -16   -0.64    0.78
  -1   6  16    0.48    0.87
  -1   6  16   -0.15    0.77
  -1   6  16   -0.53    0.75
   0  -6 -16   66.71    4.51
   0  -6 -16   58.17    4.20
   0   6  16   62.26    4.36
   0   6  16   55.92    4.44
   0   6  16   58.75    3.80
  -1  -6 -16   30.77    3.15
  -1  -6 -16   30.63    2.85
   1   6  16   27.42    3.10
   1   6  16   29.73    2.53
   1   6  16   29.84    2.95
  -2  -6 -16   26.77    3.02
   2   6  16   24.95    3.05
   2   6  16   23.65    3.06
   2   6  16   24.30    2.20
  -3  -6 -16  153.98    8.77
   3   6  16  151.01    7.17
   3   6  16  137.17    8.68
   3   6  16  156.61    7.82
  -4  -6 -16   56.82    4.66
   4   6  16   47.57    3.62
   4   6  16   52.29    3.19
  -5  -6 -16   54.87    5.46
   5   6  16   50.98    3.10
   5   6  16   53.24    3.59
  -6  -6 -16   64.09    5.43
   6   6  16   59.36    3.42
   6   6  16   66.69    3.97
  -7  -6 -16    0.13    1.15
   7   6  16   -0.46    0.64
  -8  -6 -16   96.07    7.20
   8   6  16   96.04    5.13
  -9  -6 -16  113.28    8.04
   9   6  16  117.66    5.89
 -10  -6 -16   -0.48    1.08
  10   6  16   -0.41    0.65
 -11  -6 -16   31.10    4.15
   2  -7 -16   33.96    3.28
  -2   7  16   30.95    3.04
  -2   7  16   33.46    2.92
   1  -7 -16    5.24    1.33
  -1   7  16    5.53    1.44
  -1   7  16    6.81    1.33
  -1   7  16    6.41    1.54
   0  -7 -16   68.03    4.63
   0   7  16   67.85    4.58
   0   7  16   65.56    4.74
   0   7  16   68.55    5.03
  -1  -7 -16   33.74    3.40
  -1  -7 -16   25.81    3.03
   1   7  16   30.03    3.32
   1   7  16   26.97    2.46
   1   7  16   29.97    3.26
  -2  -7 -16   17.17    2.61
   2   7  16   17.25    2.21
   2   7  16   15.70    2.66
   2   7  16   16.60    1.93
  -3  -7 -16   98.11    5.19
  -3  -7 -16   98.35    6.54
   3   7  16   87.59    6.61
   3   7  16   96.30    5.20
   3   7  16  105.98    5.68
  -4  -7 -16   13.65    1.64
   4   7  16   14.67    1.87
   4   7  16   11.86    1.59
  -5  -7 -16   68.58    5.55
   5   7  16   69.34    4.19
   5   7  16   76.30    4.06
   5   7  16   66.61    5.61
  -6  -7 -16   62.32    5.37
   6   7  16   64.03    3.85
  -7  -7 -16    1.18    1.13
  -7  -7 -16   -1.54    0.56
   7   7  16   -0.62    0.48
  -8  -7 -16  104.58    7.62
  -9  -7 -16   42.82    4.66
   9   7  16   39.27    2.73
 -10  -7 -16   -1.17    0.96
   2  -8 -16    7.06    1.56
  -2   8  16    4.62    1.26
  -2   8  16    4.78    1.23
  -2   8  16    5.95    1.44
   1  -8 -16   10.93    1.81
  -1   8  16   12.66    1.91
  -1   8  16   18.01    2.46
   0  -8 -16   59.15    4.71
   0   8  16   52.73    4.57
   0   8  16   64.66    4.16
   0   8  16   67.12    4.95
  -1  -8 -16    4.18    1.23
  -1  -8 -16    4.15    1.16
  -1  -8 -16    5.05    1.49
   1   8  16    4.77    1.18
   1   8  16    3.32    1.10
   1   8  16    6.31    1.75
  -2  -8 -16   56.94    3.72
  -2  -8 -16   59.95    4.87
   2   8  16   55.55    4.86
   2   8  16   57.91    3.91
   2   8  16   58.70    3.78
  -3  -8 -16   93.36    5.23
   3   8  16  102.76    5.54
   3   8  16  102.33    5.41
  -4  -8 -16    0.13    1.06
  -4  -8 -16    0.36    0.62
   4   8  16   -0.25    0.74
   4   8  16    0.73    1.16
   4   8  16    0.23    0.73
  -5  -8 -16   62.01    5.17
   5   8  16   54.11    5.08
   5   8  16   54.25    3.49
   5   8  16   57.30    3.53
  -6  -8 -16   30.05    3.74
  -6  -8 -16   34.46    2.49
   6   8  16   27.11    2.30
   6   8  16   29.60    3.62
   6   8  16   30.87    2.34
  -7  -8 -16    5.42    1.09
  -7  -8 -16    4.34    1.77
   7   8  16    4.52    0.94
  -8  -8 -16   89.98    6.94
  -8  -8 -16   90.94    4.74
   8   8  16   89.60    4.60
  -9  -8 -16   29.16    3.92
 -10  -8 -16    2.31    1.49
   2  -9 -16    0.25    0.88
  -2   9  16   -0.26    0.74
  -2   9  16   -0.82    0.82
  -2   9  16   -0.50    0.71
   1  -9 -16   16.58    2.39
  -1   9  16   16.52    2.16
  -1   9  16   15.22    2.08
  -1   9  16   15.97    2.60
   0  -9 -16   52.47    3.81
   0  -9 -16   45.17    3.47
   0   9  16   48.55    3.60
   0   9  16   54.12    4.47
  -1  -9 -16   -0.97    0.64
  -1  -9 -16   -1.32    0.61
   1   9  16   -0.65    0.61
   1   9  16   -1.03    0.66
  -2  -9 -16   61.94    3.98
   2   9  16   60.56    5.89
   2   9  16   69.39    4.19
   2   9  16   60.78    4.03
  -3  -9 -16   34.95    2.82
  -3  -9 -16   40.01    4.04
   3   9  16   38.58    2.95
   3   9  16   39.22    2.91
   3   9  16   38.79    4.23
  -4  -9 -16   25.40    3.35
  -4  -9 -16   24.30    2.32
   4   9  16   21.53    3.29
   4   9  16   23.14    2.19
   4   9  16   22.69    2.07
  -5  -9 -16   89.09    4.87
  -5  -9 -16   91.07    6.49
   5   9  16   82.60    4.52
   5   9  16   86.41    6.62
  -6  -9 -16    4.09    0.99
  -6  -9 -16    5.24    1.90
   6   9  16    3.54    1.83
   6   9  16    3.29    0.81
  -7  -9 -16   38.05    4.37
  -7  -9 -16   42.08    2.91
   7   9  16   35.87    4.32
  -8  -9 -16   59.08    5.45
   8   9  16   54.09    5.41
  -9  -9 -16    0.15    0.93
  -9  -9 -16    2.21    1.34
   9   9  16    1.49    1.46
   1 -10 -16   28.30    2.87
   1 -10 -16   29.00    2.77
  -1  10  16   28.87    3.29
  -1  10  16   29.69    2.84
  -1  10  16   30.57    2.87
   0 -10 -16   10.27    1.68
   0 -10 -16   14.84    1.98
   0  10  16   16.48    2.69
   0  10  16    8.70    1.57
   0  10  16   17.03    2.20
  -1 -10 -16   16.38    2.07
  -1 -10 -16   16.13    2.06
   1  10  16   15.63    2.08
   1  10  16   18.06    2.94
   1  10  16   14.24    2.04
  -2 -10 -16   93.88    5.50
   2  10  16   99.06    5.33
   2  10  16   91.99    5.58
   2  10  16  101.96    7.01
  -3 -10 -16   10.00    1.59
  -3 -10 -16   17.95    2.94
   3  10  16   13.38    2.63
   3  10  16   12.75    2.09
   3  10  16   13.34    1.86
  -4 -10 -16   32.87    3.81
  -4 -10 -16   29.29    2.59
   4  10  16   30.92    3.93
   4  10  16   29.63    2.25
  -5 -10 -16   79.41    6.05
   5  10  16   71.05    6.09
  -6 -10 -16    4.09    1.79
  -6 -10 -16    2.47    1.00
   6  10  16    4.01    1.74
  -7 -10 -16   44.15    3.24
  -7 -10 -16   43.12    4.45
   7  10  16   46.76    4.94
  -8 -10 -16   33.80    2.89
  -8 -10 -16   39.87    4.40
   8  10  16   29.15    4.18
  -9 -10 -16    1.45    1.01
  -9 -10 -16    2.36    1.63
   9  10  16    1.84    1.61
  -1  11  16  145.75    8.23
  -1  11  16  123.32    7.15
  -1  11  16  119.85    7.44
   0 -11 -16   23.97    2.55
   0 -11 -16   19.98    2.38
   0  11  16   27.08    3.57
   0  11  16   20.32    2.37
   0  11  16   20.01    2.44
  -1 -11 -16    8.83    1.44
  -1 -11 -16    8.49    1.54
   1  11  16    9.31    2.19
   1  11  16    6.61    1.26
   1  11  16    8.26    1.70
   2  11  16   66.43    4.45
   2  11  16   67.77    5.77
  -3 -11 -16   -0.28    0.75
   3  11  16   -0.87    1.04
  -4 -11 -16   55.92    4.97
  -4 -11 -16   49.95    3.62
   4  11  16   49.85    4.98
  -5 -11 -16   37.58    4.19
   5  11  16   32.63    4.08
  -6 -11 -16    8.19    2.31
   6  11  16    3.85    1.80
  -7 -11 -16   93.86    7.04
   7  11  16   87.06    7.15
  -8 -11 -16   57.78    5.48
   8  11  16   55.15    5.61
  -1 -12 -16   28.80    2.94
   1  12  16   25.36    2.74
   1  12  16   30.27    3.75
  -2 -12 -16   28.21    2.75
   2  12  16   31.76    3.88
  -3 -12 -16    5.10    1.26
   3  12  16    4.66    1.93
  -4 -12 -16   64.51    4.34
   4  12  16   62.28    5.64
  -5 -12 -16   31.20    2.99
   5  12  16   31.94    4.12
  -6 -12 -16   20.93    3.46
  -6 -12 -16   22.09    2.62
   6  12  16   26.00    3.91
  -3  -2 -17   -0.16    1.01
   3   2  17   -0.37    0.80
  -4  -2 -17   42.67    4.33
   4   2  17   44.39    3.63
  -5  -2 -17    6.03    1.90
   5   2  17    5.27    1.42
   6   2  17   29.06    2.94
  -7  -2 -17   78.88    6.30
   7   2  17   80.50    5.11
  -2  -3 -17    7.15    1.87
   2   3  17    7.67    1.63
  -3  -3 -17   14.81    2.61
   3   3  17   10.61    1.90
  -4  -3 -17   63.42    5.22
   4   3  17   62.35    4.47
  -5  -3 -17   18.36    3.21
   5   3  17   19.08    2.42
  -6  -3 -17   22.90    3.31
   6   3  17   18.25    2.33
  -7  -3 -17   22.17    3.44
   7   3  17   26.47    2.61
  -8  -3 -17    2.13    1.45
   8   3  17    2.04    0.95
  -1  -4 -17   45.61    3.75
   1   4  17   34.08    3.44
   1   4  17   42.36    3.64
   1   4  17   39.72    2.85
  -2  -4 -17    1.84    1.28
   2   4  17    2.30    1.15
   2   4  17    1.43    0.74
   2   4  17    2.72    1.08
  -3  -4 -17   26.33    3.37
   3   4  17   29.61    2.97
  -4  -4 -17   42.46    4.30
   4   4  17   38.50    3.36
  -5  -4 -17   -0.87    1.01
   5   4  17   -0.36    0.81
  -6  -4 -17   47.12    4.71
   6   4  17   44.78    3.56
  -7  -4 -17   33.63    4.17
   7   4  17   40.03    3.24
  -8  -4 -17   15.62    3.08
   8   4  17   23.95    2.42
  -9  -4 -17   79.95    6.66
   9   4  17   81.06    4.85
   0  -5 -17   21.07    2.69
   0   5  17   20.94    2.70
   0   5  17   27.18    2.48
  -1  -5 -17   70.31    4.89
   1   5  17   53.12    4.55
   1   5  17   67.24    4.69
   1   5  17   68.82    4.01
  -2  -5 -17    1.82    1.23
   2   5  17    1.92    0.98
   2   5  17    2.40    0.81
   2   5  17    1.49    1.10
   3   5  17   19.02    2.41
   3   5  17   18.22    1.74
  -4  -5 -17   36.36    3.86
   4   5  17   31.64    2.94
  -5  -5 -17    2.28    1.41
   5   5  17    1.32    0.97
  -6  -5 -17   82.33    6.43
   6   5  17   85.83    5.11
  -7  -5 -17   21.28    3.41
   7   5  17   20.66    2.24
  -8  -5 -17    9.08    2.43
   8   5  17    7.07    1.35
  -9  -5 -17   75.86    6.63
   9   5  17   83.81    4.75
   0  -6 -17   29.84    3.06
   0   6  17   31.00    3.09
   0   6  17   35.20    2.76
  -1  -6 -17    7.80    1.83
   1   6  17    5.82    1.61
   1   6  17    6.54    1.49
   1   6  17    5.88    1.28
  -2  -6 -17    5.53    1.61
   2   6  17    5.44    1.40
   2   6  17    3.04    1.22
   2   6  17    5.53    1.20
   3   6  17   52.70    3.26
   3   6  17   45.28    5.10
   3   6  17   52.99    3.86
  -4  -6 -17    5.55    1.90
   4   6  17    6.25    1.36
   4   6  17    3.33    0.85
   4   6  17    4.59    1.62
  -5  -6 -17    5.29    1.88
   5   6  17    4.81    1.26
  -6  -6 -17   97.43    7.18
   6   6  17  104.45    6.19
  -7  -6 -17    0.85    1.31
  -8  -6 -17   34.70    4.11
   8   6  17   29.18    2.85
  -9  -6 -17   49.01    5.21
   9   6  17   53.00    3.40
   0  -7 -17   75.65    4.87
   0   7  17   76.03    4.51
   0   7  17   61.99    4.88
   0   7  17   65.56    4.77
  -1  -7 -17   31.37    3.29
   1   7  17   23.78    3.08
   1   7  17   20.89    2.60
   2   7  17    6.51    1.51
   2   7  17    7.16    1.33
  -3  -7 -17   37.02    3.84
   3   7  17   37.07    4.17
   3   7  17   34.69    3.02
   3   7  17   34.52    2.69
  -4  -7 -17    1.90    1.48
   4   7  17    0.01    0.88
   4   7  17   -0.60    0.52
  -5  -7 -17   62.16    5.28
   5   7  17   62.86    3.94
   5   7  17   53.50    5.07
  -6  -7 -17   48.10    4.70
   6   7  17   41.26    3.15
  -7  -7 -17    0.35    1.09
   7   7  17    0.28    0.75
  -8  -7 -17   46.26    4.86
   8   7  17   43.91    3.07
  -9  -7 -17   49.31    5.16
   9   7  17   46.43    3.13
   0  -8 -17   43.17    3.51
   0   8  17   35.04    3.12
   0   8  17   38.42    3.35
  -1  -8 -17   -0.51    0.75
   1   8  17    0.26    0.77
   1   8  17   -0.47    0.80
   1   8  17    0.94    0.99
  -2  -8 -17   39.83    3.91
   2   8  17   34.56    3.84
   2   8  17   39.61    3.29
   2   8  17   36.43    3.02
  -3  -8 -17   38.12    3.93
  -3  -8 -17   42.80    3.02
   3   8  17   39.24    3.25
   3   8  17   38.62    4.36
   3   8  17   36.22    2.90
  -4  -8 -17   -0.35    0.96
   4   8  17   -0.23    0.76
   4   8  17   -0.77    0.97
  -5  -8 -17   92.50    4.86
  -5  -8 -17   94.06    6.72
   5   8  17   84.37    4.91
   5   8  17   81.83    6.59
  -6  -8 -17   38.66    2.77
  -6  -8 -17   41.20    4.37
   6   8  17   32.97    4.14
   6   8  17   32.18    2.64
  -7  -8 -17    2.50    1.47
   7   8  17    2.32    1.33
   7   8  17    1.11    0.73
  -8  -8 -17   55.29    5.41
  -1  -9 -17    0.12    0.71
  -1  -9 -17   -1.13    0.61
   1   9  17    0.01    0.74
   1   9  17   -1.35    0.71
   1   9  17   -1.12    0.87
  -2  -9 -17   49.95    4.42
  -2  -9 -17   41.28    3.15
   2   9  17   42.91    3.36
   2   9  17   41.18    3.76
   2   9  17   44.49    4.43
  -3  -9 -17   35.41    2.86
  -3  -9 -17   39.69    3.97
   3   9  17   26.09    2.98
   3   9  17   30.11    2.76
   3   9  17   34.21    3.98
  -4  -9 -17    6.56    2.00
  -4  -9 -17    6.22    1.31
   4   9  17    5.39    1.13
   4   9  17    4.16    1.11
   4   9  17    5.38    1.87
  -5  -9 -17   32.53    3.92
  -5  -9 -17   31.53    2.61
   5   9  17   29.30    2.42
   5   9  17   34.69    4.13
  -6  -9 -17    4.21    1.68
  -6  -9 -17    1.93    0.92
   6   9  17    1.00    0.67
   6   9  17    2.18    0.88
   6   9  17    2.77    1.57
  -7  -9 -17   22.20    3.25
  -7  -9 -17   21.30    2.22
   7   9  17   22.78    3.50
  -8  -9 -17   87.72    6.79
   8   9  17   81.68    6.87
  -1 -10 -17    7.41    1.43
   1  10  17    6.87    2.10
   1  10  17    6.03    1.52
  -2 -10 -17   62.86    4.18
   2  10  17   60.78    4.11
   2  10  17   65.24    5.48
   2  10  17   57.29    3.94
  -3 -10 -17   10.20    2.31
  -3 -10 -17    9.28    1.64
   3  10  17    7.29    2.20
   3  10  17    8.60    1.40
   3  10  17    8.68    1.49
  -4 -10 -17   21.65    3.24
   4  10  17   16.62    1.89
   4  10  17   19.10    3.29
   4  10  17   18.63    2.36
  -5 -10 -17   49.61    3.42
  -5 -10 -17   54.07    4.99
   5  10  17   51.96    5.15
   5  10  17   43.35    3.36
  -6 -10 -17   -0.07    1.08
  -6 -10 -17   -1.22    0.67
   6  10  17    0.08    1.18
  -7 -10 -17   44.91    3.25
  -7 -10 -17   44.86    4.80
   7  10  17   42.81    4.67
  -3 -11 -17    0.35    1.03
   3  11  17    2.41    1.51
   3  11  17    2.67    1.16
  -4 -11 -17   36.76    3.12
  -4 -11 -17   44.61    4.48
   4  11  17   33.51    2.86
   4  11  17   36.31    4.41
  -5 -11 -17   58.37    4.02
  -5 -11 -17   60.43    5.44
   5  11  17   59.55    5.60
   0   0   0    0.00    0.00
;
_shelx_hkl_checksum              80991
_olex2_submission_special_instructions 'No special instructions were received'
loop_
_space_group_symop_operation_xyz
'x, y, z'
'-x, -y, -z'
loop_
_atom_site_label
_atom_site_type_symbol
_atom_site_fract_x
_atom_site_fract_y
_atom_site_fract_z
_atom_site_U_iso_or_equiv
_atom_site_adp_type
_atom_site_occupancy
_atom_site_site_symmetry_order
_atom_site_calc_flag
_atom_site_refinement_flags_posn
_atom_site_refinement_flags_adp
_atom_site_refinement_flags_occupancy
_atom_site_disorder_assembly
_atom_site_disorder_group
Nd1 Nd 0.81818(2) 0.45208(2) 0.02142(2) 0.01854(4) Uani 1 1 d . . . . .
O1 O -0.01616(18) 0.35141(18) 0.47550(16) 0.0336(4) Uani 1 1 d . . . . .
O2 O -0.04940(16) 0.06044(17) 0.29880(16) 0.0293(3) Uani 1 1 d . . . . .
O3 O 0.34235(16) 0.1461(2) 0.35546(18) 0.0365(4) Uani 1 1 d . . . . .
O4 O -0.04598(14) 0.46962(15) 0.13579(13) 0.0244(3) Uani 1 1 d . . . . .
O5 O 0.10175(16) 0.52032(19) 0.19921(15) 0.0319(3) Uani 1 1 d . . . . .
O6 O -0.06234(16) 0.27230(15) 0.05582(17) 0.0311(3) Uani 1 1 d . . . . .
O7 O 0.14481(17) 0.32415(15) 0.02062(18) 0.0328(3) Uani 1 1 d . . . . .
O8 O 0.66324(19) 0.3813(2) 0.21223(18) 0.0462(5) Uani 1 1 d . . . . .
O9 O 0.4621(2) 0.4072(2) 0.2195(2) 0.0541(6) Uani 1 1 d . . . . .
O10 O 0.6769(2) 0.2979(2) 0.0110(2) 0.0439(4) Uani 1 1 d . . . . .
O11A O 0.6293(4) 0.5506(4) -0.0248(5) 0.0404(8) Uani 0.5 1 d . . P A 1
H11A H 0.617294 0.539842 -0.085914 0.061 Uiso 0.5 1 d GR . P A 1
H11B H 0.642314 0.633712 -0.052312 0.061 Uiso 0.5 1 d GR . P A 1
O11B O 0.6802(4) 0.5988(4) -0.0902(4) 0.0384(8) Uani 0.5 1 d . . P A 2
H11C H 0.704506 0.678153 -0.109642 0.058 Uiso 0.5 1 d GR . P A 2
H11D H 0.602009 0.585789 -0.040900 0.058 Uiso 0.5 1 d GR . P A 2
N1 N 0.5258(2) 0.2361(2) -0.0475(2) 0.0388(5) Uani 1 1 d . . . . .
C1 C 0.0332(2) 0.2688(2) 0.42351(18) 0.0252(4) Uani 1 1 d . . . . .
C2 C -0.0375(2) 0.2056(2) 0.38428(19) 0.0256(4) Uani 1 1 d . . . . .
H2 H -0.122450 0.218055 0.390121 0.031 Uiso 1 1 calc R . . . .
C3 C 0.0238(2) 0.1227(2) 0.33583(19) 0.0240(4) Uani 1 1 d . . . . .
C4 C 0.1495(2) 0.1014(2) 0.3284(2) 0.0269(4) Uani 1 1 d . . . . .
H4 H 0.188975 0.045571 0.296039 0.032 Uiso 1 1 calc R . . . .
C5 C 0.2154(2) 0.1659(2) 0.3708(2) 0.0267(4) Uani 1 1 d . . . . .
C6 C 0.1593(2) 0.2496(2) 0.4183(2) 0.0277(4) Uani 1 1 d . . . . .
H6 H 0.204459 0.292044 0.446183 0.033 Uiso 1 1 calc R . . . .
C7 C -0.1128(2) 0.4222(2) 0.44597(19) 0.0255(4) Uani 1 1 d . . . . .
C8 C -0.11564(19) 0.4880(2) 0.32651(18) 0.0229(4) Uani 1 1 d . . . . .
C9 C -0.2155(2) 0.5618(2) 0.3073(2) 0.0329(5) Uani 1 1 d . . . . .
H9 H -0.220272 0.604309 0.228265 0.039 Uiso 1 1 calc R . . . .
C10 C -0.3079(3) 0.5724(3) 0.4048(3) 0.0415(6) Uani 1 1 d . . . . .
H10 H -0.373289 0.623016 0.390840 0.050 Uiso 1 1 calc R . . . .
C11 C -0.3027(3) 0.5079(3) 0.5223(3) 0.0408(6) Uani 1 1 d . . . . .
H11 H -0.363905 0.515734 0.587690 0.049 Uiso 1 1 calc R . . . .
C12 C -0.2070(3) 0.4320(3) 0.5429(2) 0.0361(5) Uani 1 1 d . . . . .
H12 H -0.205323 0.386666 0.622727 0.043 Uiso 1 1 calc R . . . .
C13 C -0.01315(19) 0.49100(19) 0.21557(18) 0.0216(3) Uani 1 1 d . . . . .
C14 C 0.0182(2) 0.0190(2) 0.2100(2) 0.0264(4) Uani 1 1 d . . . . .
C15 C 0.0706(2) 0.10772(19) 0.0890(2) 0.0237(4) Uani 1 1 d . . . . .
C16 C 0.1398(2) 0.0665(2) 0.0012(2) 0.0307(4) Uani 1 1 d . . . . .
H16 H 0.176992 0.125400 -0.079806 0.037 Uiso 1 1 calc R . . . .
C17 C 0.1537(3) -0.0624(2) 0.0338(3) 0.0374(5) Uani 1 1 d . . . . .
H17 H 0.200127 -0.089762 -0.024927 0.045 Uiso 1 1 calc R . . . .
C18 C 0.0977(3) -0.1501(2) 0.1551(3) 0.0417(6) Uani 1 1 d . . . . .
H18 H 0.105634 -0.236546 0.176809 0.050 Uiso 1 1 calc R . . . .
C19 C 0.0301(3) -0.1098(2) 0.2440(2) 0.0370(5) Uani 1 1 d . . . . .
H19 H -0.006528 -0.168509 0.325143 0.044 Uiso 1 1 calc R . . . .
C20 C 0.0488(2) 0.24610(19) 0.0526(2) 0.0251(4) Uani 1 1 d . . . . .
C21 C 0.3974(2) 0.1570(2) 0.4366(2) 0.0284(4) Uani 1 1 d . . . . .
C22 C 0.5026(2) 0.2467(2) 0.3919(2) 0.0264(4) Uani 1 1 d . . . . .
C23 C 0.5699(2) 0.2418(3) 0.4718(2) 0.0346(5) Uani 1 1 d . . . . .
H23 H 0.642630 0.299198 0.442917 0.042 Uiso 1 1 calc R . . . .
C24 C 0.5296(3) 0.1528(3) 0.5931(3) 0.0453(6) Uani 1 1 d . . . . .
H24 H 0.575302 0.150310 0.645172 0.054 Uiso 1 1 calc R . . . .
C25 C 0.4215(3) 0.0676(3) 0.6365(3) 0.0496(7) Uani 1 1 d . . . . .
H25 H 0.392623 0.009649 0.718611 0.060 Uiso 1 1 calc R . . . .
C26 C 0.3556(3) 0.0684(3) 0.5575(3) 0.0421(6) Uani 1 1 d . . . . .
H26 H 0.284034 0.009712 0.586038 0.051 Uiso 1 1 calc R . . . .
C27 C 0.5441(2) 0.3516(2) 0.2640(2) 0.0323(5) Uani 1 1 d . . . . .
C28 C 0.6273(3) 0.3101(3) -0.0680(3) 0.0370(5) Uani 1 1 d . . . . .
H28 H 0.663332 0.374889 -0.146236 0.044 Uiso 1 1 calc R . . . .
C29 C 0.4593(5) 0.1397(5) 0.0714(4) 0.0762(14) Uani 1 1 d . . . . .
H29A H 0.494754 0.060594 0.081389 0.114 Uiso 1 1 calc GR . . . .
H29B H 0.370284 0.128755 0.079981 0.114 Uiso 1 1 calc GR . . . .
H29C H 0.468275 0.164822 0.132886 0.114 Uiso 1 1 calc GR . . . .
C30 C 0.4660(4) 0.2629(5) -0.1429(4) 0.0696(11) Uani 1 1 d . . . . .
H30A H 0.508286 0.340663 -0.212388 0.104 Uiso 1 1 calc GR . . . .
H30B H 0.377238 0.271762 -0.111453 0.104 Uiso 1 1 calc GR . . . .
H30C H 0.473326 0.193746 -0.167476 0.104 Uiso 1 1 calc GR . . . .
loop_
_atom_site_aniso_label
_atom_site_aniso_U_11
_atom_site_aniso_U_22
_atom_site_aniso_U_33
_atom_site_aniso_U_23
_atom_site_aniso_U_13
_atom_site_aniso_U_12
Nd1 0.01683(6) 0.01654(6) 0.02106(6) -0.00734(4) -0.00520(4) 0.00177(4)
O1 0.0425(9) 0.0408(9) 0.0316(8) -0.0238(7) -0.0200(7) 0.0190(8)
O2 0.0244(7) 0.0314(8) 0.0353(8) -0.0181(7) -0.0078(6) -0.0013(6)
O3 0.0204(7) 0.0552(11) 0.0442(10) -0.0308(9) -0.0101(7) 0.0057(7)
O4 0.0241(7) 0.0283(7) 0.0209(6) -0.0111(6) -0.0059(5) 0.0004(6)
O5 0.0234(7) 0.0458(10) 0.0273(7) -0.0164(7) -0.0072(6) -0.0010(7)
O6 0.0288(8) 0.0195(7) 0.0457(9) -0.0126(7) -0.0146(7) 0.0061(6)
O7 0.0314(8) 0.0186(7) 0.0500(10) -0.0135(7) -0.0164(7) 0.0027(6)
O8 0.0303(9) 0.0648(14) 0.0341(9) -0.0207(9) 0.0037(8) -0.0121(9)
O9 0.0469(12) 0.0582(14) 0.0416(11) -0.0053(10) -0.0155(10) 0.0121(10)
O10 0.0392(10) 0.0438(11) 0.0553(12) -0.0255(9) -0.0169(9) -0.0054(8)
O11A 0.034(2) 0.039(2) 0.053(2) -0.019(2) -0.0215(19) 0.0110(17)
O11B 0.039(2) 0.0299(19) 0.048(2) -0.0109(17) -0.0243(19) 0.0095(16)
N1 0.0328(10) 0.0451(13) 0.0448(12) -0.0245(10) -0.0129(9) -0.0006(9)
C1 0.0298(10) 0.0256(9) 0.0202(8) -0.0099(7) -0.0078(7) 0.0060(8)
C2 0.0242(9) 0.0266(10) 0.0259(9) -0.0104(8) -0.0090(8) 0.0046(7)
C3 0.0248(9) 0.0215(9) 0.0241(9) -0.0079(7) -0.0078(7) -0.0002(7)
C4 0.0255(9) 0.0267(10) 0.0304(10) -0.0148(8) -0.0078(8) 0.0032(8)
C5 0.0204(9) 0.0303(10) 0.0276(9) -0.0120(8) -0.0054(8) 0.0011(7)
C6 0.0283(10) 0.0282(10) 0.0292(10) -0.0137(8) -0.0103(8) 0.0020(8)
C7 0.0277(9) 0.0266(10) 0.0255(9) -0.0149(8) -0.0075(8) 0.0049(8)
C8 0.0230(9) 0.0238(9) 0.0240(9) -0.0138(7) -0.0052(7) 0.0031(7)
C9 0.0327(11) 0.0325(11) 0.0366(12) -0.0176(9) -0.0115(9) 0.0114(9)
C10 0.0332(12) 0.0451(15) 0.0533(16) -0.0308(13) -0.0099(11) 0.0173(11)
C11 0.0366(13) 0.0473(15) 0.0416(13) -0.0296(12) -0.0013(11) 0.0086(11)
C12 0.0396(12) 0.0409(13) 0.0274(10) -0.0193(9) -0.0033(9) 0.0060(10)
C13 0.0229(9) 0.0214(8) 0.0207(8) -0.0093(7) -0.0066(7) 0.0039(7)
C14 0.0289(10) 0.0213(9) 0.0342(10) -0.0135(8) -0.0148(8) 0.0036(7)
C15 0.0241(9) 0.0169(8) 0.0332(10) -0.0116(7) -0.0117(8) 0.0034(7)
C16 0.0322(11) 0.0260(10) 0.0372(11) -0.0165(9) -0.0110(9) 0.0046(8)
C17 0.0422(13) 0.0306(12) 0.0531(15) -0.0280(11) -0.0197(12) 0.0119(10)
C18 0.0564(16) 0.0203(10) 0.0590(16) -0.0196(11) -0.0294(14) 0.0128(10)
C19 0.0520(15) 0.0188(10) 0.0388(12) -0.0074(9) -0.0193(11) 0.0036(9)
C20 0.0281(10) 0.0155(8) 0.0291(9) -0.0079(7) -0.0078(8) 0.0051(7)
C21 0.0212(9) 0.0316(11) 0.0321(10) -0.0139(9) -0.0074(8) 0.0035(8)
C22 0.0206(9) 0.0304(10) 0.0263(9) -0.0124(8) -0.0044(7) 0.0027(7)
C23 0.0268(10) 0.0416(13) 0.0391(12) -0.0198(10) -0.0116(9) 0.0026(9)
C24 0.0479(15) 0.0552(17) 0.0385(13) -0.0186(12) -0.0236(12) 0.0134(13)
C25 0.0525(17) 0.0497(17) 0.0315(12) -0.0044(11) -0.0111(12) 0.0078(13)
C26 0.0318(12) 0.0359(13) 0.0413(13) -0.0062(11) -0.0018(10) -0.0035(10)
C27 0.0302(11) 0.0360(12) 0.0269(10) -0.0139(9) -0.0026(8) -0.0015(9)
C28 0.0336(12) 0.0373(13) 0.0431(13) -0.0203(11) -0.0114(10) 0.0019(10)
C29 0.082(3) 0.080(3) 0.0510(19) -0.0154(19) -0.0137(19) -0.039(2)
C30 0.067(2) 0.082(3) 0.069(2) -0.029(2) -0.036(2) -0.006(2)
loop_
_atom_type_symbol
_atom_type_description
_atom_type_scat_dispersion_real
_atom_type_scat_dispersion_imag
_atom_type_scat_source
C C 0.0033 0.0016 'International Tables Vol C Tables 4.2.6.8 and 6.1.1.4'
H H 0.0000 0.0000 'International Tables Vol C Tables 4.2.6.8 and 6.1.1.4'
N N 0.0061 0.0033 'International Tables Vol C Tables 4.2.6.8 and 6.1.1.4'
Nd Nd -0.1943 3.0179 'International Tables Vol C Tables 4.2.6.8 and 6.1.1.4'
O O 0.0106 0.0060 'International Tables Vol C Tables 4.2.6.8 and 6.1.1.4'
loop_
_geom_angle_atom_site_label_1
_geom_angle_atom_site_label_2
_geom_angle_atom_site_label_3
_geom_angle
_geom_angle_site_symmetry_1
_geom_angle_site_symmetry_3
_geom_angle_publ_flag
O4 Nd1 Nd1 38.55(3) 1_655 2_765 ?
O4 Nd1 Nd1 35.78(3) 2_665 2_765 ?
O4 Nd1 O4 74.33(5) 1_655 2_665 ?
O4 Nd1 O5 124.73(5) 1_655 2_665 ?
O4 Nd1 O7 71.59(6) 1_655 2_665 ?
O4 Nd1 O10 142.42(7) 1_655 . ?
O4 Nd1 O11A 135.17(12) 1_655 . ?
O4 Nd1 O11B 134.74(11) 1_655 . ?
O4 Nd1 C13 99.57(5) 1_655 2_665 ?
O4 Nd1 C13 25.78(5) 2_665 2_665 ?
O5 Nd1 Nd1 86.39(4) 2_665 2_765 ?
O5 Nd1 O4 50.82(5) 2_665 2_665 ?
O5 Nd1 C13 25.20(5) 2_665 2_665 ?
O6 Nd1 Nd1 68.12(4) 1_655 2_765 ?
O6 Nd1 O4 73.03(6) 1_655 1_655 ?
O6 Nd1 O4 72.44(5) 1_655 2_665 ?
O6 Nd1 O5 83.43(6) 1_655 2_665 ?
O6 Nd1 O7 136.91(6) 1_655 2_665 ?
O6 Nd1 O10 78.76(7) 1_655 . ?
O6 Nd1 O11A 148.88(12) 1_655 . ?
O6 Nd1 O11B 150.77(11) 1_655 . ?
O6 Nd1 C13 74.76(6) 1_655 2_665 ?
O7 Nd1 Nd1 68.91(4) 2_665 2_765 ?
O7 Nd1 O4 74.96(6) 2_665 2_665 ?
O7 Nd1 O5 97.15(6) 2_665 2_665 ?
O7 Nd1 O10 143.18(7) 2_665 . ?
O7 Nd1 O11A 73.57(12) 2_665 . ?
O7 Nd1 O11B 64.45(11) 2_665 . ?
O7 Nd1 C13 87.67(6) 2_665 2_665 ?
O8 Nd1 Nd1 120.77(5) . 2_765 ?
O8 Nd1 O4 156.51(6) . 2_665 ?
O8 Nd1 O4 82.23(6) . 1_655 ?
O8 Nd1 O5 151.94(6) . 2_665 ?
O8 Nd1 O6 99.49(8) . 1_655 ?
O8 Nd1 O7 99.30(8) . 2_665 ?
O8 Nd1 O10 78.44(7) . . ?
O8 Nd1 O11A 76.45(13) . . ?
O8 Nd1 O11B 94.36(13) . . ?
O8 Nd1 C13 173.01(7) . 2_665 ?
O10 Nd1 Nd1 143.54(5) . 2_765 ?
O10 Nd1 O4 119.94(6) . 2_665 ?
O10 Nd1 O5 74.77(6) . 2_665 ?
O10 Nd1 O11A 70.17(12) . . ?
O10 Nd1 O11B 78.98(12) . . ?
O10 Nd1 C13 96.34(7) . 2_665 ?
O11A Nd1 Nd1 140.59(11) . 2_765 ?
O11A Nd1 O4 121.90(12) . 2_665 ?
O11A Nd1 O5 86.68(12) . 2_665 ?
O11A Nd1 C13 106.32(12) . 2_665 ?
O11B Nd1 C13 89.15(12) . 2_665 ?
C13 Nd1 Nd1 61.19(4) 2_665 2_765 ?
C7 O1 C1 122.08(17) . . ?
C3 O2 C14 115.93(17) . . ?
C21 O3 C5 118.54(18) . . ?
Nd1 O4 Nd1 105.67(5) 1_455 2_665 ?
C13 O4 Nd1 158.59(14) . 1_455 ?
C13 O4 Nd1 92.13(12) . 2_665 ?
C13 O5 Nd1 95.34(12) . 2_665 ?
C20 O6 Nd1 139.92(14) . 1_455 ?
C20 O7 Nd1 136.02(14) . 2_665 ?
C27 O8 Nd1 141.79(18) . . ?
C28 O10 Nd1 130.08(19) . . ?
Nd1 O11A H11A 110.7 . . ?
Nd1 O11A H11B 110.6 . . ?
H11A O11A H11B 103.4 . . ?
Nd1 O11B H11C 110.5 . . ?
Nd1 O11B H11D 110.0 . . ?
H11C O11B H11D 103.5 . . ?
C28 N1 C29 122.1(3) . . ?
C28 N1 C30 120.2(3) . . ?
C29 N1 C30 117.0(3) . . ?
O1 C1 C2 123.6(2) . . ?
O1 C1 C6 113.97(19) . . ?
C2 C1 C6 122.4(2) . . ?
C1 C2 H2 121.3 . . ?
C1 C2 C3 117.47(19) . . ?
C3 C2 H2 121.3 . . ?
O2 C3 C2 116.04(19) . . ?
O2 C3 C4 121.94(19) . . ?
C4 C3 C2 122.0(2) . . ?
C3 C4 H4 120.9 . . ?
C3 C4 C5 118.1(2) . . ?
C5 C4 H4 120.9 . . ?
O3 C5 C4 115.6(2) . . ?
C6 C5 O3 122.3(2) . . ?
C6 C5 C4 122.0(2) . . ?
C1 C6 H6 121.0 . . ?
C5 C6 C1 118.0(2) . . ?
C5 C6 H6 121.0 . . ?
O1 C7 C8 123.73(18) . . ?
O1 C7 C12 116.1(2) . . ?
C12 C7 C8 120.1(2) . . ?
C7 C8 C9 118.55(19) . . ?
C7 C8 C13 123.79(19) . . ?
C9 C8 C13 117.55(19) . . ?
C8 C9 H9 119.6 . . ?
C10 C9 C8 120.8(2) . . ?
C10 C9 H9 119.6 . . ?
C9 C10 H10 120.1 . . ?
C11 C10 C9 119.9(2) . . ?
C11 C10 H10 120.1 . . ?
C10 C11 H11 120.0 . . ?
C12 C11 C10 119.9(2) . . ?
C12 C11 H11 120.0 . . ?
C7 C12 H12 119.6 . . ?
C11 C12 C7 120.8(2) . . ?
C11 C12 H12 119.6 . . ?
O4 C13 Nd1 62.09(10) . 2_665 ?
O4 C13 C8 118.67(18) . . ?
O5 C13 Nd1 59.46(11) . 2_665 ?
O5 C13 O4 120.98(18) . . ?
O5 C13 C8 120.25(18) . . ?
C8 C13 Nd1 169.25(14) . 2_665 ?
C15 C14 O2 119.33(19) . . ?
C19 C14 O2 119.4(2) . . ?
C19 C14 C15 121.3(2) . . ?
C14 C15 C16 119.2(2) . . ?
C14 C15 C20 120.29(19) . . ?
C16 C15 C20 120.5(2) . . ?
C15 C16 H16 119.8 . . ?
C17 C16 C15 120.3(2) . . ?
C17 C16 H16 119.8 . . ?
C16 C17 H17 120.2 . . ?
C16 C17 C18 119.6(2) . . ?
C18 C17 H17 120.2 . . ?
C17 C18 H18 119.7 . . ?
C19 C18 C17 120.6(2) . . ?
C19 C18 H18 119.7 . . ?
C14 C19 C18 119.0(2) . . ?
C14 C19 H19 120.5 . . ?
C18 C19 H19 120.5 . . ?
O6 C20 O7 126.36(19) . . ?
O6 C20 C15 116.85(19) . . ?
O7 C20 C15 116.78(19) . . ?
O3 C21 C22 119.2(2) . . ?
O3 C21 C26 118.8(2) . . ?
C26 C21 C22 121.6(2) . . ?
C21 C22 C23 118.1(2) . . ?
C21 C22 C27 123.1(2) . . ?
C23 C22 C27 118.8(2) . . ?
C22 C23 H23 119.5 . . ?
C24 C23 C22 120.9(2) . . ?
C24 C23 H23 119.5 . . ?
C23 C24 H24 120.1 . . ?
C25 C24 C23 119.8(3) . . ?
C25 C24 H24 120.1 . . ?
C24 C25 H25 119.9 . . ?
C24 C25 C26 120.1(3) . . ?
C26 C25 H25 119.9 . . ?
C21 C26 C25 119.5(3) . . ?
C21 C26 H26 120.3 . . ?
C25 C26 H26 120.3 . . ?
O8 C27 C22 116.1(2) . . ?
O9 C27 O8 124.5(3) . . ?
O9 C27 C22 119.3(2) . . ?
O10 C28 N1 123.5(3) . . ?
O10 C28 H28 118.3 . . ?
N1 C28 H28 118.3 . . ?
N1 C29 H29A 109.5 . . ?
N1 C29 H29B 109.5 . . ?
N1 C29 H29C 109.5 . . ?
H29A C29 H29B 109.5 . . ?
H29A C29 H29C 109.5 . . ?
H29B C29 H29C 109.5 . . ?
N1 C30 H30A 109.5 . . ?
N1 C30 H30B 109.5 . . ?
N1 C30 H30C 109.5 . . ?
H30A C30 H30B 109.5 . . ?
H30A C30 H30C 109.5 . . ?
H30B C30 H30C 109.5 . . ?
loop_
_geom_bond_atom_site_label_1
_geom_bond_atom_site_label_2
_geom_bond_distance
_geom_bond_site_symmetry_2
_geom_bond_publ_flag
Nd1 Nd1 3.9977(3) 2_765 ?
Nd1 O4 2.4273(15) 1_655 ?
Nd1 O4 2.5877(15) 2_665 ?
Nd1 O5 2.5314(16) 2_665 ?
Nd1 O6 2.3910(16) 1_655 ?
Nd1 O7 2.4319(16) 2_665 ?
Nd1 O8 2.3132(18) . ?
Nd1 O10 2.4563(18) . ?
Nd1 O11A 2.460(4) . ?
Nd1 O11B 2.526(4) . ?
Nd1 C13 2.926(2) 2_665 ?
O1 C1 1.381(3) . ?
O1 C7 1.375(3) . ?
O2 C3 1.381(3) . ?
O2 C14 1.397(3) . ?
O3 C5 1.381(3) . ?
O3 C21 1.380(3) . ?
O4 C13 1.274(2) . ?
O5 C13 1.251(3) . ?
O6 C20 1.248(3) . ?
O7 C20 1.258(3) . ?
O8 C27 1.261(3) . ?
O9 C27 1.237(3) . ?
O10 C28 1.231(3) . ?
O11A H11A 0.8741 . ?
O11A H11B 0.8747 . ?
O11B H11C 0.8715 . ?
O11B H11D 0.8714 . ?
N1 C28 1.317(3) . ?
N1 C29 1.425(4) . ?
N1 C30 1.460(4) . ?
C1 C2 1.389(3) . ?
C1 C6 1.389(3) . ?
C2 H2 0.9300 . ?
C2 C3 1.394(3) . ?
C3 C4 1.384(3) . ?
C4 H4 0.9300 . ?
C4 C5 1.394(3) . ?
C5 C6 1.377(3) . ?
C6 H6 0.9300 . ?
C7 C8 1.390(3) . ?
C7 C12 1.388(3) . ?
C8 C9 1.395(3) . ?
C8 C13 1.498(3) . ?
C9 H9 0.9300 . ?
C9 C10 1.388(3) . ?
C10 H10 0.9300 . ?
C10 C11 1.376(5) . ?
C11 H11 0.9300 . ?
C11 C12 1.373(4) . ?
C12 H12 0.9300 . ?
C14 C15 1.388(3) . ?
C14 C19 1.385(3) . ?
C15 C16 1.392(3) . ?
C15 C20 1.506(3) . ?
C16 H16 0.9300 . ?
C16 C17 1.390(3) . ?
C17 H17 0.9300 . ?
C17 C18 1.391(4) . ?
C18 H18 0.9300 . ?
C18 C19 1.391(4) . ?
C19 H19 0.9300 . ?
C21 C22 1.385(3) . ?
C21 C26 1.380(4) . ?
C22 C23 1.400(3) . ?
C22 C27 1.503(3) . ?
C23 H23 0.9300 . ?
C23 C24 1.385(4) . ?
C24 H24 0.9300 . ?
C24 C25 1.380(5) . ?
C25 H25 0.9300 . ?
C25 C26 1.392(5) . ?
C26 H26 0.9300 . ?
C28 H28 0.9300 . ?
C29 H29A 0.9600 . ?
C29 H29B 0.9600 . ?
C29 H29C 0.9600 . ?
C30 H30A 0.9600 . ?
C30 H30B 0.9600 . ?
C30 H30C 0.9600 . ?
loop_
_geom_torsion_atom_site_label_1
_geom_torsion_atom_site_label_2
_geom_torsion_atom_site_label_3
_geom_torsion_atom_site_label_4
_geom_torsion
_geom_torsion_site_symmetry_1
_geom_torsion_site_symmetry_2
_geom_torsion_site_symmetry_3
_geom_torsion_site_symmetry_4
_geom_torsion_publ_flag
Nd1 O4 C13 Nd1 -146.7(4) 1_455 . . 2_665 ?
Nd1 O4 C13 O5 -8.6(2) 2_665 . . . ?
Nd1 O4 C13 O5 -155.3(3) 1_455 . . . ?
Nd1 O4 C13 C8 21.2(5) 1_455 . . . ?
Nd1 O4 C13 C8 167.82(16) 2_665 . . . ?
Nd1 O5 C13 O4 8.8(2) 2_665 . . . ?
Nd1 O5 C13 C8 -167.54(16) 2_665 . . . ?
Nd1 O6 C20 O7 -2.8(4) 1_455 . . . ?
Nd1 O6 C20 C15 178.07(16) 1_455 . . . ?
Nd1 O7 C20 O6 11.1(4) 2_665 . . . ?
Nd1 O7 C20 C15 -169.79(15) 2_665 . . . ?
Nd1 O8 C27 O9 -37.6(5) . . . . ?
Nd1 O8 C27 C22 146.5(2) . . . . ?
Nd1 O10 C28 N1 -159.2(2) . . . . ?
O1 C1 C2 C3 -178.7(2) . . . . ?
O1 C1 C6 C5 178.3(2) . . . . ?
O1 C7 C8 C9 -176.9(2) . . . . ?
O1 C7 C8 C13 -0.7(3) . . . . ?
O1 C7 C12 C11 175.3(2) . . . . ?
O2 C3 C4 C5 -178.4(2) . . . . ?
O2 C14 C15 C16 178.8(2) . . . . ?
O2 C14 C15 C20 -3.3(3) . . . . ?
O2 C14 C19 C18 -179.9(2) . . . . ?
O3 C5 C6 C1 176.3(2) . . . . ?
O3 C21 C22 C23 -169.4(2) . . . . ?
O3 C21 C22 C27 13.3(3) . . . . ?
O3 C21 C26 C25 171.3(3) . . . . ?
C1 O1 C7 C8 -44.8(3) . . . . ?
C1 O1 C7 C12 139.1(2) . . . . ?
C1 C2 C3 O2 179.38(19) . . . . ?
C1 C2 C3 C4 1.1(3) . . . . ?
C2 C1 C6 C5 0.9(3) . . . . ?
C2 C3 C4 C5 -0.2(3) . . . . ?
C3 O2 C14 C15 -74.9(3) . . . . ?
C3 O2 C14 C19 105.9(2) . . . . ?
C3 C4 C5 O3 -176.9(2) . . . . ?
C3 C4 C5 C6 -0.4(3) . . . . ?
C4 C5 C6 C1 0.1(3) . . . . ?
C5 O3 C21 C22 -120.4(2) . . . . ?
C5 O3 C21 C26 67.2(3) . . . . ?
C6 C1 C2 C3 -1.5(3) . . . . ?
C7 O1 C1 C2 -29.7(3) . . . . ?
C7 O1 C1 C6 152.9(2) . . . . ?
C7 C8 C9 C10 1.9(4) . . . . ?
C7 C8 C13 Nd1 -136.7(7) . . . 2_665 ?
C7 C8 C13 O4 132.2(2) . . . . ?
C7 C8 C13 O5 -51.4(3) . . . . ?
C8 C7 C12 C11 -1.0(4) . . . . ?
C8 C9 C10 C11 -1.1(4) . . . . ?
C9 C8 C13 Nd1 39.5(9) . . . 2_665 ?
C9 C8 C13 O4 -51.7(3) . . . . ?
C9 C8 C13 O5 124.8(2) . . . . ?
C9 C10 C11 C12 -0.8(5) . . . . ?
C10 C11 C12 C7 1.9(5) . . . . ?
C12 C7 C8 C9 -0.9(3) . . . . ?
C12 C7 C8 C13 175.3(2) . . . . ?
C13 C8 C9 C10 -174.4(2) . . . . ?
C14 O2 C3 C2 155.93(19) . . . . ?
C14 O2 C3 C4 -25.8(3) . . . . ?
C14 C15 C16 C17 1.5(3) . . . . ?
C14 C15 C20 O6 -68.8(3) . . . . ?
C14 C15 C20 O7 112.0(2) . . . . ?
C15 C14 C19 C18 1.0(4) . . . . ?
C15 C16 C17 C18 0.1(4) . . . . ?
C16 C15 C20 O6 109.1(2) . . . . ?
C16 C15 C20 O7 -70.1(3) . . . . ?
C16 C17 C18 C19 -1.2(4) . . . . ?
C17 C18 C19 C14 0.6(4) . . . . ?
C19 C14 C15 C16 -2.0(3) . . . . ?
C19 C14 C15 C20 175.9(2) . . . . ?
C20 C15 C16 C17 -176.4(2) . . . . ?
C21 O3 C5 C4 -152.2(2) . . . . ?
C21 O3 C5 C6 31.3(3) . . . . ?
C21 C22 C23 C24 -2.2(4) . . . . ?
C21 C22 C27 O8 -143.8(2) . . . . ?
C21 C22 C27 O9 40.1(4) . . . . ?
C22 C21 C26 C25 -0.9(4) . . . . ?
C22 C23 C24 C25 -0.2(4) . . . . ?
C23 C22 C27 O8 38.8(3) . . . . ?
C23 C22 C27 O9 -137.2(3) . . . . ?
C23 C24 C25 C26 2.2(5) . . . . ?
C24 C25 C26 C21 -1.7(5) . . . . ?
C26 C21 C22 C23 2.8(4) . . . . ?
C26 C21 C22 C27 -174.6(2) . . . . ?
C27 C22 C23 C24 175.2(2) . . . . ?
C29 N1 C28 O10 4.1(5) . . . . ?
C30 N1 C28 O10 175.0(3) . . . . ?
