#------------------------------------------------------------------------------
#$Date: 2020-02-14 00:18:46 +0200 (Fri, 14 Feb 2020) $
#$Revision: 248124 $
#$URL: file:///home/coder/svn-repositories/cod/cif/4/51/74/4517412.cif $
#------------------------------------------------------------------------------
#
# This file is available in the Crystallography Open Database (COD),
# http://www.crystallography.net/
#
# All data on this site have been placed in the public domain by the
# contributors.
#
data_4517412
loop_
_publ_author_name
'Chen, Wei'
'Liu, Haiyu'
'Fan, Ruiqing'
'Wang, Ping'
'Sun, Tiancheng'
'Yang, Yulin'
_publ_section_title
;
 Formation and Encapsulation of Lead Halide Perovskites in Lanthanide
 Metal-Organic Frameworks for Tunable Emission.
;
_journal_name_full               'ACS applied materials &amp; interfaces'
_journal_paper_doi               10.1021/acsami.9b23617
_journal_year                    2020
_chemical_formula_moiety         'C30 H24 N O11 Tb'
_chemical_formula_sum            'C30 H24 N O11 Tb'
_chemical_formula_weight         733.42
_space_group_crystal_system      triclinic
_space_group_IT_number           2
_space_group_name_Hall           '-P 1'
_space_group_name_H-M_alt        'P -1'
_atom_sites_solution_hydrogens   mixed
_atom_sites_solution_primary     direct
_audit_creation_date             2019-05-28
_audit_creation_method
;
Olex2 1.2
(compiled 2018.05.29 svn.r3508 for OlexSys, GUI svn.r5506)
;
_cell_angle_alpha                65.6440(10)
_cell_angle_beta                 72.3030(10)
_cell_angle_gamma                88.5820(10)
_cell_formula_units_Z            2
_cell_length_a                   10.9653(13)
_cell_length_b                   11.5047(14)
_cell_length_c                   12.6011(15)
_cell_measurement_reflns_used    8159
_cell_measurement_temperature    293(2)
_cell_measurement_theta_max      27.53
_cell_measurement_theta_min      2.57
_cell_volume                     1370.3(3)
_computing_cell_refinement       'SAINT v8.34A (Bruker, 2013)'
_computing_data_reduction        'SAINT v8.34A (Bruker, 2013)'
_computing_molecular_graphics    'Olex2 (Dolomanov et al., 2009)'
_computing_publication_material  'Olex2 (Dolomanov et al., 2009)'
_computing_structure_refinement  'XL (Sheldrick, 2008)'
_computing_structure_solution    'XS (Sheldrick, 2008)'
_diffrn_ambient_temperature      296.15
_diffrn_measured_fraction_theta_full 0.992
_diffrn_measured_fraction_theta_max 0.992
_diffrn_measurement_device_type  'CCD area detector'
_diffrn_measurement_method       'phi and omega scans'
_diffrn_radiation_monochromator  graphite
_diffrn_radiation_type           MoK\a
_diffrn_radiation_wavelength     0.71073
_diffrn_reflns_av_R_equivalents  0.0192
_diffrn_reflns_av_unetI/netI     0.0273
_diffrn_reflns_Laue_measured_fraction_full 0.992
_diffrn_reflns_Laue_measured_fraction_max 0.992
_diffrn_reflns_limit_h_max       12
_diffrn_reflns_limit_h_min       -13
_diffrn_reflns_limit_k_max       13
_diffrn_reflns_limit_k_min       -13
_diffrn_reflns_limit_l_max       14
_diffrn_reflns_limit_l_min       -14
_diffrn_reflns_number            9456
_diffrn_reflns_point_group_measured_fraction_full 0.992
_diffrn_reflns_point_group_measured_fraction_max 0.992
_diffrn_reflns_theta_full        25.000
_diffrn_reflns_theta_max         25.000
_diffrn_reflns_theta_min         2.606
_exptl_absorpt_coefficient_mu    2.647
_exptl_absorpt_correction_T_max  0.7456
_exptl_absorpt_correction_T_min  0.4955
_exptl_absorpt_correction_type   multi-scan
_exptl_absorpt_process_details
;
SADABS-2014/3 (Bruker,2014/3) was used for absorption correction.
wR2(int) was 0.0936 before and 0.0294 after correction.
The Ratio of minimum to maximum transmission is 0.6646.
The \l/2 correction factor is 0.00150.
;
_exptl_crystal_colour            yellow
_exptl_crystal_density_diffrn    1.777
_exptl_crystal_description       block
_exptl_crystal_F_000             728
_exptl_crystal_size_max          0.3
_exptl_crystal_size_mid          0.26
_exptl_crystal_size_min          0.24
_refine_diff_density_max         1.527
_refine_diff_density_min         -0.831
_refine_diff_density_rms         0.097
_refine_ls_extinction_method     none
_refine_ls_goodness_of_fit_ref   1.099
_refine_ls_hydrogen_treatment    constr
_refine_ls_matrix_type           full
_refine_ls_number_parameters     391
_refine_ls_number_reflns         4778
_refine_ls_number_restraints     0
_refine_ls_restrained_S_all      1.099
_refine_ls_R_factor_all          0.0286
_refine_ls_R_factor_gt           0.0255
_refine_ls_shift/su_max          0.002
_refine_ls_shift/su_mean         0.000
_refine_ls_structure_factor_coef Fsqd
_refine_ls_weighting_details
'w=1/[\s^2^(Fo^2^)+(0.0258P)^2^+2.7580P] where P=(Fo^2^+2Fc^2^)/3'
_refine_ls_weighting_scheme      calc
_refine_ls_wR_factor_gt          0.0611
_refine_ls_wR_factor_ref         0.0632
_reflns_Friedel_coverage         0.000
_reflns_number_gt                4486
_reflns_number_total             4778
_reflns_threshold_expression     'I > 2\s(I)'
_cod_data_source_file            am9b23617_si_002.cif
_cod_data_source_block           Tbtpob
_cod_database_code               4517412
_shelx_shelxl_version_number     2018/3
_shelx_space_group_comment
;
The symmetry employed for this shelxl refinement is uniquely defined
by the following loop, which should always be used as a source of
symmetry information in preference to the above space-group names.
They are only intended as comments.
;
_shelx_estimated_absorpt_t_max   0.569
_shelx_estimated_absorpt_t_min   0.504
_olex2_refinement_description
;
1. Fixed Uiso
 At 1.2 times of:
  All C(H) groups
 At 1.5 times of:
  All C(H,H,H) groups, All O(H,H) groups
2.a Rotating group:
 O11(H11A,H11B)
2.b Aromatic/amide H refined with riding coordinates:
 C2(H2), C4(H4), C6(H6), C9(H9), C10(H10), C11(H11), C12(H12), C16(H16),
 C17(H17), C18(H18), C19(H19), C23(H23), C24(H24), C25(H25), C26(H26), C28(H28)
2.c Idealised Me refined as rotating group:
 C29(H29A,H29B,H29C), C30(H30A,H30B,H30C)
;
_shelx_res_file
;
TITL 1 in P1 #1 New: P-1
    1.res
    created by SHELXL-2018/3 at 15:48:35 on 28-May-2019
CELL 0.71073 10.9653 11.5047 12.6011 65.644 72.303 88.582
ZERR 2 0.0013 0.0014 0.0015 0.001 0.001 0.001
LATT 1
SFAC C H N O Tb
UNIT 60 48 2 22 2

L.S. 5
PLAN  -20
SIZE 0.24 0.26 0.3
BOND $H
CONF
fmap 2
acta 50
OMIT 0 50
REM <olex2.extras>
REM <HklSrc "%.\\1.hkl">
REM </olex2.extras>

WGHT    0.025800    2.758000
FVAR       0.14177
TB1   5    0.178204    0.545949    0.480687    11.00000    0.01732    0.01958 =
         0.01994   -0.00910   -0.00576    0.00035
O1    4    1.017052    0.647602    0.025836    11.00000    0.03950    0.04124 =
         0.03203   -0.02577   -0.02047    0.01639
O2    4    1.050782    0.941140    0.200270    11.00000    0.02211    0.03571 =
         0.03540   -0.02308   -0.00798   -0.00130
O3    4    0.655524    0.852328    0.148159    11.00000    0.01938    0.05566 =
         0.04450   -0.03344   -0.01018    0.00413
O4    4    0.046909    0.530413    0.367496    11.00000    0.02431    0.02874 =
         0.01971   -0.01196   -0.00785   -0.00021
O5    4    0.102165    0.517913    0.695513    11.00000    0.01995    0.04637 =
         0.02469   -0.01703   -0.00603   -0.00293
O6    4    0.065873    0.725770    0.443892    11.00000    0.02880    0.02258 =
         0.04264   -0.01604   -0.01606    0.00494
O7    4    0.143080    0.326771    0.522961    11.00000    0.02775    0.02180 =
         0.04123   -0.01301   -0.01226   -0.00005
O8    4    0.329830    0.615423    0.293668    11.00000    0.02484    0.05817 =
         0.03194   -0.02002   -0.00139   -0.01187
O9    4    0.532840    0.591154    0.288336    11.00000    0.04059    0.05997 =
         0.04192   -0.00814   -0.01965    0.01058
O10   4    0.317526    0.699367    0.486662    11.00000    0.03817    0.04109 =
         0.04706   -0.02411   -0.01923   -0.00564
O11   4    0.346248    0.430847    0.547789    11.00000    0.09607    0.08729 =
         0.17349   -0.09989   -0.11176    0.06494
AFIX   7
H11A  2    0.320187    0.347107    0.592351    11.00000   -1.50000
H11B  2    0.371050    0.459489    0.594566    11.00000   -1.50000
AFIX   0
N1    3    0.468272    0.762158    0.546374    11.00000    0.03044    0.04467 =
         0.04133   -0.02287   -0.01094   -0.00258
C1    1    0.967002    0.731548    0.077647    11.00000    0.02883    0.02748 =
         0.01912   -0.01070   -0.00842    0.00604
C2    1    1.038563    0.795169    0.114942    11.00000    0.02400    0.02829 =
         0.02413   -0.01040   -0.00832    0.00390
AFIX  43
H2    2    1.124424    0.783250    0.107604    11.00000   -1.20000
AFIX   0
C3    1    0.976913    0.878155    0.164134    11.00000    0.02525    0.02205 =
         0.02026   -0.00816   -0.00591   -0.00273
C4    1    0.850366    0.898469    0.171960    11.00000    0.02338    0.02967 =
         0.03089   -0.01761   -0.00778    0.00299
AFIX  43
H4    2    0.810594    0.954686    0.203930    11.00000   -1.20000
AFIX   0
C5    1    0.783799    0.833721    0.131406    11.00000    0.01859    0.03184 =
         0.02649   -0.01195   -0.00543   -0.00024
C6    1    0.840555    0.749672    0.083838    11.00000    0.03018    0.02904 =
         0.02696   -0.01466   -0.01046   -0.00244
AFIX  43
H6    2    0.795080    0.706602    0.056807    11.00000   -1.20000
AFIX   0
C7    1    1.113976    0.575870    0.056673    11.00000    0.02612    0.02920 =
         0.02586   -0.01647   -0.00865    0.00246
C8    1    1.116876    0.510575    0.177017    11.00000    0.02199    0.02474 =
         0.02578   -0.01519   -0.00774   -0.00062
C9    1    1.217170    0.436740    0.196450    11.00000    0.03496    0.03149 =
         0.03203   -0.01681   -0.01452    0.00883
AFIX  43
H9    2    1.222174    0.395271    0.275600    11.00000   -1.20000
AFIX   0
C10   1    1.309823    0.423895    0.099842    11.00000    0.03082    0.04236 =
         0.05323   -0.03042   -0.01135    0.01281
AFIX  43
H10   2    1.375086    0.372484    0.114378    11.00000   -1.20000
AFIX   0
C11   1    1.304162    0.488393   -0.018457    11.00000    0.03363    0.04890 =
         0.04044   -0.02937   -0.00099    0.00512
AFIX  43
H11   2    1.365920    0.480011   -0.083544    11.00000   -1.20000
AFIX   0
C12   1    1.208085    0.564656   -0.040475    11.00000    0.03789    0.04184 =
         0.02718   -0.02069   -0.00376    0.00320
AFIX  43
H12   2    1.205957    0.608831   -0.120411    11.00000   -1.20000
AFIX   0
C13   1   -0.014069    0.490423    0.712526    11.00000    0.02296    0.01755 =
         0.02033   -0.00718   -0.00744    0.00016
C14   1    0.982578    0.981330    0.290794    11.00000    0.02613    0.02595 =
         0.03662   -0.01775   -0.01545   -0.00011
C15   1    0.930273    0.890420    0.411335    11.00000    0.02430    0.02487 =
         0.03343   -0.01548   -0.01511    0.00434
C16   1    0.860511    0.930911    0.499717    11.00000    0.03125    0.02929 =
         0.03580   -0.01609   -0.01308    0.00313
AFIX  43
H16   2    0.823694    0.870958    0.580832    11.00000   -1.20000
AFIX   0
C17   1    0.845222    1.059807    0.468209    11.00000    0.04066    0.03615 =
         0.04997   -0.03052   -0.01984    0.01009
AFIX  43
H17   2    0.797537    1.086181    0.527477    11.00000   -1.20000
AFIX   0
C18   1    0.901773    1.148680    0.347528    11.00000    0.05181    0.02580 =
         0.05766   -0.02284   -0.02575    0.01112
AFIX  43
H18   2    0.893841    1.235419    0.326393    11.00000   -1.20000
AFIX   0
C19   1    0.970028    1.109895    0.257908    11.00000    0.04797    0.02389 =
         0.03841   -0.00935   -0.02041    0.00126
AFIX  43
H19   2    1.006821    1.169773    0.176758    11.00000   -1.20000
AFIX   0
C20   1   -0.046746    0.751607    0.446420    11.00000    0.02895    0.02330 =
         0.02534   -0.01035   -0.01086    0.00450
C21   1    0.599533    0.840863    0.066508    11.00000    0.01845    0.03467 =
         0.03401   -0.01941   -0.00693    0.00262
C22   1    0.492961    0.749577    0.113541    11.00000    0.01832    0.03367 =
         0.02801   -0.01668   -0.00574    0.00437
C23   1    0.426206    0.755809    0.033056    11.00000    0.02418    0.03915 =
         0.03851   -0.02073   -0.01144    0.00245
AFIX  43
H23   2    0.352310    0.699044    0.062332    11.00000   -1.20000
AFIX   0
C24   1    0.467210    0.843941   -0.088491    11.00000    0.04496    0.05494 =
         0.03651   -0.01931   -0.02131    0.01242
AFIX  43
H24   2    0.421493    0.845961   -0.140348    11.00000   -1.20000
AFIX   0
C25   1    0.576784    0.929546   -0.133199    11.00000    0.04747    0.05268 =
         0.03119   -0.00719   -0.00964    0.01027
AFIX  43
H25   2    0.606338    0.987454   -0.215739    11.00000   -1.20000
AFIX   0
C26   1    0.641878    0.928580   -0.054861    11.00000    0.02852    0.03600 =
         0.04380   -0.00935   -0.00296   -0.00332
AFIX  43
H26   2    0.714315    0.987178   -0.084087    11.00000   -1.20000
AFIX   0
C27   1    0.450159    0.645365    0.242247    11.00000    0.02949    0.03751 =
         0.02670   -0.01816   -0.00622    0.00049
C28   1    0.366999    0.687653    0.565360    11.00000    0.03127    0.03535 =
         0.03932   -0.01854   -0.00772    0.00124
AFIX  43
H28   2    0.330622    0.621824    0.643615    11.00000   -1.20000
AFIX   0
C29   1    0.534730    0.859693    0.426908    11.00000    0.07773    0.07662 =
         0.05424   -0.02168   -0.01401   -0.03135
AFIX 137
H29A  2    0.506830    0.941246    0.421024    11.00000   -1.50000
H29B  2    0.516257    0.840404    0.365783    11.00000   -1.50000
H29C  2    0.625809    0.863039    0.413552    11.00000   -1.50000
AFIX   0
C30   1    0.525789    0.736314    0.643184    11.00000    0.06995    0.07899 =
         0.06297   -0.02853   -0.03655   -0.00780
AFIX 137
H30A  2    0.525740    0.810191    0.660411    11.00000   -1.50000
H30B  2    0.612789    0.717942    0.616452    11.00000   -1.50000
H30C  2    0.476639    0.663822    0.716314    11.00000   -1.50000
AFIX   0
HKLF 4




REM  1 in P1 #1 New: P-1
REM wR2 = 0.0632, GooF = S = 1.099, Restrained GooF = 1.099 for all data
REM R1 = 0.0255 for 4486 Fo > 4sig(Fo) and 0.0286 for all 4778 data
REM 391 parameters refined using 0 restraints

END

WGHT      0.0258      2.7580

REM Highest difference peak  1.527,  deepest hole -0.831,  1-sigma level  0.097
Q1    1   0.1593  0.6388  0.4453  11.00000  0.05    1.53
Q2    1   0.4666  0.3646  0.5592  11.00000  0.05    1.40
Q3    1   0.1958  0.4496  0.5197  11.00000  0.05    1.37
Q4    1   0.2834  0.3973  0.5999  11.00000  0.05    0.66
Q5    1   0.3544  0.4412  0.5084  11.00000  0.05    0.61
Q6    1   0.2469  0.6048  0.3993  11.00000  0.05    0.58
Q7    1   0.5185  0.4071  0.4673  11.00000  0.05    0.57
Q8    1   0.1083  0.6827  0.3954  11.00000  0.05    0.49
Q9    1   0.0959  0.5156  0.5447  11.00000  0.05    0.49
Q10   1   0.1248  0.5801  0.4179  11.00000  0.05    0.47
Q11   1   0.6164  0.5995  0.3827  11.00000  0.05    0.44
Q12   1   0.1325  0.3831  0.4657  11.00000  0.05    0.43
Q13   1   0.1025  0.4771  0.4321  11.00000  0.05    0.41
Q14   1   0.2505  0.6190  0.5124  11.00000  0.05    0.41
Q15   1   0.1807  0.7242  0.4449  11.00000  0.05    0.38
Q16   1   0.2979  0.7010  0.2690  11.00000  0.05    0.38
Q17   1   0.1826  0.2862  0.5731  11.00000  0.05    0.37
Q18   1   1.1209  0.5749  0.1197  11.00000  0.05    0.37
Q19   1   0.5235  0.6551  0.3403  11.00000  0.05    0.36
Q20   1   0.1484  0.7398  0.3978  11.00000  0.05    0.35
;
_shelx_res_checksum              17251
_shelx_hkl_file
;
  -2   0   0   47.66    1.34
  -2   0   0   51.03    1.31
   2   0   0   53.33    1.32
  -3   0   0  136.36    3.49
  -3   0   0  133.10    3.43
   3   0   0  138.68    3.44
  -4   0   0   21.46    0.74
  -4   0   0   20.84    0.67
   4   0   0   21.28    0.68
  -5   0   0   70.95    1.96
  -5   0   0   72.40    2.06
   5   0   0   75.94    1.99
  -6   0   0  307.13    7.81
  -6   0   0  310.54    7.68
   6   0   0  302.15    7.69
  -7   0   0    0.99    0.17
  -7   0   0    0.67    0.20
  -8   0   0   97.64    2.71
  -8   0   0   98.44    2.87
   8   0   0   98.66    2.72
  -9   0   0   30.33    1.23
   9   0   0   27.58    1.06
 -10   0   0   -0.18    0.20
 -11   0   0   20.38    1.10
 -12   0   0    6.80    0.73
 -13   1   0    0.15    0.36
 -12   1   0   21.56    1.18
 -11   1   0   39.49    1.58
  10  -1   0    0.61    0.25
 -10   1   0    1.06    0.29
   9  -1   0   38.65    1.37
  -9   1   0   40.23    1.47
   8  -1   0   75.64    2.15
  -8   1   0   73.88    2.24
  -8   1   0   69.13    2.04
   7  -1   0   12.84    0.59
  -7   1   0   11.62    0.52
  -7   1   0   12.25    0.65
   6  -1   0  132.84    3.44
  -6   1   0  122.94    3.35
  -6   1   0  133.72    3.51
   5  -1   0   50.79    1.47
  -5   1   0   52.73    1.52
  -5   1   0   48.63    1.39
   4  -1   0    8.74    0.39
  -4   1   0    8.18    0.40
  -4   1   0    9.05    0.34
   3  -1   0  105.93    2.75
  -3   1   0  107.36    2.69
  -3   1   0  106.75    2.77
   2  -1   0  158.40    4.08
  -2   1   0  163.79    4.02
  -2   1   0  167.59    4.09
  -1   1   0   52.88    1.23
  -1   1   0   45.84    1.27
  -1  -1   0   13.13    0.39
  -1  -1   0   11.81    0.33
  -2  -1   0  317.15    7.78
  -2  -1   0  315.27    7.76
   2   1   0  312.55    7.71
  -3  -1   0  213.47    5.46
  -3  -1   0  222.49    5.43
   3   1   0  216.08    5.37
  -4  -1   0   12.22    0.47
   4   1   0   11.87    0.42
  -5  -1   0   17.03    0.63
  -5  -1   0   16.18    0.67
   5   1   0   16.38    0.57
  -6  -1   0  116.08    3.05
  -6  -1   0  117.71    3.16
   6   1   0  109.35    2.99
  -7  -1   0   17.72    0.71
  -7  -1   0   18.56    0.80
   7   1   0   16.65    0.66
  -8  -1   0   67.19    1.96
  -8  -1   0   69.12    2.11
   8   1   0   61.51    1.88
  -9  -1   0    2.51    0.31
  -9  -1   0    1.75    0.34
 -10  -1   0   32.33    1.37
 -11  -1   0   44.00    1.75
 -12  -1   0    0.68    0.35
 -13   2   0    0.52    0.34
 -12   2   0   34.04    1.50
  11  -2   0   18.92    0.95
 -11   2   0   18.23    1.01
  10  -2   0   -0.18    0.19
 -10   2   0   -0.06    0.21
   9  -2   0   50.51    1.65
  -9   2   0   45.59    1.66
   8  -2   0   21.07    0.89
  -8   2   0   21.23    0.93
   7  -2   0   47.37    1.49
  -7   2   0   45.88    1.34
  -7   2   0   46.49    1.52
   6  -2   0  181.85    4.59
  -6   2   0  177.07    4.61
  -6   2   0  167.31    4.43
   5  -2   0    3.60    0.30
  -5   2   0    4.13    0.31
  -5   2   0    3.42    0.22
   4  -2   0  125.66    3.35
  -4   2   0  131.19    3.36
  -4   2   0  129.34    3.24
   3  -2   0   64.33    1.72
  -3   2   0   60.83    1.60
  -3   2   0   63.70    1.71
   2  -2   0  106.05    2.80
  -2   2   0  110.29    2.71
  -2   2   0  111.05    2.81
   1  -2   0  757.35   18.85
   1  -2   0  773.42   18.71
  -1   2   0  763.45   18.93
   0  -2   0  199.38    5.04
   0  -2   0  209.66    5.05
  -1  -2   0    0.22    0.08
  -1  -2   0    0.40    0.06
  -2  -2   0  273.36    7.17
  -2  -2   0  306.31    7.08
  -2  -2   0  288.30    7.20
  -3  -2   0  118.24    3.00
  -3  -2   0  110.97    2.96
   3   2   0  113.47    2.85
  -4  -2   0    0.35    0.11
  -4  -2   0    0.58    0.14
   4   2   0    0.57    0.08
  -5  -2   0  232.58    5.73
  -5  -2   0  224.13    5.65
   5   2   0  207.76    5.51
  -6  -2   0   12.36    0.57
  -6  -2   0   12.25    0.62
   6   2   0   10.72    0.46
  -7  -2   0   23.94    0.96
  -7  -2   0   22.66    0.87
   7   2   0   19.88    0.86
  -8  -2   0   54.75    1.85
  -8  -2   0   56.31    1.75
  -9  -2   0    0.72    0.29
  -9  -2   0    1.41    0.26
 -10  -2   0   30.75    1.33
 -10  -2   0   28.46    1.18
 -11  -2   0   48.22    1.87
 -12  -2   0    0.22    0.29
 -13   3   0    2.30    0.51
  12  -3   0   36.70    1.85
 -12   3   0   38.26    1.61
  11  -3   0   10.36    0.74
 -11   3   0    9.23    0.76
  10  -3   0    4.43    0.48
 -10   3   0    5.54    0.59
   9  -3   0   45.86    1.59
  -9   3   0   43.69    1.59
   8  -3   0    0.03    0.16
  -8   3   0   -0.09    0.16
   7  -3   0   33.47    1.20
  -7   3   0   33.71    1.20
   6  -3   0   92.18    2.59
  -6   3   0   91.15    2.40
  -6   3   0   93.58    2.60
   5  -3   0    0.39    0.14
  -5   3   0   -0.06    0.10
  -5   3   0    0.20    0.07
   4  -3   0  113.97    3.01
  -4   3   0  109.24    2.84
  -4   3   0  115.52    3.00
   3  -3   0  192.44    4.94
  -3   3   0  199.51    4.95
  -3   3   0  190.81    4.80
   2  -3   0  199.64    5.01
   2  -3   0  200.27    5.12
  -2   3   0  208.60    5.02
  -2   3   0  202.86    5.13
   1  -3   0  164.49    4.08
   1  -3   0  165.35    4.04
  -1   3   0  155.48    4.17
   0  -3   0  239.66    6.08
   0  -3   0  252.73    6.11
  -1  -3   0    0.15    0.08
  -1  -3   0    0.36    0.06
  -2  -3   0  427.54   10.74
  -2  -3   0  451.74   10.87
  -3  -3   0   41.28    1.23
  -3  -3   0   38.84    1.20
  -3  -3   0   41.25    1.06
  -4  -3   0   40.77    1.25
  -4  -3   0   39.19    1.21
   4   3   0   36.87    1.03
  -5  -3   0  125.93    3.21
  -5  -3   0  122.07    3.25
   5   3   0  107.85    2.98
  -6  -3   0    1.03    0.22
  -6  -3   0    1.64    0.24
  -7  -3   0   83.23    2.50
  -7  -3   0   83.70    2.43
  -8  -3   0   86.43    2.53
  -8  -3   0   85.01    2.62
  -9  -3   0   -0.23    0.20
  -9  -3   0   -0.02    0.19
 -10  -3   0   46.23    1.76
 -10  -3   0   46.12    1.66
 -11  -3   0   20.65    1.19
 -12  -3   0    3.52    0.53
 -13   4   0    6.25    1.04
  12  -4   0   35.23    1.50
 -12   4   0   35.73    1.56
  11  -4   0    0.32    0.25
 -11   4   0    0.12    0.24
  10  -4   0   21.36    1.05
 -10   4   0   20.87    1.04
   9  -4   0   56.06    1.89
  -9   4   0   56.25    1.90
   8  -4   0    1.89    0.32
  -8   4   0    1.60    0.28
   7  -4   0   52.51    1.70
  -7   4   0   51.25    1.67
   6  -4   0   19.02    0.82
  -6   4   0   18.58    0.79
   5  -4   0   24.41    0.90
  -5   4   0   21.73    0.68
  -5   4   0   22.85    0.86
   4  -4   0  166.36    4.36
  -4   4   0  162.32    4.16
  -4   4   0  171.13    4.36
   3  -4   0   28.59    0.96
  -3   4   0   28.34    0.82
  -3   4   0   29.95    0.98
   2  -4   0  293.97    7.33
   2  -4   0  293.58    7.43
  -2   4   0  302.91    7.52
   1  -4   0  272.73    6.61
   1  -4   0  272.63    6.65
  -1   4   0  251.86    6.78
   0  -4   0   33.27    0.98
   0  -4   0   35.66    1.02
  -1  -4   0   13.19    0.43
  -1  -4   0   12.86    0.51
  -2  -4   0  271.44    6.86
  -2  -4   0  287.03    7.03
  -3  -4   0   37.21    0.97
  -3  -4   0   36.61    1.17
  -4  -4   0  168.11    4.40
  -5  -4   0   89.90    2.56
  -5  -4   0   91.82    2.61
  -6  -4   0    0.39    0.19
  -6  -4   0    0.10    0.16
  -7  -4   0   48.92    1.68
  -7  -4   0   47.25    1.61
  -8  -4   0   59.08    1.91
  -8  -4   0   58.29    2.00
  -9  -4   0    0.56    0.25
  -9  -4   0    0.47    0.26
 -10  -4   0   45.35    1.80
 -10  -4   0   43.74    1.65
 -11  -4   0   11.08    0.81
 -11  -4   0    7.64    0.85
  13  -5   0   15.40    1.05
  12  -5   0   17.17    1.04
 -12   5   0   16.84    1.06
  11  -5   0    0.49    0.28
 -11   5   0    1.02    0.32
  10  -5   0   56.62    1.97
 -10   5   0   53.94    1.95
   9  -5   0   55.39    1.89
  -9   5   0   51.78    1.84
   8  -5   0    9.47    0.66
  -8   5   0    9.43    0.64
   7  -5   0   76.41    2.35
  -7   5   0   77.32    2.34
   6  -5   0   35.41    1.25
  -6   5   0   33.25    1.22
   5  -5   0   37.29    1.26
  -5   5   0   34.33    1.05
  -5   5   0   36.71    1.25
   4  -5   0  217.89    5.64
  -4   5   0  225.26    5.68
  -4   5   0  210.15    5.43
   3  -5   0    1.27    0.19
   3  -5   0    0.76    0.11
  -3   5   0    0.73    0.12
  -3   5   0    0.60    0.16
   2  -5   0  224.35    5.62
   2  -5   0  224.29    5.53
  -2   5   0  212.90    5.74
   1  -5   0  375.43    9.25
   1  -5   0  370.52    9.27
  -1   5   0  371.99    9.48
   0  -5   0   53.78    1.54
   0  -5   0   58.20    1.59
  -1  -5   0   32.28    0.95
  -1  -5   0   33.53    1.05
  -2  -5   0  136.02    3.57
  -2  -5   0  148.04    3.75
  -3  -5   0   -0.08    0.14
  -3  -5   0   -0.03    0.07
  -4  -5   0   60.87    1.84
  -5  -5   0   30.15    1.11
  -6  -5   0    9.79    0.62
  -7  -5   0   50.51    1.71
  -7  -5   0   50.31    1.76
  -8  -5   0   14.16    0.88
  -8  -5   0   15.24    0.84
  -9  -5   0    8.53    0.75
  -9  -5   0    9.77    0.78
 -10  -5   0   33.12    1.42
 -10  -5   0   32.10    1.50
 -11  -5   0    2.64    0.49
 -11  -5   0    3.75    0.50
  12  -6   0   11.00    0.89
 -12   6   0   12.58    0.94
  11  -6   0   -0.20    0.25
 -11   6   0    0.07    0.26
  10  -6   0   28.93    1.32
 -10   6   0   28.83    1.30
   9  -6   0    5.10    0.54
  -9   6   0    5.67    0.59
   8  -6   0   33.21    1.32
  -8   6   0   30.48    1.28
   7  -6   0   63.43    2.09
  -7   6   0   65.11    2.08
   6  -6   0    1.83    0.30
  -6   6   0    1.96    0.29
   5  -6   0   40.24    1.40
  -5   6   0   42.14    1.44
   4  -6   0   94.75    2.68
  -4   6   0   98.63    2.76
  -4   6   0   89.92    2.48
   3  -6   0    6.42    0.41
   3  -6   0    4.76    0.30
  -3   6   0    5.09    0.44
  -3   6   0    4.58    0.31
   2  -6   0  109.77    2.91
   2  -6   0  113.81    2.99
  -2   6   0  108.07    3.15
   1  -6   0  103.86    2.80
   1  -6   0  105.17    2.79
  -1   6   0  105.47    3.04
   0  -6   0   20.86    0.75
   0  -6   0   20.32    0.71
   0   6   0   19.58    0.93
  -1  -6   0   83.97    2.28
  -1  -6   0   87.78    2.40
  -2  -6   0   88.03    2.33
  -2  -6   0   90.18    2.50
  -3  -6   0   35.53    1.22
  -4  -6   0   78.77    2.33
  -5  -6   0   32.07    1.21
  -6  -6   0   25.45    1.12
  -7  -6   0   27.84    1.19
  -8  -6   0   -0.23    0.23
  -9  -6   0   52.93    1.92
 -10  -6   0   50.60    1.91
 -11  -6   0    0.66    0.35
  12  -7   0    3.74    0.71
 -12   7   0    3.42    0.55
  11  -7   0   10.99    0.91
 -11   7   0   13.22    0.93
  10  -7   0   52.89    1.99
 -10   7   0   53.93    1.99
   9  -7   0    1.06    0.33
  -9   7   0    0.89    0.29
   8  -7   0   51.64    1.86
  -8   7   0   53.08    1.89
   7  -7   0  128.25    3.69
  -7   7   0  129.11    3.72
   6  -7   0    0.12    0.22
  -6   7   0    0.55    0.22
   5  -7   0   46.01    1.56
  -5   7   0   45.12    1.61
   4  -7   0   33.87    1.20
   4  -7   0   31.10    1.02
  -4   7   0   33.84    1.28
   3  -7   0   13.19    0.56
   3  -7   0   14.71    0.67
  -3   7   0   12.97    0.75
   2  -7   0  208.93    5.33
   2  -7   0  211.39    5.39
  -2   7   0  202.98    5.61
   1  -7   0   82.48    2.33
   1  -7   0   83.39    2.33
  -1   7   0   85.37    2.60
   0  -7   0   29.49    0.99
   0  -7   0   32.14    1.06
   0   7   0   28.82    1.24
  -1  -7   0   82.81    2.29
  -1  -7   0   86.40    2.41
  -2  -7   0   27.75    1.05
  -3  -7   0   12.79    0.70
  -4  -7   0   37.99    1.36
  -5  -7   0    1.17    0.29
  -6  -7   0   45.29    1.64
  -7  -7   0   35.22    1.42
  -8  -7   0   -0.14    0.27
  -9  -7   0   21.24    1.17
 -10  -7   0   14.93    1.01
  11  -8   0    3.80    0.56
 -11   8   0    4.08    0.56
  10  -8   0    9.19    0.84
 -10   8   0    9.58    0.82
   9  -8   0    1.70    0.38
  -9   8   0    1.90    0.39
   8  -8   0   44.19    1.69
  -8   8   0   43.34    1.71
   7  -8   0   58.30    2.00
  -7   8   0   56.74    2.02
   6  -8   0    0.54    0.25
  -6   8   0    0.14    0.21
   5  -8   0   45.35    1.60
  -5   8   0   46.69    1.71
   4  -8   0    9.37    0.61
  -4   8   0    6.13    0.59
   3  -8   0   34.04    1.14
   3  -8   0   37.08    1.26
  -3   8   0   33.18    1.39
   2  -8   0  148.66    4.00
   2  -8   0  151.30    3.95
  -2   8   0  146.54    4.25
   1  -8   0   21.99    0.86
   1  -8   0   21.14    0.83
  -1   8   0   20.11    1.05
   0  -8   0   24.97    0.90
   0  -8   0   25.89    0.97
   0   8   0   23.38    1.15
  -1  -8   0   65.59    2.00
  -2  -8   0   11.21    0.67
  -3  -8   0   52.03    1.74
  -4  -8   0   95.53    2.85
  -5  -8   0   10.18    0.76
  -6  -8   0   49.44    1.80
  -7  -8   0   29.04    1.34
  -8  -8   0    1.48    0.42
  -9  -8   0   23.75    1.25
 -11   9   0   22.66    1.32
  10  -9   0   10.90    0.91
 -10   9   0   10.29    0.89
   9  -9   0    3.27    0.51
  -9   9   0    2.90    0.49
   8  -9   0   20.81    1.14
  -8   9   0   22.92    1.20
   7  -9   0    7.19    0.68
  -7   9   0    7.19    0.69
   6  -9   0   40.21    1.57
  -6   9   0   41.91    1.67
   5  -9   0   64.15    2.05
  -5   9   0   57.44    2.14
   4  -9   0   15.43    0.82
  -4   9   0   14.24    0.89
   3  -9   0   61.12    1.88
  -3   9   0   55.00    2.04
   2  -9   0   69.43    2.06
   2  -9   0   66.64    2.09
  -2   9   0   71.70    2.39
   1  -9   0    0.08    0.17
   1  -9   0    0.14    0.17
  -1   9   0   -0.28    0.25
   0  -9   0   34.73    1.26
   0   9   0   34.58    1.51
  -1  -9   0   61.07    1.93
   1   9   0   59.29    2.17
  -2  -9   0    0.20    0.24
  -3  -9   0   48.00    1.70
  -4  -9   0   29.93    1.28
  -5  -9   0   12.44    0.84
  -6  -9   0   30.58    1.37
  -7  -9   0   10.45    0.91
  -8  -9   0    9.52    0.88
 -10  10   0    1.81    0.48
   9 -10   0   12.62    0.97
  -9  10   0   11.99    0.99
   8 -10   0   33.17    1.50
  -8  10   0   31.70    1.52
   7 -10   0    8.66    0.75
  -7  10   0    7.94    0.78
   6 -10   0   20.43    1.06
  -6  10   0   19.90    1.16
   5 -10   0   42.81    1.58
  -5  10   0   38.95    1.70
   4 -10   0    1.28    0.31
  -4  10   0    0.62    0.30
   3 -10   0   73.99    2.33
  -3  10   0   76.84    2.59
   2 -10   0   41.41    1.45
   2 -10   0   41.99    1.48
  -2  10   0   41.92    1.73
   1 -10   0   -0.19    0.18
  -1  10   0   -0.35    0.24
   0 -10   0   80.06    2.45
   0  10   0   81.03    2.74
  -1 -10   0   19.41    0.94
   1  10   0   18.19    1.14
  -2 -10   0    0.26    0.25
  -3 -10   0   60.91    2.08
  -4 -10   0    2.90    0.44
  -5 -10   0   24.75    1.23
  -6 -10   0   29.29    1.41
  -7 -10   0    2.95    0.57
  -9  11   0   23.69    1.59
   8 -11   0   28.09    1.41
  -8  11   0   26.93    1.46
   7 -11   0   -0.11    0.26
  -7  11   0    0.09    0.25
   6 -11   0   14.80    0.93
  -6  11   0   13.27    1.02
   5 -11   0   39.45    1.55
  -5  11   0   37.58    1.71
   4 -11   0    1.93    0.36
  -4  11   0    1.80    0.41
   3 -11   0   37.17    1.43
  -3  11   0   36.28    1.63
  -2  11   0   10.20    0.90
   1 -11   0    4.84    0.49
  -1  11   0    5.43    0.70
   0 -11   0   35.07    1.39
   0  11   0   36.74    1.66
  -1 -11   0   20.88    1.05
   1  11   0   20.00    1.26
  -2 -11   0   16.60    0.96
   2  11   0   18.61    1.24
  -3 -11   0   33.59    1.45
  -4 -11   0    0.18    0.31
  -5 -11   0   18.62    1.12
   7 -12   0    0.91    0.39
   6 -12   0   21.37    1.18
  -6  12   0   20.10    1.74
   5 -12   0    9.72    0.81
  -5  12   0    8.37    0.90
   4 -12   0    8.84    0.77
  -4  12   0    7.65    0.81
  -3  12   0   20.00    1.22
  -2  12   0    6.14    0.73
  -1  12   0   16.27    1.13
   0 -12   0   13.66    0.90
   0  12   0   15.74    1.15
  -1 -12   0    2.18    0.42
   1  12   0    2.07    0.53
  -2 -12   0   14.14    0.98
   2  12   0   15.83    1.25
  -3 -12   0    6.39    0.66
   3  12   0    6.29    0.82
  -4 -12   0    2.23    0.47
  -1  13   0   14.76    1.47
   0  13   0   12.31    1.11
  -1 -13   0    8.29    0.84
   1  13   0    9.65    1.11
  -2 -13   0   44.21    1.79
   2  13   0   42.94    2.08
  -3 -12   1   11.79    1.08
  -2 -12   1   38.31    1.61
  -1 -12   1    0.37    0.32
   0 -12   1   30.78    1.36
   5 -12   1    4.96    0.56
   6 -12   1   24.76    1.30
  -4 -11   1    0.14    0.32
  -3 -11   1   19.25    1.09
   2  11  -1    9.71    0.98
  -2 -11   1    9.97    0.84
   1  11  -1    8.06    0.93
  -1 -11   1    7.06    0.69
   0  11  -1   40.91    1.78
   0 -11   1   41.50    1.57
  -1  11  -1   17.55    1.12
   1 -11   1   16.56    0.92
  -2  11  -1   12.52    0.95
  -3  11  -1   26.97    1.38
   3 -11   1   25.74    1.26
  -4  11  -1    4.85    0.89
   4 -11   1    7.29    0.69
   5 -11   1   12.51    0.88
   6 -11   1   22.88    1.19
   7 -11   1    0.15    0.29
   8 -11   1   32.84    1.80
  -6 -10   1   30.46    1.47
  -5 -10   1   11.15    0.90
  -3 -10   1   34.99    1.46
  -2 -10   1    9.77    0.75
   1  10  -1   43.48    1.80
  -1 -10   1   40.28    1.56
   0  10  -1   48.10    1.92
   0 -10   1   45.63    1.65
  -1  10  -1    4.20    0.58
   1 -10   1    4.00    0.43
  -2  10  -1   42.01    1.73
   2 -10   1   42.07    1.52
   2 -10   1   43.08    1.51
  -3  10  -1   55.54    2.07
   3 -10   1   55.77    1.88
  -4  10  -1    1.85    0.39
   4 -10   1    1.87    0.34
  -5  10  -1   30.59    1.45
   5 -10   1   33.89    1.38
  -6  10  -1   17.22    1.06
   6 -10   1   16.73    1.01
  -7  10  -1    0.17    0.26
   7 -10   1    0.24    0.26
   8 -10   1   33.64    1.50
   9 -10   1   13.11    1.01
  -7  -9   1    5.78    0.63
  -6  -9   1   45.77    1.79
  -5  -9   1   17.25    1.04
  -4  -9   1    8.00    0.73
  -3  -9   1   20.69    1.02
  -2  -9   1    0.70    0.28
   1   9  -1   30.18    1.40
  -1  -9   1   31.50    1.25
   0   9  -1   77.30    2.63
   0  -9   1   81.81    2.43
  -1   9  -1    0.61    0.32
   1  -9   1    0.95    0.26
   1  -9   1    1.28    0.26
  -2   9  -1   80.64    2.60
   2  -9   1   75.60    2.34
   2  -9   1   79.08    2.34
  -3   9  -1   36.37    1.41
  -3   9  -1   36.57    1.52
   3  -9   1   39.72    1.33
   3  -9   1   38.00    1.38
  -4   9  -1    0.05    0.20
   4  -9   1    0.19    0.22
  -5   9  -1   75.34    2.53
   5  -9   1   77.05    2.41
  -6   9  -1   23.90    1.17
   6  -9   1   22.61    1.12
  -7   9  -1   10.78    0.81
   7  -9   1   11.28    0.81
  -8   9  -1   46.53    1.82
   8  -9   1   46.05    1.78
  -9   9  -1   13.45    0.96
   9  -9   1   11.71    0.91
 -10   9  -1    4.96    0.61
  10  -9   1    4.23    0.56
  -8  -8   1    5.49    0.59
  -7  -8   1   32.11    1.43
  -6  -8   1   35.45    1.47
  -5  -8   1    0.03    0.25
  -4  -8   1   90.42    2.76
  -3  -8   1   93.29    2.80
  -2  -8   1    4.24    0.42
  -1  -8   1   48.39    1.62
   0   8  -1   48.20    1.79
   0  -8   1   49.58    1.59
   0  -8   1   47.78    1.52
  -1   8  -1   -0.32    0.20
   1  -8   1    0.27    0.18
   1  -8   1   -0.17    0.14
  -2   8  -1   56.25    1.95
   2  -8   1   53.01    1.73
   2  -8   1   56.53    1.72
  -3   8  -1   19.79    0.99
  -3   8  -1   19.60    0.84
   3  -8   1   21.57    0.91
   3  -8   1   21.15    0.85
  -4   8  -1   21.09    1.02
   4  -8   1   19.53    0.88
   4  -8   1   23.16    0.96
  -5   8  -1   82.81    2.60
   5  -8   1   81.04    2.49
  -6   8  -1   52.52    1.86
   6  -8   1   52.00    1.80
  -7   8  -1    1.92    0.35
   7  -8   1    2.47    0.39
  -8   8  -1   15.76    0.92
   8  -8   1   15.11    0.95
  -9   8  -1    4.34    0.54
   9  -8   1    3.22    0.47
 -10   8  -1   20.16    1.12
  10  -8   1   19.84    1.12
 -11   8  -1   17.15    1.09
  11  -8   1   15.79    1.07
  -9  -7   1   32.94    1.47
  -8  -7   1    1.22    0.38
  -7  -7   1   42.02    1.63
  -6  -7   1   53.30    1.86
  -5  -7   1    2.44    0.37
  -4  -7   1   31.96    1.24
  -3  -7   1    0.82    0.23
  -2  -7   1    7.32    0.55
  -1  -7   1  142.70    3.80
  -1  -7   1  147.05    3.92
   0   7  -1   29.84    1.23
   0  -7   1   29.07    1.05
   0  -7   1   27.27    0.98
  -1   7  -1   34.01    1.33
   1  -7   1   34.18    1.15
   1  -7   1   32.89    1.13
  -2   7  -1   31.10    1.26
   2  -7   1   32.95    1.13
   2  -7   1   31.76    1.09
  -3   7  -1    3.52    0.34
  -3   7  -1    3.71    0.43
   3  -7   1    3.47    0.37
   3  -7   1    3.61    0.35
  -4   7  -1   38.42    1.23
  -4   7  -1   38.73    1.40
   4  -7   1   37.27    1.21
   4  -7   1   38.90    1.33
  -5   7  -1   52.06    1.78
   5  -7   1   54.21    1.76
  -6   7  -1    1.25    0.27
   6  -7   1    0.56    0.23
  -7   7  -1   63.43    2.07
   7  -7   1   60.75    2.06
  -8   7  -1   43.35    1.61
   8  -7   1   41.43    1.63
  -9   7  -1   -0.21    0.17
   9  -7   1    0.32    0.25
 -10   7  -1   22.88    1.15
  10  -7   1   21.64    1.20
 -11   7  -1   15.85    0.99
  11  -7   1   14.85    1.03
 -12   7  -1    5.19    0.64
  12  -7   1    4.75    0.88
 -10  -6   1   23.28    1.23
  -9  -6   1   24.01    1.19
  -8  -6   1   10.71    0.80
  -7  -6   1   74.77    2.39
  -6  -6   1   33.81    1.32
  -5  -6   1    3.66    0.40
  -4  -6   1   43.24    1.48
  -3  -6   1    7.84    0.52
  -2  -6   1   70.13    1.94
  -2  -6   1   73.12    2.11
  -1  -6   1  104.89    2.83
  -1  -6   1  109.08    2.95
   0  -6   1    3.94    0.35
   0  -6   1    3.75    0.31
  -1   6  -1   67.02    2.12
   1  -6   1   68.69    1.94
   1  -6   1   67.70    1.93
  -2   6  -1  121.78    3.51
   2  -6   1  124.11    3.32
   2  -6   1  131.24    3.38
  -3   6  -1    0.66    0.17
  -3   6  -1    0.32    0.17
   3  -6   1    0.71    0.16
   3  -6   1    0.16    0.14
  -4   6  -1   45.35    1.35
  -4   6  -1   47.12    1.52
   4  -6   1   43.53    1.33
   4  -6   1   46.32    1.49
  -5   6  -1   40.78    1.41
  -5   6  -1   40.22    1.30
   5  -6   1   41.97    1.41
  -6   6  -1    5.42    0.46
   6  -6   1    3.68    0.39
  -7   6  -1  127.03    3.58
   7  -6   1  126.66    3.61
  -8   6  -1   65.63    2.13
   8  -6   1   66.48    2.17
  -9   6  -1    0.11    0.22
   9  -6   1   -0.14    0.22
 -10   6  -1   24.08    1.16
  10  -6   1   25.74    1.21
 -11   6  -1    6.36    0.68
  11  -6   1    4.91    0.57
 -12   6  -1    8.71    0.80
  12  -6   1    8.14    0.80
 -11  -5   1    1.28    0.38
 -10  -5   1   52.31    1.91
 -10  -5   1   52.10    2.03
  -9  -5   1   20.42    1.07
  -9  -5   1   23.11    1.18
  -8  -5   1   18.47    1.02
  -8  -5   1   18.53    0.96
  -7  -5   1  105.64    3.11
  -7  -5   1  107.55    3.18
  -6  -5   1    8.78    0.64
  -5  -5   1   19.11    0.87
  -4  -5   1   99.42    2.80
  -3  -5   1    0.85    0.12
  -3  -5   1    0.30    0.15
  -2  -5   1  168.15    4.35
  -2  -5   1  163.28    4.19
  -1  -5   1  125.54    3.29
  -1  -5   1  120.97    3.18
   0  -5   1   15.48    0.61
   0  -5   1   15.03    0.57
  -1   5  -1   75.32    2.26
   1  -5   1   77.09    2.10
   1  -5   1   77.35    2.10
  -2   5  -1   53.47    1.69
   2  -5   1   55.24    1.60
   2  -5   1   55.54    1.55
  -3   5  -1   10.58    0.46
  -3   5  -1   11.28    0.55
   3  -5   1   11.36    0.53
   3  -5   1   10.32    0.45
  -4   5  -1  215.28    5.53
  -4   5  -1  209.99    5.36
   4  -5   1  212.19    5.51
  -5   5  -1   16.58    0.71
  -5   5  -1   14.77    0.57
   5  -5   1   15.65    0.73
  -6   5  -1    4.29    0.39
   6  -5   1    3.88    0.41
  -7   5  -1  121.45    3.43
   7  -5   1  124.22    3.47
  -8   5  -1   14.44    0.78
   8  -5   1   15.88    0.82
  -9   5  -1    4.91    0.54
   9  -5   1    4.06    0.46
 -10   5  -1   54.49    1.91
  10  -5   1   54.36    1.93
 -11   5  -1    1.96    0.37
  11  -5   1    1.64    0.37
 -12   5  -1   12.49    0.90
  12  -5   1   11.53    0.88
 -13   5  -1   29.39    1.44
  13  -5   1   26.77    1.37
 -11  -4   1    6.09    0.70
 -10  -4   1   38.11    1.50
 -10  -4   1   35.76    1.59
  -9  -4   1    2.01    0.38
  -9  -4   1    2.50    0.42
  -8  -4   1   52.02    1.79
  -8  -4   1   53.30    1.89
  -7  -4   1   88.63    2.68
  -7  -4   1   86.33    2.59
  -6  -4   1    3.61    0.37
  -5  -4   1   57.19    1.78
  -5  -4   1   58.41    1.82
  -4  -4   1  133.26    3.58
  -4  -4   1  133.28    3.40
  -3  -4   1    0.85    0.19
  -3  -4   1    0.91    0.12
  -2  -4   1  190.34    4.79
  -2  -4   1  181.07    4.64
  -1  -4   1   20.33    0.65
  -1  -4   1   21.36    0.73
   0  -4   1   32.98    1.01
   0  -4   1   32.75    0.98
  -1   4  -1  309.12    8.18
   1  -4   1  327.33    8.05
   1  -4   1  332.99    8.04
  -2   4  -1  202.12    5.20
   2  -4   1  205.88    5.09
   2  -4   1  198.39    5.14
  -3   4  -1    8.54    0.42
  -3   4  -1    7.93    0.34
   3  -4   1    7.37    0.34
   3  -4   1    9.03    0.44
  -4   4  -1   86.96    2.35
  -4   4  -1   81.66    2.22
   4  -4   1   86.05    2.38
  -5   4  -1    1.02    0.19
  -5   4  -1    1.09    0.15
   5  -4   1    1.38    0.22
  -6   4  -1   39.89    1.30
  -6   4  -1   38.53    1.16
   6  -4   1   40.53    1.34
  -7   4  -1   78.11    2.30
   7  -4   1   77.75    2.32
  -8   4  -1    4.96    0.47
   8  -4   1    5.60    0.51
  -9   4  -1   26.50    1.12
   9  -4   1   26.04    1.13
 -10   4  -1   33.84    1.36
  10  -4   1   33.30    1.36
 -11   4  -1    1.19    0.31
  11  -4   1    1.33    0.33
 -12   4  -1   11.48    0.86
  12  -4   1   10.96    0.85
 -13   4  -1   21.56    1.20
  13  -4   1   20.65    1.19
 -11  -3   1   26.11    1.36
 -10  -3   1   38.61    1.60
 -10  -3   1   36.80    1.47
  -9  -3   1    0.06    0.24
  -9  -3   1   -0.16    0.20
  -8  -3   1  105.99    3.00
  -8  -3   1  101.51    3.09
  -7  -3   1   68.84    2.09
  -7  -3   1   67.54    2.15
  -6  -3   1    5.55    0.44
  -6  -3   1    5.70    0.47
   5   3  -1  167.52    4.44
  -5  -3   1  183.05    4.68
  -5  -3   1  178.02    4.62
  -4  -3   1  142.48    3.75
  -4  -3   1  142.06    3.78
  -4  -3   1  141.75    3.61
  -3  -3   1    5.61    0.35
  -3  -3   1    5.22    0.35
  -3  -3   1    5.19    0.25
  -2  -3   1  127.10    3.27
  -2  -3   1  133.67    3.39
  -1  -3   1    1.54    0.13
  -1  -3   1    1.25    0.15
   0  -3   1    0.58    0.09
   0  -3   1    0.45    0.09
  -1   3  -1  192.51    4.92
   1  -3   1  187.26    4.82
   1  -3   1  196.42    4.81
  -2   3  -1   30.99    0.93
  -2   3  -1   29.96    0.86
   2  -3   1   28.71    0.91
   2  -3   1   29.86    0.86
  -3   3  -1  184.86    4.58
  -3   3  -1  184.96    4.66
   3  -3   1  179.51    4.68
  -4   3  -1  100.40    2.64
  -4   3  -1  105.86    2.75
   4  -3   1  103.45    2.78
  -5   3  -1    1.53    0.15
  -5   3  -1    1.52    0.20
   5  -3   1    1.31    0.20
  -6   3  -1   57.99    1.59
  -6   3  -1   54.66    1.70
   6  -3   1   58.66    1.75
  -7   3  -1   61.46    1.88
  -7   3  -1   62.71    1.75
   7  -3   1   61.52    1.90
  -8   3  -1    7.54    0.54
   8  -3   1    8.92    0.57
  -9   3  -1   59.93    1.95
   9  -3   1   59.95    1.93
 -10   3  -1    7.96    0.63
  10  -3   1    7.68    0.63
 -11   3  -1    9.05    0.73
  11  -3   1    9.44    0.72
 -12   3  -1   44.88    1.74
  12  -3   1   43.39    1.68
 -13   3  -1    3.20    0.51
 -12  -2   1    2.40    0.49
 -11  -2   1   28.35    1.39
 -10  -2   1   32.50    1.42
  -9  -2   1    7.29    0.56
  -9  -2   1    5.56    0.61
  -8  -2   1   63.47    2.07
  -8  -2   1   62.50    1.94
  -7  -2   1   67.23    1.99
  -7  -2   1   66.28    2.09
   6   2  -1   13.89    0.57
  -6  -2   1   17.14    0.68
  -6  -2   1   14.73    0.71
   5   2  -1  212.58    5.41
  -5  -2   1  211.62    5.51
  -5  -2   1  220.49    5.59
   4   2  -1    9.72    0.38
  -4  -2   1    9.05    0.45
  -4  -2   1    9.67    0.48
  -3  -2   1   84.83    2.33
  -3  -2   1   90.93    2.26
  -3  -2   1   86.69    2.36
  -2  -2   1  204.97    5.05
  -2  -2   1  199.67    5.13
  -2  -2   1  207.84    5.15
  -1  -2   1    8.26    0.29
  -1  -2   1    8.04    0.34
   0  -2   1  104.62    2.59
   0  -2   1  100.26    2.61
  -1   2  -1  389.29    9.93
   1  -2   1  402.97    9.87
   1  -2   1  411.37    9.85
  -2   2  -1    0.89    0.11
  -2   2  -1    1.06    0.13
  -3   2  -1  194.47    4.84
  -3   2  -1  199.31    4.90
   3  -2   1  191.63    4.93
  -4   2  -1   35.90    1.01
  -4   2  -1   36.86    1.08
   4  -2   1   35.15    1.10
  -5   2  -1  151.98    3.96
  -5   2  -1  149.03    3.87
   5  -2   1  155.56    3.98
  -6   2  -1  182.69    4.74
  -6   2  -1  184.16    4.63
   6  -2   1  178.76    4.74
  -7   2  -1   73.25    2.12
  -7   2  -1   69.18    1.97
   7  -2   1   71.99    2.10
  -8   2  -1    2.23    0.29
   8  -2   1    2.20    0.28
  -9   2  -1  111.76    3.29
   9  -2   1  117.74    3.25
 -10   2  -1   14.42    0.83
  10  -2   1   14.60    0.79
 -11   2  -1    7.31    0.67
  11  -2   1    6.88    0.62
 -12   2  -1   32.96    1.44
 -13   2  -1   -0.30    0.24
 -12  -1   1    1.87    0.44
 -11  -1   1   50.99    1.95
 -10  -1   1    7.20    0.70
  -9  -1   1   20.22    1.03
  -9  -1   1   20.60    0.88
  -8  -1   1   68.62    2.04
  -8  -1   1   69.26    2.20
   7   1  -1   48.43    1.47
  -7  -1   1   49.82    1.52
  -7  -1   1   48.92    1.62
   6   1  -1   12.02    0.53
  -6  -1   1   12.40    0.64
  -6  -1   1   12.39    0.55
   5   1  -1  249.66    6.30
  -5  -1   1  246.39    6.33
  -5  -1   1  256.06    6.44
   4   1  -1   14.34    0.51
  -4  -1   1   14.36    0.54
   3   1  -1   68.74    1.81
  -3  -1   1   71.24    1.90
  -3  -1   1   67.40    1.84
  -2  -1   1  186.34    4.38
  -2  -1   1  171.57    4.43
  -2  -1   1  170.00    4.40
  -1  -1   1  248.26    5.71
  -1  -1   1  224.64    5.67
  -1  -1   1  218.35    5.70
   0  -1   1   64.80    1.55
   0  -1   1   56.72    1.55
  -1   1  -1  211.34    5.00
  -1   1  -1  205.38    5.01
   1  -1   1  192.96    5.00
   1  -1   1  203.51    5.02
  -2   1  -1   23.76    0.67
  -2   1  -1   24.56    0.69
  -3   1  -1  204.71    5.02
  -3   1  -1  197.07    4.98
   3  -1   1  199.59    5.03
  -4   1  -1   38.27    1.13
  -4   1  -1   38.24    1.08
   4  -1   1   38.98    1.13
  -5   1  -1   23.24    0.79
  -5   1  -1   20.78    0.71
   5  -1   1   21.57    0.76
  -6   1  -1  182.74    4.67
  -6   1  -1  177.42    4.56
   6  -1   1  174.84    4.62
  -7   1  -1   27.46    0.93
  -7   1  -1   28.90    1.04
   7  -1   1   26.30    0.97
  -8   1  -1   32.71    1.20
  -8   1  -1   31.21    1.06
   8  -1   1   32.00    1.13
  -9   1  -1   78.20    2.40
   9  -1   1   77.40    2.31
 -10   1  -1    0.50    0.23
  10  -1   1    0.06    0.18
 -11   1  -1   46.56    1.74
 -12   1  -1   29.40    1.36
 -13   1  -1   -0.26    0.23
 -12   0   1   11.51    0.93
 -11   0   1   55.39    2.04
 -10   0   1   -0.11    0.22
  -9   0   1   40.02    1.52
   8   0  -1  102.70    2.88
  -8   0   1  102.63    2.84
  -8   0   1  106.04    3.04
   7   0  -1    8.90    0.50
  -7   0   1    8.87    0.46
  -7   0   1    9.38    0.58
   6   0  -1   87.36    2.40
  -6   0   1   85.51    2.37
  -6   0   1   90.49    2.52
   5   0  -1   13.66    0.54
  -5   0   1   12.34    0.50
  -5   0   1   13.20    0.59
   4   0  -1   54.37    1.51
  -4   0   1   53.77    1.48
  -4   0   1   54.52    1.58
   3   0  -1  258.35    6.41
  -3   0   1  254.87    6.46
  -3   0   1  260.33    6.38
   2   0  -1   44.65    1.18
  -2   0   1   42.87    1.21
  -2   0   1   44.91    1.16
  -1   0   1   90.46    2.16
  -1   0   1   77.60    2.13
  -1   0   1   87.80    2.16
  -2   0  -1   93.22    2.33
  -2   0  -1   89.95    2.31
   2   0   1   91.26    2.31
  -3   0  -1  397.33    9.86
  -3   0  -1  406.40    9.89
   3   0   1  397.66    9.85
  -4   0  -1   42.70    1.23
  -4   0  -1   41.73    1.18
   4   0   1   41.11    1.18
  -5   0  -1   31.91    1.03
  -5   0  -1   30.44    0.97
   5   0   1   32.44    0.97
  -6   0  -1  162.84    4.23
  -6   0  -1  155.81    4.14
   6   0   1  162.42    4.15
  -7   0  -1    0.25    0.13
  -7   0  -1    0.09    0.14
   7   0   1    0.27    0.12
  -8   0  -1   71.40    2.05
  -8   0  -1   71.11    2.17
   8   0   1   69.92    2.05
  -9   0  -1  103.48    2.96
  -9   0  -1   95.55    2.78
   9   0   1   99.56    2.79
 -10   0  -1    0.13    0.21
 -11   0  -1   41.28    1.62
 -12   0  -1   15.79    1.00
 -13   0  -1    1.04    0.37
 -12   1   1   17.66    1.09
 -11   1   1   19.72    1.10
 -10   1   1   17.44    0.96
   9  -1  -1  104.06    2.95
  -9   1   1  102.29    3.07
   8  -1  -1   97.98    2.73
  -8   1   1   93.97    2.82
   7  -1  -1    2.61    0.30
  -7   1   1    3.52    0.29
  -7   1   1    3.04    0.36
   6  -1  -1  188.78    4.88
  -6   1   1  191.54    4.96
  -6   1   1  184.77    4.77
   5  -1  -1   60.69    1.68
  -5   1   1   57.10    1.58
  -5   1   1   57.78    1.72
   4  -1  -1   32.97    1.01
  -4   1   1   33.63    1.04
  -4   1   1   32.31    0.92
   3  -1  -1  103.67    2.66
  -3   1   1  104.69    2.67
  -3   1   1   96.86    2.56
   2  -1  -1   77.52    1.96
  -2   1   1   71.20    1.87
  -2   1   1   76.40    1.96
   1  -1  -1   32.93    0.94
  -1   1   1   36.67    0.95
  -2  -1  -1    2.98    0.17
  -2  -1  -1    2.64    0.16
   2   1   1    2.86    0.11
  -3  -1  -1   24.23    0.76
  -3  -1  -1   24.23    0.75
   3   1   1   24.76    0.68
  -4  -1  -1   14.81    0.56
  -4  -1  -1   15.51    0.55
   4   1   1   13.94    0.48
  -5  -1  -1  235.75    6.05
  -5  -1  -1  250.39    6.12
   5   1   1  233.51    5.98
  -6  -1  -1  153.40    3.91
  -6  -1  -1  148.46    3.97
   6   1   1  145.09    3.82
  -7  -1  -1    4.98    0.37
  -7  -1  -1    4.43    0.41
   7   1   1    4.31    0.31
  -8  -1  -1   79.85    2.31
  -8  -1  -1   83.16    2.43
   8   1   1   78.60    2.24
  -9  -1  -1   21.34    1.01
  -9  -1  -1   21.46    0.90
 -10  -1  -1    5.53    0.60
 -10  -1  -1    5.54    0.50
 -11  -1  -1   48.67    1.83
 -12  -1  -1   14.47    0.95
 -13  -1  -1   15.12    1.09
 -12   2   1   29.97    1.43
 -11   2   1   25.98    1.26
  10  -2  -1   13.76    0.82
 -10   2   1   15.32    0.91
   9  -2  -1   85.74    2.54
  -9   2   1   83.11    2.61
   8  -2  -1   31.62    1.18
  -8   2   1   32.33    1.24
   7  -2  -1   65.73    1.92
  -7   2   1   60.76    1.94
   6  -2  -1   91.93    2.59
  -6   2   1   96.22    2.63
  -6   2   1   90.56    2.42
   5  -2  -1   87.75    2.42
  -5   2   1   92.61    2.45
  -5   2   1   82.78    2.25
   4  -2  -1   30.47    0.97
  -4   2   1   27.40    0.80
  -4   2   1   31.65    0.98
   3  -2  -1  284.35    7.02
  -3   2   1  293.89    7.03
  -3   2   1  263.95    6.86
   2  -2  -1    4.56    0.25
  -2   2   1    4.26    0.24
   1  -2  -1   26.42    0.77
   1  -2  -1   26.55    0.68
  -1   2   1   27.07    0.79
   0  -2  -1  178.69    4.59
   0  -2  -1  187.74    4.58
   0   2   1  191.35    4.71
  -1  -2  -1   30.46    0.80
  -1  -2  -1   31.22    0.87
  -2  -2  -1   25.53    0.78
  -3  -2  -1  171.63    4.31
  -3  -2  -1  168.18    4.29
   3   2   1  167.84    4.15
  -4  -2  -1    2.80    0.25
  -4  -2  -1    2.96    0.25
   4   2   1    2.93    0.16
  -5  -2  -1  135.98    3.55
  -5  -2  -1  137.07    3.51
   5   2   1  126.72    3.35
  -6  -2  -1  137.01    3.73
  -6  -2  -1  144.63    3.69
   6   2   1  133.74    3.52
  -7  -2  -1    9.00    0.55
  -7  -2  -1    9.91    0.54
   7   2   1    8.89    0.41
  -8  -2  -1   62.11    2.01
  -8  -2  -1   63.31    1.92
  -9  -2  -1    3.58    0.37
  -9  -2  -1    3.66    0.43
 -10  -2  -1   36.33    1.49
 -10  -2  -1   39.22    1.39
 -11  -2  -1   54.06    1.99
 -12  -2  -1    8.36    0.81
 -12   3   1   34.06    1.52
  11  -3  -1   15.52    0.92
 -11   3   1   15.02    0.96
  10  -3  -1   17.94    0.94
 -10   3   1   17.22    0.97
   9  -3  -1   80.69    2.46
  -9   3   1   79.44    2.51
   8  -3  -1   14.39    0.75
  -8   3   1   15.17    0.78
   7  -3  -1   36.68    1.28
  -7   3   1   36.64    1.30
   6  -3  -1   93.61    2.67
  -6   3   1   96.21    2.69
   5  -3  -1    0.52    0.15
  -5   3   1    0.65    0.08
  -5   3   1    0.55    0.15
   4  -3  -1   73.10    2.01
  -4   3   1   72.89    2.01
  -4   3   1   67.82    1.78
   3  -3  -1   82.47    2.24
   2  -3  -1   13.31    0.37
   2  -3  -1   12.52    0.49
  -2   3   1   13.55    0.37
  -2   3   1   13.86    0.52
   1  -3  -1  334.60    8.39
   1  -3  -1  344.69    8.31
  -1   3   1  339.08    8.49
   0  -3  -1   62.12    1.64
   0  -3  -1   63.42    1.64
   0   3   1   64.13    1.81
  -1  -3  -1   40.98    1.06
  -1  -3  -1   40.38    1.13
  -2  -3  -1    1.27    0.15
  -3  -3  -1   75.55    2.06
  -4  -3  -1  115.16    3.07
  -4  -3  -1  113.96    3.05
  -5  -3  -1  157.12    4.07
  -5  -3  -1  157.68    4.11
   5   3   1  149.25    3.83
  -6  -3  -1   23.67    0.92
  -6  -3  -1   24.12    0.89
   6   3   1   21.68    0.71
  -7  -3  -1   56.93    1.84
  -7  -3  -1   59.10    1.80
  -8  -3  -1   65.38    2.04
  -8  -3  -1   67.27    2.14
  -9  -3  -1   -0.15    0.21
  -9  -3  -1    0.19    0.19
 -10  -3  -1   19.35    0.97
 -10  -3  -1   19.55    1.05
 -11  -3  -1   69.55    2.26
 -11  -3  -1   68.61    2.40
 -12  -3  -1   -0.32    0.25
  12  -4  -1   18.35    1.08
 -12   4   1   18.82    1.12
  11  -4  -1    3.04    0.45
 -11   4   1    3.34    0.48
  10  -4  -1   27.30    1.23
 -10   4   1   27.71    1.26
   9  -4  -1   63.15    2.08
  -9   4   1   62.97    2.10
   8  -4  -1    1.47    0.28
  -8   4   1    1.01    0.26
   7  -4  -1   36.76    1.33
  -7   4   1   38.10    1.35
   6  -4  -1   63.02    1.90
  -6   4   1   60.89    1.90
   5  -4  -1   -0.08    0.13
  -5   4   1    0.01    0.07
  -5   4   1   -0.20    0.13
   4  -4  -1  143.08    3.81
  -4   4   1  144.63    3.82
   3  -4  -1   71.50    2.00
  -3   4   1   74.70    2.05
  -3   4   1   68.17    1.80
   2  -4  -1  111.85    2.96
   2  -4  -1  110.97    2.82
  -2   4   1  114.85    3.04
   1  -4  -1   77.34    1.98
   1  -4  -1   74.21    2.04
  -1   4   1   77.62    2.20
   0  -4  -1   91.08    2.40
   0  -4  -1   95.09    2.41
   0   4   1   92.53    2.61
  -1  -4  -1   39.97    1.10
  -1  -4  -1   42.75    1.19
  -2  -4  -1  149.40    3.76
  -2  -4  -1  141.32    3.59
  -3  -4  -1   12.59    0.54
  -4  -4  -1  108.55    2.94
  -5  -4  -1  218.27    5.65
  -5  -4  -1  215.35    5.61
  -6  -4  -1   12.47    0.66
  -6  -4  -1   12.51    0.64
  -7  -4  -1   71.50    2.20
  -7  -4  -1   68.15    2.12
  -8  -4  -1   54.02    1.79
  -8  -4  -1   54.49    1.87
  -9  -4  -1    7.22    0.64
  -9  -4  -1    6.36    0.58
 -10  -4  -1   32.55    1.45
 -10  -4  -1   34.72    1.40
 -11  -4  -1   29.89    1.29
 -11  -4  -1   26.08    1.36
 -12  -4  -1    2.58    0.47
  12  -5  -1   14.29    0.98
 -12   5   1   15.94    1.05
  11  -5  -1    1.98    0.40
 -11   5   1    2.21    0.41
  10  -5  -1   46.12    1.74
 -10   5   1   45.39    1.74
   9  -5  -1   61.06    2.06
  -9   5   1   59.40    2.05
   8  -5  -1    7.83    0.65
  -8   5   1    8.49    0.63
   7  -5  -1  111.01    3.13
  -7   5   1  105.33    3.12
   6  -5  -1   17.56    0.81
  -6   5   1   17.35    0.81
   5  -5  -1   37.33    1.29
  -5   5   1   38.48    1.32
   4  -5  -1  104.15    2.85
  -4   5   1  107.76    2.90
  -4   5   1   95.55    2.57
   3  -5  -1   24.87    0.71
   3  -5  -1   24.97    0.88
  -3   5   1   25.25    0.72
  -3   5   1   23.70    0.93
   2  -5  -1  246.78    6.20
   2  -5  -1  241.27    6.07
  -2   5   1  245.75    6.34
   1  -5  -1  549.02   13.25
   1  -5  -1  534.84   13.31
  -1   5   1  533.34   13.52
   0  -5  -1   70.95    1.87
   0  -5  -1   67.80    1.84
   0   5   1   66.37    2.09
  -1  -5  -1   13.65    0.47
  -1  -5  -1   14.58    0.56
  -2  -5  -1  123.00    3.16
  -2  -5  -1  129.68    3.34
  -4  -5  -1   75.31    2.17
  -5  -5  -1   66.82    2.00
  -6  -5  -1    2.34    0.32
  -7  -5  -1  121.91    3.44
  -8  -5  -1   47.10    1.65
  -8  -5  -1   46.12    1.69
  -9  -5  -1   -0.29    0.23
  -9  -5  -1    0.38    0.25
 -10  -5  -1   48.18    1.88
 -10  -5  -1   48.38    1.79
 -11  -5  -1    7.13    0.81
 -11  -5  -1    7.74    0.71
 -12  -5  -1    9.76    0.88
  12  -6  -1   18.19    1.11
 -12   6   1   17.37    1.12
  11  -6  -1    1.35    0.38
 -11   6   1    1.19    0.37
  10  -6  -1   24.11    1.22
 -10   6   1   24.21    1.20
   9  -6  -1   29.17    1.31
  -9   6   1   28.89    1.29
   8  -6  -1   22.73    1.07
  -8   6   1   20.28    1.03
   7  -6  -1   96.63    2.89
  -7   6   1   97.40    2.91
   6  -6  -1   35.42    1.31
  -6   6   1   35.32    1.33
   5  -6  -1   26.21    1.05
  -5   6   1   27.31    1.08
   4  -6  -1   69.78    2.09
  -4   6   1   70.36    2.16
   3  -6  -1    5.85    0.30
   3  -6  -1    6.69    0.46
  -3   6   1    6.80    0.49
   2  -6  -1   59.94    1.61
   2  -6  -1   59.66    1.73
  -2   6   1   54.58    1.85
   1  -6  -1  224.00    5.49
   1  -6  -1  212.76    5.52
  -1   6   1  213.83    5.77
   0  -6  -1    2.92    0.25
   0  -6  -1    2.92    0.27
   0   6   1    2.39    0.36
  -1  -6  -1  179.95    4.54
  -1  -6  -1  170.07    4.42
  -2  -6  -1   94.61    2.59
  -2  -6  -1   93.25    2.42
  -3  -6  -1   -0.14    0.15
  -4  -6  -1   15.49    0.73
  -5  -6  -1   32.76    1.20
  -6  -6  -1   31.26    1.22
  -7  -6  -1   55.42    1.86
  -8  -6  -1    4.34    0.48
  -9  -6  -1   23.09    1.16
 -10  -6  -1   23.08    1.19
 -11  -6  -1    0.75    0.33
  11  -7  -1   14.40    1.01
 -11   7   1   15.02    1.01
  10  -7  -1   42.25    1.72
 -10   7   1   40.61    1.69
   9  -7  -1   17.55    1.01
  -9   7   1   17.28    1.00
   8  -7  -1   24.63    1.19
  -8   7   1   25.43    1.20
   7  -7  -1   39.23    1.53
  -7   7   1   40.25    1.55
   6  -7  -1    0.05    0.22
  -6   7   1    0.19    0.20
   5  -7  -1   42.96    1.53
  -5   7   1   44.31    1.60
   4  -7  -1   53.94    1.71
  -4   7   1   50.62    1.77
   3  -7  -1   10.39    0.59
   3  -7  -1   10.57    0.45
  -3   7   1   10.29    0.66
   2  -7  -1   67.65    1.96
   2  -7  -1   67.13    1.86
  -2   7   1   65.19    2.16
   1  -7  -1   75.40    2.08
   1  -7  -1   72.62    2.10
  -1   7   1   77.14    2.40
   0  -7  -1   23.38    0.83
   0  -7  -1   22.29    0.78
   0   7   1   20.83    1.03
  -1  -7  -1   67.58    1.89
  -1  -7  -1   70.46    2.00
  -2  -7  -1   34.00    1.17
  -3  -7  -1   40.62    1.38
  -4  -7  -1  106.91    3.04
  -5  -7  -1   30.98    1.20
  -6  -7  -1   29.93    1.23
  -7  -7  -1   21.00    1.03
  -8  -7  -1    0.48    0.31
  -9  -7  -1   66.02    2.30
 -10  -7  -1   38.57    1.63
  11  -8  -1   11.02    0.93
 -11   8   1   13.05    1.00
  10  -8  -1   24.13    1.29
 -10   8   1   25.88    1.33
   9  -8  -1   -0.49    0.21
  -9   8   1   -0.16    0.21
   8  -8  -1   21.16    1.11
  -8   8   1   22.52    1.16
   7  -8  -1   30.34    1.31
  -7   8   1   30.68    1.35
   6  -8  -1   15.12    0.86
  -6   8   1   15.40    0.91
   5  -8  -1   56.49    1.85
  -5   8   1   51.73    1.91
   4  -8  -1   18.83    0.87
  -4   8   1   17.45    0.94
   3  -8  -1   12.02    0.63
   3  -8  -1   10.59    0.59
  -3   8   1   10.61    0.75
   2  -8  -1  132.79    3.56
   2  -8  -1  136.85    3.66
  -2   8   1  134.67    3.93
   1  -8  -1   29.65    1.07
   1  -8  -1   33.27    1.08
  -1   8   1   30.84    1.34
   0  -8  -1   46.02    1.46
   0  -8  -1   45.27    1.40
   0   8   1   47.12    1.76
  -1  -8  -1   63.99    1.93
  -2  -8  -1    2.99    0.35
  -3  -8  -1   35.07    1.29
  -4  -8  -1   88.27    2.64
  -5  -8  -1    1.59    0.36
  -6  -8  -1   74.70    2.42
  -7  -8  -1   59.59    2.07
  -8  -8  -1   -0.36    0.28
  -9  -8  -1   22.61    1.24
 -10  -8  -1   14.59    1.34
  10  -9  -1   15.69    1.09
 -10   9   1   15.76    1.08
   9  -9  -1    1.36    0.38
  -9   9   1    1.39    0.41
   8  -9  -1   18.66    1.12
  -8   9   1   22.46    1.20
   7  -9  -1   12.71    0.86
  -7   9   1   13.79    0.92
   6  -9  -1    7.34    0.69
  -6   9   1    7.39    0.73
   5  -9  -1   50.77    1.76
  -5   9   1   48.38    1.89
   4  -9  -1    9.39    0.66
  -4   9   1    8.04    0.72
   3  -9  -1   33.62    1.25
  -3   9   1   32.17    1.43
   2  -9  -1  106.50    2.95
   2  -9  -1  107.18    3.04
  -2   9   1  109.60    3.35
   1  -9  -1   13.23    0.65
   1  -9  -1   13.14    0.65
  -1   9   1   13.23    0.92
   0  -9  -1   31.96    1.14
   0   9   1   29.63    1.38
  -1  -9  -1   44.88    1.49
   1   9   1   42.65    1.74
  -2  -9  -1    0.55    0.25
  -3  -9  -1   79.66    2.44
  -4  -9  -1   74.79    2.36
  -5  -9  -1    0.19    0.26
  -6  -9  -1   26.66    1.24
  -7  -9  -1    4.64    0.57
  -8  -9  -1    5.42    0.61
 -10  10   1    3.04    0.56
   9 -10  -1    8.41    0.82
  -9  10   1    8.08    0.88
   8 -10  -1   30.59    1.44
  -8  10   1   29.74    1.49
   7 -10  -1    2.90    0.46
  -7  10   1    2.24    0.44
   6 -10  -1   12.63    0.88
  -6  10   1   12.33    0.93
   5 -10  -1   18.15    1.01
  -5  10   1   18.42    1.12
   4 -10  -1    0.00    0.20
  -4  10   1   -0.19    0.24
   3 -10  -1   80.89    2.46
  -3  10   1   80.56    2.72
   2 -10  -1   55.10    1.80
  -2  10   1   56.69    2.11
   1 -10  -1   -0.12    0.17
  -1  10   1   -0.25    0.25
   0 -10  -1   30.45    1.19
   0  10   1   33.30    1.52
  -1 -10  -1   57.26    1.92
   1  10   1   62.69    2.28
  -2 -10  -1    0.39    0.24
  -3 -10  -1   49.59    1.76
  -4 -10  -1   21.18    1.07
  -5 -10  -1   11.93    0.88
  -6 -10  -1   47.29    1.83
  -7 -10  -1   11.93    0.95
  -9  11   1   20.61    1.35
   8 -11  -1   22.23    1.27
  -8  11   1   22.69    1.36
   7 -11  -1    3.33    0.52
  -7  11   1    3.29    0.55
   6 -11  -1   20.88    1.12
  -6  11   1   20.03    1.24
   5 -11  -1   15.69    0.96
  -5  11   1   13.12    1.02
   4 -11  -1    2.30    0.37
  -4  11   1    2.17    0.45
   3 -11  -1   51.34    1.78
  -3  11   1   51.58    2.05
  -2  11   1   19.18    1.17
  -1  11   1    1.33    0.42
   0 -11  -1   31.71    1.28
   0  11   1   34.27    1.59
  -1 -11  -1   12.15    0.78
   1  11   1   12.15    1.01
  -2 -11  -1   16.06    0.94
   2  11   1   16.76    1.18
  -3 -11  -1   38.35    1.54
  -4 -11  -1    4.81    0.55
  -5 -11  -1   14.67    0.97
  -6 -11  -1   10.83    0.94
  -8  12   1    9.82    1.01
   7 -12  -1    0.86    0.36
  -7  12   1    0.80    0.39
   6 -12  -1   16.52    1.04
  -6  12   1   14.41    1.12
   5 -12  -1   10.35    0.82
  -5  12   1    8.47    0.90
   4 -12  -1   11.97    0.84
  -4  12   1   12.30    1.00
  -3  12   1   46.82    1.99
  -2  12   1    2.12    0.48
  -1  12   1    3.99    0.65
   0 -12  -1   49.58    1.91
   0  12   1   54.40    2.17
  -1 -12  -1    3.10    0.43
   1  12   1    2.19    0.55
  -2 -12  -1   28.41    1.30
   2  12   1   27.85    1.57
  -3 -12  -1   31.79    1.42
   3  12   1   33.76    1.78
  -4 -12  -1    0.25    0.34
  -5 -12  -1   18.65    1.44
   6 -13  -1   19.28    1.20
  -6  13   1   15.60    1.23
   5 -13  -1    0.49    0.31
  -5  13   1    0.65    0.41
  -4  13   1   10.81    1.00
  -3  13   1   14.22    1.09
  -2  13   1    0.15    0.35
  -1  13   1   27.26    1.51
   0  13   1   22.56    1.41
  -1 -13  -1    0.06    0.32
   1  13   1   -0.18    0.36
  -2 -13  -1   23.98    1.26
   2  13   1   23.29    1.53
  -3 -13  -1   13.19    1.00
   3  13   1   15.04    1.29
  -1 -12   2    1.98    0.43
   0 -12   2    8.97    0.84
   1 -12   2   22.05    1.17
   5 -12   2    2.56    0.45
   6 -12   2   23.99    1.31
  -3 -11   2   17.83    1.08
  -2 -11   2   18.87    1.11
  -1 -11   2    1.15    0.37
   0 -11   2   37.40    1.53
   1 -11   2   33.23    1.41
   2 -11   2   -0.15    0.22
   4 -11   2    4.08    0.50
   5 -11   2   14.54    0.94
   6 -11   2   21.38    1.17
   7 -11   2    0.78    0.33
  -5 -10   2   23.17    1.24
  -4 -10   2    2.23    0.45
  -3 -10   2   35.46    1.49
  -2 -10   2    2.11    0.40
   1  10  -2    7.08    0.81
  -1 -10   2    5.90    0.59
   0  10  -2   70.16    2.59
   0 -10   2   64.86    2.19
   1 -10   2   20.62    1.02
   2 -10   2    6.53    0.63
   3 -10   2   26.32    1.48
   3 -10   2   33.26    1.31
   4 -10   2    1.08    0.30
   5 -10   2   37.11    1.51
   6 -10   2   45.69    1.76
   7 -10   2    0.85    0.31
   8 -10   2   21.52    1.21
  -6  -9   2   39.15    1.65
  -5  -9   2   15.44    1.01
  -4  -9   2   10.21    0.81
  -3  -9   2   43.24    1.63
  -2  -9   2    7.51    0.66
  -1  -9   2   36.06    1.41
   0   9  -2   40.33    1.68
   0  -9   2   40.99    1.49
  -1   9  -2    6.22    0.65
   1  -9   2    6.32    0.60
   1  -9   2    5.25    0.63
  -2   9  -2   26.32    1.22
   2  -9   2   24.98    1.06
   2  -9   2   24.27    1.06
  -3   9  -2   30.90    1.24
  -3   9  -2   31.94    1.38
   3  -9   2   33.03    1.25
   3  -9   2   34.86    1.30
  -4   9  -2    0.21    0.21
   4  -9   2    0.13    0.22
  -5   9  -2   37.23    1.55
   5  -9   2   35.25    1.42
   6  -9   2   11.38    0.82
   7  -9   2    8.55    0.74
   8  -9   2   34.14    1.50
   9  -9   2   13.80    0.96
  10  -9   2    1.46    0.51
  -8  -8   2   -0.32    0.37
  -7  -8   2   15.59    1.07
  -6  -8   2   66.99    2.30
  -5  -8   2    2.46    0.42
  -4  -8   2   50.33    1.80
  -3  -8   2   45.05    1.63
  -2  -8   2    6.48    0.62
  -1  -8   2   69.07    2.17
   0   8  -2   84.63    2.67
   0  -8   2   80.99    2.47
   0  -8   2   83.05    2.59
  -1   8  -2    0.23    0.25
   1  -8   2   -0.12    0.15
   1  -8   2    0.04    0.17
  -2   8  -2   64.60    2.13
   2  -8   2   61.06    1.95
   2  -8   2   62.46    1.94
  -3   8  -2   19.49    0.85
  -3   8  -2   17.71    0.94
   3  -8   2   17.39    0.82
   3  -8   2   20.20    0.89
  -4   8  -2    0.16    0.19
  -4   8  -2    0.29    0.19
   4  -8   2   -0.09    0.19
   4  -8   2   -0.05    0.18
  -5   8  -2   92.13    2.81
   5  -8   2   91.32    2.76
  -6   8  -2   10.20    0.72
   6  -8   2   11.59    0.76
  -7   8  -2   18.99    0.98
   7  -8   2   19.59    1.02
  -8   8  -2   40.21    1.56
   8  -8   2   39.56    1.59
  -9   8  -2    1.60    0.43
   9  -8   2    2.16    0.41
  10  -8   2   10.40    0.86
  11  -8   2   27.71    1.74
  -9  -7   2   35.24    1.62
  -8  -7   2    2.23    0.44
  -7  -7   2   37.11    1.56
  -6  -7   2   51.80    1.86
  -5  -7   2    0.63    0.29
  -4  -7   2   28.69    1.20
  -3  -7   2   98.13    2.88
  -2  -7   2    7.03    0.57
  -1  -7   2   69.65    2.11
  -1  -7   2   68.58    2.19
   0   7  -2   57.78    1.93
   0  -7   2   55.94    1.71
   0  -7   2   56.36    1.78
  -1   7  -2    8.20    0.65
   1  -7   2    7.56    0.52
   1  -7   2    7.62    0.51
  -2   7  -2   47.98    1.67
   2  -7   2   46.15    1.53
   2  -7   2   49.44    1.54
  -3   7  -2    2.30    0.28
  -3   7  -2    2.77    0.35
   3  -7   2    2.49    0.29
   3  -7   2    2.38    0.29
  -4   7  -2   19.57    0.79
  -4   7  -2   17.81    0.86
   4  -7   2   18.65    0.84
   4  -7   2   17.55    0.77
  -5   7  -2   86.44    2.59
   5  -7   2   86.19    2.58
  -6   7  -2    4.00    0.46
   6  -7   2    3.14    0.39
  -7   7  -2   32.88    1.29
   7  -7   2   32.85    1.34
  -8   7  -2   40.97    1.55
   8  -7   2   42.74    1.60
  -9   7  -2   -0.06    0.19
   9  -7   2   -0.29    0.20
 -10   7  -2   24.49    1.19
  10  -7   2   25.23    1.24
 -11   7  -2   16.32    1.00
  11  -7   2   16.59    1.07
 -10  -6   2   19.34    1.16
  -9  -6   2   37.28    1.56
  -8  -6   2    1.83    0.40
  -7  -6   2   43.01    1.62
  -6  -6   2   29.91    1.25
  -5  -6   2    2.67    0.37
  -4  -6   2   54.70    1.80
  -3  -6   2   44.08    1.50
  -2  -6   2    8.94    0.73
  -2  -6   2   12.49    0.64
  -1  -6   2  220.40    5.67
  -1  -6   2  223.59    5.77
   0  -6   2   39.04    1.30
   0  -6   2   38.85    1.24
  -1   6  -2   35.92    1.33
   1  -6   2   37.34    1.20
   1  -6   2   36.61    1.21
  -2   6  -2   15.68    0.76
   2  -6   2   14.57    0.68
   2  -6   2   15.47    0.67
  -3   6  -2    2.22    0.25
  -3   6  -2    2.22    0.28
   3  -6   2    2.36    0.28
   3  -6   2    1.82    0.25
  -4   6  -2   69.12    2.00
  -4   6  -2   64.14    1.88
   4  -6   2   65.00    1.88
   4  -6   2   63.37    1.97
  -5   6  -2   55.06    1.71
  -5   6  -2   50.85    1.57
   5  -6   2   53.71    1.72
  -6   6  -2    5.65    0.46
   6  -6   2    5.12    0.51
  -7   6  -2  101.74    2.93
   7  -6   2  100.37    2.98
  -8   6  -2   29.84    1.19
   8  -6   2   28.58    1.24
  -9   6  -2    3.10    0.39
   9  -6   2    2.97    0.42
 -10   6  -2   27.37    1.22
  10  -6   2   26.41    1.26
 -11   6  -2   15.16    0.93
  11  -6   2   14.30    0.96
 -12   6  -2    0.77    0.33
  12  -6   2    1.35    0.37
 -10  -5   2   18.84    1.07
 -10  -5   2   16.80    1.14
  -9  -5   2   11.75    0.90
  -9  -5   2   12.22    0.87
  -8  -5   2   12.17    0.85
  -8  -5   2   11.63    0.83
  -7  -5   2   77.43    2.47
  -7  -5   2   77.30    2.43
  -6  -5   2    1.66    0.32
  -5  -5   2    0.23    0.20
  -4  -5   2  130.45    3.59
  -3  -5   2    0.14    0.15
  -2  -5   2   68.62    1.95
  -2  -5   2   62.61    1.79
  -1  -5   2  235.76    5.91
  -1  -5   2  231.30    6.00
   0  -5   2    0.82    0.15
   0  -5   2    0.88    0.18
  -1   5  -2   52.24    1.63
   1  -5   2   50.18    1.50
   1  -5   2   48.71    1.49
  -2   5  -2  101.54    2.91
   2  -5   2  105.66    2.82
   2  -5   2  107.34    2.85
  -3   5  -2   23.45    0.81
  -3   5  -2   22.78    0.85
   3  -5   2   21.95    0.79
   3  -5   2   22.46    0.86
  -4   5  -2  167.31    4.37
  -4   5  -2  165.16    4.28
   4  -5   2  165.50    4.40
  -5   5  -2   69.17    1.98
  -5   5  -2   72.43    2.08
   5  -5   2   72.68    2.13
  -6   5  -2   10.53    0.51
  -6   5  -2   11.76    0.59
   6  -5   2   11.12    0.63
  -7   5  -2  129.10    3.65
   7  -5   2  137.43    3.74
  -8   5  -2   23.99    1.00
   8  -5   2   22.75    1.04
  -9   5  -2   27.25    1.14
   9  -5   2   27.54    1.18
 -10   5  -2   52.52    1.81
  10  -5   2   48.70    1.81
 -11   5  -2    3.67    0.47
  11  -5   2    3.04    0.46
 -12   5  -2    8.81    0.77
  12  -5   2    9.05    0.80
 -13   5  -2   34.53    1.55
  13  -5   2   32.87    1.54
 -10  -4   2   38.12    1.53
 -10  -4   2   37.14    1.66
  -9  -4   2    8.95    0.78
  -9  -4   2    7.92    0.70
  -8  -4   2   34.96    1.46
  -8  -4   2   35.34    1.37
  -7  -4   2   83.48    2.59
  -7  -4   2   88.64    2.68
  -6  -4   2    9.71    0.64
  -6  -4   2    8.38    0.63
  -5  -4   2   17.49    0.81
  -5  -4   2   16.98    0.83
  -4  -4   2  100.19    2.81
  -4  -4   2  100.69    2.82
  -3  -4   2    0.02    0.08
  -3  -4   2   -0.13    0.12
  -2  -4   2  211.76    5.36
  -2  -4   2  204.07    5.23
  -1  -4   2  146.07    3.82
  -1  -4   2  152.93    3.91
   0  -4   2   21.14    0.72
   0  -4   2   20.79    0.75
  -1   4  -2   81.76    2.34
   1  -4   2   83.41    2.25
   1  -4   2   82.87    2.24
  -2   4  -2  161.02    4.27
  -2   4  -2  168.98    4.22
   2  -4   2  164.47    4.24
   2  -4   2  161.08    4.19
  -3   4  -2   13.10    0.55
  -3   4  -2   13.66    0.52
   3  -4   2   13.40    0.52
   3  -4   2   13.35    0.58
  -4   4  -2  236.62    6.07
  -4   4  -2  240.39    6.02
   4  -4   2  240.28    6.13
  -5   4  -2   12.00    0.55
  -5   4  -2   12.17    0.50
   5  -4   2   12.19    0.60
  -6   4  -2   14.57    0.66
  -6   4  -2   15.58    0.61
   6  -4   2   16.54    0.74
  -7   4  -2   92.48    2.66
   7  -4   2   95.46    2.74
  -8   4  -2   -0.07    0.15
   8  -4   2    0.83    0.23
  -9   4  -2   26.32    1.11
   9  -4   2   27.63    1.16
 -10   4  -2   67.34    2.21
  10  -4   2   69.53    2.24
 -11   4  -2    1.64    0.34
  11  -4   2    1.41    0.33
 -12   4  -2   19.34    1.06
  12  -4   2   19.16    1.06
 -13   4  -2    5.48    0.61
  13  -4   2    3.30    0.51
 -11  -3   2    9.83    0.92
 -10  -3   2   29.41    1.39
  -9  -3   2    0.03    0.23
  -9  -3   2   -0.38    0.21
  -8  -3   2   79.61    2.43
  -8  -3   2   80.12    2.54
  -7  -3   2   66.85    2.12
  -7  -3   2   63.14    2.01
  -6  -3   2   19.47    0.84
  -6  -3   2   18.62    0.87
  -5  -3   2  100.09    2.81
  -5  -3   2  101.70    2.86
  -4  -3   2  171.74    4.45
  -4  -3   2  166.17    4.31
  -4  -3   2  168.14    4.42
  -3  -3   2    0.20    0.13
  -3  -3   2    0.16    0.12
  -3  -3   2    0.18    0.10
  -2  -3   2  223.34    5.72
  -2  -3   2  235.55    5.84
  -1  -3   2   81.27    2.19
  -1  -3   2   79.78    2.12
   0  -3   2   17.63    0.61
   0  -3   2   18.64    0.64
  -1   3  -2  171.95    4.58
   1  -3   2  183.35    4.53
   1  -3   2  180.63    4.54
  -2   3  -2   29.70    0.89
  -2   3  -2   29.65    0.90
   2  -3   2   27.94    0.92
   2  -3   2   30.16    0.89
  -3   3  -2  164.56    4.14
  -3   3  -2  162.52    4.12
   3  -3   2  160.38    4.19
  -4   3  -2  381.44    9.35
  -4   3  -2  365.88    9.31
   4  -3   2  381.01    9.42
  -5   3  -2    6.26    0.34
  -5   3  -2    7.02    0.38
   5  -3   2    6.72    0.41
  -6   3  -2   69.32    1.97
  -6   3  -2   67.46    1.90
   6  -3   2   68.21    2.02
  -7   3  -2  110.33    3.06
  -7   3  -2  110.69    2.97
   7  -3   2  111.59    3.11
  -8   3  -2    0.30    0.17
   8  -3   2    0.65    0.20
  -9   3  -2   35.97    1.33
   9  -3   2   36.33    1.35
 -10   3  -2   31.32    1.27
  10  -3   2   31.50    1.27
 -11   3  -2    6.90    0.64
  11  -3   2    7.67    0.65
 -12   3  -2   29.37    1.32
  12  -3   2   28.43    1.29
 -13   3  -2   12.60    0.92
 -11  -2   2   35.97    1.60
 -10  -2   2   45.97    1.80
  -9  -2   2    1.89    0.38
  -9  -2   2    1.82    0.32
  -8  -2   2   58.09    1.99
  -8  -2   2   59.01    1.86
  -7  -2   2   45.98    1.52
  -7  -2   2   47.07    1.62
   6   2  -2    1.10    0.19
  -6  -2   2    1.15    0.24
  -6  -2   2    0.83    0.20
   5   2  -2   44.16    1.33
  -5  -2   2   44.88    1.40
  -5  -2   2   46.04    1.47
  -4  -2   2   22.32    0.77
  -4  -2   2   22.65    0.82
  -4  -2   2   22.92    0.84
  -3  -2   2  115.24    3.08
  -3  -2   2  117.92    3.00
  -3  -2   2  115.20    3.06
  -2  -2   2  313.77    7.95
  -2  -2   2  323.11    8.03
  -2  -2   2  328.78    8.02
  -1  -2   2   94.31    2.51
  -1  -2   2   97.30    2.48
  -1  -2   2   96.09    2.46
   0  -2   2   39.29    1.10
   0  -2   2   40.28    1.13
  -1   2  -2    5.74    0.29
   1  -2   2    5.68    0.28
   1  -2   2    6.26    0.28
  -2   2  -2    1.29    0.14
  -2   2  -2    1.05    0.12
   2  -2   2    0.84    0.11
   2  -2   2    0.84    0.12
  -3   2  -2  241.46    6.07
  -3   2  -2  251.02    6.08
   3  -2   2  240.40    6.14
  -4   2  -2  152.51    3.90
  -4   2  -2  152.19    3.92
   4  -2   2  156.33    3.98
  -5   2  -2   22.30    0.75
  -5   2  -2   23.46    0.79
   5  -2   2   23.74    0.84
  -6   2  -2  160.97    4.26
  -6   2  -2  163.29    4.21
   6  -2   2  165.75    4.30
  -7   2  -2   82.65    2.35
  -7   2  -2   81.61    2.27
   7  -2   2   81.32    2.35
  -8   2  -2    0.29    0.17
  -8   2  -2    0.04    0.12
   8  -2   2    0.55    0.18
  -9   2  -2   68.59    2.12
   9  -2   2   66.78    2.09
 -10   2  -2   19.81    0.96
  10  -2   2   19.98    0.94
 -11   2  -2   40.65    1.56
  11  -2   2   40.29    1.49
 -12   2  -2   34.94    1.48
 -13   2  -2    2.73    0.45
 -11  -1   2   30.90    1.46
 -10  -1   2   32.36    1.43
  -9  -1   2    9.89    0.75
  -8  -1   2   60.47    1.86
  -8  -1   2   60.40    2.01
   7   1  -2   39.57    1.29
  -7  -1   2   39.87    1.43
  -7  -1   2   40.09    1.31
   6   1  -2   43.43    1.33
  -6  -1   2   42.55    1.33
  -6  -1   2   41.81    1.43
   5   1  -2   93.78    2.59
  -5  -1   2   95.94    2.69
  -5  -1   2   98.41    2.61
   4   1  -2   18.73    0.66
  -4  -1   2   18.96    0.73
  -4  -1   2   18.74    0.68
  -3  -1   2   53.73    1.49
  -3  -1   2   53.20    1.49
  -2  -1   2  119.17    3.05
  -2  -1   2  125.10    3.09
  -2  -1   2  114.42    3.06
  -1  -1   2   49.28    1.28
  -1  -1   2   46.06    1.29
  -1  -1   2   47.32    1.27
   0  -1   2  437.07   10.91
   0  -1   2  451.75   10.90
  -1   1  -2  288.52    7.07
  -1   1  -2  285.32    7.07
   1  -1   2  290.18    7.08
   1  -1   2  283.93    7.09
  -2   1  -2    6.54    0.27
  -2   1  -2    6.71    0.23
   2  -1   2    6.57    0.29
  -3   1  -2   69.39    1.83
  -3   1  -2   70.26    1.82
   3  -1   2   69.45    1.87
  -4   1  -2   52.94    1.47
  -4   1  -2   51.89    1.45
   4  -1   2   54.41    1.50
  -5   1  -2  226.79    5.58
  -5   1  -2  211.51    5.54
   5  -1   2  220.89    5.59
  -6   1  -2  351.10    8.75
  -6   1  -2  350.31    8.70
   6  -1   2  341.81    8.73
  -7   1  -2   72.32    2.05
  -7   1  -2   72.86    2.12
   7  -1   2   72.37    2.08
  -8   1  -2   11.86    0.63
  -8   1  -2   10.19    0.54
   8  -1   2   10.60    0.59
  -9   1  -2  104.98    3.09
  -9   1  -2  109.28    3.00
   9  -1   2  108.71    3.04
 -10   1  -2    7.92    0.63
  10  -1   2    7.65    0.58
 -11   1  -2   12.48    0.82
 -12   1  -2   30.05    1.34
 -13   1  -2   -0.04    0.26
 -12   0   2    7.03    0.81
 -11   0   2   38.29    1.63
 -10   0   2    4.26    0.50
  -9   0   2   49.96    1.80
   8   0  -2  104.03    2.92
  -8   0   2  101.93    3.06
  -8   0   2  105.66    3.20
   7   0  -2   12.09    0.62
  -7   0   2   12.69    0.69
  -7   0   2   11.88    0.58
   6   0  -2   51.49    1.54
  -6   0   2   49.35    1.48
  -6   0   2   50.60    1.62
   5   0  -2  154.22    3.88
  -5   0   2  148.84    3.94
  -5   0   2  140.56    3.81
   4   0  -2    6.42    0.35
  -4   0   2    5.69    0.37
  -4   0   2    5.73    0.31
  -3   0   2   75.30    2.00
  -3   0   2   77.25    2.08
  -2   0   2  283.99    6.87
  -2   0   2  279.16    6.88
  -2   0   2  265.98    6.82
  -1   0   2    7.50    0.28
  -1   0   2    5.61    0.26
  -1   0   2    5.59    0.25
   0   0  -2  662.14   16.66
   0   0   2  700.82   16.61
   0   0   2  686.92   16.63
   0   0   2  666.06   16.68
  -1   0  -2   36.97    0.98
  -2   0  -2  150.73    3.70
  -2   0  -2  151.32    3.66
   2   0   2  141.16    3.69
  -3   0  -2  540.32   13.24
  -3   0  -2  550.26   13.25
   3   0   2  528.87   13.24
  -4   0  -2  202.16    5.21
  -4   0  -2  208.57    5.22
   4   0   2  210.93    5.20
  -5   0  -2   45.30    1.33
  -5   0  -2   44.36    1.31
   5   0   2   45.07    1.30
  -6   0  -2  308.26    7.91
  -6   0  -2  316.48    7.95
   6   0   2  319.65    7.90
  -7   0  -2   39.60    1.31
  -7   0  -2   38.32    1.25
   7   0   2   39.34    1.23
  -8   0  -2   48.76    1.54
  -8   0  -2   50.91    1.63
   8   0   2   48.54    1.52
  -9   0  -2  103.75    3.01
  -9   0  -2  104.31    2.92
   9   0   2  102.37    2.88
 -10   0  -2    0.33    0.21
 -11   0  -2   19.37    1.00
 -12   0  -2   19.28    1.08
 -13   0  -2   -0.22    0.24
 -12   1   2   14.41    1.02
 -11   1   2   50.07    1.92
 -10   1   2    1.27    0.34
   9  -1  -2   54.78    1.81
  -9   1   2   56.57    1.94
   8  -1  -2  181.13    4.78
  -8   1   2  176.02    4.87
   7  -1  -2   -0.04    0.14
  -7   1   2   -0.01    0.11
  -7   1   2   -0.06    0.15
   6  -1  -2   46.75    1.42
  -6   1   2   45.41    1.31
  -6   1   2   41.48    1.45
   5  -1  -2   57.53    1.66
  -5   1   2   55.71    1.54
  -5   1   2   55.43    1.69
   4  -1  -2   30.64    0.97
  -4   1   2   29.45    0.86
  -4   1   2   29.46    0.99
   3  -1  -2   92.65    2.43
  -3   1   2   93.62    2.33
  -3   1   2   88.08    2.43
   2  -1  -2  251.28    6.25
  -2   1   2  253.71    6.15
  -2   1   2  246.67    6.24
   1  -1  -2  211.02    5.15
  -1   1   2  203.07    5.22
  -1   1   2  217.44    5.15
  -1   1   2  206.40    5.20
   0  -1  -2  104.13    2.62
   0   1   2  106.18    2.64
   0   1   2  106.03    2.65
  -1  -1  -2   58.64    1.50
   1   1   2   57.21    1.48
  -2  -1  -2  127.55    3.19
  -2  -1  -2  128.62    3.22
   2   1   2  126.12    3.17
  -3  -1  -2    6.91    0.32
  -3  -1  -2    6.81    0.31
   3   1   2    7.06    0.26
  -4  -1  -2    6.56    0.34
  -4  -1  -2    6.83    0.34
   4   1   2    6.76    0.28
  -5  -1  -2  189.47    4.90
  -5  -1  -2  196.00    4.90
   5   1   2  187.45    4.80
  -6  -1  -2  200.37    5.12
  -6  -1  -2  194.04    5.14
   6   1   2  200.78    5.03
  -7  -1  -2    0.81    0.18
  -7  -1  -2    0.74    0.19
   7   1   2    0.86    0.15
  -8  -1  -2   73.86    2.24
  -8  -1  -2   75.03    2.17
   8   1   2   72.95    2.08
  -9  -1  -2   54.28    1.79
  -9  -1  -2   60.04    1.92
 -10  -1  -2    2.58    0.33
 -10  -1  -2    2.10    0.34
 -11  -1  -2   24.33    1.17
 -12  -1  -2    9.75    0.83
 -13  -1  -2    7.48    0.79
 -12   2   2   19.44    1.15
 -11   2   2   25.18    1.27
  10  -2  -2    0.75    0.29
 -10   2   2    0.71    0.29
   9  -2  -2   68.59    2.15
  -9   2   2   66.46    2.22
   8  -2  -2   62.72    1.97
  -8   2   2   62.46    2.04
   7  -2  -2    1.00    0.24
  -7   2   2    1.34    0.26
   6  -2  -2  229.71    5.77
  -6   2   2  216.23    5.55
  -6   2   2  220.10    5.79
   5  -2  -2   63.98    1.90
  -5   2   2   66.83    1.94
  -5   2   2   66.46    1.73
   4  -2  -2   78.76    2.16
  -4   2   2   77.33    1.97
  -4   2   2   75.76    2.15
   3  -2  -2  105.77    2.86
  -3   2   2  107.56    2.86
  -3   2   2  111.02    2.68
   2  -2  -2  234.26    5.84
   2  -2  -2  232.86    6.00
  -2   2   2  253.25    5.85
  -2   2   2  236.21    6.00
   1  -2  -2  208.57    5.43
   1  -2  -2  224.18    5.33
  -1   2   2  220.78    5.45
   0  -2  -2  135.06    3.51
   0   2   2  153.82    3.57
   0   2   2  136.30    3.61
  -1  -2  -2   30.26    0.87
   1   2   2   31.63    0.84
  -2  -2  -2 1000.00   24.49
   2   2   2  995.09   24.33
  -3  -2  -2  264.69    6.54
  -3  -2  -2  259.71    6.53
   3   2   2  259.90    6.40
  -4  -2  -2    9.30    0.43
  -4  -2  -2    8.82    0.41
   4   2   2    8.67    0.30
  -5  -2  -2  103.20    2.79
  -5  -2  -2  103.54    2.78
   5   2   2  102.43    2.62
  -6  -2  -2  104.21    2.87
  -6  -2  -2  104.39    2.84
   6   2   2  103.37    2.68
  -7  -2  -2    8.88    0.52
  -7  -2  -2    8.45    0.53
   7   2   2    8.94    0.40
  -8  -2  -2   82.01    2.48
  -8  -2  -2   84.47    2.43
  -9  -2  -2   12.73    0.76
  -9  -2  -2   13.43    0.72
 -10  -2  -2   16.64    0.92
 -10  -2  -2   16.50    0.84
 -11  -2  -2   23.64    1.21
 -11  -2  -2   25.36    1.14
 -12  -2  -2    5.05    0.59
 -13  -2  -2   13.76    1.00
 -12   3   2   29.35    1.44
  11  -3  -2   18.55    1.03
 -11   3   2   20.55    1.13
  10  -3  -2    6.69    0.65
 -10   3   2    6.61    0.65
   9  -3  -2   85.90    2.58
  -9   3   2   81.82    2.62
   8  -3  -2   47.34    1.59
  -8   3   2   43.64    1.60
   7  -3  -2    4.20    0.42
  -7   3   2    3.79    0.43
   6  -3  -2   74.72    2.18
  -6   3   2   72.48    2.18
   5  -3  -2   12.70    0.61
  -5   3   2   13.54    0.40
  -5   3   2   13.06    0.63
   4  -3  -2   74.27    2.12
  -4   3   2   75.74    2.12
   3  -3  -2  312.70    7.79
  -3   3   2  306.88    7.79
   2  -3  -2  136.56    3.61
  -2   3   2  143.35    3.64
   1  -3  -2   75.16    1.89
   1  -3  -2   75.98    2.01
   0  -3  -2  311.49    7.93
   0  -3  -2  325.37    7.90
   0   3   2  327.19    8.09
  -1  -3  -2  274.11    6.82
  -1  -3  -2  276.67    6.78
  -2  -3  -2  573.82   13.96
  -2  -3  -2  561.62   13.85
  -3  -3  -2   64.98    1.80
  -4  -3  -2  245.77    6.15
  -4  -3  -2  238.36    6.14
  -5  -3  -2  184.48    4.77
  -5  -3  -2  188.09    4.79
   5   3   2  178.04    4.52
  -6  -3  -2   76.68    2.25
  -6  -3  -2   78.42    2.23
  -7  -3  -2   30.80    1.10
  -7  -3  -2   28.90    1.11
  -8  -3  -2  142.80    3.94
  -8  -3  -2  139.98    3.87
  -9  -3  -2    5.47    0.58
  -9  -3  -2    5.60    0.52
 -10  -3  -2   35.13    1.35
 -10  -3  -2   35.40    1.44
 -11  -3  -2   26.64    1.23
 -11  -3  -2   28.09    1.33
 -12  -3  -2   -0.30    0.25
  12  -4  -2   25.11    1.29
 -12   4   2   23.35    1.29
  11  -4  -2    4.76    0.56
 -11   4   2    4.05    0.53
  10  -4  -2   29.81    1.30
 -10   4   2   28.45    1.31
   9  -4  -2   47.71    1.67
  -9   4   2   44.62    1.69
   8  -4  -2   40.22    1.46
  -8   4   2   37.56    1.45
   7  -4  -2   42.01    1.46
  -7   4   2   40.96    1.46
   6  -4  -2  115.36    3.23
  -6   4   2  116.00    3.25
   5  -4  -2    0.60    0.21
  -5   4   2    0.36    0.17
   4  -4  -2  159.39    4.30
  -4   4   2  167.47    4.33
   3  -4  -2   86.49    2.37
  -3   4   2   85.34    2.40
   2  -4  -2   29.87    0.79
   2  -4  -2   30.93    0.98
   1  -4  -2   95.86    2.56
   1  -4  -2  101.18    2.45
  -1   4   2   93.29    2.67
   0  -4  -2  191.79    4.80
   0  -4  -2  195.02    4.83
   0   4   2  189.99    5.04
  -1  -4  -2  170.18    4.32
  -1  -4  -2  171.76    4.27
  -2  -4  -2  309.48    7.65
  -2  -4  -2  303.03    7.50
  -4  -4  -2  299.51    7.57
  -5  -4  -2  122.24    3.31
  -6  -4  -2   33.56    1.18
  -6  -4  -2   34.57    1.21
  -7  -4  -2   67.18    2.06
  -8  -4  -2  110.37    3.20
  -8  -4  -2  113.70    3.28
  -9  -4  -2   11.15    0.72
  -9  -4  -2   10.39    0.75
 -10  -4  -2    8.92    0.77
 -10  -4  -2    7.68    0.72
 -11  -4  -2   12.85    0.94
 -11  -4  -2   14.44    0.91
 -12  -4  -2    4.84    0.61
 -12  -4  -2    3.83    0.50
  12  -5  -2   18.43    1.14
 -12   5   2   17.68    1.19
  11  -5  -2    0.03    0.25
 -11   5   2    0.07    0.26
  10  -5  -2   46.75    1.75
 -10   5   2   44.50    1.76
   9  -5  -2   58.45    1.99
  -9   5   2   56.66    2.01
   8  -5  -2   11.10    0.73
  -8   5   2   10.94    0.72
   7  -5  -2   12.09    0.75
  -7   5   2   13.01    0.74
   6  -5  -2   27.40    1.08
  -6   5   2   26.71    1.09
   5  -5  -2    4.37    0.44
  -5   5   2    5.43    0.45
   4  -5  -2  372.52    9.34
  -4   5   2  366.43    9.39
   3  -5  -2    0.52    0.15
  -3   5   2    0.61    0.17
   2  -5  -2    2.04    0.15
   2  -5  -2    1.61    0.20
  -2   5   2    1.87    0.25
   1  -5  -2  171.79    4.23
   1  -5  -2  165.16    4.33
  -1   5   2  168.68    4.53
   0  -5  -2   96.93    2.50
   0  -5  -2   94.53    2.52
   0   5   2   96.48    2.78
  -1  -5  -2  130.29    3.33
  -1  -5  -2  126.89    3.26
  -2  -5  -2  297.21    7.40
  -2  -5  -2  305.29    7.57
  -3  -5  -2   23.73    0.85
  -4  -5  -2  233.96    6.02
  -5  -5  -2  151.77    4.07
  -6  -5  -2    7.77    0.52
  -7  -5  -2   63.47    2.01
  -8  -5  -2   28.81    1.22
  -8  -5  -2   29.69    1.20
  -9  -5  -2   22.36    1.06
  -9  -5  -2   22.11    1.10
 -10  -5  -2   47.16    1.75
 -10  -5  -2   46.98    1.81
 -11  -5  -2   13.03    0.94
 -11  -5  -2   12.73    0.88
 -12  -5  -2    4.14    0.54
 -12  -5  -2    3.34    0.55
  12  -6  -2   13.91    1.01
  11  -6  -2    8.52    0.83
 -11   6   2    8.33    0.82
  10  -6  -2   44.68    1.77
 -10   6   2   46.68    1.81
   9  -6  -2   44.92    1.70
  -9   6   2   44.61    1.72
   8  -6  -2    0.87    0.28
  -8   6   2    1.04    0.31
   7  -6  -2   52.27    1.80
  -7   6   2   51.90    1.83
   6  -6  -2   14.45    0.77
  -6   6   2   14.17    0.79
   5  -6  -2   52.55    1.72
  -5   6   2   53.99    1.77
   4  -6  -2   42.61    1.44
  -4   6   2   43.52    1.51
   3  -6  -2   17.90    0.75
   3  -6  -2   16.77    0.52
  -3   6   2   17.15    0.81
   2  -6  -2  135.21    3.37
   2  -6  -2  134.63    3.54
  -2   6   2  128.04    3.70
   1  -6  -2  125.38    3.30
   1  -6  -2  126.89    3.21
  -1   6   2  121.35    3.53
   0  -6  -2    1.60    0.18
   0   6   2    1.40    0.27
  -1  -6  -2  109.16    2.90
  -1  -6  -2  108.59    2.82
  -2  -6  -2  150.69    3.87
  -2  -6  -2  157.89    4.04
  -3  -6  -2    9.32    0.51
  -4  -6  -2  158.62    4.23
  -5  -6  -2   95.45    2.73
  -6  -6  -2    9.21    0.62
  -7  -6  -2   85.98    2.62
  -8  -6  -2   32.09    1.30
  -9  -6  -2    2.92    0.46
 -10  -6  -2   34.04    1.45
 -11  -6  -2    2.18    0.40
 -12  -6  -2   20.95    1.20
  11  -7  -2    5.69    0.68
 -11   7   2    7.46    0.79
  10  -7  -2   36.95    1.60
 -10   7   2   35.42    1.57
   9  -7  -2    7.43    0.75
  -9   7   2    6.83    0.69
   8  -7  -2   45.26    1.73
  -8   7   2   44.27    1.72
   7  -7  -2  144.00    4.06
  -7   7   2  141.60    4.12
   6  -7  -2   69.17    2.20
  -6   7   2   68.24    2.26
   5  -7  -2   21.76    1.00
  -5   7   2   22.93    1.05
   4  -7  -2   22.37    0.97
  -4   7   2   22.77    1.05
   3  -7  -2    4.08    0.27
   3  -7  -2    3.71    0.36
  -3   7   2    4.39    0.46
   2  -7  -2  112.79    2.91
   2  -7  -2  112.31    3.07
  -2   7   2  109.92    3.28
   1  -7  -2   99.81    2.59
   1  -7  -2   96.87    2.66
  -1   7   2   94.28    2.93
   0  -7  -2   10.62    0.50
   0  -7  -2    9.88    0.50
   0   7   2   10.10    0.72
  -1  -7  -2  137.35    3.58
  -1  -7  -2  140.53    3.68
  -2  -7  -2   24.36    0.83
  -2  -7  -2   26.04    0.94
  -3  -7  -2    2.21    0.29
  -4  -7  -2  107.18    3.03
  -5  -7  -2   31.24    1.19
  -6  -7  -2   29.66    1.20
  -7  -7  -2   52.16    1.81
  -8  -7  -2    0.40    0.27
  -9  -7  -2   15.21    0.99
 -10  -7  -2   18.35    1.10
 -11  -7  -2    0.32    0.31
  11  -8  -2   14.00    1.08
 -11   8   2   12.96    1.03
  10  -8  -2   31.54    1.48
 -10   8   2   32.31    1.54
   9  -8  -2    8.94    0.82
  -9   8   2   10.90    0.85
   8  -8  -2   14.46    0.98
  -8   8   2   15.01    0.97
   7  -8  -2    9.39    0.76
  -7   8   2    9.05    0.76
   6  -8  -2    9.96    0.72
  -6   8   2    9.30    0.75
   5  -8  -2   33.45    1.33
  -5   8   2   34.53    1.44
   4  -8  -2   38.01    1.36
  -4   8   2   36.02    1.47
   3  -8  -2    1.47    0.28
  -3   8   2    1.64    0.33
   2  -8  -2  104.74    2.82
   2  -8  -2  109.62    2.99
  -2   8   2  103.89    3.22
   1  -8  -2    6.33    0.41
   1  -8  -2    6.44    0.46
  -1   8   2    6.51    0.63
   0  -8  -2   57.31    1.67
   0  -8  -2   53.99    1.64
   0   8   2   56.33    2.00
  -1  -8  -2   54.52    1.60
  -1  -8  -2   50.11    1.48
   1   8   2   47.89    1.84
  -2  -8  -2    5.48    0.47
  -3  -8  -2   63.07    1.96
  -4  -8  -2  143.28    3.96
  -5  -8  -2    2.39    0.35
  -6  -8  -2   70.56    2.28
  -7  -8  -2   51.30    1.84
  -8  -8  -2    0.06    0.30
  -9  -8  -2   29.26    1.38
 -10  -8  -2   21.02    1.21
  10  -9  -2   27.49    1.41
 -10   9   2   29.86    1.51
   9  -9  -2   -0.01    0.28
  -9   9   2    0.45    0.33
   8  -9  -2   41.28    1.69
  -8   9   2   41.00    1.76
   7  -9  -2   20.17    1.10
  -7   9   2   19.66    1.13
   6  -9  -2   12.64    0.84
  -6   9   2   11.64    0.88
   5  -9  -2   55.43    1.90
  -5   9   2   52.76    2.03
   4  -9  -2   16.03    0.87
  -4   9   2   14.37    0.93
   3  -9  -2   25.57    1.07
  -3   9   2   24.51    1.22
   2  -9  -2   91.32    2.68
  -2   9   2   95.00    3.00
   1  -9  -2    5.15    0.45
   1  -9  -2    5.18    0.43
  -1   9   2    5.65    0.65
   0  -9  -2   73.40    2.16
   0  -9  -2   77.24    2.21
   0   9   2   76.83    2.57
  -1  -9  -2   24.92    0.97
   1   9   2   23.76    1.22
  -2  -9  -2    0.59    0.24
  -3  -9  -2   73.84    2.29
  -4  -9  -2   79.45    2.46
  -6  -9  -2   49.09    1.81
  -7  -9  -2   14.08    0.94
  -8  -9  -2   -0.55    0.30
  -9  -9  -2   16.72    1.10
   9 -10  -2    1.47    0.43
  -9  10   2    1.71    0.47
   8 -10  -2   23.85    1.27
  -8  10   2   26.83    1.41
   7 -10  -2    1.86    0.38
  -7  10   2    3.00    0.53
   6 -10  -2   21.15    1.13
  -6  10   2   21.76    1.24
   5 -10  -2   70.31    2.28
  -5  10   2   66.08    2.46
   4 -10  -2    4.16    0.46
  -4  10   2    3.17    0.52
   3 -10  -2   46.06    1.59
  -3  10   2   42.51    1.78
   2 -10  -2   47.31    1.61
  -2  10   2   48.00    1.91
   1 -10  -2    1.59    0.27
   1 -10  -2    1.79    0.27
  -1  10   2    1.45    0.41
   0 -10  -2   82.18    2.47
   0  10   2   87.48    2.87
  -1 -10  -2   47.87    1.61
   1  10   2   48.38    1.96
  -3 -10  -2   82.37    2.54
  -4 -10  -2   22.47    1.08
  -5 -10  -2    8.65    0.79
  -6 -10  -2   52.74    1.94
  -7 -10  -2   11.73    0.91
  -8 -10  -2    2.56    0.52
  -9  11   2    9.62    1.06
   8 -11  -2   32.13    1.55
  -8  11   2   33.12    1.67
   7 -11  -2    1.37    0.39
  -7  11   2    1.94    0.46
   6 -11  -2   21.22    1.16
  -6  11   2   19.04    1.24
   5 -11  -2   43.26    1.67
  -5  11   2   42.26    1.88
   4 -11  -2   -0.23    0.21
  -4  11   2   -0.17    0.24
   3 -11  -2   39.25    1.51
  -3  11   2   42.12    1.79
   2 -11  -2   31.51    1.29
  -2  11   2   33.98    1.58
  -1  11   2    2.13    0.51
   0 -11  -2   37.07    1.41
   0  11   2   44.92    1.85
  -1 -11  -2   42.30    1.55
   1  11   2   45.11    1.92
  -2 -11  -2    2.95    0.41
   2  11   2    3.32    0.57
  -3 -11  -2   19.16    1.02
  -4 -11  -2    3.83    0.50
  -5 -11  -2   17.24    1.06
  -6 -11  -2   28.61    1.38
  -7 -11  -2    1.70    0.44
  -8  12   2   12.72    1.28
   7 -12  -2    1.28    0.41
  -7  12   2    0.83    0.38
   6 -12  -2   24.69    1.27
  -6  12   2   21.34    1.37
   5 -12  -2   10.45    0.83
  -5  12   2   10.80    1.00
   4 -12  -2    4.40    0.49
  -4  12   2    4.31    0.61
   3 -12  -2   37.73    1.66
  -3  12   2   36.27    1.72
  -2  12   2    5.47    0.71
  -1  12   2   15.13    1.14
   0  12   2   35.72    1.73
  -1 -12  -2    3.20    0.44
   1  12   2    3.16    0.60
  -2 -12  -2   36.44    1.49
   2  12   2   38.40    1.85
  -3 -12  -2   26.96    1.32
   3  12   2   33.98    1.73
  -4 -12  -2    1.29    0.39
  -5 -12  -2   16.13    1.05
   6 -13  -2   29.30    1.44
  -6  13   2   27.25    1.63
   5 -13  -2    5.09    0.58
  -5  13   2    7.19    0.87
  -4  13   2    8.88    0.97
  -3  13   2   46.83    2.04
  -2  13   2    1.29    0.46
  -1  13   2    8.84    0.98
   0  13   2   35.35    1.76
   1  13   2    3.31    0.64
  -2 -13  -2   39.32    1.62
   2  13   2   42.33    2.06
  -3 -13  -2   34.52    1.55
   3  13   2   41.04    2.00
  -4 -13  -2   -0.38    0.31
   4  13   2    0.05    0.48
  -3  14   2   18.68    1.30
  -2  14   2   -0.36    0.33
  -1  14   2   22.15    1.41
   0  14   2   17.12    1.33
   1  14   2    0.05    0.44
   0 -12   3    6.44    0.70
   1 -12   3   13.11    0.97
  -2 -11   3   17.18    1.09
  -1 -11   3    0.37    0.33
   0 -11   3   23.95    1.22
   1 -11   3   10.86    0.87
  -2  11  -3    2.54    0.42
   2 -11   3    1.23    0.36
   4 -11   3    7.09    0.75
   5 -11   3    1.95    0.39
   6 -11   3   21.91    1.23
   7 -11   3    2.03    0.50
  -4 -10   3    0.21    0.33
  -3 -10   3   21.04    1.18
  -2 -10   3    9.69    0.81
  -1 -10   3    8.16    0.74
   0 -10   3   40.98    1.60
   1 -10   3    3.08    0.46
  -2  10  -3   14.53    0.90
   2 -10   3   17.10    0.95
  -3  10  -3   40.28    1.60
   3 -10   3   42.36    1.58
   3 -10   3   41.26    1.58
   4 -10   3    0.25    0.26
   5 -10   3   17.61    1.03
   6 -10   3   29.43    1.34
   8 -10   3   25.46    1.32
  -5  -9   3    8.66    0.85
  -4  -9   3   17.58    1.05
  -3  -9   3   40.71    1.61
  -2  -9   3    4.72    0.52
  -1  -9   3    8.55    0.71
   0  -9   3   69.29    2.24
   1  -9   3    2.68    0.40
  -2   9  -3   28.27    1.22
   2  -9   3   30.90    1.24
   2  -9   3   30.46    1.23
  -3   9  -3   26.23    1.15
   3  -9   3   27.08    1.16
   3  -9   3   27.12    1.17
   4  -9   3    1.13    0.31
   4  -9   3    0.99    0.28
   5  -9   3   48.34    1.76
   6  -9   3   58.02    2.03
   7  -9   3   -0.20    0.23
   8  -9   3   15.85    1.01
   9  -9   3   14.16    0.98
  -7  -8   3    1.98    0.46
  -6  -8   3   45.52    1.78
  -5  -8   3    3.38    0.49
  -4  -8   3   24.08    1.16
  -3  -8   3   57.46    1.99
  -2  -8   3    2.35    0.38
  -1  -8   3   44.80    1.61
   0   8  -3   83.24    2.66
   0  -8   3   83.37    2.53
  -1   8  -3    2.46    0.41
   1  -8   3    2.53    0.36
   1  -8   3    2.43    0.33
  -2   8  -3   43.41    2.06
   2  -8   3   41.39    1.48
   2  -8   3   41.52    1.48
  -3   8  -3   13.06    0.74
   3  -8   3   12.95    0.74
   3  -8   3   13.44    0.75
  -4   8  -3    6.92    0.56
   4  -8   3    7.72    0.61
   4  -8   3    6.67    0.56
   5  -8   3   64.32    2.11
   6  -8   3   21.72    1.06
   7  -8   3    0.16    0.23
   8  -8   3   26.09    1.26
   9  -8   3    1.93    0.38
  10  -8   3    9.68    0.87
  -8  -7   3    0.54    0.35
  -7  -7   3   11.40    0.88
  -6  -7   3   60.77    2.13
  -5  -7   3    0.10    0.27
  -4  -7   3   34.32    1.37
  -3  -7   3   23.73    1.08
  -2  -7   3    7.39    0.63
  -1  -7   3   42.54    1.50
   0  -7   3   28.92    1.12
   0  -7   3   28.34    1.07
  -1   7  -3   26.63    1.15
   1  -7   3   25.41    1.04
   1  -7   3   26.30    1.02
  -2   7  -3   84.87    2.60
   2  -7   3   84.61    2.49
   2  -7   3   87.24    2.51
  -3   7  -3    5.37    0.50
  -3   7  -3    6.43    0.50
   3  -7   3    5.42    0.50
   3  -7   3    6.07    0.49
  -4   7  -3   21.04    0.93
  -4   7  -3   21.43    0.90
   4  -7   3   21.22    0.95
   4  -7   3   21.95    0.91
  -5   7  -3   86.69    2.52
  -5   7  -3   82.62    2.44
   5  -7   3   82.71    2.55
  -6   7  -3    3.58    0.43
   6  -7   3    2.96    0.38
   7  -7   3   30.58    1.30
   8  -7   3   59.22    2.05
   9  -7   3    0.15    0.26
  10  -7   3   20.86    1.14
  11  -7   3   25.29    1.32
  -9  -6   3   48.45    1.90
  -8  -6   3   -0.27    0.28
  -7  -6   3   32.57    1.40
  -6  -6   3   30.55    1.30
  -5  -6   3    4.55    0.50
  -4  -6   3   34.64    1.33
  -3  -6   3   42.37    1.48
  -2  -6   3   42.00    1.45
  -1  -6   3  118.66    3.28
  -1  -6   3  125.22    3.40
   0  -6   3   94.72    2.60
   0  -6   3   90.09    2.64
  -1   6  -3    0.62    0.23
   1  -6   3    0.55    0.18
   1  -6   3    0.31    0.17
  -2   6  -3   42.80    1.49
   2  -6   3   44.71    1.44
   2  -6   3   45.33    1.44
  -3   6  -3    2.54    0.30
  -3   6  -3    2.15    0.28
   3  -6   3    1.50    0.24
   3  -6   3    2.21    0.28
  -4   6  -3   41.07    1.35
  -4   6  -3   41.15    1.33
   4  -6   3   39.24    1.39
   4  -6   3   40.93    1.33
  -5   6  -3   80.38    2.33
  -5   6  -3   83.59    2.38
   5  -6   3   81.00    2.44
  -6   6  -3    0.30    0.17
  -6   6  -3    0.04    0.15
   6  -6   3    0.02    0.18
  -7   6  -3   55.98    1.76
   7  -6   3   52.21    1.84
  -8   6  -3   62.20    1.98
   8  -6   3   62.56    2.09
  -9   6  -3    0.41    0.23
   9  -6   3    0.82    0.29
 -10   6  -3   27.60    1.62
  10  -6   3   29.03    1.33
  11  -6   3   16.95    1.05
  12  -6   3    0.62    0.32
 -10  -5   3   21.87    1.22
  -9  -5   3   20.75    1.16
  -9  -5   3   23.00    1.23
  -8  -5   3    0.33    0.27
  -8  -5   3   -0.35    0.23
  -7  -5   3   43.09    1.63
  -6  -5   3   12.39    0.79
  -5  -5   3   21.45    0.98
  -4  -5   3   47.56    1.61
  -3  -5   3   16.39    0.78
  -2  -5   3   45.47    1.39
  -2  -5   3   47.93    1.52
  -1  -5   3  145.68    3.81
  -1  -5   3  144.61    3.90
   0  -5   3    0.79    0.20
   0  -5   3    0.79    0.16
  -1   5  -3   73.39    2.21
   1  -5   3   75.70    2.13
   1  -5   3   75.33    2.15
  -2   5  -3   69.36    2.12
  -2   5  -3   76.71    2.11
   2  -5   3   72.66    2.09
   2  -5   3   73.73    2.11
  -3   5  -3    0.19    0.13
  -3   5  -3    0.77    0.17
   3  -5   3    0.02    0.13
   3  -5   3    0.14    0.14
  -4   5  -3   87.50    2.39
  -4   5  -3   85.03    2.40
   4  -5   3   85.52    2.48
  -5   5  -3   58.48    1.71
  -5   5  -3   58.09    1.72
   5  -5   3   57.73    1.82
  -6   5  -3   14.18    0.64
  -6   5  -3   14.85    0.66
   6  -5   3   14.06    0.73
  -7   5  -3  141.07    3.87
   7  -5   3  144.87    3.98
  -8   5  -3   23.33    0.97
   8  -5   3   23.01    1.05
  -9   5  -3    2.60    0.35
   9  -5   3    2.57    0.37
 -10   5  -3   44.94    1.63
  10  -5   3   44.55    1.70
 -11   5  -3   12.41    0.81
  11  -5   3   13.18    0.89
 -12   5  -3   10.60    0.82
  12  -5   3   12.42    0.91
  13  -5   3   35.60    1.61
 -10  -4   3   41.84    1.80
  -9  -4   3   12.50    0.86
  -9  -4   3   11.00    0.88
  -8  -4   3   16.80    0.99
  -8  -4   3   16.80    0.93
  -7  -4   3   58.30    1.91
  -7  -4   3   54.15    1.94
  -6  -4   3    0.29    0.22
  -6  -4   3   -0.10    0.22
  -5  -4   3   12.83    0.71
  -5  -4   3   12.28    0.71
  -4  -4   3  161.28    4.34
  -4  -4   3  162.26    4.33
  -3  -4   3    1.26    0.17
  -3  -4   3    0.99    0.21
  -2  -4   3   66.01    1.85
  -2  -4   3   67.40    1.96
  -1  -4   3   88.24    2.45
  -1  -4   3   86.74    2.37
   0  -4   3    6.28    0.41
   0  -4   3    6.16    0.37
  -1   4  -3   82.61    2.33
   1  -4   3   83.50    2.28
   1  -4   3   81.88    2.29
  -2   4  -3   88.78    2.37
  -2   4  -3   83.09    2.36
   2  -4   3   86.24    2.38
   2  -4   3   86.52    2.36
  -3   4  -3    6.89    0.39
  -3   4  -3    6.25    0.35
   3  -4   3    6.53    0.42
   3  -4   3    6.65    0.40
  -4   4  -3  128.04    3.40
  -4   4  -3  131.36    3.39
   4  -4   3  128.33    3.49
  -5   4  -3   79.50    2.25
  -5   4  -3   83.13    2.26
   5  -4   3   82.63    2.37
  -6   4  -3    2.04    0.23
  -6   4  -3    2.49    0.25
   6  -4   3    2.21    0.27
  -7   4  -3   51.81    1.59
  -7   4  -3   53.60    1.64
   7  -4   3   53.33    1.74
  -8   4  -3    8.25    0.54
   8  -4   3    9.27    0.63
  -9   4  -3   33.47    1.26
   9  -4   3   33.79    1.32
 -10   4  -3   42.26    1.54
  10  -4   3   41.74    1.60
 -11   4  -3    3.23    0.43
  11  -4   3    3.03    0.44
 -12   4  -3   14.10    0.90
  12  -4   3   14.61    0.95
 -13   4  -3   26.58    1.30
  13  -4   3   26.85    1.32
 -10  -3   3   30.82    1.47
  -9  -3   3    4.94    0.53
  -9  -3   3    4.57    0.55
  -8  -3   3   43.44    1.67
  -8  -3   3   45.09    1.59
  -7  -3   3   57.54    1.94
  -7  -3   3   56.36    1.86
  -6  -3   3    2.03    0.32
  -6  -3   3    1.78    0.30
  -5  -3   3  114.08    3.15
  -5  -3   3  112.15    3.17
  -4  -3   3  122.08    3.27
  -4  -3   3  124.29    3.37
  -4  -3   3  123.81    3.37
  -3  -3   3   -0.10    0.09
  -3  -3   3   -0.05    0.13
  -3  -3   3    0.12    0.12
  -2  -3   3  132.94    3.46
  -2  -3   3  127.56    3.37
  -1  -3   3   33.61    1.02
  -1  -3   3   33.80    1.08
   0  -3   3   64.10    1.76
   0  -3   3   62.52    1.78
   1  -3   3   52.88    1.51
   1  -3   3   51.62    1.50
  -2   3  -3  110.39    2.86
  -2   3  -3  112.16    2.90
   2  -3   3  108.77    2.90
   2  -3   3  108.65    2.92
  -3   3  -3   34.78    0.98
  -3   3  -3   33.01    1.02
   3  -3   3   32.05    1.07
  -4   3  -3   83.45    2.25
  -4   3  -3   83.63    2.22
   4  -3   3   83.68    2.34
  -5   3  -3    0.50    0.12
  -5   3  -3    0.58    0.13
   5  -3   3    0.92    0.18
  -6   3  -3  100.62    2.73
  -6   3  -3  100.62    2.74
   6  -3   3  103.04    2.85
  -7   3  -3   66.00    1.92
  -7   3  -3   63.17    1.89
   7  -3   3   66.87    2.01
  -8   3  -3    6.06    0.47
  -8   3  -3    6.70    0.47
   8  -3   3    6.54    0.52
  -9   3  -3   44.65    1.53
   9  -3   3   45.92    1.59
 -10   3  -3   66.90    2.15
  10  -3   3   67.36    2.17
 -11   3  -3    0.72    0.27
  11  -3   3    0.92    0.28
 -12   3  -3   38.47    1.54
  12  -3   3   38.11    1.55
 -13   3  -3    4.16    0.52
 -11  -2   3   15.10    1.07
 -10  -2   3   29.97    1.41
  -9  -2   3    0.42    0.28
  -8  -2   3   51.46    1.83
  -8  -2   3   50.35    1.69
  -7  -2   3   46.12    1.55
  -7  -2   3   46.94    1.65
   6   2  -3    5.83    0.45
  -6  -2   3    5.40    0.47
  -6  -2   3    5.42    0.51
  -5  -2   3  148.05    4.00
  -5  -2   3  148.23    3.95
  -4  -2   3   75.42    2.08
  -4  -2   3   73.75    2.13
  -4  -2   3   73.16    2.11
  -3  -2   3   77.07    2.12
  -3  -2   3   74.56    2.11
  -3  -2   3   75.35    2.07
  -2  -2   3  165.50    4.23
  -2  -2   3  164.71    4.20
  -2  -2   3  164.96    4.26
  -1  -2   3  168.38    4.30
  -1  -2   3  171.81    4.36
  -1  -2   3  170.52    4.31
   0  -2   3   38.27    1.11
   0  -2   3   38.51    1.13
  -1   2  -3   93.02    2.44
   1  -2   3   93.30    2.44
   1  -2   3   91.35    2.45
  -2   2  -3    5.46    0.29
  -2   2  -3    5.84    0.23
   2  -2   3    5.10    0.29
   2  -2   3    5.63    0.31
  -3   2  -3  121.63    3.11
  -3   2  -3  122.02    3.18
   3  -2   3  126.42    3.24
  -4   2  -3  238.10    6.03
  -4   2  -3  239.06    6.00
   4  -2   3  243.91    6.11
  -5   2  -3    2.80    0.24
  -5   2  -3    2.68    0.25
   5  -2   3    2.75    0.30
  -6   2  -3   27.74    0.91
  -6   2  -3   26.05    0.90
   6  -2   3   25.72    0.96
  -7   2  -3   90.04    2.44
  -7   2  -3   86.60    2.44
   7  -2   3   84.01    2.48
  -8   2  -3    7.13    0.47
  -8   2  -3    7.79    0.50
   8  -2   3    6.98    0.50
  -9   2  -3   49.70    1.64
   9  -2   3   48.44    1.64
 -10   2  -3   32.26    1.26
  10  -2   3   31.73    1.25
 -11   2  -3    8.42    0.69
  11  -2   3    9.28    0.69
 -12   2  -3   45.02    1.73
  12  -2   3   46.10    1.90
 -13   2  -3   11.35    0.84
 -14   2  -3    2.12    0.61
 -11  -1   3   51.08    2.01
 -10  -1   3   60.62    2.18
  -9  -1   3   -0.16    0.24
  -8  -1   3   37.72    1.49
  -8  -1   3   39.89    1.36
   7   1  -3   34.23    1.20
  -7  -1   3   33.53    1.29
  -7  -1   3   32.28    1.17
   6   1  -3   34.74    1.20
  -6  -1   3   37.49    1.21
  -6  -1   3   34.57    1.27
   5   1  -3   44.40    1.37
  -5  -1   3   44.98    1.37
  -5  -1   3   42.62    1.42
  -4  -1   3    6.72    0.41
  -4  -1   3    7.48    0.44
  -4  -1   3    6.37    0.40
  -3  -1   3  183.38    4.74
  -3  -1   3  181.31    4.72
  -3  -1   3  191.35    4.77
  -2  -1   3  383.06    9.30
  -2  -1   3  369.01    9.28
  -2  -1   3  371.89    9.30
  -1  -1   3  105.90    2.67
  -1  -1   3  104.50    2.71
  -1  -1   3  101.85    2.69
   0  -1   3   20.06    0.58
   0  -1   3   20.68    0.65
   0  -1   3   20.75    0.65
  -1   1  -3   15.82    0.52
   1  -1   3   14.88    0.52
   1  -1   3   15.25    0.52
  -2   1  -3   42.99    1.19
  -2   1  -3   42.19    1.09
  -3   1  -3  172.00    4.39
  -3   1  -3  173.94    4.33
   3  -1   3  176.95    4.44
  -4   1  -3  137.67    3.48
  -4   1  -3  136.95    3.51
   4  -1   3  135.69    3.55
  -5   1  -3   47.47    1.36
  -5   1  -3   46.29    1.34
   5  -1   3   45.55    1.38
  -6   1  -3   56.18    1.60
  -6   1  -3   54.12    1.59
   6  -1   3   52.22    1.62
  -7   1  -3   47.23    1.48
  -7   1  -3   47.35    1.47
   7  -1   3   47.91    1.49
  -8   1  -3   14.23    0.69
  -8   1  -3   13.96    0.67
   8  -1   3   15.06    0.70
  -9   1  -3   67.24    2.01
  -9   1  -3   65.09    2.04
   9  -1   3   63.63    2.00
 -10   1  -3   38.47    1.42
  10  -1   3   37.70    1.36
 -11   1  -3   56.69    1.97
  11  -1   3   59.40    1.91
 -12   1  -3   12.12    0.84
 -13   1  -3    6.04    0.68
 -14   1  -3   21.43    1.78
 -11   0   3   18.64    1.15
 -10   0   3    1.56    0.38
  -9   0   3   18.03    0.98
   8   0  -3   80.39    2.42
  -8   0   3   81.87    2.54
   7   0  -3    5.94    0.49
  -7   0   3    4.80    0.51
  -7   0   3    3.96    0.35
   6   0  -3  102.14    2.82
  -6   0   3   97.83    2.73
  -6   0   3  103.02    2.90
   5   0  -3  112.58    2.97
  -5   0   3  108.94    2.90
  -5   0   3  105.11    3.00
   4   0  -3   15.52    0.63
  -4   0   3   16.01    0.66
  -4   0   3   15.25    0.58
  -3   0   3  261.21    6.32
  -3   0   3  250.34    6.32
  -3   0   3  237.16    6.23
  -2   0   3  348.36    8.66
  -2   0   3  355.25    8.67
  -2   0   3  343.25    8.62
  -1   0   3   55.91    1.48
  -1   0   3   53.21    1.45
  -1   0   3   53.33    1.45
   0   0  -3  411.13   10.24
   0   0   3  432.01   10.23
   0   0   3  410.97   10.25
   0   0   3  412.94   10.24
  -1   0  -3   49.65    1.33
   1   0   3   50.05    1.35
  -2   0  -3   59.44    1.48
  -2   0  -3   59.46    1.57
   2   0   3   58.16    1.58
  -3   0  -3  339.29    8.28
  -3   0  -3  338.22    8.33
   3   0   3  332.23    8.33
  -4   0  -3   74.76    1.99
  -4   0  -3   73.19    1.95
   4   0   3   73.19    1.98
  -5   0  -3   75.68    2.15
  -5   0  -3   79.33    2.14
   5   0   3   81.30    2.14
  -6   0  -3  188.92    4.95
  -6   0  -3  194.69    4.96
   6   0   3  192.99    4.93
  -7   0  -3    4.65    0.39
  -7   0  -3    5.42    0.41
   7   0   3    4.79    0.37
  -8   0  -3   37.17    1.28
  -8   0  -3   38.05    1.27
   8   0   3   34.85    1.20
  -9   0  -3  121.29    3.36
  -9   0  -3  116.72    3.30
   9   0   3  117.42    3.25
 -10   0  -3   11.62    0.69
 -10   0  -3   11.66    0.73
  10   0   3   12.38    0.66
 -11   0  -3   20.64    1.04
 -12   0  -3   36.11    1.51
 -13   0  -3    0.53    0.29
 -11   1   3   29.05    1.41
 -10   1   3    2.83    0.47
   9  -1  -3   45.90    1.62
  -9   1   3   45.24    1.71
   8  -1  -3   55.36    1.81
  -8   1   3   55.20    1.88
   7  -1  -3    0.01    0.17
  -7   1   3   -0.02    0.17
   6  -1  -3   76.28    2.14
  -6   1   3   68.12    2.15
  -6   1   3   70.18    1.97
   5  -1  -3  129.04    3.40
  -5   1   3  129.08    3.25
  -5   1   3  118.69    3.40
   4  -1  -3   13.48    0.59
  -4   1   3   14.60    0.51
  -4   1   3   14.23    0.63
  -3   1   3  313.08    7.72
  -3   1   3  301.13    7.56
  -3   1   3  303.76    7.68
  -2   1   3  299.74    7.52
  -2   1   3  302.49    7.60
  -2   1   3  313.68    7.64
   1  -1  -3   65.90    1.72
  -1   1   3   66.83    1.79
  -1   1   3   66.79    1.76
  -1   1   3   68.03    1.73
   0  -1  -3  181.77    4.48
   0   1   3  172.82    4.51
   0   1   3  185.20    4.47
  -1  -1  -3  303.12    7.55
   1   1   3  320.17    7.55
   1   1   3  296.43    7.55
  -2  -1  -3    3.97    0.22
   2   1   3    3.82    0.20
  -3  -1  -3   70.91    1.84
  -3  -1  -3   68.09    1.79
   3   1   3   66.41    1.79
  -4  -1  -3   23.46    0.76
  -4  -1  -3   24.81    0.80
   4   1   3   23.47    0.73
  -5  -1  -3  122.69    3.32
  -5  -1  -3  127.14    3.30
   5   1   3  127.99    3.24
  -6  -1  -3   74.51    2.13
  -6  -1  -3   75.08    2.13
   6   1   3   75.09    2.04
  -7  -1  -3    1.99    0.25
  -7  -1  -3    2.03    0.27
   7   1   3    2.73    0.26
  -8  -1  -3   58.48    1.84
  -8  -1  -3   61.27    1.88
   8   1   3   60.39    1.75
  -9  -1  -3   86.94    2.58
  -9  -1  -3   87.05    2.62
   9   1   3   89.38    2.47
 -10  -1  -3    7.02    0.61
 -10  -1  -3    7.33    0.57
 -11  -1  -3   28.39    1.24
 -11  -1  -3   25.88    1.40
 -12  -1  -3   22.10    1.16
 -13  -1  -3    8.42    0.80
 -11   2   3   22.13    1.22
  10  -2  -3    0.52    0.28
 -10   2   3    0.56    0.29
   9  -2  -3   69.55    2.21
  -9   2   3   66.16    2.25
   8  -2  -3   36.06    1.35
  -8   2   3   36.20    1.41
   7  -2  -3   15.93    0.78
  -7   2   3   14.27    0.78
   6  -2  -3   74.89    2.17
  -6   2   3   69.73    2.17
   5  -2  -3   78.24    2.24
  -5   2   3   76.08    2.02
  -5   2   3   77.91    2.25
   4  -2  -3   80.25    2.24
  -4   2   3   76.45    2.23
  -4   2   3   81.81    2.05
   3  -2  -3  418.51   10.61
  -3   2   3  424.65   10.43
  -3   2   3  435.26   10.61
   2  -2  -3  107.95    2.68
   2  -2  -3   99.44    2.82
  -2   2   3  113.69    2.69
  -2   2   3  108.80    2.82
   1  -2  -3  102.60    2.60
  -1   2   3  101.59    2.72
  -1   2   3  108.43    2.71
   0  -2  -3   72.54    1.85
   0   2   3   74.32    1.92
   0   2   3   70.58    1.92
  -1  -2  -3   67.15    1.77
   1   2   3   67.24    1.76
   1   2   3   68.98    1.86
  -2  -2  -3  182.35    4.56
   2   2   3  180.48    4.50
  -3  -2  -3  337.84    8.23
   3   2   3  323.99    8.12
  -4  -2  -3   21.76    0.74
  -4  -2  -3   23.27    0.78
   4   2   3   21.97    0.65
  -5  -2  -3  194.31    5.02
  -5  -2  -3  197.63    5.05
   5   2   3  195.34    4.89
  -6  -2  -3   87.28    2.41
  -6  -2  -3   83.20    2.39
   6   2   3   85.27    2.24
  -7  -2  -3    0.27    0.15
  -7  -2  -3    0.62    0.17
   7   2   3    0.73    0.12
  -8  -2  -3   47.56    1.59
  -8  -2  -3   48.07    1.58
   8   2   3   47.43    1.48
  -9  -2  -3   21.78    1.01
  -9  -2  -3   21.54    0.97
 -10  -2  -3    7.50    0.60
 -10  -2  -3    7.33    0.63
 -11  -2  -3   71.00    2.25
 -11  -2  -3   67.17    2.30
 -12  -2  -3   12.66    0.91
 -13  -2  -3   16.00    1.04
  11  -3  -3   31.08    1.58
 -11   3   3   29.73    1.43
  10  -3  -3    5.38    0.57
 -10   3   3    4.76    0.56
   9  -3  -3   36.67    1.45
  -9   3   3   37.53    1.50
   8  -3  -3    3.77    0.44
  -8   3   3    3.79    0.44
   7  -3  -3    6.31    0.57
  -7   3   3    7.20    0.56
   6  -3  -3  129.53    3.52
  -6   3   3  124.19    3.51
   5  -3  -3   75.35    2.16
  -5   3   3   70.40    2.14
   4  -3  -3   77.94    2.25
  -4   3   3   76.98    2.24
  -4   3   3   82.47    1.98
   3  -3  -3  150.89    4.05
  -3   3   3  159.01    4.05
   2  -3  -3   32.86    1.05
   2  -3  -3   35.04    0.87
  -2   3   3   33.30    1.06
   1  -3  -3   26.02    0.70
  -1   3   3   25.98    0.84
   0  -3  -3   27.04    0.80
   0   3   3   31.26    0.89
   0   3   3   28.04    0.94
  -1  -3  -3    2.77    0.20
   1   3   3    3.46    0.20
  -2  -3  -3  139.75    3.65
   2   3   3  145.19    3.56
  -3  -3  -3   60.38    1.73
   3   3   3   63.55    1.58
  -4  -3  -3   93.75    2.58
   4   3   3   96.46    2.39
  -5  -3  -3  186.75    4.67
  -5  -3  -3  176.75    4.65
   5   3   3  172.98    4.43
  -6  -3  -3   54.56    1.68
  -6  -3  -3   55.26    1.68
   6   3   3   54.35    1.44
  -7  -3  -3   28.04    1.06
  -7  -3  -3   28.71    1.07
  -8  -3  -3   47.94    1.63
  -8  -3  -3   47.82    1.61
  -9  -3  -3   -0.12    0.19
  -9  -3  -3   -0.08    0.18
 -10  -3  -3   49.80    1.73
 -10  -3  -3   50.08    1.79
 -11  -3  -3   71.86    2.34
 -11  -3  -3   70.03    2.38
 -12  -3  -3    1.10    0.31
 -12  -3  -3    0.71    0.34
 -13  -3  -3   23.62    1.29
  11  -4  -3   11.29    0.86
 -11   4   3   11.78    0.92
  10  -4  -3   14.26    0.91
 -10   4   3   12.97    0.91
   9  -4  -3   34.53    1.38
  -9   4   3   31.00    1.37
   8  -4  -3    2.67    0.39
  -8   4   3    3.38    0.44
   7  -4  -3   20.24    0.96
  -7   4   3   19.54    0.92
   6  -4  -3   32.70    1.23
  -6   4   3   33.03    1.22
   5  -4  -3    0.12    0.15
  -5   4   3   -0.24    0.13
   4  -4  -3  282.56    7.09
  -4   4   3  270.79    7.08
   3  -4  -3  129.09    3.51
  -3   4   3  134.32    3.54
   2  -4  -3   21.04    0.78
  -2   4   3   22.62    0.82
   1  -4  -3   30.41    0.83
   1  -4  -3   28.58    0.95
  -1   4   3   33.12    1.06
   0  -4  -3  142.87    3.59
   0  -4  -3  136.40    3.53
   0   4   3  140.48    3.76
  -1  -4  -3    0.88    0.13
  -1  -4  -3    1.20    0.14
  -2  -4  -3  298.49    7.46
  -2  -4  -3  298.38    7.35
  -3  -4  -3   16.53    0.64
  -4  -4  -3   92.62    2.55
  -5  -4  -3  209.60    5.44
  -6  -4  -3   28.55    1.07
  -6  -4  -3   29.40    1.07
  -7  -4  -3   84.25    2.49
  -7  -4  -3   86.48    2.53
  -8  -4  -3  169.92    4.62
  -8  -4  -3  166.74    4.57
  -9  -4  -3   14.95    0.84
  -9  -4  -3   15.68    0.87
 -10  -4  -3   36.15    1.46
 -10  -4  -3   37.59    1.50
 -11  -4  -3   23.21    1.20
 -11  -4  -3   23.84    1.16
 -12  -4  -3    1.88    0.41
 -12  -4  -3    2.20    0.40
  12  -5  -3   27.78    1.41
  11  -5  -3    1.81    0.40
 -11   5   3    1.43    0.38
  10  -5  -3   39.10    1.61
 -10   5   3   39.24    1.64
   9  -5  -3   20.41    1.06
  -9   5   3   20.70    1.08
   8  -5  -3    0.15    0.24
  -8   5   3   -0.08    0.20
   7  -5  -3  107.02    3.10
  -7   5   3  104.25    3.11
   6  -5  -3   59.68    1.91
  -6   5   3   59.37    1.93
   5  -5  -3   16.26    0.81
  -5   5   3   17.61    0.82
   4  -5  -3  124.33    3.44
  -4   5   3  126.82    3.48
   3  -5  -3   69.55    2.04
  -3   5   3   70.39    2.10
   2  -5  -3   71.40    1.80
   2  -5  -3   70.26    2.02
  -2   5   3   71.34    2.11
   1  -5  -3  232.87    5.84
   1  -5  -3  232.23    5.98
  -1   5   3  242.54    6.17
   0  -5  -3  132.88    3.43
   0  -5  -3  134.05    3.37
   0   5   3  129.74    3.66
  -1  -5  -3   50.65    1.42
  -1  -5  -3   52.72    1.46
  -2  -5  -3  227.23    5.74
  -2  -5  -3  235.53    5.87
  -3  -5  -3   50.72    1.31
  -3  -5  -3   51.18    1.52
  -4  -5  -3   12.28    0.61
  -5  -5  -3   67.77    2.03
  -6  -5  -3    6.87    0.51
  -7  -5  -3   93.85    2.75
  -8  -5  -3   68.34    2.19
  -9  -5  -3    1.57    0.34
  -9  -5  -3    1.55    0.32
 -10  -5  -3   36.04    1.48
 -10  -5  -3   37.10    1.53
 -11  -5  -3    8.77    0.77
 -11  -5  -3    7.35    0.75
 -12  -5  -3    2.51    0.47
 -12  -5  -3    3.12    0.47
 -13  -5  -3   36.87    1.65
  12  -6  -3   12.38    1.12
  11  -6  -3    0.02    0.26
 -11   6   3   -0.25    0.24
  10  -6  -3   48.77    1.88
 -10   6   3   46.62    1.87
   9  -6  -3   31.43    1.37
  -9   6   3   29.44    1.36
   8  -6  -3   -0.06    0.23
  -8   6   3   -0.06    0.21
   7  -6  -3   28.60    1.22
  -7   6   3   25.61    1.18
   6  -6  -3    2.24    0.33
  -6   6   3    2.24    0.34
   5  -6  -3   43.08    1.50
  -5   6   3   42.08    1.52
   4  -6  -3  208.03    5.47
  -4   6   3  206.76    5.56
   3  -6  -3   24.42    0.94
  -3   6   3   24.95    1.02
   2  -6  -3    0.91    0.10
   2  -6  -3    0.75    0.18
  -2   6   3    0.76    0.21
   1  -6  -3   87.07    2.24
   1  -6  -3   86.03    2.37
  -1   6   3   83.88    2.58
   0  -6  -3   36.12    1.06
   0  -6  -3   34.39    1.09
   0   6   3   36.14    1.35
  -1  -6  -3  158.91    4.07
  -1  -6  -3  161.05    4.12
   1   6   3  159.09    4.42
  -2  -6  -3   22.74    0.70
  -2  -6  -3   22.56    0.82
  -3  -6  -3    0.09    0.14
  -3  -6  -3    0.40    0.07
  -4  -6  -3  108.24    3.00
  -5  -6  -3   71.93    2.16
  -6  -6  -3    1.25    0.25
  -7  -6  -3   77.61    2.40
  -8  -6  -3   22.50    1.06
  -9  -6  -3   36.64    1.47
 -10  -6  -3   33.29    1.44
 -11  -6  -3    4.71    0.55
 -12  -6  -3    9.02    0.85
  11  -7  -3    5.65    0.68
 -11   7   3    5.78    0.69
  10  -7  -3   30.29    1.46
 -10   7   3   30.63    1.47
   9  -7  -3   14.61    0.97
  -9   7   3   15.37    0.98
   8  -7  -3   34.39    1.44
  -8   7   3   33.21    1.47
   7  -7  -3  104.60    3.14
  -7   7   3  103.66    3.20
   6  -7  -3    0.40    0.23
  -6   7   3    0.72    0.26
   5  -7  -3   58.63    1.94
  -5   7   3   60.87    2.03
   4  -7  -3   82.17    2.48
  -4   7   3   85.04    2.63
   3  -7  -3   43.54    1.46
  -3   7   3   44.04    1.60
   2  -7  -3   66.26    1.97
   2  -7  -3   66.01    1.76
  -2   7   3   64.69    2.15
   1  -7  -3   60.41    1.67
   1  -7  -3   60.85    1.79
  -1   7   3   60.49    2.04
   0  -7  -3   12.58    0.52
   0  -7  -3   11.58    0.54
   0   7   3   11.84    0.76
  -1  -7  -3  134.40    3.55
  -1  -7  -3  135.80    3.50
   1   7   3  133.74    3.89
  -2  -7  -3   78.52    2.21
  -2  -7  -3   76.53    2.06
  -3  -7  -3    5.18    0.41
  -4  -7  -3   33.50    1.21
  -5  -7  -3   24.73    1.02
  -6  -7  -3   16.49    0.84
  -7  -7  -3   73.16    2.33
  -8  -7  -3   16.62    0.94
  -9  -7  -3   28.26    1.32
 -10  -7  -3   27.36    1.33
 -11  -7  -3    1.09    0.34
  10  -8  -3   24.20    1.32
 -10   8   3   25.60    1.37
   9  -8  -3    6.28    0.67
  -9   8   3    7.84    0.78
   8  -8  -3   14.07    0.94
  -8   8   3   15.56    1.01
   7  -8  -3   36.38    1.51
  -7   8   3   37.16    1.58
   6  -8  -3    0.07    0.21
  -6   8   3   -0.04    0.24
   5  -8  -3   80.95    2.47
  -5   8   3   77.95    2.60
   4  -8  -3   22.15    0.98
  -4   8   3   21.95    1.11
   3  -8  -3    0.06    0.17
  -3   8   3    0.22    0.19
   2  -8  -3   80.98    2.36
   2  -8  -3   80.16    2.32
  -2   8   3   81.42    2.62
   1  -8  -3   55.22    1.69
   1  -8  -3   54.98    1.58
  -1   8   3   55.16    1.99
   0  -8  -3   48.30    1.47
   0  -8  -3   48.21    1.49
   0   8   3   49.79    1.83
  -1  -8  -3   92.93    2.62
  -1  -8  -3   92.80    2.56
   1   8   3   99.01    3.01
  -2  -8  -3    2.15    0.27
  -3  -8  -3   34.02    1.22
  -4  -8  -3   95.15    2.77
  -5  -8  -3   11.15    0.72
  -6  -8  -3   21.14    1.02
  -7  -8  -3   65.90    2.20
  -8  -8  -3    2.88    0.43
  -9  -8  -3   29.55    1.38
 -10  -8  -3   25.42    1.30
  10  -9  -3   12.44    1.02
 -10   9   3   14.55    1.09
   9  -9  -3   -0.13    0.31
  -9   9   3    0.44    0.35
   8  -9  -3   36.73    1.59
  -8   9   3   38.89    1.72
   7  -9  -3   18.62    1.05
  -7   9   3   19.03    1.11
   6  -9  -3    9.78    0.76
  -6   9   3    9.90    0.82
   5  -9  -3   58.34    1.99
  -5   9   3   56.65    2.14
   4  -9  -3   41.65    1.52
  -4   9   3   39.76    1.67
   3  -9  -3    6.43    0.59
  -3   9   3    7.53    0.69
   2  -9  -3  100.26    2.86
  -2   9   3   97.88    3.14
   1  -9  -3   21.44    0.80
   1  -9  -3   21.03    0.89
  -1   9   3   21.86    1.17
   0  -9  -3   18.30    0.78
   0  -9  -3   18.61    0.78
   0   9   3   18.34    1.06
  -1  -9  -3   68.07    2.05
   1   9   3   69.87    2.43
  -2  -9  -3    4.55    0.46
  -3  -9  -3   66.08    2.06
  -4  -9  -3   78.67    2.42
  -5  -9  -3    0.60    0.27
  -6  -9  -3   43.25    1.65
  -7  -9  -3   44.70    1.71
  -8  -9  -3    0.04    0.30
  -9  -9  -3   15.08    1.03
   9 -10  -3   -0.04    0.29
  -9  10   3    0.07    0.32
   8 -10  -3   26.55    1.36
  -8  10   3   24.40    1.40
   7 -10  -3    9.32    0.84
  -7  10   3    8.84    0.86
   6 -10  -3   16.35    1.02
  -6  10   3   16.74    1.09
   5 -10  -3   67.30    2.24
  -5  10   3   61.05    2.37
   4 -10  -3    2.39    0.38
  -4  10   3    2.62    0.47
   3 -10  -3   23.30    1.08
  -3  10   3   23.74    1.25
   2 -10  -3   64.25    2.05
  -2  10   3   64.48    2.35
   1 -10  -3    4.60    0.46
  -1  10   3    4.55    0.59
   0 -10  -3   46.24    1.56
   0  10   3   51.40    1.97
  -1 -10  -3   42.31    1.43
   1  10   3   40.81    1.78
  -3 -10  -3   69.46    2.21
  -4 -10  -3   31.92    1.31
  -5 -10  -3    0.18    0.27
  -6 -10  -3   50.86    1.89
  -7 -10  -3    4.48    0.55
  -8 -10  -3    4.45    0.60
   8 -11  -3   15.65    1.13
  -8  11   3   17.40    1.23
   7 -11  -3    1.28    0.38
  -7  11   3    1.25    0.42
   6 -11  -3   12.57    0.97
  -6  11   3   14.56    1.09
   5 -11  -3   51.37    1.88
  -5  11   3   46.28    2.05
   4 -11  -3   -0.20    0.23
  -4  11   3    0.13    0.30
   3 -11  -3   49.66    1.76
  -3  11   3   49.71    2.03
   2 -11  -3   49.95    1.72
  -2  11   3   50.45    2.05
  -1  11   3    1.29    0.43
   0 -11  -3   41.03    1.67
   0  11   3   45.42    1.89
  -1 -11  -3   41.58    1.49
   1  11   3   43.44    1.87
  -2 -11  -3    8.24    0.68
  -3 -11  -3   53.01    1.84
  -4 -11  -3   12.03    0.84
  -5 -11  -3   12.57    0.92
  -6 -11  -3   33.85    1.51
  -7 -11  -3    3.93    0.55
   7 -12  -3    1.60    0.44
  -7  12   3    1.20    0.44
   6 -12  -3   12.34    0.97
  -6  12   3   11.85    1.08
   5 -12  -3   21.77    1.16
  -5  12   3   22.56    1.39
   4 -12  -3   -0.04    0.25
  -4  12   3   -0.09    0.30
   3 -12  -3   14.24    0.89
  -3  12   3   14.71    1.09
  -2  12   3    8.83    0.94
  -1  12   3    8.11    0.92
   0  12   3   69.11    2.61
  -1 -12  -3   24.29    1.10
   1  12   3   23.68    1.40
  -2 -12  -3    3.37    0.44
   2  12   3    2.98    0.60
  -3 -12  -3   25.74    1.24
   3  12   3   29.98    1.63
  -4 -12  -3    2.84    0.46
  -5 -12  -3   22.90    1.22
  -6 -12  -3   33.94    1.55
   6 -13  -3   29.29    1.45
  -6  13   3   26.04    1.62
   5 -13  -3    9.51    0.86
  -5  13   3   10.62    1.08
   4 -13  -3    1.50    0.40
  -4  13   3    2.39    0.55
  -3  13   3   19.41    1.29
  -2  13   3    2.75    0.58
  -1  13   3   14.10    1.15
   0  13   3   24.54    1.48
   1  13   3   -0.39    0.33
  -2 -13  -3   27.60    1.30
   2  13   3   30.19    1.69
  -3 -13  -3   27.08    1.34
   3  13   3   32.23    1.76
  -4 -13  -3    0.21    0.34
   4  13   3    0.15    0.44
  -5 -13  -3   23.53    1.46
  -3  14   3   24.23    1.48
  -2  14   3    0.75    0.42
  -1  14   3   15.63    1.23
   0  14   3   15.75    1.28
   1  14   3    0.47    0.47
  -3 -14  -3   19.77    1.19
   0 -11   4   18.11    1.13
  -1  11  -4   17.40    1.09
   1 -11   4   18.97    1.12
  -2  11  -4    0.98    0.34
   2 -11   4    0.66    0.34
   5 -11   4    4.67    0.58
   6 -11   4   25.94    1.37
  -2 -10   4   19.01    1.11
  -1 -10   4    1.09    0.36
   0 -10   4   31.08    1.41
   1 -10   4   17.23    1.03
  -2  10  -4    3.50    0.48
   2 -10   4    2.51    0.44
  -3  10  -4   38.58    1.57
   3 -10   4   41.73    1.81
   3 -10   4   40.06    1.61
   4 -10   4    6.73    0.71
   5 -10   4   10.06    0.84
   6 -10   4   20.95    1.14
   7 -10   4    1.23    0.37
  -4  -9   4    2.69    0.48
  -3  -9   4   20.82    1.14
  -2  -9   4    4.23    0.52
  -1  -9   4   10.12    0.79
   0  -9   4   49.08    1.81
   1  -9   4    2.02    0.39
  -2   9  -4   25.26    1.18
   2  -9   4   26.57    1.20
   2  -9   4   26.22    1.21
  -3   9  -4   91.75    2.91
   3  -9   4   97.72    2.93
   3  -9   4   97.49    2.93
  -4   9  -4    1.62    0.34
   4  -9   4    2.23    0.37
   4  -9   4    2.54    0.41
   5  -9   4   16.29    0.98
   6  -9   4   19.82    1.10
   7  -9   4    1.60    0.37
   8  -9   4   22.85    1.23
   9  -9   4   16.57    1.13
  -6  -8   4   22.81    1.30
  -5  -8   4    0.97    0.37
  -4  -8   4   29.21    1.34
  -3  -8   4   51.52    1.88
  -2  -8   4    3.85    0.48
  -1  -8   4   27.00    1.19
   0  -8   4   60.17    2.01
   1  -8   4    3.42    0.41
   1  -8   4    3.75    0.45
  -2   8  -4   50.00    1.78
   2  -8   4   53.16    1.80
   2  -8   4   52.98    1.79
  -3   8  -4   81.67    2.57
   3  -8   4   84.86    2.58
   3  -8   4   85.53    2.59
  -4   8  -4    0.26    0.22
   4  -8   4    0.16    0.22
   4  -8   4    0.15    0.23
  -5   8  -4   48.73    1.74
   5  -8   4   53.16    1.83
   6  -8   4   53.96    1.92
   7  -8   4    0.28    0.25
   8  -8   4   17.10    1.04
   9  -8   4   17.05    1.04
  10  -8   4    9.07    0.87
  -7  -7   4    1.55    0.41
  -6  -7   4   16.88    1.02
  -5  -7   4   -0.62    0.25
  -4  -7   4   30.95    1.33
  -3  -7   4   76.08    2.43
  -2  -7   4    1.26    0.35
  -1  -7   4   18.21    0.93
   0  -7   4   27.19    1.07
   0  -7   4   26.21    1.12
   1  -7   4    3.35    0.37
   1  -7   4    2.73    0.37
  -2   7  -4   56.42    1.86
   2  -7   4   59.12    1.87
   2  -7   4   56.45    1.86
  -3   7  -4   29.57    1.17
   3  -7   4   29.98    1.18
   3  -7   4   29.26    1.17
  -4   7  -4    8.09    0.58
   4  -7   4    6.27    0.55
   4  -7   4    7.21    0.60
  -5   7  -4   68.90    2.12
   5  -7   4   67.79    2.21
   6  -7   4   21.23    1.05
   7  -7   4    7.04    0.66
   8  -7   4   25.05    1.19
   9  -7   4    0.15    0.27
  10  -7   4   17.38    1.08
  11  -7   4   20.53    1.21
  -8  -6   4    0.62    0.38
  -7  -6   4   11.11    0.88
  -6  -6   4   19.35    1.05
  -5  -6   4    0.38    0.28
  -4  -6   4   35.80    1.40
  -3  -6   4   29.45    1.22
  -2  -6   4    3.91    0.42
  -1  -6   4  104.52    3.04
  -1  -6   4  106.89    2.95
   0  -6   4   57.10    1.77
   0  -6   4   56.60    1.83
  -1   6  -4   18.89    0.90
   1  -6   4   18.87    0.88
   1  -6   4   18.97    0.83
  -2   6  -4   73.79    2.53
  -2   6  -4   69.04    2.15
   2  -6   4   71.31    2.15
   2  -6   4   70.94    2.15
  -3   6  -4   32.12    1.19
   3  -6   4   31.94    1.19
   3  -6   4   32.77    1.21
  -4   6  -4   12.09    0.65
   4  -6   4   11.34    0.65
   4  -6   4   12.30    0.71
  -5   6  -4   70.63    2.11
   5  -6   4   69.79    2.20
  -6   6  -4    5.94    0.50
   6  -6   4    6.74    0.57
   7  -6   4   48.11    1.72
   8  -6   4   43.08    1.64
   9  -6   4    0.66    0.28
  10  -6   4   14.38    0.96
  11  -6   4   15.40    1.01
  12  -6   4    2.09    0.44
  -9  -5   4   47.48    1.85
  -8  -5   4   -0.74    0.23
  -7  -5   4   11.78    0.86
  -6  -5   4    2.27    0.40
  -5  -5   4    5.93    0.55
  -4  -5   4   68.81    2.17
  -3  -5   4    9.36    0.63
  -2  -5   4   40.62    1.33
  -2  -5   4   42.65    1.45
  -1  -5   4   95.60    2.72
  -1  -5   4   93.98    2.63
   0  -5   4    4.82    0.46
   0  -5   4    4.09    0.38
  -1   5  -4   54.80    1.72
   1  -5   4   53.99    1.71
   1  -5   4   54.73    1.68
  -2   5  -4   99.98    2.77
  -2   5  -4   92.77    2.73
   2  -5   4  100.62    2.77
   2  -5   4  100.55    2.77
  -3   5  -4    0.40    0.15
  -3   5  -4    0.11    0.15
   3  -5   4   -0.06    0.14
   3  -5   4    0.04    0.15
  -4   5  -4   43.60    1.39
  -4   5  -4   43.02    1.33
   4  -5   4   43.03    1.46
  -5   5  -4   86.71    2.40
  -5   5  -4   86.71    2.46
   5  -5   4   86.89    2.56
  -6   5  -4    0.02    0.13
  -6   5  -4   -0.06    0.12
   6  -5   4    0.02    0.17
  -7   5  -4   78.14    2.45
  -7   5  -4   75.66    2.25
   7  -5   4   76.07    2.39
   8  -5   4   35.42    1.40
   9  -5   4   12.92    0.82
  10  -5   4   35.92    1.50
  11  -5   4   17.79    1.04
  12  -5   4    4.37    0.56
  13  -5   4   33.53    1.62
 -10  -4   4   18.21    1.76
  -9  -4   4   15.22    1.02
  -9  -4   4   14.39    0.95
  -8  -4   4    4.15    0.53
  -8  -4   4    4.90    0.53
  -7  -4   4   38.50    1.52
  -7  -4   4   37.64    1.46
  -6  -4   4   16.19    0.87
  -6  -4   4   15.98    0.89
  -5  -4   4   61.54    1.96
  -5  -4   4   59.85    1.95
  -4  -4   4   45.84    1.56
  -3  -4   4   18.67    0.75
  -3  -4   4   18.65    0.86
  -2  -4   4  110.89    2.95
  -2  -4   4  107.19    3.03
  -1  -4   4  144.37    3.87
  -1  -4   4  144.18    3.80
   0  -4   4    0.97    0.20
   0  -4   4    1.35    0.20
   1  -4   4  160.51    4.28
   1  -4   4  165.06    4.28
  -2   4  -4  136.25    3.69
  -2   4  -4  144.35    3.75
   2  -4   4  137.12    3.74
   2  -4   4  145.66    3.77
  -3   4  -4    5.10    0.37
  -3   4  -4    4.91    0.31
   3  -4   4    4.46    0.39
   3  -4   4    5.11    0.40
  -4   4  -4   89.72    2.44
  -4   4  -4   95.53    2.54
   4  -4   4   89.44    2.60
  -5   4  -4  164.57    4.19
  -5   4  -4  154.96    4.10
   5  -4   4  158.22    4.28
  -6   4  -4    0.74    0.18
  -6   4  -4    1.00    0.18
   6  -4   4    1.07    0.23
  -7   4  -4   47.52    1.49
  -7   4  -4   49.32    1.53
   7  -4   4   48.12    1.65
  -8   4  -4    5.66    0.45
  -8   4  -4    5.18    0.55
   8  -4   4    5.72    0.54
  -9   4  -4   19.39    0.89
   9  -4   4   19.88    0.98
 -10   4  -4   30.44    1.21
  10  -4   4   29.11    1.31
  11  -4   4    7.30    0.70
  12  -4   4   19.19    1.08
  13  -4   4   26.73    1.35
 -10  -3   4   42.12    1.80
  -9  -3   4   10.93    0.86
  -8  -3   4   12.83    0.88
  -8  -3   4   11.56    0.81
  -7  -3   4   31.91    1.26
  -7  -3   4   31.20    1.32
  -6  -3   4    6.29    0.61
  -6  -3   4    6.54    0.58
  -5  -3   4   66.48    2.06
  -5  -3   4   66.50    2.05
  -4  -3   4   81.41    2.35
  -4  -3   4   82.77    2.41
  -4  -3   4   84.07    2.41
  -3  -3   4    0.10    0.17
  -3  -3   4    0.16    0.13
  -3  -3   4    0.48    0.16
  -2  -3   4  149.13    3.90
  -2  -3   4  149.93    3.98
  -1  -3   4  163.37    4.24
  -1  -3   4  160.15    4.19
   0  -3   4   43.36    1.35
   0  -3   4   46.52    1.39
  -1   3  -4  169.22    4.36
   1  -3   4  169.93    4.36
   1  -3   4  164.26    4.35
  -2   3  -4   45.52    1.27
  -2   3  -4   45.59    1.36
   2  -3   4   43.50    1.35
   2  -3   4   45.10    1.38
  -3   3  -4   29.05    0.85
  -3   3  -4   29.41    0.96
   3  -3   4   28.00    0.99
  -4   3  -4  111.93    2.97
  -4   3  -4  110.14    2.87
   4  -3   4  111.89    3.05
  -5   3  -4   62.32    1.75
  -5   3  -4   59.03    1.67
   5  -3   4   60.13    1.83
  -6   3  -4    9.84    0.47
  -6   3  -4   10.24    0.52
   6  -3   4   10.36    0.58
  -7   3  -4   54.11    1.64
  -7   3  -4   54.06    1.67
   7  -3   4   57.46    1.79
  -8   3  -4    5.94    0.45
  -8   3  -4    5.89    0.48
   8  -3   4    6.96    0.53
  -9   3  -4   53.08    1.71
   9  -3   4   52.93    1.80
 -10   3  -4   17.17    0.86
  10  -3   4   16.87    0.92
 -11   3  -4    0.73    0.26
  11  -3   4    0.01    0.22
 -12   3  -4   30.39    1.31
  12  -3   4   29.33    1.34
 -13   3  -4   22.42    1.42
  13  -3   4   22.70    1.21
 -10  -2   4   22.19    1.23
  -9  -2   4    2.83    0.45
  -8  -2   4   10.41    0.71
  -8  -2   4    9.79    0.78
  -7  -2   4   74.01    2.33
  -7  -2   4   72.45    2.24
  -6  -2   4   23.86    1.00
  -6  -2   4   26.16    1.08
  -5  -2   4   55.04    1.72
  -5  -2   4   54.55    1.73
  -5  -2   4   55.55    1.76
  -4  -2   4   88.22    2.50
  -4  -2   4   86.69    2.48
  -4  -2   4   91.04    2.52
  -3  -2   4   10.04    0.50
  -3  -2   4   10.33    0.56
  -3  -2   4   11.06    0.53
  -2  -2   4   64.79    1.83
  -2  -2   4   66.58    1.88
  -2  -2   4   65.10    1.84
  -1  -2   4   33.38    1.01
  -1  -2   4   35.22    1.06
  -1  -2   4   34.19    1.08
   0  -2   4  218.89    5.56
   0  -2   4  218.10    5.54
  -1   2  -4  207.65    5.24
   1  -2   4  204.54    5.24
   1  -2   4  206.08    5.25
  -2   2  -4   63.30    1.67
  -2   2  -4   65.38    1.81
   2  -2   4   66.41    1.82
   2  -2   4   65.91    1.84
  -3   2  -4   69.75    1.82
  -3   2  -4   70.95    1.95
   3  -2   4   72.92    2.00
  -4   2  -4   88.74    2.34
  -4   2  -4   84.63    2.23
   4  -2   4   85.82    2.39
  -5   2  -4   -0.06    0.10
  -5   2  -4    0.17    0.09
   5  -2   4    0.22    0.13
  -6   2  -4   92.73    2.50
  -6   2  -4   93.01    2.55
   6  -2   4   92.02    2.61
  -7   2  -4   35.38    1.18
  -7   2  -4   34.20    1.14
   7  -2   4   34.38    1.22
  -8   2  -4    0.04    0.13
  -8   2  -4    0.52    0.19
   8  -2   4    0.24    0.17
  -9   2  -4   55.33    1.76
  -9   2  -4   52.79    1.73
   9  -2   4   53.90    1.79
 -10   2  -4   30.77    1.19
  10  -2   4   29.36    1.22
 -11   2  -4   21.30    1.03
  11  -2   4   21.58    1.03
 -12   2  -4   38.34    1.52
  12  -2   4   36.83    1.50
 -13   2  -4    8.87    0.78
 -14   2  -4    2.88    0.48
 -11  -1   4   29.18    1.70
 -10  -1   4   34.98    1.54
  -9  -1   4    0.98    0.34
  -8  -1   4   22.24    1.11
  -7  -1   4   31.76    1.17
  -7  -1   4   31.95    1.28
   6   1  -4   23.35    0.94
  -6  -1   4   22.32    0.91
  -6  -1   4   22.55    0.99
  -5  -1   4  138.53    3.72
  -5  -1   4  137.99    3.64
  -5  -1   4  131.73    3.70
  -4  -1   4   69.60    2.02
  -4  -1   4   69.33    2.03
  -4  -1   4   68.95    1.98
  -3  -1   4   54.75    1.62
  -3  -1   4   55.22    1.63
  -3  -1   4   57.10    1.65
  -2  -1   4  147.49    3.88
  -2  -1   4  151.55    3.88
  -2  -1   4  149.99    3.86
  -1  -1   4  245.31    6.13
  -1  -1   4  250.50    6.20
  -1  -1   4  241.83    6.18
   0   1  -4  178.71    4.42
   0  -1   4  175.91    4.42
   0  -1   4  169.63    4.31
   0  -1   4  169.23    4.41
  -1   1  -4  149.54    3.83
   1  -1   4  148.57    3.85
   1  -1   4  151.66    3.84
  -2   1  -4    0.25    0.10
   2  -1   4    0.32    0.10
  -3   1  -4  176.69    4.31
  -3   1  -4  173.70    4.44
   3  -1   4  173.54    4.48
  -4   1  -4  170.71    4.23
  -4   1  -4  168.44    4.32
   4  -1   4  167.04    4.35
  -5   1  -4   28.22    0.87
  -5   1  -4   28.61    0.93
   5  -1   4   27.67    0.95
  -6   1  -4  130.65    3.43
  -6   1  -4  126.46    3.37
   6  -1   4  128.55    3.45
  -7   1  -4  111.51    3.14
  -7   1  -4  116.07    3.11
   7  -1   4  118.60    3.17
  -8   1  -4   18.02    0.77
  -8   1  -4   16.60    0.78
   8  -1   4   19.00    0.80
  -9   1  -4   57.15    1.83
  -9   1  -4   60.13    1.86
   9  -1   4   56.58    1.84
 -10   1  -4    5.97    0.56
 -10   1  -4    4.60    0.50
  10  -1   4    5.45    0.55
 -11   1  -4   18.32    0.95
  11  -1   4   18.34    0.92
 -12   1  -4   50.40    1.84
 -13   1  -4    2.70    0.43
 -14   1  -4    8.93    0.83
 -11   0   4   24.16    1.32
 -10   0   4   16.14    1.03
  -9   0   4    0.07    0.26
  -8   0   4   59.41    2.03
   7   0  -4   -0.07    0.19
  -7   0   4    0.27    0.21
  -7   0   4    0.40    0.22
   6   0  -4   48.48    1.60
  -6   0   4   50.34    1.52
  -6   0   4   49.32    1.65
   5   0  -4   60.21    1.82
  -5   0   4   59.59    1.85
  -5   0   4   60.48    1.74
  -4   0   4   12.50    0.54
  -4   0   4   13.65    0.64
  -4   0   4   13.02    0.61
  -3   0   4   87.21    2.41
  -3   0   4   94.34    2.51
  -3   0   4   90.60    2.48
  -2   0   4  389.99    9.29
  -2   0   4  367.13    9.24
  -2   0   4  358.20    9.21
   1   0  -4    5.01    0.29
  -1   0   4    5.34    0.31
  -1   0   4    5.27    0.28
  -1   0   4    5.53    0.28
   0   0  -4  196.79    4.96
   0   0   4  199.45    4.97
   0   0   4  193.10    4.98
   0   0   4  201.54    4.90
  -1   0  -4  149.85    3.83
   1   0   4  152.91    3.86
  -2   0  -4    3.80    0.23
   2   0   4    3.98    0.25
  -3   0  -4  175.38    4.22
  -3   0  -4  167.42    4.32
   3   0   4  167.90    4.34
  -4   0  -4  135.53    3.44
  -4   0  -4  131.44    3.36
   4   0   4  130.28    3.43
  -5   0  -4  125.18    3.27
  -5   0  -4  127.89    3.34
   5   0   4  126.99    3.32
  -6   0  -4  217.33    5.52
  -6   0  -4  210.96    5.47
   6   0   4  215.60    5.49
  -7   0  -4   44.23    1.42
  -7   0  -4   41.47    1.36
   7   0   4   46.37    1.39
  -8   0  -4   36.42    1.26
  -8   0  -4   34.74    1.22
   8   0   4   36.50    1.22
  -9   0  -4  101.42    2.96
  -9   0  -4  107.32    3.00
   9   0   4  103.64    2.93
 -10   0  -4    8.51    0.62
 -10   0  -4    8.11    0.62
  10   0   4    8.18    0.57
 -11   0  -4   51.58    1.82
 -12   0  -4   28.62    1.29
 -13   0  -4    2.05    0.40
 -14   0  -4   19.42    1.16
 -11   1   4   34.11    1.57
 -10   1   4   11.39    0.87
  -9   1   4   14.48    0.93
   8  -1  -4   62.44    2.04
  -8   1   4   63.93    2.12
   7  -1  -4   -0.03    0.21
  -7   1   4    0.42    0.22
   6  -1  -4   96.31    2.70
  -6   1   4   91.58    2.72
  -6   1   4   91.59    2.52
   5  -1  -4   78.09    2.34
  -5   1   4   83.64    2.38
  -5   1   4   81.52    2.20
   4  -1  -4    5.47    0.40
  -4   1   4    5.90    0.41
  -4   1   4    6.15    0.34
  -3   1   4  128.81    3.36
  -3   1   4  130.10    3.48
  -3   1   4  136.73    3.53
  -2   1   4  306.36    7.73
  -2   1   4  316.78    7.78
  -2   1   4  305.44    7.66
   1  -1  -4   26.61    0.77
  -1   1   4   25.58    0.83
  -1   1   4   26.25    0.78
  -1   1   4   25.39    0.79
   0  -1  -4  469.74   11.66
   0   1   4  478.36   11.71
   0   1   4  476.68   11.63
  -1  -1  -4   49.11    1.34
   1   1   4   49.00    1.27
   1   1   4   49.25    1.35
  -2  -1  -4    2.21    0.19
   2   1   4    2.78    0.20
  -3  -1  -4  253.51    6.24
   3   1   4  244.41    6.21
  -4  -1  -4  121.31    3.09
  -4  -1  -4  116.10    3.02
   4   1   4  115.14    3.03
  -5  -1  -4   12.37    0.51
  -5  -1  -4   13.22    0.57
   5   1   4   12.39    0.49
  -6  -1  -4   75.22    2.15
  -6  -1  -4   76.24    2.20
   6   1   4   79.93    2.12
  -7  -1  -4   15.61    0.71
  -7  -1  -4   15.82    0.69
   7   1   4   17.22    0.65
  -8  -1  -4  134.67    3.64
  -8  -1  -4  130.91    3.61
   8   1   4  131.29    3.51
  -9  -1  -4   35.33    1.31
  -9  -1  -4   34.75    1.32
   9   1   4   36.47    1.22
 -10  -1  -4    5.81    0.56
 -10  -1  -4    5.81    0.56
 -11  -1  -4   60.57    1.99
 -11  -1  -4   56.42    1.99
 -12  -1  -4   25.95    1.24
 -13  -1  -4    2.99    0.48
 -14  -1  -4   20.16    1.33
 -11   2   4   20.00    1.17
 -10   2   4    2.79    0.47
   9  -2  -4   56.40    1.96
  -9   2   4   56.13    2.01
   8  -2  -4   25.64    1.10
  -8   2   4   23.11    1.10
   7  -2  -4    2.62    0.36
  -7   2   4    3.15    0.40
   6  -2  -4   77.62    2.27
  -6   2   4   71.95    2.26
   5  -2  -4   42.99    1.47
  -5   2   4   47.91    1.50
  -5   2   4   45.10    1.28
   4  -2  -4    1.06    0.19
  -4   2   4    1.18    0.20
   3  -2  -4  364.41    8.78
   3  -2  -4  339.30    8.95
  -3   2   4  353.59    8.78
  -3   2   4  368.76    8.95
   2  -2  -4  162.64    4.10
  -2   2   4  168.30    4.23
  -2   2   4  160.90    4.27
  -2   2   4  165.44    4.11
   1  -2  -4   26.59    0.75
  -1   2   4   26.71    0.82
  -1   2   4   25.76    0.86
   0  -2  -4  128.20    3.25
   0   2   4  129.23    3.29
   0   2   4  129.24    3.32
  -1  -2  -4   49.93    1.36
   1   2   4   52.21    1.42
   1   2   4   48.86    1.38
  -2  -2  -4  159.90    3.98
   2   2   4  153.38    3.94
  -3  -2  -4  262.17    6.49
   3   2   4  255.21    6.42
   4   2   4   30.85    0.90
  -5  -2  -4  243.41    6.22
  -5  -2  -4  254.89    6.28
   5   2   4  239.82    6.13
  -6  -2  -4  159.62    4.27
  -6  -2  -4  169.22    4.32
   6   2   4  161.05    4.15
  -7  -2  -4    0.20    0.14
  -7  -2  -4    0.30    0.15
   7   2   4    0.51    0.12
  -8  -2  -4   86.70    2.51
  -8  -2  -4   83.61    2.47
   8   2   4   83.45    2.31
  -9  -2  -4   39.74    1.45
  -9  -2  -4   40.53    1.45
 -10  -2  -4   21.36    1.02
 -10  -2  -4   21.96    1.01
 -11  -2  -4   59.54    2.08
 -11  -2  -4   64.53    2.15
 -12  -2  -4   17.66    1.04
 -12  -2  -4   17.26    1.16
 -13  -2  -4   11.68    0.90
 -11   3   4   20.42    1.20
  10  -3  -4   -0.13    0.22
 -10   3   4   -0.29    0.22
   9  -3  -4   57.80    2.00
  -9   3   4   55.94    2.03
   8  -3  -4   13.32    0.80
  -8   3   4   13.46    0.83
   7  -3  -4   39.27    1.47
  -7   3   4   41.86    1.50
   6  -3  -4  143.86    3.93
  -6   3   4  140.67    3.92
   5  -3  -4   76.38    2.28
  -5   3   4   77.78    2.28
   4  -3  -4   19.55    0.84
   4  -3  -4   20.77    0.62
  -4   3   4   22.71    0.86
  -4   3   4   22.39    0.62
   3  -3  -4  174.67    4.20
   3  -3  -4  161.61    4.43
  -3   3   4  172.58    4.44
   2  -3  -4   36.40    1.17
   2  -3  -4   37.66    0.99
  -2   3   4   37.83    1.16
   1  -3  -4   22.29    0.64
  -1   3   4   21.89    0.78
  -1   3   4   22.68    0.77
   0  -3  -4   61.68    1.68
   0   3   4   67.87    1.78
   0   3   4   63.51    1.81
  -1  -3  -4    0.21    0.09
   1   3   4    0.22    0.13
   1   3   4    0.05    0.09
  -2  -3  -4  249.28    6.28
   2   3   4  252.71    6.23
  -3  -3  -4  150.47    3.88
   3   3   4  150.13    3.77
  -4  -3  -4    5.98    0.38
   4   3   4    6.26    0.27
  -5  -3  -4   95.13    2.63
   5   3   4   94.87    2.43
  -6  -3  -4   12.13    0.63
  -6  -3  -4   12.86    0.61
   6   3   4   12.18    0.44
  -7  -3  -4   65.05    1.95
  -7  -3  -4   64.68    1.93
   7   3   4   60.54    1.70
  -8  -3  -4  126.28    3.56
  -8  -3  -4  128.22    3.56
  -9  -3  -4   41.85    1.52
  -9  -3  -4   41.85    1.51
 -10  -3  -4   20.09    1.01
 -10  -3  -4   18.81    0.98
 -11  -3  -4   86.97    2.75
 -11  -3  -4   88.03    2.79
 -12  -3  -4    3.30    0.48
 -12  -3  -4    2.97    0.48
 -13  -3  -4   18.76    1.14
  11  -4  -4   21.29    1.20
 -11   4   4   22.07    1.23
  10  -4  -4    4.36    0.56
 -10   4   4    4.17    0.55
   9  -4  -4   32.17    1.39
  -9   4   4   31.54    1.39
   8  -4  -4   16.39    0.95
  -8   4   4   17.30    0.92
   7  -4  -4   15.47    0.87
  -7   4   4   15.81    0.84
   6  -4  -4   77.30    2.34
  -6   4   4   74.51    2.32
  -5   4   4    2.55    0.32
   4  -4  -4  271.12    7.16
  -4   4   4  286.62    7.18
   3  -4  -4  154.85    4.26
  -3   4   4  167.96    4.29
   2  -4  -4   63.61    1.62
   2  -4  -4   62.30    1.85
  -2   4   4   65.55    1.88
   1  -4  -4   23.53    0.68
  -1   4   4   23.31    0.85
   0  -4  -4   86.21    2.24
   0   4   4   86.87    2.45
  -1  -4  -4    0.08    0.09
   1   4   4    0.25    0.15
   1   4   4    0.20    0.10
  -2  -4  -4  277.35    7.07
   2   4   4  287.29    7.01
  -3  -4  -4    0.49    0.15
   3   4   4    0.70    0.09
  -4  -4  -4  131.95    3.58
   4   4   4  137.36    3.37
  -5  -4  -4  188.35    4.93
   5   4   4  188.34    4.66
  -6  -4  -4   42.77    1.47
   6   4   4   47.60    1.33
  -7  -4  -4   15.76    0.76
  -7  -4  -4   15.44    0.76
  -8  -4  -4   70.33    2.21
  -8  -4  -4   72.20    2.23
  -9  -4  -4   -0.01    0.24
  -9  -4  -4   -0.03    0.19
 -10  -4  -4   70.89    2.34
 -10  -4  -4   70.84    2.30
 -11  -4  -4   57.62    2.07
 -11  -4  -4   56.90    2.03
 -12  -4  -4    1.44    0.36
 -12  -4  -4    1.92    0.42
 -13  -4  -4   16.19    1.11
 -13  -4  -4   16.98    1.09
  11  -5  -4    0.12    0.27
 -11   5   4    0.01    0.28
  10  -5  -4   21.53    1.19
 -10   5   4   22.14    1.19
   9  -5  -4   47.87    1.80
  -9   5   4   45.93    1.80
   8  -5  -4   -0.04    0.25
  -8   5   4   -0.04    0.20
   7  -5  -4   29.81    1.29
  -7   5   4   31.76    1.29
   6  -5  -4   54.13    1.83
  -6   5   4   54.81    1.84
   5  -5  -4    1.89    0.29
  -5   5   4    2.12    0.30
   4  -5  -4  273.50    7.18
  -4   5   4  283.40    7.23
  -3   5   4   11.80    0.64
   2  -5  -4    0.78    0.16
   2  -5  -4    1.09    0.11
  -2   5   4    0.65    0.17
   1  -5  -4  193.11    5.11
   1  -5  -4  198.20    4.95
  -1   5   4  205.19    5.27
   0  -5  -4   69.90    1.89
   0  -5  -4   69.47    1.97
   0   5   4   74.23    2.18
  -1  -5  -4    0.95    0.14
  -1  -5  -4    1.08    0.14
   1   5   4    1.22    0.25
  -2  -5  -4  338.66    8.50
  -2  -5  -4  348.46    8.60
  -3  -5  -4    5.16    0.38
  -4  -5  -4  165.73    4.36
  -5  -5  -4  121.74    3.34
  -6  -5  -4    5.55    0.47
  -7  -5  -4   69.83    2.16
  -8  -5  -4  118.63    3.41
  -9  -5  -4    1.31    0.32
 -10  -5  -4   86.98    2.74
 -11  -5  -4   16.11    0.98
 -12  -5  -4    2.28    0.41
 -13  -5  -4   29.78    1.48
  11  -6  -4    0.13    0.28
 -11   6   4   -0.17    0.26
  10  -6  -4   16.77    1.08
 -10   6   4   17.05    1.06
   9  -6  -4   17.99    1.05
  -9   6   4   19.34    1.09
   8  -6  -4    1.63    0.38
  -8   6   4    1.40    0.35
   7  -6  -4  126.61    3.70
  -7   6   4  128.41    3.75
   6  -6  -4  123.94    3.55
  -6   6   4  123.14    3.59
   5  -6  -4   23.00    1.02
  -5   6   4   23.20    1.04
   4  -6  -4   86.65    2.60
  -4   6   4   90.42    2.68
   3  -6  -4   60.00    1.89
  -3   6   4   63.91    2.01
   2  -6  -4   98.71    2.75
   2  -6  -4   96.76    2.48
  -2   6   4   99.75    2.88
   1  -6  -4  142.32    3.68
   1  -6  -4  141.04    3.85
  -1   6   4  154.74    4.09
   0  -6  -4   75.05    2.06
   0  -6  -4   76.07    2.14
   0   6   4   80.32    2.42
  -1  -6  -4   45.06    1.31
  -1  -6  -4   42.63    1.30
   1   6   4   45.92    1.60
  -2  -6  -4  111.13    2.89
  -2  -6  -4  111.84    2.99
  -3  -6  -4    5.60    0.26
  -3  -6  -4    5.27    0.41
  -4  -6  -4   90.09    2.55
  -5  -6  -4   28.40    1.09
  -6  -6  -4    2.70    0.32
  -8  -6  -4   49.10    1.74
  -9  -6  -4    4.73    0.51
 -10  -6  -4   56.57    2.02
 -11  -6  -4   13.66    0.92
 -12  -6  -4    1.58    0.40
  11  -7  -4    0.05    0.32
  10  -7  -4   33.89    1.58
 -10   7   4   36.20    1.64
   9  -7  -4    4.55    0.57
  -9   7   4    5.17    0.61
   8  -7  -4    4.32    0.56
  -8   7   4    4.86    0.56
   7  -7  -4   75.95    2.48
  -7   7   4   76.27    2.54
   6  -7  -4   45.21    1.62
  -6   7   4   43.11    1.67
   5  -7  -4   41.95    1.54
  -5   7   4   42.57    1.60
   4  -7  -4  155.93    4.37
  -4   7   4  165.00    4.54
   3  -7  -4   51.13    1.67
  -3   7   4   51.57    1.80
   2  -7  -4   54.70    1.50
   2  -7  -4   54.37    1.71
  -2   7   4   55.03    1.88
   1  -7  -4   55.65    1.55
   1  -7  -4   58.12    1.72
  -1   7   4   55.28    1.93
   0  -7  -4   17.82    0.65
   0  -7  -4   17.49    0.70
   0   7   4   18.14    0.95
  -1  -7  -4  120.71    3.21
  -1  -7  -4  122.80    3.20
   1   7   4  119.56    3.56
  -2  -7  -4   63.65    1.73
  -2  -7  -4   61.71    1.83
  -3  -7  -4    3.25    0.32
  -4  -7  -4  134.26    3.67
  -5  -7  -4   11.45    0.69
  -6  -7  -4   12.78    0.75
  -7  -7  -4   56.69    1.92
  -8  -7  -4    7.45    0.66
  -9  -7  -4   44.99    1.71
 -10  -7  -4   38.73    1.61
 -11  -7  -4    3.05    0.48
 -12  -7  -4    8.66    1.27
  10  -8  -4   22.04    1.25
 -10   8   4   22.62    1.31
   9  -8  -4    2.92    0.50
  -9   8   4    2.77    0.49
   8  -8  -4   17.35    1.06
  -8   8   4   17.84    1.11
   7  -8  -4   84.65    2.73
  -7   8   4   86.60    2.86
   6  -8  -4    0.41    0.27
  -6   8   4    0.24    0.28
   5  -8  -4    1.98    0.37
  -5   8   4    1.98    0.38
   4  -8  -4   94.25    2.81
  -4   8   4   94.93    3.00
   3  -8  -4    1.57    0.27
  -3   8   4    2.25    0.38
   2  -8  -4   86.27    2.48
  -2   8   4   82.05    2.69
   1  -8  -4   28.66    0.93
   1  -8  -4   28.81    1.06
  -1   8   4   30.16    1.32
   0  -8  -4   12.23    0.60
   0  -8  -4   12.85    0.56
   0   8   4   13.11    0.86
  -1  -8  -4   53.51    1.59
  -1  -8  -4   53.15    1.62
   1   8   4   55.75    1.98
  -2  -8  -4   20.76    0.85
  -3  -8  -4   29.92    1.11
  -4  -8  -4  126.49    3.53
  -5  -8  -4    1.19    0.27
  -6  -8  -4   50.77    1.76
  -7  -8  -4   56.36    1.96
  -8  -8  -4    0.43    0.26
  -9  -8  -4   40.56    1.67
 -10  -8  -4   41.74    1.75
 -11  -8  -4    0.41    0.33
   9  -9  -4   -0.24    0.27
  -9   9   4   -0.24    0.29
   8  -9  -4   17.20    1.09
  -8   9   4   19.39    1.19
   7  -9  -4   24.89    1.23
  -7   9   4   24.18    1.30
   6  -9  -4    1.00    0.33
  -6   9   4    0.96    0.34
   5  -9  -4  111.42    3.29
  -5   9   4  109.22    3.50
   4  -9  -4   98.24    2.88
  -4   9   4   91.59    3.07
   3  -9  -4   -0.36    0.19
  -3   9   4    0.09    0.23
   2  -9  -4   53.62    1.78
  -2   9   4   56.44    2.07
   1  -9  -4   23.36    0.94
  -1   9   4   22.91    1.19
   0  -9  -4   32.18    1.14
   0  -9  -4   31.79    1.10
   0   9   4   35.69    1.51
  -1  -9  -4   44.90    1.46
   1   9   4   46.52    1.82
   2   9   4    1.25    0.35
  -3  -9  -4   80.86    2.40
  -4  -9  -4  102.61    2.99
  -5  -9  -4    0.11    0.21
  -6  -9  -4   59.94    2.05
  -7  -9  -4   54.79    1.95
  -8  -9  -4    1.77    0.40
  -9  -9  -4   20.33    1.20
 -10  -9  -4   12.70    1.01
   9 -10  -4    1.42    0.43
  -9  10   4    1.40    0.47
   8 -10  -4   38.13    1.66
  -8  10   4   37.34    1.78
   7 -10  -4    3.30    0.52
  -7  10   4    4.10    0.62
   6 -10  -4    4.24    0.55
  -6  10   4    3.93    0.60
   5 -10  -4   76.90    2.48
  -5  10   4   72.40    2.67
   4 -10  -4   21.20    1.04
  -4  10   4   21.28    1.22
   3 -10  -4   15.18    0.89
  -3  10   4   16.11    1.06
   2 -10  -4   82.67    2.50
  -2  10   4   82.55    2.82
  -1  10   4    4.62    0.63
   0 -10  -4   25.60    1.00
   0  10   4   28.76    1.41
  -1 -10  -4   88.46    2.53
   1  10   4   85.02    2.92
  -3 -10  -4   42.27    1.52
  -4 -10  -4   51.80    1.79
  -5 -10  -4    4.30    0.48
  -6 -10  -4   57.54    2.02
  -7 -10  -4   32.71    1.45
  -8 -10  -4    3.79    0.54
  -9 -10  -4   42.93    1.83
   8 -11  -4   28.46    1.47
  -8  11   4   28.88    1.61
   7 -11  -4    9.77    0.87
  -7  11   4    9.35    0.94
   6 -11  -4   17.92    1.11
  -6  11   4   16.40    1.17
   5 -11  -4   46.10    1.80
  -5  11   4   47.55    2.06
   4 -11  -4    1.83    0.39
  -4  11   4    1.56    0.43
   3 -11  -4   11.00    0.82
  -3  11   4   11.45    0.93
   2 -11  -4   47.36    1.69
  -2  11   4   47.85    2.00
  -1  11   4    0.87    0.39
   0  11   4   36.83    1.69
  -1 -11  -4   32.09    1.26
   1  11   4   37.70    1.70
  -2 -11  -4    3.88    0.44
   2  11   4    5.66    0.70
  -3 -11  -4   17.23    0.93
   3  11   4   18.73    1.27
  -4 -11  -4    9.19    0.71
  -5 -11  -4    5.61    0.58
  -6 -11  -4   42.51    1.69
  -7 -11  -4    3.00    0.47
  -8 -11  -4   13.72    1.06
   7 -12  -4    0.44    0.34
  -7  12   4    0.41    0.38
   6 -12  -4   19.35    1.17
  -6  12   4   17.94    1.30
   5 -12  -4   28.87    1.36
  -5  12   4   25.45    1.53
   4 -12  -4    0.36    0.29
  -4  12   4    0.65    0.38
   3 -12  -4   31.12    1.36
  -3  12   4   31.92    1.61
  -2  12   4   21.30    1.33
  -1  12   4    0.09    0.35
   0  12   4   46.27    2.03
  -2 -12  -4   28.85    1.25
   2  12   4   33.43    1.71
  -3 -12  -4   54.52    1.93
   3  12   4   57.66    2.36
  -4 -12  -4    4.45    0.52
  -5 -12  -4    9.08    0.85
  -6 -12  -4   31.80    1.47
  -7 -12  -4   -0.70    0.36
   6 -13  -4   26.33    1.38
  -6  13   4   23.12    2.07
   5 -13  -4   10.59    0.89
  -5  13   4   10.46    1.08
   4 -13  -4    1.78    0.41
  -4  13   4    2.06    0.51
  -3  13   4   24.53    1.45
  -2  13   4    9.68    0.99
  -1  13   4    6.26    0.78
   0  13   4   37.64    1.85
   1  13   4    0.46    0.40
   2  13   4   13.45    1.19
  -3 -13  -4   23.27    1.19
   3  13   4   25.65    1.58
  -4 -13  -4   -0.07    0.28
   4  13   4    0.48    0.47
  -5 -13  -4   20.76    1.17
  -3  14   4   18.55    1.34
  -2  14   4    1.04    0.46
  -1  14   4   20.01    1.36
   0  14   4   13.86    1.19
   1  14   4    0.73    0.46
   2  14   4   32.88    1.96
  -2  11  -5    1.38    0.43
   2 -11   5    1.32    0.43
   3 -11   5   19.90    1.22
  -1 -10   5   -0.20    0.34
   0  10  -5   22.22    1.23
   0 -10   5   26.33    1.30
  -1  10  -5   11.26    0.89
   1 -10   5   12.08    0.94
  -2  10  -5    0.54    0.30
   2 -10   5    0.89    0.36
  -3  10  -5   25.29    1.26
   3 -10   5   26.26    1.30
   4 -10   5    7.70    0.78
   4 -10   5    5.31    0.64
   5 -10   5   11.23    0.91
   6 -10   5   34.68    1.56
  -3  -9   5   23.31    1.33
  -2  -9   5   12.39    0.92
  -1  -9   5    4.90    0.57
   0  -9   5   31.42    1.39
  -1   9  -5    7.10    0.72
   1  -9   5    8.37    0.78
  -2   9  -5   11.00    0.81
   2  -9   5    9.21    0.80
  -3   9  -5   26.43    1.25
   3  -9   5   29.79    1.32
   3  -9   5   29.56    1.33
  -4   9  -5    4.65    0.53
   4  -9   5    7.02    0.71
   4  -9   5    5.25    0.56
   5  -9   5   19.42    1.09
   6  -9   5   24.52    1.25
   7  -9   5    0.63    0.31
   8  -9   5    6.41    0.67
  -4  -8   5   10.43    0.87
  -3  -8   5   36.14    1.54
  -2  -8   5   12.60    0.89
  -1  -8   5    9.61    0.77
   0  -8   5   30.23    1.31
  -1   8  -5    0.07    0.22
   1  -8   5   -0.03    0.23
   1  -8   5   -0.25    0.33
  -2   8  -5   43.84    1.66
   2  -8   5   45.24    1.66
   2  -8   5   45.91    1.69
  -3   8  -5   48.02    1.77
   3  -8   5   52.17    1.81
   3  -8   5   49.60    1.79
  -4   8  -5    0.24    0.25
   4  -8   5    0.50    0.28
   4  -8   5    0.12    0.26
  -5   8  -5   25.79    1.18
   5  -8   5   28.69    1.28
   6  -8   5   16.09    0.96
   7  -8   5    0.00    0.24
   8  -8   5   39.78    1.66
   9  -8   5    4.86    0.58
  -6  -7   5   32.99    1.52
  -5  -7   5    2.26    0.45
  -4  -7   5   25.50    1.24
  -3  -7   5   42.08    1.63
  -2  -7   5    2.97    0.43
  -1  -7   5   20.41    1.02
   0  -7   5   36.63    1.42
   0  -7   5   35.89    1.48
  -1   7  -5    0.24    0.22
   1  -7   5   -0.12    0.22
   1  -7   5   -0.06    0.20
  -2   7  -5   22.48    1.05
   2  -7   5   23.83    1.08
   2  -7   5   21.87    1.03
  -3   7  -5   14.59    0.82
   3  -7   5   15.67    0.85
   3  -7   5   14.93    0.83
  -4   7  -5   19.17    0.97
   4  -7   5   19.65    0.98
   4  -7   5   20.72    1.01
  -5   7  -5   37.74    1.40
   5  -7   5   36.59    1.46
  -6   7  -5   28.18    1.17
   6  -7   5   28.09    1.24
   7  -7   5    7.01    0.71
   8  -7   5   26.53    1.28
   9  -7   5    3.14    0.45
  10  -7   5   22.49    1.22
  -7  -6   5   21.95    1.22
  -6  -6   5   33.33    1.45
  -5  -6   5   -0.19    0.28
  -4  -6   5   47.81    1.77
  -3  -6   5   46.63    1.69
  -2  -6   5    0.62    0.26
  -1  -6   5   43.44    1.49
  -1  -6   5   40.32    1.50
   0  -6   5   29.15    1.18
   0  -6   5   28.35    1.11
  -1   6  -5   22.86    1.00
   1  -6   5   23.19    0.99
   1  -6   5   22.90    1.01
  -2   6  -5   85.09    2.53
   2  -6   5   82.25    2.51
   2  -6   5   85.09    2.52
  -3   6  -5   28.98    1.17
   3  -6   5   30.44    1.18
   3  -6   5   31.08    1.20
  -4   6  -5   14.87    0.78
   4  -6   5   15.34    0.82
  -5   6  -5   10.56    0.64
   5  -6   5   10.03    0.72
  -6   6  -5    7.53    0.58
   6  -6   5    7.67    0.64
  -7   6  -5   54.76    1.93
   7  -6   5   51.84    1.88
   8  -6   5   28.82    1.30
   9  -6   5    3.38    0.47
  10  -6   5   21.42    1.18
  11  -6   5   14.89    1.02
  -8  -5   5    0.23    0.34
  -7  -5   5   15.48    1.00
  -6  -5   5   26.24    1.24
  -5  -5   5    2.89    0.42
  -4  -5   5   55.14    1.89
  -3  -5   5   24.88    1.09
  -2  -5   5   14.35    0.78
  -2  -5   5   15.31    0.74
  -1  -5   5   69.49    2.13
  -1  -5   5   67.06    2.04
   0  -5   5   33.22    1.19
   0  -5   5   32.82    1.23
  -1   5  -5   20.60    0.90
   1  -5   5   21.35    0.89
   1  -5   5   19.01    0.89
  -2   5  -5   62.14    1.96
   2  -5   5   66.21    1.98
   2  -5   5   62.58    1.96
  -3   5  -5    0.51    0.20
   3  -5   5    0.96    0.23
   3  -5   5    1.20    0.25
  -4   5  -5   71.77    2.14
   4  -5   5   71.51    2.20
  -5   5  -5   71.79    2.14
   5  -5   5   70.72    2.22
  -6   5  -5    0.04    0.16
   6  -5   5    0.16    0.20
  -7   5  -5   57.40    1.83
   7  -5   5   57.73    1.97
   8  -5   5   41.85    1.60
   9  -5   5    0.82    0.31
  10  -5   5   29.54    1.36
  11  -5   5   10.11    0.83
  12  -5   5    4.38    0.57
  -9  -4   5   16.72    1.09
  -8  -4   5    4.28    0.53
  -8  -4   5    3.45    0.50
  -7  -4   5   26.87    1.26
  -7  -4   5   25.73    1.22
  -6  -4   5   13.48    0.87
  -6  -4   5   14.21    0.84
  -5  -4   5   14.19    0.79
  -5  -4   5   13.53    0.82
  -4  -4   5  120.89    3.44
  -3  -4   5    6.28    0.55
  -3  -4   5    6.88    0.48
  -2  -4   5   19.33    0.79
  -2  -4   5   18.44    0.85
  -1  -4   5   24.00    0.96
  -1  -4   5   23.89    0.91
   0  -4   5    0.37    0.19
   0  -4   5    0.09    0.13
  -1   4  -5  117.37    3.28
   1  -4   5  118.03    3.28
   1  -4   5  121.72    3.27
  -2   4  -5  161.08    4.26
   2  -4   5  160.48    4.27
   2  -4   5  158.48    4.26
  -3   4  -5    0.63    0.19
   3  -4   5    1.37    0.23
   3  -4   5    0.61    0.20
  -4   4  -5   37.61    1.24
   4  -4   5   35.82    1.29
  -5   4  -5   25.73    0.97
   5  -4   5   26.39    1.04
  -6   4  -5   11.70    0.61
   6  -4   5   11.32    0.69
  -7   4  -5   46.59    1.54
   7  -4   5   48.35    1.67
  -8   4  -5   28.67    1.12
   8  -4   5   28.95    1.21
   9  -4   5   16.21    0.92
  10  -4   5   37.86    1.55
  11  -4   5   11.06    0.84
  12  -4   5   14.66    0.98
  13  -4   5   17.80    1.15
  -9  -3   5    4.31    0.56
  -8  -3   5    8.52    0.77
  -8  -3   5    8.87    0.80
  -7  -3   5   46.76    1.69
  -7  -3   5   46.02    1.71
  -6  -3   5    9.46    0.69
  -6  -3   5    8.38    0.66
  -5  -3   5  103.47    2.99
  -5  -3   5  102.67    3.00
  -4  -3   5   93.63    2.72
  -4  -3   5   92.14    2.67
  -4  -3   5   94.56    2.68
  -3  -3   5   14.16    0.74
  -3  -3   5   14.19    0.66
  -3  -3   5   14.54    0.68
  -2  -3   5   72.47    2.13
  -2  -3   5   71.83    2.07
  -1  -3   5   43.54    1.35
  -1  -3   5   41.15    1.38
   0  -3   5    6.01    0.43
   0  -3   5    5.44    0.40
  -1   3  -5  223.51    5.79
   1  -3   5  223.07    5.79
   1  -3   5  227.43    5.79
  -2   3  -5  157.85    4.05
  -2   3  -5  164.72    4.22
   2  -3   5  156.01    4.21
   2  -3   5  162.03    4.24
  -3   3  -5   11.41    0.41
  -3   3  -5   12.57    0.59
   3  -3   5   11.89    0.60
  -4   3  -5  118.25    3.16
  -4   3  -5  130.56    3.36
   4  -3   5  125.47    3.41
  -5   3  -5   47.17    1.35
  -5   3  -5   49.52    1.49
   5  -3   5   47.83    1.56
  -6   3  -5   19.51    0.71
  -6   3  -5   19.10    0.78
   6  -3   5   20.58    0.88
  -7   3  -5   39.58    1.30
  -7   3  -5   37.56    1.29
   7  -3   5   36.08    1.36
  -8   3  -5    4.62    0.46
   8  -3   5    3.58    0.39
  -9   3  -5   49.79    1.66
   9  -3   5   47.33    1.70
  10  -3   5   50.85    1.82
  11  -3   5    3.43    0.46
  12  -3   5   26.06    1.26
  13  -3   5   20.36    1.15
 -10  -2   5   39.43    1.72
  -9  -2   5    1.18    0.37
  -8  -2   5   16.96    1.00
  -7  -2   5   33.14    1.29
  -7  -2   5   32.58    1.36
  -6  -2   5    7.85    0.64
  -6  -2   5    7.91    0.63
  -5  -2   5   97.86    2.85
  -5  -2   5   95.32    2.82
  -5  -2   5  100.68    2.83
  -4  -2   5   43.37    1.44
  -4  -2   5   43.55    1.42
  -4  -2   5   42.80    1.43
  -3  -2   5    0.70    0.17
  -3  -2   5    0.68    0.20
  -3  -2   5    0.69    0.18
  -2  -2   5   71.60    2.10
  -2  -2   5   75.33    2.13
  -2  -2   5   75.01    2.06
  -1  -2   5   78.49    2.22
  -1  -2   5   79.20    2.13
  -1  -2   5   81.27    2.25
   0   2  -5    4.04    0.35
   0  -2   5    4.78    0.35
   0  -2   5    4.32    0.36
  -1   2  -5   81.70    2.25
   1  -2   5   80.65    2.25
   1  -2   5   80.31    2.25
  -2   2  -5   23.21    0.83
   2  -2   5   24.75    0.87
   2  -2   5   23.83    0.86
  -3   2  -5   96.57    2.59
   3  -2   5   94.18    2.63
  -4   2  -5  160.53    4.10
  -4   2  -5  169.22    4.29
   4  -2   5  164.17    4.33
  -5   2  -5   21.96    0.69
  -5   2  -5   23.00    0.82
   5  -2   5   20.15    0.85
  -6   2  -5    8.04    0.41
  -6   2  -5    9.47    0.51
   6  -2   5    8.37    0.53
  -7   2  -5   73.89    2.20
  -7   2  -5   73.13    2.11
   7  -2   5   79.72    2.29
  -8   2  -5    0.99    0.21
  -8   2  -5    0.76    0.22
   8  -2   5    1.03    0.24
  -9   2  -5   44.08    1.49
  -9   2  -5   45.36    1.57
   9  -2   5   46.20    1.61
 -10   2  -5   11.92    0.70
  10  -2   5   12.13    0.78
 -11   2  -5   11.12    0.77
  11  -2   5   12.23    0.80
  12  -2   5   41.84    1.64
 -10  -1   5   24.12    1.30
  -9  -1   5    0.60    0.32
  -8  -1   5   27.85    1.28
  -7  -1   5   65.90    2.18
  -7  -1   5   67.31    2.08
   6   1  -5   27.26    1.13
  -6  -1   5   31.18    1.22
  -6  -1   5   30.55    1.14
  -5  -1   5   45.03    1.55
  -5  -1   5   46.66    1.48
  -5  -1   5   44.87    1.53
  -4  -1   5   31.94    1.15
  -4  -1   5   32.69    1.12
  -4  -1   5   31.82    1.13
  -3  -1   5   16.76    0.73
  -3  -1   5   16.84    0.70
  -3  -1   5   16.18    0.69
  -2  -1   5  139.35    3.62
  -2  -1   5  133.52    3.63
  -2  -1   5  139.00    3.58
  -1  -1   5   21.16    0.74
  -1  -1   5   19.85    0.66
  -1  -1   5   19.60    0.74
   0   1  -5   32.10    1.02
   0  -1   5   30.62    0.90
   0  -1   5   32.69    1.02
   0  -1   5   32.80    1.03
  -1   1  -5   66.56    1.89
   1  -1   5   69.40    1.92
   1  -1   5   69.24    1.91
  -2   1  -5    0.08    0.10
   2  -1   5    0.02    0.10
  -3   1  -5   83.45    2.27
   3  -1   5   83.77    2.31
  -4   1  -5  115.12    2.82
  -4   1  -5  109.32    2.96
   4  -1   5  110.02    3.00
  -5   1  -5    0.47    0.11
  -5   1  -5   -0.06    0.11
   5  -1   5    0.10    0.11
  -6   1  -5  101.12    2.73
  -6   1  -5   98.33    2.63
   6  -1   5   96.69    2.74
  -7   1  -5   39.93    1.29
  -7   1  -5   36.49    1.19
   7  -1   5   37.32    1.29
  -8   1  -5    1.90    0.25
  -8   1  -5    1.51    0.26
   8  -1   5    1.57    0.26
  -9   1  -5   89.04    2.63
  -9   1  -5   91.43    2.70
   9  -1   5   93.68    2.70
 -10   1  -5   29.05    1.16
 -10   1  -5   30.50    1.23
  10  -1   5   29.77    1.19
 -11   1  -5   18.22    0.91
  11  -1   5   18.43    0.94
 -12   1  -5   37.23    1.50
 -13   1  -5   13.48    0.91
 -10   0   5   16.63    1.07
  -9   0   5    0.21    0.28
  -8   0   5   23.17    1.14
   7   0  -5    7.37    0.60
  -7   0   5    5.72    0.59
   6   0  -5   57.44    1.85
  -6   0   5   57.32    1.88
  -6   0   5   57.81    1.75
  -5   0   5  104.44    3.06
  -5   0   5  113.25    2.98
  -4   0   5    2.00    0.28
  -4   0   5    1.69    0.24
  -4   0   5    1.58    0.21
  -3   0   5   57.51    1.73
  -3   0   5   56.97    1.67
  -3   0   5   55.99    1.64
  -2   0   5  132.84    3.36
  -2   0   5  120.62    3.27
  -2   0   5  122.31    3.27
   1   0  -5   14.11    0.56
  -1   0   5   13.85    0.51
  -1   0   5   14.16    0.56
  -1   0   5   14.72    0.59
   0   0  -5  299.12    7.64
   0   0   5  301.94    7.55
   0   0   5  314.93    7.69
   0   0   5  310.38    7.66
  -1   0  -5   82.72    2.19
   1   0   5   81.08    2.22
  -2   0  -5    1.03    0.14
   2   0   5    0.81    0.14
  -3   0  -5  254.59    6.45
   3   0   5  258.39    6.47
  -4   0  -5   74.62    2.07
  -4   0  -5   75.56    1.94
   4   0   5   75.25    2.08
  -5   0  -5    2.12    0.23
  -5   0  -5    2.73    0.21
   5   0   5    2.27    0.24
  -6   0  -5  256.86    6.45
  -6   0  -5  264.29    6.54
   6   0   5  245.21    6.50
  -7   0  -5   32.74    1.18
  -7   0  -5   34.45    1.13
   7   0   5   35.43    1.17
  -8   0  -5   22.45    0.89
  -8   0  -5   22.95    0.96
   8   0   5   23.10    0.92
  -9   0  -5   95.12    2.76
  -9   0  -5   88.84    2.67
   9   0   5   95.57    2.70
 -10   0  -5    1.50    0.29
 -10   0  -5    1.15    0.28
  10   0   5    1.57    0.29
 -11   0  -5   10.26    0.77
 -11   0  -5   11.27    0.74
 -12   0  -5   71.51    2.35
 -13   0  -5    1.40    0.36
 -14   0  -5   17.79    1.11
 -10   1   5    7.17    0.79
  -9   1   5   13.20    0.91
   8  -1  -5  117.15    3.39
  -8   1   5  113.07    3.42
   7  -1  -5    0.43    0.24
  -7   1   5    0.42    0.23
   6  -1  -5   35.52    1.32
  -6   1   5   35.45    1.33
   5  -1  -5   33.81    1.25
  -5   1   5   35.99    1.27
  -5   1   5   35.55    1.12
  -4   1   5    3.89    0.38
  -4   1   5    3.24    0.34
  -4   1   5    3.89    0.30
  -3   1   5  137.18    3.57
  -3   1   5  135.20    3.65
  -3   1   5  142.19    3.73
   2  -1  -5   65.16    1.80
  -2   1   5   68.06    1.93
  -2   1   5   67.14    1.81
  -2   1   5   65.80    1.85
   1  -1  -5   34.31    1.01
  -1   1   5   34.15    1.02
  -1   1   5   34.85    1.02
  -1   1   5   33.64    1.09
   0  -1  -5  383.80    9.61
   0   1   5  386.93    9.67
   0   1   5  395.81    9.57
  -1  -1  -5   61.85    1.72
   1   1   5   64.15    1.75
   1   1   5   64.49    1.63
  -2  -1  -5    7.56    0.36
   2   1   5    8.50    0.29
   2   1   5    7.79    0.37
  -3  -1  -5  110.76    2.87
   3   1   5  107.10    2.86
  -4  -1  -5  212.07    5.38
   4   1   5  210.52    5.35
  -5  -1  -5   26.54    0.83
  -5  -1  -5   26.16    0.91
   5   1   5   25.29    0.86
  -6  -1  -5   76.73    2.15
  -6  -1  -5   79.97    2.23
   6   1   5   76.02    2.14
  -7  -1  -5    7.04    0.45
  -7  -1  -5    7.53    0.51
   7   1   5    7.69    0.44
  -8  -1  -5   38.37    1.36
  -8  -1  -5   39.29    1.31
   8   1   5   38.74    1.26
  -9  -1  -5   80.10    2.50
  -9  -1  -5   83.92    2.46
   9   1   5   84.97    2.39
 -10  -1  -5    0.87    0.28
 -10  -1  -5    0.56    0.23
 -11  -1  -5   44.95    1.65
 -11  -1  -5   44.45    1.67
 -12  -1  -5   47.57    1.78
 -13  -1  -5    0.04    0.26
 -14  -1  -5   24.26    1.30
 -11   2   5   37.74    2.16
 -10   2   5    4.44    0.60
   9  -2  -5   30.01    1.34
  -9   2   5   29.71    1.36
   8  -2  -5   38.10    1.50
  -8   2   5   37.54    1.51
   7  -2  -5   -0.26    0.21
  -7   2   5   -0.40    0.17
   6  -2  -5  142.90    4.02
  -6   2   5  147.41    4.03
   5  -2  -5   62.89    2.03
  -5   2   5   67.88    1.91
  -5   2   5   69.10    2.06
   4  -2  -5    1.08    0.22
  -4   2   5    1.06    0.14
  -4   2   5    1.11    0.22
   3  -2  -5  144.74    3.62
  -3   2   5  141.53    3.62
  -3   2   5  140.49    3.75
  -3   2   5  140.95    3.83
   2  -2  -5   69.37    1.85
  -2   2   5   68.12    1.94
  -2   2   5   72.61    1.86
  -2   2   5   69.06    2.01
   1  -2  -5   83.88    2.19
  -1   2   5   83.30    2.24
  -1   2   5   84.92    2.32
   0  -2  -5  357.22    9.00
   0   2   5  365.69    9.09
   0   2   5  370.50    9.02
  -1  -2  -5   28.27    0.85
   1   2   5   28.24    0.88
   1   2   5   28.04    0.84
  -2  -2  -5   18.55    0.63
   2   2   5   18.66    0.65
   2   2   5   18.20    0.62
  -3  -2  -5   48.17    1.40
   3   2   5   48.63    1.36
  -4  -2  -5   84.19    2.28
   4   2   5   81.40    2.20
  -5  -2  -5  159.65    4.10
   5   2   5  151.66    3.98
  -6  -2  -5  165.55    4.39
  -6  -2  -5  172.04    4.47
   6   2   5  168.98    4.32
  -7  -2  -5   20.09    0.83
  -7  -2  -5   18.44    0.77
   7   2   5   18.81    0.69
  -8  -2  -5   31.09    1.19
  -8  -2  -5   31.66    1.15
   8   2   5   30.26    1.02
  -9  -2  -5    0.65    0.24
  -9  -2  -5    0.94    0.28
 -10  -2  -5    6.89    0.63
 -10  -2  -5    6.82    0.60
 -11  -2  -5  115.38    3.48
 -11  -2  -5  121.46    3.51
 -12  -2  -5   23.33    1.18
 -12  -2  -5   23.69    1.20
 -13  -2  -5    1.87    0.42
 -14  -2  -5   16.08    1.15
 -11   3   5   30.37    1.67
  10  -3  -5    0.69    0.33
 -10   3   5    0.45    0.32
   9  -3  -5   39.22    1.58
  -9   3   5   37.80    1.59
   8  -3  -5   12.20    0.83
  -8   3   5   13.01    0.83
   7  -3  -5    3.40    0.45
  -7   3   5    2.83    0.39
   6  -3  -5   55.69    1.89
  -6   3   5   59.09    1.90
   5  -3  -5   46.42    1.61
  -5   3   5   51.10    1.62
   4  -3  -5   16.73    0.80
   4  -3  -5   18.95    0.60
  -4   3   5   19.67    0.81
  -4   3   5   20.25    0.61
   3  -3  -5  161.09    4.35
   3  -3  -5  164.43    4.12
  -3   3   5  168.24    4.34
   2  -3  -5    1.88    0.19
  -2   3   5    2.49    0.28
  -2   3   5    2.50    0.26
   1  -3  -5   22.18    0.68
  -1   3   5   24.20    0.80
  -1   3   5   22.10    0.82
   0  -3  -5   81.06    2.09
   0   3   5   78.90    2.19
   0   3   5   78.86    2.17
  -1  -3  -5   11.66    0.45
   1   3   5   12.04    0.52
   1   3   5   11.84    0.48
  -2  -3  -5   78.87    2.11
   2   3   5   76.95    2.09
   2   3   5   80.34    2.23
  -3  -3  -5  224.96    5.61
   3   3   5  216.56    5.53
  -4  -3  -5    0.70    0.16
   4   3   5    0.97    0.13
  -5  -3  -5   97.76    2.69
   5   3   5   96.35    2.53
  -6  -3  -5   32.71    1.15
   6   3   5   32.25    0.96
  -7  -3  -5   17.86    0.79
  -7  -3  -5   16.51    0.74
   7   3   5   16.05    0.59
  -8  -3  -5   63.88    2.04
  -8  -3  -5   65.47    2.01
  -9  -3  -5    3.91    0.46
 -10  -3  -5   36.50    1.45
 -10  -3  -5   37.20    1.43
 -11  -3  -5   99.56    3.11
 -11  -3  -5  103.33    3.13
 -12  -3  -5    6.28    0.70
 -12  -3  -5    6.05    0.62
 -13  -3  -5   15.60    1.21
 -13  -3  -5   14.45    1.00
  11  -4  -5   28.13    1.44
  10  -4  -5   -0.06    0.28
 -10   4   5   -0.14    0.26
   9  -4  -5   19.48    1.11
  -9   4   5   21.06    1.13
   8  -4  -5    0.61    0.29
  -8   4   5    0.74    0.29
   7  -4  -5   49.25    1.75
  -7   4   5   47.40    1.72
   6  -4  -5  114.22    3.38
  -6   4   5  120.80    3.39
   5  -4  -5   18.30    0.87
  -5   4   5   20.02    0.88
   4  -4  -5   49.92    1.63
  -4   4   5   49.79    1.61
   3  -4  -5   56.14    1.45
   3  -4  -5   52.98    1.72
  -3   4   5   58.20    1.73
   2  -4  -5   26.43    0.75
   2  -4  -5   26.30    0.95
  -2   4   5   26.81    0.96
   1  -4  -5  330.94    8.06
  -1   4   5  322.74    8.26
  -1   4   5  326.77    8.26
   0  -4  -5  135.26    3.54
   0   4   5  139.72    3.73
   0   4   5  144.60    3.68
  -1  -4  -5    3.78    0.26
   1   4   5    3.47    0.34
   1   4   5    3.45    0.27
  -2  -4  -5  253.05    6.40
   2   4   5  255.68    6.37
  -3  -4  -5  186.99    4.87
   3   4   5  191.79    4.77
  -4  -4  -5   -0.19    0.12
   4   4   5    0.03    0.07
  -5  -4  -5  130.41    3.55
   5   4   5  132.17    3.33
  -6  -4  -5   43.91    1.48
   6   4   5   44.97    1.23
  -7  -4  -5   47.47    1.59
  -8  -4  -5   38.55    1.44
  -9  -4  -5   62.73    2.07
  -9  -4  -5   63.18    2.05
 -10  -4  -5   23.97    1.16
 -10  -4  -5   24.17    1.14
 -11  -4  -5   54.22    2.00
 -11  -4  -5   57.52    2.04
 -12  -4  -5    1.15    0.36
 -12  -4  -5    0.52    0.31
 -13  -4  -5   16.62    1.09
 -13  -4  -5   17.05    1.09
  11  -5  -5   11.43    0.97
  10  -5  -5    8.02    0.82
 -10   5   5    8.27    0.81
   9  -5  -5   33.82    1.50
  -9   5   5   35.22    1.54
   8  -5  -5    4.02    0.54
  -8   5   5    4.66    0.54
   7  -5  -5   13.36    0.86
  -7   5   5   13.66    0.83
   6  -5  -5   50.02    1.74
  -6   5   5   48.90    1.73
   5  -5  -5    0.34    0.18
  -5   5   5   -0.14    0.16
   4  -5  -5  137.50    3.87
  -4   5   5  143.97    3.90
   3  -5  -5   83.67    2.47
  -3   5   5   87.07    2.51
   2  -5  -5    1.07    0.11
   2  -5  -5    1.48    0.23
  -2   5   5    1.03    0.21
   1  -5  -5  155.87    3.89
   1  -5  -5  153.11    4.06
  -1   5   5  154.28    4.16
   0  -5  -5   39.63    1.14
   0  -5  -5   39.58    1.23
   0   5   5   39.96    1.38
  -1  -5  -5   17.69    0.63
   1   5   5   17.62    0.82
   1   5   5   17.14    0.67
  -2  -5  -5  320.09    8.12
   2   5   5  328.31    8.10
  -3  -5  -5    6.27    0.44
   3   5   5    7.99    0.35
  -4  -5  -5   64.55    1.93
   4   5   5   66.96    1.75
  -5  -5  -5  197.82    5.31
   5   5   5  207.14    5.04
  -6  -5  -5   13.87    0.72
  -7  -5  -5   15.72    0.80
  -8  -5  -5   57.54    1.93
  -9  -5  -5    0.40    0.27
 -10  -5  -5   37.56    1.51
 -11  -5  -5   17.56    1.04
 -12  -5  -5   -0.05    0.25
 -13  -5  -5   31.73    1.49
  11  -6  -5    1.71    0.44
  10  -6  -5   17.83    1.14
 -10   6   5   16.28    1.08
   9  -6  -5   37.99    1.60
  -9   6   5   37.31    1.62
   8  -6  -5   -0.07    0.28
  -8   6   5    0.29    0.26
   7  -6  -5   15.86    0.97
  -7   6   5   17.23    0.95
   6  -6  -5    8.43    0.71
  -6   6   5    8.39    0.66
   5  -6  -5    6.90    0.60
  -5   6   5    7.19    0.60
   4  -6  -5  101.33    2.99
  -4   6   5  106.43    3.07
   3  -6  -5   33.92    1.24
  -3   6   5   35.36    1.32
   2  -6  -5   32.48    0.93
   2  -6  -5   33.83    1.20
  -2   6   5   35.87    1.30
   1  -6  -5  186.13    4.97
   1  -6  -5  188.64    4.79
  -1   6   5  198.33    5.18
   0  -6  -5   21.00    0.74
   0  -6  -5   23.17    0.83
   0   6   5   22.79    1.01
  -1  -6  -5   41.47    1.24
  -1  -6  -5   41.54    1.25
   1   6   5   39.84    1.50
  -2  -6  -5  212.93    5.40
  -2  -6  -5  210.64    5.33
   2   6   5  207.96    5.68
  -3  -6  -5   33.19    1.00
  -3  -6  -5   34.69    1.14
  -4  -6  -5   58.37    1.60
  -4  -6  -5   54.48    1.72
  -5  -6  -5   83.99    2.45
  -6  -6  -5    0.90    0.22
  -7  -6  -5   53.08    1.79
  -8  -6  -5   72.36    2.32
  -9  -6  -5    3.19    0.42
 -10  -6  -5   55.41    2.01
 -11  -6  -5   14.27    0.97
 -12  -6  -5    2.44    0.44
  10  -7  -5   17.43    1.18
 -10   7   5   21.47    1.25
   9  -7  -5   23.60    1.27
  -9   7   5   23.49    1.28
   8  -7  -5    8.89    0.81
  -8   7   5   10.88    0.86
   7  -7  -5   53.29    1.96
  -7   7   5   56.82    2.05
   6  -7  -5    8.65    0.74
  -6   7   5    8.78    0.72
   5  -7  -5   15.07    0.86
  -5   7   5   15.03    0.88
   4  -7  -5   90.85    2.69
  -4   7   5   87.29    2.77
   3  -7  -5   36.89    1.34
  -3   7   5   37.61    1.47
   2  -7  -5   58.79    1.85
  -2   7   5   59.25    1.99
   1  -7  -5  119.81    3.20
   1  -7  -5  112.95    2.99
  -1   7   5  115.59    3.42
   0  -7  -5    0.57    0.15
   0  -7  -5    0.30    0.12
   0   7   5    0.55    0.27
  -1  -7  -5   90.13    2.40
  -1  -7  -5   87.73    2.41
   1   7   5   84.21    2.73
  -2  -7  -5  161.01    4.15
  -2  -7  -5  156.75    4.07
   2   7   5  154.91    4.46
  -3  -7  -5    3.67    0.27
  -3  -7  -5    2.79    0.29
  -4  -7  -5   61.38    1.89
  -5  -7  -5   75.45    2.28
  -6  -7  -5    0.30    0.20
  -7  -7  -5   37.43    1.45
  -8  -7  -5    3.05    0.42
  -9  -7  -5   31.30    1.35
 -10  -7  -5   47.24    1.83
 -11  -7  -5   10.13    0.85
 -12  -7  -5   10.40    0.91
  10  -8  -5   23.01    1.33
 -10   8   5   24.67    2.05
   9  -8  -5    3.61    0.56
  -9   8   5    3.22    0.54
   8  -8  -5   15.74    1.05
  -8   8   5   15.43    1.06
   7  -8  -5   32.14    1.44
  -7   8   5   31.76    1.49
   6  -8  -5    8.14    0.70
  -6   8   5    8.89    0.79
   5  -8  -5    6.05    0.64
  -5   8   5    6.74    0.68
   4  -8  -5   20.06    0.96
  -4   8   5   18.41    1.04
   3  -8  -5    0.48    0.23
  -3   8   5    0.24    0.22
   2  -8  -5   71.68    2.20
  -2   8   5   73.47    2.42
   1  -8  -5   39.41    1.36
   1  -8  -5   39.48    1.21
  -1   8   5   41.03    1.61
   0  -8  -5   16.02    0.62
   0  -8  -5   14.53    0.69
   0   8   5   15.61    0.94
  -1  -8  -5  102.60    2.76
  -1  -8  -5   96.48    2.75
   1   8   5  104.58    3.18
  -2  -8  -5   96.86    2.67
  -2  -8  -5   93.81    2.57
   2   8   5   95.04    3.02
  -3  -8  -5   12.60    0.65
  -4  -8  -5   91.06    2.65
  -5  -8  -5   23.51    1.03
  -6  -8  -5   17.37    0.92
  -7  -8  -5   83.39    2.62
  -8  -8  -5    2.05    0.37
  -9  -8  -5   31.09    1.40
 -10  -8  -5   44.19    1.80
 -11  -8  -5    0.18    0.30
   9  -9  -5    0.93    0.38
  -9   9   5    0.69    0.37
   8  -9  -5   20.78    1.21
  -8   9   5   22.05    1.31
   7  -9  -5   30.32    1.39
  -7   9   5   29.85    1.49
   6  -9  -5    7.09    0.71
  -6   9   5    5.70    0.69
   5  -9  -5   25.04    1.20
  -5   9   5   26.77    1.34
   4  -9  -5   54.86    1.87
  -4   9   5   50.81    2.02
   3  -9  -5    3.26    0.41
  -3   9   5    2.94    0.47
   2  -9  -5   71.84    2.23
  -2   9   5   71.80    2.48
   1  -9  -5   27.03    1.08
  -1   9   5   28.41    1.36
   0  -9  -5    0.91    0.22
   0  -9  -5    0.91    0.19
   0   9   5    0.59    0.33
  -1  -9  -5   61.39    1.85
  -1  -9  -5   60.22    1.84
   1   9   5   65.76    2.29
  -2  -9  -5    7.17    0.54
   2   9   5    8.09    0.78
  -3  -9  -5   25.29    1.03
  -4  -9  -5  115.86    3.30
  -5  -9  -5   20.31    0.97
  -6  -9  -5    8.44    0.73
  -7  -9  -5   31.05    1.35
  -8  -9  -5    0.22    0.26
  -9  -9  -5   32.99    1.52
 -10  -9  -5   28.75    1.46
   8 -10  -5    7.71    0.81
  -8  10   5    7.88    0.90
   7 -10  -5   15.68    1.00
  -7  10   5   16.48    1.13
   6 -10  -5    9.50    0.80
  -6  10   5    8.74    0.85
   5 -10  -5   36.99    1.54
  -5  10   5   36.21    1.72
   4 -10  -5    0.33    0.27
  -4  10   5    0.43    0.33
   3 -10  -5   38.04    1.46
  -3  10   5   35.69    1.66
   2 -10  -5   66.37    2.13
  -2  10   5   66.04    2.42
   1 -10  -5   19.22    0.88
  -1  10   5   16.56    1.09
   0 -10  -5   18.56    0.86
   0  10   5   20.72    1.21
  -1 -10  -5   57.26    1.82
   1  10   5   61.74    2.26
  -3 -10  -5   98.81    2.86
   3  10   5   97.06    3.24
  -4 -10  -5   85.39    2.60
  -5 -10  -5    3.29    0.42
  -6 -10  -5   27.86    1.29
  -7 -10  -5   20.21    1.10
  -8 -10  -5    1.64    0.39
  -9 -10  -5   43.65    1.84
   8 -11  -5   35.41    1.99
  -8  11   5   31.20    1.95
   7 -11  -5    8.61    0.89
  -7  11   5    9.34    0.98
   6 -11  -5    6.28    0.67
  -6  11   5    6.87    0.82
   5 -11  -5   51.13    1.94
  -5  11   5   51.07    2.19
   4 -11  -5    0.76    0.30
  -4  11   5    0.73    0.38
   3 -11  -5   25.33    1.17
  -3  11   5   25.14    1.40
   2 -11  -5   30.20    1.29
  -2  11   5   33.61    1.62
   0  11   5   60.99    2.37
  -1 -11  -5   98.89    2.93
   1  11   5  104.21    3.39
  -2 -11  -5    2.80    0.36
   2  11   5    5.38    0.74
  -3 -11  -5   19.18    0.99
   3  11   5   21.75    1.31
  -4 -11  -5   24.73    1.14
  -5 -11  -5    3.57    0.46
  -6 -11  -5   18.39    1.09
  -7 -11  -5   24.46    1.24
  -8 -11  -5    4.01    0.55
   7 -12  -5    7.73    0.87
  -7  12   5    7.16    1.18
   6 -12  -5   20.82    1.22
  -6  12   5   17.41    1.31
   5 -12  -5   23.45    1.23
  -5  12   5   22.36    1.46
   4 -12  -5   -0.07    0.27
  -4  12   5    0.41    0.35
   3 -12  -5   13.43    0.93
  -3  12   5   13.95    1.09
   2 -12  -5   16.42    1.03
  -2  12   5   18.02    1.24
  -1  12   5    0.80    0.39
   0  12   5   39.99    1.86
   1  12   5   20.14    1.30
  -2 -12  -5   11.45    0.76
   2  12   5   12.66    1.12
  -3 -12  -5   28.70    1.28
   3  12   5   32.94    1.71
  -4 -12  -5   10.52    0.77
  -5 -12  -5    7.76    0.76
  -6 -12  -5   21.70    1.19
  -7 -12  -5    2.70    0.48
   6 -13  -5   16.86    1.27
   5 -13  -5   12.12    0.96
  -5  13   5   10.05    1.11
   4 -13  -5    4.57    0.56
  -4  13   5    6.34    0.84
  -3  13   5   34.16    1.76
  -2  13   5   10.95    1.06
  -1  13   5    4.53    0.68
   0  13   5   46.75    2.11
   1  13   5    2.65    0.60
   2  13   5   18.01    1.31
  -3 -13  -5   47.87    1.78
   3  13   5   49.49    2.24
  -4 -13  -5    0.48    0.31
   4  13   5    0.30    0.41
  -5 -13  -5    8.67    0.87
   5  13   5    6.68    0.91
  -6 -13  -5   19.11    1.27
  -3  14   5   17.42    1.69
  -2  14   5    1.49    0.50
  -1  14   5   17.47    1.33
   0  14   5   19.47    1.41
   1  14   5   -0.44    0.36
   2  14   5   29.30    1.73
  -4 -14  -5    0.21    0.34
  -2  10  -6    1.46    0.40
   2 -10   6    1.66    0.45
  -3  10  -6   16.96    1.09
   3 -10   6   18.97    1.16
  -4  10  -6   13.76    1.01
   4 -10   6   15.78    1.13
   5 -10   6    1.29    0.42
  -1  -9   6    2.47    0.46
   0   9  -6   24.27    1.27
   0  -9   6   24.30    1.29
  -1   9  -6    4.56    0.54
   1  -9   6    4.72    0.57
  -2   9  -6   10.00    0.85
   2  -9   6    9.20    0.87
  -3   9  -6   37.62    1.61
   3  -9   6   41.56    1.67
   3  -9   6   43.60    1.71
  -4   9  -6    3.77    0.51
   4  -9   6    4.70    0.56
  -5   9  -6   15.40    1.15
   5  -9   6   17.61    1.08
   6  -9   6   30.03    1.42
   7  -9   6    2.95    0.49
  -3  -8   6   38.03    1.63
  -2  -8   6    6.55    0.68
  -1  -8   6    9.56    0.81
   0   8  -6   27.21    1.30
   0  -8   6   29.03    1.33
  -1   8  -6    3.61    0.47
   1  -8   6    3.64    0.49
  -2   8  -6   26.63    1.24
   2  -8   6   27.73    1.28
   2  -8   6   27.02    1.26
  -3   8  -6   37.55    1.53
   3  -8   6   39.32    1.57
   3  -8   6   38.48    1.56
  -4   8  -6    2.35    0.40
   4  -8   6    1.92    0.39
  -5   8  -6   36.37    1.49
   5  -8   6   36.93    1.53
   6  -8   6   23.86    1.20
   7  -8   6    0.27    0.30
   8  -8   6   13.92    1.02
   9  -8   6   26.82    1.69
  -5  -7   6   14.23    1.18
  -4  -7   6    8.10    0.83
  -3  -7   6   35.69    1.54
  -2  -7   6    8.09    0.75
  -1  -7   6   14.20    0.90
   0   7  -6   22.27    1.11
   0  -7   6   23.47    1.13
  -1   7  -6    0.27    0.25
   1  -7   6   -0.04    0.23
   1  -7   6   -0.20    0.23
  -2   7  -6   42.46    1.62
   2  -7   6   44.32    1.65
   2  -7   6   45.35    1.64
  -3   7  -6   26.56    1.18
   3  -7   6   26.28    1.20
   3  -7   6   27.77    1.21
  -4   7  -6    2.70    0.40
   4  -7   6    3.30    0.44
  -5   7  -6   54.12    1.89
   5  -7   6   55.53    1.96
  -6   7  -6   20.49    1.02
   6  -7   6   19.96    1.08
   7  -7   6    3.64    0.48
   8  -7   6   30.29    1.39
   9  -7   6    3.25    0.51
  10  -7   6    4.59    0.60
  -6  -6   6   16.00    1.03
  -5  -6   6    8.49    0.78
  -4  -6   6   20.12    1.11
  -3  -6   6   43.90    1.69
  -2  -6   6    0.01    0.25
  -1  -6   6   16.63    0.92
   0   6  -6   20.12    1.00
   0  -6   6   19.40    0.97
   0  -6   6   19.80    0.94
  -1   6  -6    9.61    0.70
   1  -6   6   10.35    0.70
   1  -6   6    9.43    0.71
  -2   6  -6   53.97    1.85
   2  -6   6   56.62    1.85
   2  -6   6   53.50    1.87
  -3   6  -6   54.07    1.82
   3  -6   6   53.90    1.84
   3  -6   6   54.52    1.83
  -4   6  -6   13.82    0.78
   4  -6   6   13.65    0.84
  -5   6  -6   65.04    2.12
   5  -6   6   66.92    2.18
  -6   6  -6   15.27    0.82
   6  -6   6   14.24    0.89
  -7   6  -6   13.53    0.80
   7  -6   6   14.78    0.91
   8  -6   6   35.70    1.50
   9  -6   6    0.55    0.29
  10  -6   6   18.48    1.14
  11  -6   6   26.64    1.37
  -7  -5   6   11.30    0.93
  -6  -5   6   22.76    1.17
  -5  -5   6    2.37    0.44
  -4  -5   6   24.34    1.16
  -3  -5   6   18.59    0.97
  -2  -5   6    8.71    0.68
  -1  -5   6   54.28    1.86
  -1  -5   6   57.67    1.82
   0   5  -6    6.70    0.59
   0  -5   6    7.62    0.56
   0  -5   6    7.08    0.59
  -1   5  -6   21.38    0.97
   1  -5   6   21.31    0.97
   1  -5   6   21.52    0.98
  -2   5  -6   47.25    1.59
   2  -5   6   45.13    1.59
   2  -5   6   46.90    1.60
  -3   5  -6    2.11    0.32
   3  -5   6    2.30    0.33
   3  -5   6    2.05    0.32
  -4   5  -6   81.19    2.44
   4  -5   6   82.39    2.51
  -5   5  -6   83.36    2.52
   5  -5   6   86.05    2.60
  -6   5  -6    2.51    0.32
   6  -5   6    2.03    0.34
  -7   5  -6  117.81    3.33
   7  -5   6  115.03    3.42
  -8   5  -6   28.85    1.21
   8  -5   6   30.95    1.32
   9  -5   6    1.86    0.39
  10  -5   6   29.01    1.37
  11  -5   6   29.88    1.45
  12  -5   6    1.92    0.45
  -8  -4   6    0.70    0.41
  -7  -4   6   22.86    1.19
  -6  -4   6   23.43    1.17
  -5  -4   6    0.00    0.25
  -4  -4   6   46.94    1.67
  -3  -4   6   13.30    0.81
  -2  -4   6   22.97    1.01
  -2  -4   6   23.31    0.95
  -1  -4   6   99.10    2.81
  -1  -4   6   98.18    2.86
   0   4  -6   14.82    0.77
   0  -4   6   16.31    0.76
   0  -4   6   15.08    0.77
  -1   4  -6   23.66    0.98
   1  -4   6   24.73    1.00
   1  -4   6   24.24    0.99
  -2   4  -6   89.23    2.56
   2  -4   6   88.94    2.58
   2  -4   6   86.91    2.57
  -3   4  -6   -0.10    0.16
   3  -4   6    0.36    0.20
   3  -4   6    0.00    0.18
  -4   4  -6  114.88    3.19
   4  -4   6  113.51    3.25
  -5   4  -6  137.63    3.75
   5  -4   6  136.41    3.82
  -6   4  -6    2.21    0.29
   6  -4   6    2.43    0.36
  -7   4  -6   69.09    2.13
   7  -4   6   69.91    2.24
  -8   4  -6   29.48    1.20
   8  -4   6   32.60    1.33
   9  -4   6    1.16    0.33
  10  -4   6   30.40    1.40
  11  -4   6    7.65    0.78
  12  -4   6    2.79    0.49
  13  -4   6   21.76    1.30
  -9  -3   6    4.94    0.61
  -8  -3   6    7.64    0.79
  -7  -3   6   37.77    1.54
  -7  -3   6   37.79    1.52
  -6  -3   6   16.67    0.90
  -6  -3   6   16.55    0.95
  -5  -3   6    5.03    0.49
  -5  -3   6    6.14    0.57
  -4  -3   6   46.73    1.60
  -4  -3   6   43.57    1.51
  -3  -3   6    5.66    0.54
  -3  -3   6    6.12    0.49
  -3  -3   6    5.10    0.48
  -2  -3   6   22.12    0.96
  -2  -3   6   23.07    0.92
  -1  -3   6   15.65    0.71
  -1  -3   6   14.50    0.73
   0   3  -6    1.50    0.24
   0  -3   6    1.53    0.25
   0  -3   6    1.57    0.24
  -1   3  -6  140.17    3.78
   1  -3   6  136.81    3.78
   1  -3   6  143.13    3.79
  -2   3  -6   78.29    2.25
   2  -3   6   75.59    2.25
   2  -3   6   78.44    2.27
  -3   3  -6   -0.24    0.14
   3  -3   6    0.20    0.17
  -4   3  -6  105.17    2.90
   4  -3   6  103.13    2.95
  -5   3  -6   53.40    1.66
   5  -3   6   53.80    1.73
  -6   3  -6    3.80    0.36
   6  -3   6    2.88    0.35
  -7   3  -6   66.52    2.07
   7  -3   6   69.69    2.16
  -8   3  -6   15.59    0.79
   8  -3   6   16.23    0.87
  -9   3  -6   31.66    1.27
   9  -3   6   32.21    1.34
  10  -3   6   69.45    2.33
  11  -3   6    3.54    0.48
  12  -3   6   10.80    0.89
  13  -3   6   15.88    1.08
  -9  -2   6    2.01    0.43
  -8  -2   6   13.24    0.91
  -7  -2   6   63.21    2.08
  -7  -2   6   62.65    2.12
  -6  -2   6    0.23    0.25
  -6  -2   6    0.58    0.25
  -5  -2   6   48.36    1.66
  -5  -2   6   51.05    1.68
  -4  -2   6   67.84    2.10
  -4  -2   6   72.51    2.17
  -4  -2   6   71.72    2.19
  -3  -2   6    4.41    0.40
  -3  -2   6    5.50    0.49
  -3  -2   6    4.77    0.44
  -2  -2   6   28.73    1.05
  -2  -2   6   26.06    0.95
  -2  -2   6   29.36    1.04
   1   2  -6   21.49    0.86
  -1  -2   6   20.52    0.72
  -1  -2   6   21.67    0.86
  -1  -2   6   21.37    0.84
   0   2  -6   20.57    0.84
   0  -2   6   21.74    0.84
   0  -2   6   21.93    0.85
  -1   2  -6  198.94    5.23
   1  -2   6  200.64    5.24
   1  -2   6  206.36    5.26
  -2   2  -6   22.85    0.87
   2  -2   6   23.85    0.90
  -3   2  -6   63.99    1.89
   3  -2   6   65.40    1.93
  -4   2  -6  165.35    4.38
   4  -2   6  168.44    4.44
  -5   2  -6   18.35    0.76
   5  -2   6   18.24    0.80
  -6   2  -6   21.15    0.85
   6  -2   6   20.46    0.89
  -7   2  -6  128.45    3.58
   7  -2   6  133.73    3.66
  -8   2  -6   17.83    0.85
   8  -2   6   18.93    0.88
  -9   2  -6   36.77    1.38
   9  -2   6   36.35    1.42
 -10   2  -6   20.68    1.03
  10  -2   6   20.89    1.03
  11  -2   6    0.77    0.29
  12  -2   6   21.49    1.16
 -10  -1   6   25.86    1.51
  -9  -1   6    1.48    0.40
  -8  -1   6   36.54    1.52
  -7  -1   6   43.27    1.62
   6   1  -6    3.09    0.43
  -6  -1   6    3.10    0.38
  -6  -1   6    3.59    0.43
  -5  -1   6   86.04    2.44
  -5  -1   6   81.57    2.54
  -5  -1   6   80.48    2.46
  -4  -1   6   18.80    0.81
  -4  -1   6   17.81    0.79
  -4  -1   6   18.28    0.85
  -3  -1   6    0.41    0.17
  -3  -1   6    0.43    0.17
  -3  -1   6    0.24    0.17
  -2  -1   6   53.28    1.61
  -2  -1   6   53.14    1.63
  -2  -1   6   51.12    1.53
   1   1  -6   49.59    1.50
  -1  -1   6   48.24    1.39
  -1  -1   6   49.98    1.51
  -1  -1   6   49.21    1.52
   0   1  -6   18.78    0.72
   0  -1   6   18.82    0.73
   0  -1   6   16.70    0.57
   0  -1   6   18.49    0.73
  -1   1  -6  141.31    3.78
   1  -1   6  143.54    3.81
   1  -1   6  147.56    3.80
  -2   1  -6   14.27    0.60
   2  -1   6   13.99    0.62
  -3   1  -6  124.46    3.27
   3  -1   6  121.11    3.30
  -4   1  -6   52.87    1.57
   4  -1   6   52.37    1.61
  -5   1  -6    0.32    0.16
  -5   1  -6    0.85    0.12
   5  -1   6    0.37    0.17
  -6   1  -6   71.66    1.95
  -6   1  -6   72.26    2.08
   6  -1   6   69.82    2.10
  -7   1  -6  159.85    4.27
  -7   1  -6  157.84    4.17
   7  -1   6  159.14    4.28
  -8   1  -6    2.73    0.37
  -8   1  -6    1.81    0.30
   8  -1   6    2.22    0.30
  -9   1  -6   98.89    2.96
   9  -1   6  103.62    2.97
 -10   1  -6   10.76    0.77
  10  -1   6   12.25    0.75
 -11   1  -6    5.79    0.89
  11  -1   6    6.29    0.63
  12  -1   6   29.40    1.73
 -10   0   6   18.90    1.16
  -9   0   6    2.46    0.45
  -8   0   6   42.62    1.66
   7   0  -6   12.74    0.83
  -7   0   6   13.69    0.86
   6   0  -6   17.47    0.89
  -6   0   6   19.40    0.85
  -6   0   6   17.03    0.89
  -5   0   6   96.33    2.71
  -5   0   6   92.05    2.78
  -5   0   6  101.06    2.90
  -4   0   6    4.15    0.40
  -4   0   6    4.99    0.43
  -4   0   6    4.38    0.47
  -3   0   6    9.10    0.49
  -3   0   6    8.36    0.55
  -3   0   6    8.05    0.48
   2   0  -6  123.39    3.41
  -2   0   6  133.48    3.51
  -2   0   6  130.84    3.42
  -2   0   6  128.36    3.39
   1   0  -6    2.36    0.24
  -1   0   6    2.70    0.29
  -1   0   6    2.96    0.24
  -1   0   6    2.45    0.25
   0   0  -6   87.09    2.38
   0   0   6   87.92    2.43
   0   0   6   90.52    2.41
   0   0   6   87.26    2.27
  -1   0  -6  137.32    3.61
   1   0   6  140.28    3.66
  -2   0  -6   25.21    0.86
   2   0   6   26.17    0.89
  -3   0  -6  273.45    6.99
   3   0   6  281.40    7.03
  -4   0  -6  115.85    3.10
   4   0   6  116.68    3.12
  -5   0  -6    0.85    0.18
  -5   0  -6    1.24    0.13
   5   0   6    0.84    0.19
  -6   0  -6  139.75    3.71
  -6   0  -6  138.45    3.56
   6   0   6  135.29    3.69
  -7   0  -6   55.15    1.65
  -7   0  -6   57.91    1.78
   7   0   6   58.06    1.75
  -8   0  -6    0.64    0.24
  -8   0  -6    0.62    0.17
   8   0   6    0.16    0.16
  -9   0  -6  110.65    3.26
  -9   0  -6  110.53    3.15
   9   0   6  118.61    3.21
 -10   0  -6   11.42    0.78
 -10   0  -6   11.43    0.68
  10   0   6   12.07    0.70
 -11   0  -6    5.99    0.59
 -11   0  -6    6.62    0.60
  11   0   6    6.74    0.65
 -10   1   6   11.44    0.94
  -9   1   6   16.00    1.02
   8  -1  -6   42.59    1.68
  -8   1   6   45.49    1.72
   7  -1  -6   55.41    1.93
  -7   1   6   57.19    1.95
   6  -1  -6   28.75    1.20
  -6   1   6   29.23    1.20
   5  -1  -6   75.58    2.34
  -5   1   6   75.20    2.17
  -5   1   6   79.83    2.34
  -4   1   6    7.55    0.44
  -4   1   6    7.73    0.57
  -4   1   6    7.88    0.51
   3  -1  -6   34.92    1.13
  -3   1   6   37.01    1.27
  -3   1   6   37.17    1.13
  -3   1   6   35.44    1.19
   2  -1  -6   79.92    2.19
  -2   1   6   83.41    2.33
  -2   1   6   82.39    2.21
  -2   1   6   76.88    2.21
   1  -1  -6    0.34    0.12
  -1   1   6    0.28    0.11
  -1   1   6    0.27    0.13
  -1   1   6    0.18    0.14
   0  -1  -6  224.38    5.79
   0   1   6  232.54    5.87
   0   1   6  232.66    5.73
  -1  -1  -6  124.68    3.26
   1   1   6  123.14    3.30
   1   1   6  127.72    3.14
  -2  -1  -6   35.01    1.08
   2   1   6   35.46    1.11
  -3  -1  -6  228.47    6.00
   3   1   6  234.28    6.02
   3   1   6  248.51    5.89
  -4  -1  -6   42.86    1.35
   4   1   6   46.61    1.36
  -5  -1  -6    0.88    0.19
  -6  -1  -6  181.33    4.67
  -6  -1  -6  183.90    4.79
   6   1   6  181.46    4.73
  -7  -1  -6    9.50    0.50
  -7  -1  -6   10.00    0.59
   7   1   6   10.34    0.53
  -8  -1  -6   48.64    1.64
  -8  -1  -6   49.30    1.55
   8   1   6   48.87    1.53
  -9  -1  -6   52.33    1.70
  -9  -1  -6   49.49    1.76
   9   1   6   53.80    1.66
 -10  -1  -6    2.17    0.33
 -10  -1  -6    1.71    0.34
  10   1   6    2.33    0.30
 -11  -1  -6   19.83    1.05
 -11  -1  -6   18.88    0.98
 -12  -1  -6   28.86    1.32
 -12  -1  -6   29.28    1.37
 -13  -1  -6    0.58    0.32
 -10   2   6    2.87    0.49
   9  -2  -6   19.74    1.20
  -9   2   6   19.31    1.11
   8  -2  -6   45.51    1.73
  -8   2   6   44.13    1.71
   7  -2  -6    0.12    0.25
  -7   2   6    0.05    0.24
   6  -2  -6   68.70    2.27
  -6   2   6   75.54    2.30
   5  -2  -6   67.31    2.11
  -5   2   6   65.71    2.06
   4  -2  -6    7.98    0.42
  -4   2   6   10.07    0.64
  -4   2   6    8.43    0.54
  -4   2   6    8.04    0.41
   3  -2  -6  150.07    3.84
  -3   2   6  156.47    3.86
  -3   2   6  148.06    4.07
  -3   2   6  144.37    3.96
   2  -2  -6   19.07    0.66
  -2   2   6   20.24    0.81
  -2   2   6   18.25    0.72
   1  -2  -6   31.81    0.94
  -1   2   6   31.20    1.07
  -1   2   6   30.02    0.97
   0  -2  -6  334.38    8.36
   0   2   6  333.72    8.46
   0   2   6  341.97    8.36
  -1  -2  -6   38.13    1.14
   1   2   6   39.65    1.19
   1   2   6   37.97    1.09
  -2  -2  -6   83.61    2.24
   2   2   6   80.02    2.24
   2   2   6   84.86    2.19
  -3  -2  -6  365.61    9.08
   3   2   6  361.85    9.06
  -4  -2  -6  202.57    5.14
   4   2   6  196.45    5.08
  -5  -2  -6   72.76    2.06
   5   2   6   70.10    1.97
  -6  -2  -6   75.55    2.17
   6   2   6   71.71    2.04
  -7  -2  -6    0.66    0.17
  -7  -2  -6    0.48    0.20
   7   2   6    0.63    0.15
  -8  -2  -6  112.95    3.20
  -8  -2  -6  111.91    3.11
   8   2   6  110.42    3.02
  -9  -2  -6  141.37    3.91
  -9  -2  -6  142.20    3.99
   9   2   6  142.19    3.81
 -10  -2  -6    8.67    0.73
 -10  -2  -6   10.32    0.69
 -11  -2  -6   25.98    1.27
 -11  -2  -6   28.79    1.25
 -12  -2  -6   16.43    1.01
 -12  -2  -6   17.95    1.08
 -13  -2  -6    3.34    0.49
 -14  -2  -6   23.75    1.31
 -10   3   6   -0.19    0.27
   9  -3  -6   19.45    1.12
  -9   3   6   20.21    1.14
   8  -3  -6   70.76    2.38
  -8   3   6   72.07    2.41
   7  -3  -6   -0.17    0.24
  -7   3   6    0.71    0.27
   6  -3  -6   78.55    2.45
  -6   3   6   76.53    2.41
   5  -3  -6   59.03    1.94
  -5   3   6   61.21    1.93
   4  -3  -6    8.51    0.40
   4  -3  -6    8.82    0.57
  -4   3   6    8.26    0.53
   3  -3  -6  122.61    3.18
  -3   3   6  121.89    3.46
  -3   3   6  128.11    3.38
   2  -3  -6  140.47    3.57
  -2   3   6  137.11    3.80
  -2   3   6  143.34    3.72
   1  -3  -6    5.11    0.29
  -1   3   6    4.66    0.39
  -1   3   6    4.92    0.33
   0  -3  -6  146.55    3.65
   0   3   6  145.68    3.72
   0   3   6  135.50    3.75
  -1  -3  -6    4.01    0.29
   1   3   6    4.00    0.32
   1   3   6    4.13    0.29
  -2  -3  -6  156.74    3.99
   2   3   6  153.09    3.99
   2   3   6  153.90    4.04
  -3  -3  -6  135.35    3.54
   3   3   6  134.66    3.50
  -4  -3  -6   37.08    1.19
   4   3   6   37.08    1.11
  -5  -3  -6  117.54    3.15
   5   3   6  113.05    3.01
  -6  -3  -6  111.15    3.02
   6   3   6  105.10    2.84
  -7  -3  -6    3.61    0.36
   7   3   6    4.09    0.31
   8   3   6    5.89    0.44
  -9  -3  -6    0.87    0.25
  -9  -3  -6    0.63    0.29
 -10  -3  -6   20.43    1.07
 -10  -3  -6   21.80    1.01
 -11  -3  -6  110.64    3.32
 -11  -3  -6  110.92    3.37
 -12  -3  -6   15.18    0.99
 -12  -3  -6   14.35    0.95
 -13  -3  -6    9.11    0.87
 -13  -3  -6    9.04    0.81
 -14  -3  -6    8.03    0.92
  10  -4  -6    0.25    0.33
 -10   4   6    0.34    0.34
   9  -4  -6   31.57    1.45
  -9   4   6   31.45    1.46
   8  -4  -6   22.74    1.15
  -8   4   6   21.30    1.12
   7  -4  -6    0.27    0.29
  -7   4   6    0.79    0.28
   6  -4  -6   30.06    1.29
  -6   4   6   31.55    1.26
   5  -4  -6   18.49    0.92
  -5   4   6   18.33    0.88
   4  -4  -6   33.44    1.26
  -4   4   6   35.22    1.26
   3  -4  -6   69.96    2.11
   3  -4  -6   72.68    1.85
  -3   4   6   68.08    2.08
   2  -4  -6    4.38    0.27
  -2   4   6    4.40    0.43
  -2   4   6    4.86    0.39
   1  -4  -6   56.83    1.54
  -1   4   6   55.32    1.74
  -1   4   6   58.90    1.72
   0  -4  -6  200.70    5.00
   0   4   6  193.15    5.13
   0   4   6  201.67    5.15
  -1  -4  -6   25.67    0.83
   1   4   6   24.62    0.88
   1   4   6   25.93    0.95
  -2  -4  -6  171.73    4.40
   2   4   6  168.03    4.56
   2   4   6  174.26    4.41
  -3  -4  -6  267.57    6.85
   3   4   6  273.94    6.79
  -4  -4  -6   35.88    1.20
   4   4   6   37.48    1.09
  -5  -4  -6  181.08    4.78
   5   4   6  182.44    4.61
  -6  -4  -6   63.11    1.94
   6   4   6   63.09    1.73
  -7  -4  -6   18.35    0.85
  -8  -4  -6  138.62    3.89
  -9  -4  -6    4.50    0.51
 -10  -4  -6   24.68    1.17
 -11  -4  -6   54.41    1.98
 -11  -4  -6   56.78    2.04
 -12  -4  -6   -0.19    0.28
 -12  -4  -6    0.37    0.30
 -13  -4  -6   18.48    1.13
 -13  -4  -6   16.47    1.07
  10  -5  -6    1.67    0.44
 -10   5   6    2.00    0.48
   9  -5  -6   21.55    1.20
  -9   5   6   20.50    1.17
   8  -5  -6    1.12    0.34
  -8   5   6    0.79    0.32
   7  -5  -6   47.56    1.79
  -7   5   6   48.12    1.77
   6  -5  -6  101.53    3.10
  -6   5   6  105.97    3.12
   5  -5  -6    0.08    0.20
  -5   5   6   -0.04    0.18
   4  -5  -6   28.64    1.13
  -4   5   6   26.92    1.10
  -3   5   6   64.82    2.01
   2  -5  -6    0.39    0.10
   2  -5  -6    0.24    0.15
  -2   5   6    0.23    0.17
   1  -5  -6  168.57    4.34
   1  -5  -6  164.62    4.14
  -1   5   6  158.89    4.39
   0  -5  -6  129.52    3.36
   0   5   6  129.71    3.60
   0   5   6  133.02    3.53
  -1  -5  -6   41.08    1.21
   1   5   6   37.38    1.26
   1   5   6   43.55    1.44
  -2  -5  -6  189.63    4.99
   2   5   6  204.91    5.01
   2   5   6  190.26    5.23
  -3  -5  -6   81.42    2.33
   3   5   6   85.45    2.26
  -4  -5  -6   19.22    0.79
   4   5   6   19.87    0.67
  -5  -5  -6  197.90    5.28
   5   5   6  204.80    5.07
  -6  -5  -6   30.86    1.17
  -7  -5  -6   46.63    1.61
  -8  -5  -6   62.14    2.06
  -9  -5  -6    7.05    0.68
 -10  -5  -6   44.21    1.68
 -11  -5  -6   44.35    1.76
 -12  -5  -6    0.42    0.30
 -13  -5  -6   14.85    1.08
  10  -6  -6    6.94    0.75
 -10   6   6    8.23    0.86
   9  -6  -6   31.29    1.50
  -9   6   6   35.87    1.59
   8  -6  -6    1.24    0.37
  -8   6   6    2.11    0.43
   7  -6  -6   23.85    1.22
  -7   6   6   25.16    1.20
   6  -6  -6   48.95    1.78
  -6   6   6   49.66    1.82
   5  -6  -6    3.54    0.42
  -5   6   6    3.76    0.46
   4  -6  -6   71.69    2.24
  -4   6   6   70.22    2.26
   3  -6  -6   45.15    1.57
  -3   6   6   48.61    1.66
   2  -6  -6   22.14    0.92
  -2   6   6   22.37    0.99
   1  -6  -6  227.14    5.68
   1  -6  -6  234.87    5.91
  -1   6   6  219.68    6.02
   0  -6  -6  121.54    3.35
   0  -6  -6  123.56    3.24
   0   6   6  130.16    3.59
  -1  -6  -6   14.58    0.60
  -1  -6  -6   13.49    0.57
   1   6   6   13.43    0.78
  -2  -6  -6  221.05    5.65
   2   6   6  214.74    5.93
   2   6   6  226.26    5.66
  -3  -6  -6    7.61    0.48
   3   6   6    8.14    0.43
  -4  -6  -6   54.41    1.70
   4   6   6   55.41    1.55
  -5  -6  -6   84.77    2.49
  -6  -6  -6   11.86    0.69
  -7  -6  -6   56.47    1.88
  -8  -6  -6   49.47    1.77
  -9  -6  -6    7.08    0.67
 -10  -6  -6   39.63    1.60
 -11  -6  -6   18.75    1.14
 -12  -6  -6    0.80    0.34
  10  -7  -6   16.10    1.15
   9  -7  -6   18.05    1.15
  -9   7   6   17.87    1.14
   8  -7  -6    3.39    0.51
  -8   7   6    4.17    0.57
   7  -7  -6   65.18    2.26
  -7   7   6   65.41    2.32
   6  -7  -6   21.64    1.10
  -6   7   6   22.51    1.14
   5  -7  -6    2.82    0.39
  -5   7   6    3.09    0.43
   4  -7  -6   70.03    2.23
  -4   7   6   70.06    2.31
   3  -7  -6   20.69    0.96
  -3   7   6   20.95    1.03
   2  -7  -6   59.99    1.87
  -2   7   6   56.59    1.98
   1  -7  -6  128.57    3.36
   1  -7  -6  129.57    3.58
  -1   7   6  134.65    3.80
   0  -7  -6   18.33    0.76
   0  -7  -6   16.79    0.65
   0   7   6   16.95    0.93
  -1  -7  -6   39.18    1.26
  -1  -7  -6   39.85    1.23
   1   7   6   37.63    1.51
  -2  -7  -6  203.55    5.26
  -2  -7  -6  209.44    5.22
   2   7   6  197.31    5.59
  -3  -7  -6   20.57    0.74
  -3  -7  -6   22.37    0.87
  -4  -7  -6   48.02    1.56
  -5  -7  -6   65.12    2.02
  -6  -7  -6    1.89    0.31
  -7  -7  -6   23.85    1.12
  -8  -7  -6   25.00    1.20
  -9  -7  -6   15.99    0.96
 -10  -7  -6   57.06    2.08
 -11  -7  -6    4.11    0.54
 -12  -7  -6    9.26    0.86
   9  -8  -6   11.62    0.94
  -9   8   6   11.56    0.99
   8  -8  -6    5.70    0.64
  -8   8   6    8.82    0.85
   7  -8  -6   45.96    1.84
  -7   8   6   48.35    1.94
   6  -8  -6    9.72    0.80
  -6   8   6    7.39    0.78
   5  -8  -6    9.19    0.75
  -5   8   6    8.16    0.76
   4  -8  -6  100.66    3.00
  -4   8   6   98.54    3.15
   3  -8  -6    0.82    0.25
  -3   8   6    0.66    0.28
   2  -8  -6   29.15    1.15
  -2   8   6   28.15    1.29
   1  -8  -6   27.92    1.09
  -1   8   6   28.79    1.30
   0  -8  -6   20.11    0.73
   0  -8  -6   20.09    0.84
   0   8   6   19.78    1.07
  -1  -8  -6   70.44    2.03
  -1  -8  -6   69.13    1.98
   1   8   6   67.95    2.36
  -2  -8  -6  102.44    2.78
  -2  -8  -6  104.25    2.83
   2   8   6   98.95    3.19
  -3  -8  -6    6.47    0.48
  -4  -8  -6   60.88    1.92
  -5  -8  -6   14.56    0.80
  -6  -8  -6   17.45    0.90
  -7  -8  -6   42.31    1.61
  -8  -8  -6    0.27    0.27
  -9  -8  -6   29.10    1.35
 -10  -8  -6   56.71    2.12
 -11  -8  -6    2.44    0.47
   9  -9  -6    0.71    0.39
  -9   9   6    0.77    0.44
   8  -9  -6   19.41    1.19
  -8   9   6   20.55    1.27
   7  -9  -6   17.81    1.07
  -7   9   6   17.79    1.17
   6  -9  -6    2.16    0.41
  -6   9   6    1.42    0.40
   5  -9  -6   68.83    2.27
  -5   9   6   64.21    2.39
   4  -9  -6   75.72    2.42
  -4   9   6   73.35    2.61
   3  -9  -6    3.81    0.47
  -3   9   6    2.41    0.45
   2  -9  -6  124.57    3.49
  -2   9   6  119.43    3.72
   1  -9  -6   44.27    1.55
  -1   9   6   47.45    1.86
   0  -9  -6    8.19    0.58
   0  -9  -6    8.21    0.57
   0   9   6    7.92    0.79
  -1  -9  -6   74.55    2.25
  -1  -9  -6   79.84    2.24
   1   9   6   80.52    2.68
  -2  -9  -6   96.62    2.66
   2   9   6   89.99    3.04
  -3  -9  -6   16.25    0.78
   3   9   6   16.22    1.07
  -4  -9  -6   88.18    2.61
  -5  -9  -6    2.06    0.34
  -6  -9  -6   29.74    1.26
  -7  -9  -6   39.04    1.57
  -8  -9  -6    0.78    0.32
  -9  -9  -6   23.07    1.21
 -10  -9  -6   34.14    1.60
   8 -10  -6   17.06    1.13
  -8  10   6   18.45    1.26
   7 -10  -6    9.53    0.86
  -7  10   6    9.73    0.95
   6 -10  -6   -0.07    0.28
  -6  10   6    0.02    0.28
   5 -10  -6   72.34    2.41
  -5  10   6   68.26    2.60
   4 -10  -6   36.25    1.47
  -4  10   6   34.72    1.69
   3 -10  -6    3.24    0.43
  -3  10   6    3.25    0.53
   2 -10  -6   69.23    2.20
  -2  10   6   67.02    2.47
  -1  10   6    0.47    0.33
   0 -10  -6   30.44    1.18
   0  10   6   30.51    1.50
  -1 -10  -6   96.81    2.73
   1  10   6   97.28    3.21
  -2 -10  -6   16.75    0.81
   2  10   6   19.20    1.22
  -3 -10  -6   21.26    0.97
   3  10   6   22.00    1.29
  -4 -10  -6   66.18    2.12
  -5 -10  -6    0.26    0.25
  -6 -10  -6   30.82    1.34
  -7 -10  -6    8.28    0.79
  -8 -10  -6    0.09    0.27
  -9 -10  -6   28.29    1.41
   7 -11  -6   17.54    1.15
  -7  11   6   17.77    1.26
   6 -11  -6   13.37    0.97
  -6  11   6   12.60    1.08
   5 -11  -6   44.34    1.78
  -5  11   6   42.38    1.98
   4 -11  -6   12.78    0.92
  -4  11   6   11.36    1.05
   3 -11  -6   39.69    1.57
  -3  11   6   40.09    1.83
   2 -11  -6   89.34    2.78
  -2  11   6   93.49    3.16
   1 -11  -6   13.04    0.79
  -1  11   6   13.67    1.08
   0  11   6   26.16    1.45
   1  11   6   50.59    2.09
  -3 -11  -6   47.68    1.67
   3  11   6   48.45    2.07
  -4 -11  -6   37.03    1.45
   4  11   6   40.03    1.85
  -5 -11  -6    0.34    0.27
  -6 -11  -6   18.77    1.09
  -7 -11  -6    1.72    0.44
  -8 -11  -6   10.91    0.90
   6 -12  -6   13.74    1.02
  -6  12   6   13.55    1.18
   5 -12  -6   30.16    1.42
  -5  12   6   29.89    1.70
   4 -12  -6    2.94    0.47
  -4  12   6    3.32    0.61
   3 -12  -6   36.76    1.54
  -3  12   6   38.25    1.85
   2 -12  -6   42.77    1.61
  -2  12   6   39.29    1.87
  -1  12   6    1.41    0.46
   0  12   6   66.35    2.57
   1  12   6   45.87    2.04
   2  12   6    1.03    0.44
  -3 -12  -6   25.71    1.18
   3  12   6   29.12    1.61
  -4 -12  -6   11.48    0.82
   4  12   6   13.24    1.14
  -5 -12  -6   13.57    0.89
  -6 -12  -6   23.10    1.24
  -7 -12  -6    2.73    0.47
   5 -13  -6   10.45    0.93
  -5  13   6    9.02    1.18
   4 -13  -6    0.74    0.36
  -4  13   6    1.05    0.48
   3 -13  -6   29.06    1.40
  -3  13   6   26.72    1.61
  -2  13   6   22.30    1.44
  -1  13   6    4.68    0.73
   0  13   6   47.44    2.12
   2  13   6   12.92    1.17
   3  13   6   26.58    1.63
  -4 -13  -6    8.91    0.78
   4  13   6    9.91    1.14
  -5 -13  -6    5.99    0.63
   5  13   6    4.66    0.77
  -6 -13  -6   11.61    0.95
  -2  14   6    8.03    0.96
  -1  14   6   10.29    1.13
   0  14   6   30.54    1.73
   1  14   6    1.34    0.53
   2  14   6   23.48    1.55
   3  14   6   30.55    2.53
  -5 -14  -6   10.45    0.95
  -1   9  -7    7.96    1.11
   1  -9   7    8.55    0.93
  -2   9  -7    5.60    0.62
   2  -9   7    5.06    0.62
  -3   9  -7   21.96    1.20
   3  -9   7   22.71    1.27
  -4   9  -7    6.42    0.67
   4  -9   7    6.72    0.68
  -5   9  -7   10.64    0.91
   5  -9   7   12.14    0.99
   6  -9   7   14.60    1.12
   1   8  -7   10.54    0.93
  -1  -8   7   10.19    0.92
   0   8  -7   44.68    1.82
   0  -8   7   47.45    1.86
  -1   8  -7   14.99    1.00
   1  -8   7   14.90    1.02
  -2   8  -7   11.34    0.90
   2  -8   7   13.18    0.97
   2  -8   7   13.25    0.99
  -3   8  -7   28.52    1.34
   3  -8   7   28.25    1.37
   3  -8   7   29.78    1.36
  -4   8  -7    1.86    0.41
   4  -8   7    1.71    0.42
  -5   8  -7   19.10    1.10
   5  -8   7   21.08    1.17
  -6   8  -7   25.96    1.28
   6  -8   7   29.11    1.39
   7  -8   7    0.93    0.37
   8  -8   7   20.80    1.51
  -3  -7   7   38.44    1.66
  -2  -7   7    5.70    0.62
   1   7  -7    9.50    0.82
  -1  -7   7    7.99    0.80
   0   7  -7   31.11    1.39
   0  -7   7   33.49    1.44
  -1   7  -7    0.08    0.23
   1  -7   7   -0.10    0.24
   1  -7   7    0.29    0.30
  -2   7  -7   23.71    1.17
   2  -7   7   23.05    1.16
   2  -7   7   23.58    1.20
  -3   7  -7   29.72    1.29
   3  -7   7   28.44    1.31
   3  -7   7   29.24    1.31
  -4   7  -7    0.05    0.25
   4  -7   7    0.08    0.27
  -5   7  -7   24.03    1.16
   5  -7   7   23.03    1.20
  -6   7  -7   17.60    0.98
   6  -7   7   15.52    1.01
  -7   7  -7    1.62    0.42
   7  -7   7    2.04    0.42
   8  -7   7   22.88    1.26
   9  -7   7    8.04    0.84
  -5  -6   7    1.76    0.44
  -4  -6   7   16.57    1.04
  -3  -6   7   33.10    1.45
  -2  -6   7    0.90    0.32
   1   6  -7   42.12    1.64
  -1  -6   7   41.76    1.63
   0   6  -7   49.82    1.78
   0  -6   7   47.17    1.76
   0  -6   7   47.34    1.71
  -1   6  -7   -0.24    0.21
   1  -6   7   -0.24    0.22
   1  -6   7    0.22    0.27
  -2   6  -7   42.36    1.60
   2  -6   7   42.33    1.62
   2  -6   7   46.05    1.65
  -3   6  -7   11.66    0.78
   3  -6   7   10.82    0.81
   3  -6   7   11.76    0.79
  -4   6  -7    3.25    0.43
   4  -6   7    2.51    0.42
  -5   6  -7   61.29    2.08
   5  -6   7   63.13    2.15
  -6   6  -7   39.08    1.51
   6  -6   7   39.80    1.59
  -7   6  -7   12.00    0.80
   7  -6   7   11.22    0.85
   8  -6   7   18.45    1.08
   9  -6   7    2.44    0.44
  10  -6   7    9.16    0.88
  -6  -5   7   13.76    0.98
  -5  -5   7    0.72    0.34
  -4  -5   7   25.22    1.24
  -3  -5   7   17.78    1.02
  -2  -5   7    1.01    0.34
   1   5  -7   35.95    1.43
  -1  -5   7   37.06    1.38
  -1  -5   7   34.55    1.41
   0   5  -7   13.93    0.84
   0  -5   7   15.06    0.82
   0  -5   7   15.26    0.86
  -1   5  -7    2.92    0.40
   1  -5   7    2.39    0.37
   1  -5   7    3.32    0.41
  -2   5  -7   48.66    1.69
   2  -5   7   49.05    1.71
   2  -5   7   49.17    1.72
  -3   5  -7   12.78    0.75
   3  -5   7   10.90    0.76
   3  -5   7   11.68    0.77
  -4   5  -7    1.23    0.30
   4  -5   7    1.39    0.33
  -5   5  -7   33.12    1.28
   5  -5   7   31.74    1.33
  -6   5  -7    4.74    0.47
   6  -5   7    5.43    0.54
  -7   5  -7   32.03    1.29
   7  -5   7   32.29    1.40
  -8   5  -7   71.50    2.32
   8  -5   7   73.74    2.44
   9  -5   7   -0.26    0.24
  10  -5   7   27.20    1.35
  11  -5   7   23.36    1.30
  -7  -4   7   24.17    1.28
  -6  -4   7    9.47    0.83
  -5  -4   7    9.71    0.81
  -4  -4   7   72.66    2.36
  -3  -4   7   14.47    0.88
  -2  -4   7   17.29    0.86
  -2  -4   7   15.47    0.87
   1   4  -7   52.71    1.81
  -1  -4   7   54.16    1.82
  -1  -4   7   54.66    1.79
   0   4  -7    1.21    0.31
   0  -4   7    1.30    0.27
   0  -4   7    1.26    0.29
  -1   4  -7   52.50    1.75
   1  -4   7   54.44    1.77
   1  -4   7   52.29    1.77
  -2   4  -7   81.83    2.46
   2  -4   7   80.87    2.47
   2  -4   7   83.52    2.49
  -3   4  -7    6.57    0.56
   3  -4   7    6.78    0.60
  -4   4  -7   44.02    1.52
   4  -4   7   43.32    1.57
  -5   4  -7   59.37    1.90
   5  -4   7   59.95    1.98
  -6   4  -7   -0.26    0.17
   6  -4   7   -0.20    0.21
  -7   4  -7   30.23    1.20
   7  -4   7   29.78    1.29
  -8   4  -7   13.02    0.80
   8  -4   7   15.86    0.93
  -9   4  -7   -0.16    0.22
   9  -4   7    0.14    0.26
  10  -4   7   50.52    1.91
  11  -4   7   30.66    1.42
  12  -4   7    3.43    0.53
  -7  -3   7   40.82    1.64
  -6  -3   7   16.47    0.98
  -5  -3   7    7.64    0.71
  -4  -3   7   73.22    2.33
  -3  -3   7    0.91    0.29
  -3  -3   7    0.93    0.26
  -2  -3   7   51.53    1.70
  -2  -3   7   50.68    1.72
   1   3  -7   80.53    2.41
  -1  -3   7   78.41    2.37
  -1  -3   7   79.98    2.40
   0   3  -7    9.40    0.62
   0  -3   7   10.37    0.61
   0  -3   7   10.81    0.65
  -1   3  -7   53.61    1.69
   1  -3   7   50.96    1.69
   1  -3   7   51.14    1.68
  -2   3  -7   75.17    2.23
   2  -3   7   74.06    2.26
   2  -3   7   76.28    2.26
  -3   3  -7    1.76    0.28
   3  -3   7    2.15    0.30
  -4   3  -7  150.33    4.08
   4  -3   7  151.05    4.15
  -5   3  -7   12.75    0.69
   5  -3   7   12.44    0.73
  -6   3  -7    4.39    0.42
   6  -3   7    3.47    0.41
  -7   3  -7   55.53    1.79
   7  -3   7   53.52    1.87
  -8   3  -7    6.88    0.58
   8  -3   7    7.19    0.65
  -9   3  -7    8.22    0.67
   9  -3   7    8.09    0.74
 -10   3  -7   53.16    2.32
  10  -3   7   55.79    1.98
  11  -3   7    4.13    0.52
  12  -3   7    9.78    0.86
  13  -3   7   20.66    1.22
  -6  -2   7    3.41    0.44
  -5  -2   7   36.69    1.41
  -4  -2   7   71.89    2.21
  -4  -2   7   67.91    2.22
  -3  -2   7   -0.44    0.18
  -3  -2   7   -0.03    0.18
   2   2  -7   53.36    1.71
  -2  -2   7   50.60    1.69
  -2  -2   7   52.23    1.69
   1   2  -7   32.13    1.17
  -1  -2   7   32.34    1.18
  -1  -2   7   30.67    1.15
   0   2  -7    0.68    0.19
   0  -2   7    0.57    0.19
   0  -2   7    0.30    0.17
  -1   2  -7   48.70    1.54
   1  -2   7   48.79    1.56
   1  -2   7   48.27    1.56
  -2   2  -7   47.77    1.54
   2  -2   7   50.22    1.59
  -3   2  -7   17.96    0.78
   3  -2   7   18.92    0.83
  -4   2  -7  101.47    2.85
   4  -2   7  102.63    2.91
  -5   2  -7   10.38    0.59
   5  -2   7   12.78    0.69
  -6   2  -7    2.33    0.29
   6  -2   7    1.92    0.30
  -7   2  -7   26.49    1.05
   7  -2   7   26.50    1.11
  -8   2  -7    2.72    0.36
   8  -2   7    1.99    0.33
  -9   2  -7   29.39    1.22
   9  -2   7   28.25    1.25
 -10   2  -7   74.17    2.42
  10  -2   7   76.26    2.44
  11  -2   7    0.23    0.24
  12  -2   7    7.37    0.78
  13  -2   7    9.87    1.00
  -9  -1   7    0.56    0.34
  -8  -1   7   19.97    1.13
  -7  -1   7   44.08    1.66
  -6  -1   7    0.15    0.23
  -6  -1   7    0.44    0.24
  -5  -1   7   60.18    1.88
  -5  -1   7   58.18    2.00
  -5  -1   7   54.23    1.86
  -4  -1   7   67.51    2.10
  -4  -1   7   74.01    2.26
  -4  -1   7   68.77    2.14
   3   1  -7    8.14    0.57
  -3  -1   7    8.82    0.57
  -3  -1   7    8.22    0.62
  -3  -1   7    8.69    0.52
   2   1  -7   96.20    2.69
  -2  -1   7   94.30    2.69
  -2  -1   7   94.13    2.73
   1   1  -7   42.70    1.37
  -1  -1   7   41.22    1.37
  -1  -1   7   41.74    1.39
   0   1  -7    7.47    0.47
   0  -1   7    9.22    0.54
   0  -1   7    7.90    0.49
  -1   1  -7   86.86    2.43
   1  -1   7   86.06    2.46
  -2   1  -7   21.74    0.84
   2  -1   7   22.47    0.87
  -3   1  -7   93.40    2.57
   3  -1   7   90.96    2.61
  -4   1  -7   75.96    2.21
   4  -1   7   78.30    2.25
  -5   1  -7    2.98    0.31
   5  -1   7    3.95    0.39
  -6   1  -7   24.53    0.96
   6  -1   7   25.43    1.02
  -7   1  -7   39.89    1.41
   7  -1   7   42.67    1.46
  -8   1  -7    0.03    0.20
   8  -1   7   -0.12    0.18
  -9   1  -7   59.19    1.94
   9  -1   7   55.86    1.90
 -10   1  -7   19.58    1.03
  10  -1   7   21.04    1.02
 -11   1  -7    0.87    0.35
  11  -1   7    0.93    0.29
  12  -1   7   32.57    1.41
  -9   0   7    0.16    0.31
  -8   0   7   25.72    1.26
  -7   0   7   13.15    0.87
   6   0  -7    0.09    0.28
  -6   0   7    0.28    0.24
  -5   0   7   60.28    1.97
  -5   0   7   62.01    2.10
  -5   0   7   63.59    1.93
  -4   0   7    8.26    0.55
  -4   0   7    8.61    0.56
  -4   0   7    8.84    0.66
   3   0  -7   36.72    1.23
  -3   0   7   35.01    1.31
  -3   0   7   35.13    1.20
  -3   0   7   36.54    1.22
   2   0  -7  129.38    3.39
  -2   0   7  118.89    3.32
  -2   0   7  126.38    3.48
  -2   0   7  127.89    3.39
   1   0  -7    4.81    0.37
  -1   0   7    4.94    0.41
  -1   0   7    5.33    0.39
  -1   0   7    5.04    0.32
   0   0  -7   27.58    0.97
   0   0   7   28.11    0.90
   0   0   7   28.63    1.03
   0   0   7   29.75    1.01
  -1   0  -7  106.35    2.88
   1   0   7  107.02    2.93
  -2   0  -7    0.17    0.14
   2   0   7    0.03    0.12
  -3   0  -7  155.19    4.09
   3   0   7  156.65    4.13
  -4   0  -7  112.27    3.13
   4   0   7  120.25    3.18
  -5   0  -7    0.62    0.17
   5   0   7    1.22    0.21
  -6   0  -7  100.07    2.82
   6   0   7  101.18    2.83
  -7   0  -7   57.85    1.84
   7   0   7   59.61    1.84
  -8   0  -7    6.03    0.53
   8   0   7    6.73    0.55
  -9   0  -7  128.07    3.69
   9   0   7  130.64    3.63
 -10   0  -7   17.39    0.97
  10   0   7   18.18    0.89
 -11   0  -7    1.88    0.39
  11   0   7    2.19    0.36
 -12   0  -7   29.46    1.78
  -9   1   7    6.56    0.76
  -8   1   7   74.22    2.49
   7  -1  -7    3.24    0.48
  -7   1   7    5.60    0.61
   6  -1  -7   13.48    0.85
  -6   1   7   13.96    0.82
   5  -1  -7  145.47    3.81
  -5   1   7  137.07    3.90
  -5   1   7  141.03    4.04
   4  -1  -7   15.02    0.70
  -4   1   7   14.78    0.73
  -4   1   7   14.64    0.67
  -4   1   7   16.46    0.87
   3  -1  -7   31.09    1.04
  -3   1   7   28.61    1.07
  -3   1   7   30.84    1.19
  -3   1   7   31.95    1.05
   2  -1  -7  116.15    3.15
  -2   1   7  120.50    3.31
  -2   1   7  117.59    3.17
  -2   1   7  119.33    3.17
   1  -1  -7    2.07    0.23
  -1   1   7    2.03    0.24
  -1   1   7    2.18    0.24
  -1   1   7    1.78    0.25
   0  -1  -7  113.15    2.99
   0   1   7  111.08    2.89
   0   1   7  112.45    3.07
  -1  -1  -7  137.81    3.69
   1   1   7  144.26    3.55
   1   1   7  142.67    3.76
  -2  -1  -7    0.25    0.13
   2   1   7    0.43    0.15
  -3  -1  -7   55.36    1.64
   3   1   7   57.31    1.67
  -4  -1  -7  110.59    2.99
   4   1   7  109.80    2.99
  -5  -1  -7   12.41    0.60
   5   1   7   12.67    0.60
  -6  -1  -7  111.04    3.05
   6   1   7  108.17    3.00
  -7  -1  -7   32.98    1.10
  -7  -1  -7   33.85    1.23
   7   1   7   34.38    1.17
  -8  -1  -7    7.14    0.59
   8   1   7    8.82    0.57
  -9  -1  -7   46.29    1.66
  -9  -1  -7   41.97    1.86
   9   1   7   47.08    1.53
 -10  -1  -7    8.34    0.73
  10   1   7    8.63    0.59
 -11  -1  -7   13.68    0.89
 -12  -1  -7   35.90    1.56
 -10   2   7    1.52    0.59
  -9   2   7   30.75    1.46
   8  -2  -7   29.49    1.39
  -8   2   7   31.60    1.40
   7  -2  -7   19.83    1.08
  -7   2   7   21.72    1.08
   6  -2  -7   20.85    1.05
  -6   2   7   19.24    1.00
   5  -2  -7   46.96    1.66
  -5   2   7   45.76    1.60
   4  -2  -7    3.60    0.35
  -4   2   7    4.01    0.36
  -4   2   7    3.17    0.42
  -4   2   7    3.75    0.43
   3  -2  -7   75.59    2.10
  -3   2   7   74.30    2.21
  -3   2   7   75.91    2.33
  -3   2   7   78.51    2.12
   2  -2  -7  106.39    2.84
  -2   2   7  108.18    2.91
  -2   2   7  106.80    3.02
   1  -2  -7    8.29    0.42
  -1   2   7    7.90    0.51
  -1   2   7    7.96    0.41
   0  -2  -7  135.40    3.53
   0   2   7  140.63    3.66
   0   2   7  131.70    3.49
  -1  -2  -7  114.38    3.07
   1   2   7  118.69    3.15
   1   2   7  116.88    2.99
  -2  -2  -7   18.23    0.70
   2   2   7   19.67    0.61
   2   2   7   19.94    0.75
  -3  -2  -7   77.44    2.20
   3   2   7   80.28    2.12
   3   2   7   79.72    2.21
  -4  -2  -7   47.19    1.46
   4   2   7   48.70    1.45
  -5  -2  -7   41.70    1.32
   5   2   7   38.61    1.25
  -6  -2  -7  144.02    3.83
   6   2   7  138.26    3.72
  -7  -2  -7    0.07    0.17
   7   2   7    0.40    0.15
  -8  -2  -7   83.43    2.51
  -8  -2  -7   83.59    2.38
   8   2   7   80.43    2.34
  -9  -2  -7   53.31    1.88
  -9  -2  -7   55.25    1.78
   9   2   7   56.06    1.71
 -10  -2  -7    2.22    0.39
 -11  -2  -7   30.54    1.39
 -11  -2  -7   32.40    1.32
 -12  -2  -7   20.49    1.44
 -12  -2  -7   21.74    1.19
 -13  -2  -7    1.66    0.44
 -10   3   7    0.14    0.43
   9  -3  -7   27.84    1.44
  -9   3   7   32.75    1.49
   8  -3  -7   14.87    1.01
  -8   3   7   16.88    1.02
   7  -3  -7    4.88    0.58
  -7   3   7    4.41    0.51
   6  -3  -7   96.61    2.95
  -6   3   7   94.40    2.89
   5  -3  -7   95.34    2.81
  -5   3   7   89.92    2.74
   4  -3  -7    0.72    0.24
  -4   3   7    0.66    0.22
   3  -3  -7   36.99    1.10
  -3   3   7   34.72    1.24
  -3   3   7   38.00    1.38
   2  -3  -7    5.73    0.35
  -2   3   7    5.12    0.46
  -2   3   7    6.05    0.42
   1  -3  -7   34.74    1.05
  -1   3   7   33.93    1.21
  -1   3   7   34.87    1.11
   0  -3  -7  147.67    3.79
   0   3   7  142.86    3.91
   0   3   7  149.81    3.82
  -1  -3  -7    7.06    0.39
   1   3   7    7.14    0.45
   1   3   7    6.74    0.37
  -2  -3  -7   27.29    0.92
   2   3   7   27.52    0.95
   2   3   7   28.14    0.92
  -3  -3  -7  269.62    6.76
   3   3   7  278.13    6.80
   3   3   7  250.98    6.72
  -4  -3  -7   29.38    1.00
   4   3   7   26.79    0.93
  -5  -3  -7   20.86    0.83
   5   3   7   19.84    0.74
  -6  -3  -7   97.13    2.71
   6   3   7   91.92    2.56
  -7  -3  -7    7.91    0.57
   7   3   7    7.47    0.44
  -8  -3  -7   47.51    1.61
   8   3   7   44.08    1.40
  -9  -3  -7   83.51    2.60
 -10  -3  -7    9.41    0.66
 -10  -3  -7    8.61    0.73
 -11  -3  -7   43.10    1.72
 -11  -3  -7   42.63    1.62
 -12  -3  -7   14.58    0.94
 -12  -3  -7   12.45    0.95
 -13  -3  -7   12.82    0.99
 -13  -3  -7   12.82    0.91
  10  -4  -7    3.22    0.56
 -10   4   7    5.58    0.97
   9  -4  -7   17.31    1.11
  -9   4   7   16.11    1.08
   8  -4  -7   38.28    1.62
  -8   4   7   39.33    1.61
   7  -4  -7    6.09    0.64
  -7   4   7    6.44    0.66
   6  -4  -7  102.43    3.10
  -6   4   7  100.17    3.04
   5  -4  -7   20.94    1.03
  -5   4   7   19.94    0.96
   4  -4  -7   18.28    0.88
  -4   4   7   18.77    0.86
   3  -4  -7   71.94    2.21
  -3   4   7   73.74    2.19
   2  -4  -7   18.89    0.63
  -2   4   7   18.00    0.77
  -2   4   7   17.33    0.84
   1  -4  -7   16.82    0.59
  -1   4   7   15.65    0.69
   0  -4  -7  104.08    2.71
   0   4   7   99.76    2.84
   0   4   7  104.14    2.82
  -1  -4  -7   23.05    0.79
   1   4   7   23.85    0.88
   1   4   7   21.65    0.85
  -2  -4  -7  190.02    4.97
   2   4   7  195.58    5.01
   2   4   7  196.33    5.09
  -3  -4  -7  101.60    2.77
   3   4   7  103.43    2.74
   3   4   7  100.30    2.88
  -4  -4  -7    8.58    0.50
   4   4   7    7.81    0.41
  -5  -4  -7   73.46    2.14
   5   4   7   71.00    1.99
  -6  -4  -7  105.05    2.91
   6   4   7   99.03    2.71
  -7  -4  -7   26.28    1.06
   7   4   7   24.74    0.86
  -8  -4  -7   55.46    1.87
  -9  -4  -7   53.34    1.88
 -10  -4  -7    9.15    0.75
 -11  -4  -7   37.59    1.59
 -12  -4  -7    7.14    0.72
 -13  -4  -7   12.40    0.97
  10  -5  -7    6.00    0.73
   9  -5  -7   31.34    1.51
  -9   5   7   34.76    1.58
   8  -5  -7    8.35    0.78
  -8   5   7    7.13    0.77
   7  -5  -7    9.89    0.82
  -7   5   7    9.51    0.77
   6  -5  -7   43.54    1.69
  -6   5   7   45.00    1.67
   5  -5  -7    0.99    0.29
  -5   5   7    1.10    0.28
   4  -5  -7   50.37    1.73
  -4   5   7   51.39    1.74
   3  -5  -7   56.56    1.84
  -3   5   7   58.04    1.85
   2  -5  -7    1.32    0.16
   2  -5  -7    1.20    0.24
  -2   5   7    1.11    0.24
   1  -5  -7   43.67    1.22
  -1   5   7   39.75    1.43
  -1   5   7   43.54    1.44
   0  -5  -7   64.51    1.77
   0   5   7   65.87    1.96
   0   5   7   60.93    1.92
  -1  -5  -7    5.64    0.36
   1   5   7    5.56    0.43
   1   5   7    4.93    0.46
  -2  -5  -7  163.27    4.34
   2   5   7  167.79    4.54
   2   5   7  170.92    4.38
  -3  -5  -7   26.15    0.95
   3   5   7   27.40    0.91
   3   5   7   25.79    1.09
  -4  -5  -7   16.32    0.72
   4   5   7   16.02    0.63
  -5  -5  -7  121.17    3.39
   5   5   7  125.28    3.23
  -6  -5  -7   16.79    0.83
   6   5   7   18.64    0.65
  -7  -5  -7   16.20    0.83
  -8  -5  -7  237.00    6.33
  -9  -5  -7    1.67    0.39
 -10  -5  -7    8.07    0.77
 -11  -5  -7   25.45    1.29
 -12  -5  -7   -0.15    0.29
 -13  -5  -7   23.76    1.33
  10  -6  -7   12.15    1.10
   9  -6  -7   46.92    1.93
  -9   6   7   48.25    1.98
   8  -6  -7    3.30    0.51
  -8   6   7    2.95    0.50
   7  -6  -7   37.21    1.57
  -7   6   7   37.46    1.57
   6  -6  -7   35.35    1.48
  -6   6   7   34.98    1.45
   5  -6  -7    5.92    0.61
  -5   6   7    5.43    0.57
   4  -6  -7   47.70    1.67
  -4   6   7   45.26    1.66
   3  -6  -7   63.46    2.01
  -3   6   7   60.94    2.02
   2  -6  -7    8.58    0.58
  -2   6   7    9.37    0.64
   1  -6  -7   75.47    2.03
   1  -6  -7   74.97    2.23
  -1   6   7   76.32    2.34
   0  -6  -7   46.73    1.36
   0   6   7   47.39    1.63
   0   6   7   45.96    1.53
  -1  -6  -7  105.42    2.81
   1   6   7  109.02    3.11
   1   6   7  100.40    2.91
  -2  -6  -7   90.56    2.51
   2   6   7   89.56    2.76
   2   6   7   92.64    2.54
  -3  -6  -7   56.72    1.72
   3   6   7   57.42    1.67
   3   6   7   55.97    1.93
  -4  -6  -7    8.77    0.54
   4   6   7    7.83    0.45
  -5  -6  -7   96.21    2.80
   5   6   7   99.00    2.62
  -6  -6  -7    7.15    0.58
  -7  -6  -7   40.25    1.49
  -8  -6  -7   80.22    2.55
  -9  -6  -7    0.46    0.27
 -10  -6  -7   19.14    1.09
 -11  -6  -7   33.17    1.54
 -12  -6  -7    0.92    0.37
   9  -7  -7   28.89    1.48
  -9   7   7   29.49    1.52
   8  -7  -7    0.29    0.30
  -8   7   7    0.44    0.33
   7  -7  -7   41.33    1.71
  -7   7   7   41.58    1.74
   6  -7  -7   32.24    1.42
  -6   7   7   31.89    1.44
   5  -7  -7    2.86    0.40
  -5   7   7    3.58    0.48
   4  -7  -7   74.10    2.36
  -4   7   7   73.04    2.43
   3  -7  -7   36.07    1.37
  -3   7   7   35.53    1.45
   2  -7  -7   27.64    1.12
  -2   7   7   28.11    1.23
   1  -7  -7   83.04    2.45
  -1   7   7   82.89    2.60
   0  -7  -7    7.41    0.50
   0  -7  -7    6.69    0.41
   0   7   7    6.01    0.60
  -1  -7  -7   99.89    2.76
  -1  -7  -7  102.95    2.83
   1   7   7  103.78    3.13
  -2  -7  -7  126.21    3.32
  -2  -7  -7  124.14    3.33
   2   7   7  119.98    3.64
  -3  -7  -7    9.83    0.58
   3   7   7    9.40    0.75
  -4  -7  -7   59.03    1.83
   4   7   7   57.87    1.73
  -5  -7  -7   30.00    1.17
  -6  -7  -7    7.59    0.61
  -7  -7  -7  147.16    4.14
  -8  -7  -7   27.62    1.25
  -9  -7  -7    0.17    0.27
 -10  -7  -7   19.40    1.14
 -11  -7  -7   18.30    1.12
 -12  -7  -7    0.65    0.33
   9  -8  -7   17.92    1.21
  -9   8   7   17.24    1.37
   8  -8  -7   10.18    0.92
  -8   8   7   10.41    0.96
   7  -8  -7   54.06    2.03
  -7   8   7   53.26    2.12
   6  -8  -7   16.89    1.04
  -6   8   7   15.55    1.05
   5  -8  -7    0.17    0.25
  -5   8   7    0.01    0.23
   4  -8  -7   55.07    1.89
  -4   8   7   53.02    2.01
   3  -8  -7   22.17    1.03
  -3   8   7   20.28    1.13
   2  -8  -7   18.99    0.93
  -2   8   7   19.25    1.04
   1  -8  -7   38.53    1.40
  -1   8   7   41.81    1.62
   0  -8  -7   16.59    0.77
   0  -8  -7   15.67    0.65
   0   8   7   15.71    0.96
  -1  -8  -7   58.24    1.73
  -1  -8  -7   58.63    1.80
   1   8   7   59.38    2.12
  -2  -8  -7   91.60    2.50
  -2  -8  -7   88.92    2.51
   2   8   7   85.60    2.85
  -3  -8  -7    1.20    0.23
   3   8   7    0.83    0.33
  -4  -8  -7   55.01    1.77
  -5  -8  -7   39.72    1.43
  -6  -8  -7   17.54    0.91
  -7  -8  -7   44.20    1.67
  -8  -8  -7    7.43    0.76
  -9  -8  -7   12.65    0.88
 -10  -8  -7   57.44    2.12
 -11  -8  -7    4.46    0.61
   8  -9  -7   11.38    0.99
  -8   9   7   11.68    1.03
   7  -9  -7   33.90    1.56
  -7   9   7   33.48    1.65
   6  -9  -7    3.56    0.50
  -6   9   7    2.99    0.53
   5  -9  -7   10.13    0.81
  -5   9   7   10.48    0.90
   4  -9  -7   31.56    1.37
  -4   9   7   32.99    1.54
   3  -9  -7    0.81    0.29
  -3   9   7    0.60    0.31
   2  -9  -7   79.56    2.47
  -2   9   7   79.80    2.72
   1  -9  -7   57.97    1.90
  -1   9   7   59.08    2.17
   0  -9  -7    2.56    0.33
   0   9   7    3.01    0.50
  -1  -9  -7   39.20    1.33
  -1  -9  -7   38.34    1.26
   1   9   7   37.51    1.65
  -2  -9  -7    9.85    0.61
   2   9   7    9.82    0.88
  -3  -9  -7   36.92    1.28
   3   9   7   34.44    1.60
  -4  -9  -7   79.54    2.41
  -5  -9  -7   36.43    1.38
  -6  -9  -7   37.37    1.47
  -7  -9  -7   38.92    1.55
  -8  -9  -7    3.85    0.51
  -9  -9  -7   11.11    0.88
 -10  -9  -7   25.88    1.39
   7 -10  -7   16.24    1.08
  -7  10   7   14.20    1.12
   6 -10  -7   -0.18    0.26
  -6  10   7   -0.29    0.26
   5 -10  -7   33.74    1.48
  -5  10   7   31.30    1.60
   4 -10  -7   31.44    1.38
  -4  10   7   28.66    1.52
   3 -10  -7    0.53    0.30
  -3  10   7    0.30    0.31
   2 -10  -7   36.27    1.41
  -2  10   7   37.03    1.67
  -1  10   7    7.17    0.83
   0 -10  -7   43.03    1.51
   0  10   7   43.89    1.87
   1  10   7   96.50    3.21
  -2 -10  -7   17.54    0.83
   2  10   7   20.65    1.25
  -3 -10  -7   48.60    1.61
   3  10   7   46.15    1.99
  -4 -10  -7  102.29    2.96
   4  10   7   99.23    3.34
  -5 -10  -7    0.46    0.27
  -6 -10  -7   52.26    1.87
  -7 -10  -7   52.00    1.90
  -8 -10  -7    3.15    0.48
  -9 -10  -7   37.65    1.64
   7 -11  -7   20.72    1.24
  -7  11   7   17.89    1.36
   6 -11  -7    0.66    0.36
  -6  11   7    1.47    0.47
   5 -11  -7   38.95    1.63
  -5  11   7   36.83    1.83
   4 -11  -7   12.55    0.92
  -4  11   7   10.76    1.07
   3 -11  -7    1.55    0.37
  -3  11   7    1.71    0.44
   2 -11  -7   40.58    1.56
  -2  11   7   40.08    1.83
   1 -11  -7   21.29    1.04
   0  11   7   29.25    1.52
   1  11   7   58.37    2.32
  -2 -11  -7    8.88    0.63
   2  11   7   12.55    1.05
  -3 -11  -7   19.28    0.94
   3  11   7   17.87    1.25
  -4 -11  -7   34.00    1.38
   4  11   7   37.04    1.75
  -5 -11  -7    0.17    0.26
  -6 -11  -7   34.33    1.47
  -7 -11  -7   29.02    1.36
  -8 -11  -7    0.10    0.30
  -9 -11  -7   29.00    2.00
   6 -12  -7   12.09    0.98
  -6  12   7   12.13    1.30
   5 -12  -7   24.35    1.29
  -5  12   7   19.76    1.41
  -4  12   7    0.50    0.40
   3 -12  -7   10.17    0.85
  -3  12   7   10.50    1.01
   2 -12  -7   26.01    1.24
  -2  12   7   28.36    1.53
   0  12   7   37.61    1.82
   1  12   7   54.92    2.29
  -3 -12  -7   27.23    1.20
   3  12   7   30.26    1.63
  -4 -12  -7    3.79    0.47
   4  12   7    4.49    0.70
  -5 -12  -7   11.44    0.80
   5  12   7   10.01    1.07
  -6 -12  -7   41.59    1.67
  -7 -12  -7   17.80    1.11
  -8 -12  -7    8.55    1.15
   5 -13  -7   13.91    1.05
   4 -13  -7    0.19    0.30
  -4  13   7    0.16    0.38
   3 -13  -7    5.80    0.63
  -3  13   7    6.78    0.84
  -2  13   7    6.31    0.83
  -1  13   7    3.74    0.65
   0  13   7   36.51    1.85
   1  13   7   24.21    1.49
   2  13   7    3.74    0.67
   3  13   7   39.50    1.94
  -4 -13  -7    3.62    0.47
   4  13   7    3.74    0.68
  -5 -13  -7    9.31    0.83
   5  13   7   10.11    1.15
  -6 -13  -7   28.48    1.40
   4 -14  -7    0.32    0.35
  -2  14   7    1.89    0.86
  -1  14   7    3.77    0.71
   0  14   7   17.88    1.36
   1  14   7    2.09    0.59
   2  14   7   23.86    1.54
   3  14   7   25.05    2.17
  -5 -14  -7   20.57    1.18
  -1   8  -8    8.36    1.15
   1  -8   8    9.33    0.93
  -2   8  -8    5.53    0.65
   2  -8   8    6.12    0.69
  -3   8  -8   32.04    1.50
   3  -8   8   35.35    1.55
  -4   8  -8    4.81    0.59
   4  -8   8    5.74    0.62
  -5   8  -8    5.41    0.64
   5  -8   8    5.50    0.63
  -6   8  -8   17.00    1.08
   6  -8   8   18.72    1.18
   1   7  -8    2.09    0.44
  -1  -7   8    1.80    0.44
   0   7  -8   26.32    1.29
   0  -7   8   24.13    1.28
  -1   7  -8    3.27    0.51
   1  -7   8    3.41    0.51
  -2   7  -8   18.46    1.06
   2  -7   8   18.25    1.10
   2  -7   8   17.71    1.08
  -3   7  -8   24.04    1.21
   3  -7   8   26.19    1.27
  -4   7  -8    2.02    0.42
   4  -7   8    2.13    0.42
  -5   7  -8   10.26    0.85
   5  -7   8   10.59    0.87
  -6   7  -8   25.27    1.27
   6  -7   8   28.05    1.35
  -7   7  -8   -0.22    0.24
   7  -7   8   -0.23    0.28
   8  -7   8   20.95    1.24
   3   6  -8   25.89    1.32
  -3  -6   8   24.70    1.28
   2   6  -8    2.68    0.48
  -2  -6   8    2.78    0.48
   1   6  -8   12.99    0.90
  -1  -6   8   12.72    0.92
   0   6  -8   20.59    1.10
   0  -6   8   20.63    1.12
  -1   6  -8    0.59    0.32
   1  -6   8    0.81    0.34
   1  -6   8    0.91    0.33
  -2   6  -8   25.51    1.20
   2  -6   8   24.21    1.22
   2  -6   8   25.63    1.23
  -3   6  -8   21.95    1.11
   3  -6   8   23.45    1.17
  -4   6  -8    0.14    0.27
   4  -6   8    0.47    0.30
  -5   6  -8   37.18    1.49
   5  -6   8   36.79    1.54
  -6   6  -8   12.91    0.86
   6  -6   8   11.91    0.88
  -7   6  -8    3.12    0.45
   7  -6   8    1.71    0.40
  -8   6  -8   30.24    1.35
   8  -6   8   27.76    1.39
   9  -6   8    3.41    0.51
  -5  -5   8   -0.13    0.31
  -4  -5   8   10.47    0.85
   3   5  -8   26.88    1.30
  -3  -5   8   25.38    1.27
   2   5  -8    0.65    0.34
  -2  -5   8    0.95    0.36
   1   5  -8   53.68    1.95
  -1  -5   8   55.32    1.98
  -1  -5   8   56.47    2.15
   0   5  -8   39.86    1.59
   0  -5   8   42.04    1.58
   0  -5   8   40.99    1.61
  -1   5  -8    0.01    0.24
   1  -5   8    0.03    0.27
   1  -5   8   -0.11    0.22
  -2   5  -8   34.71    1.38
   2  -5   8   34.72    1.40
   2  -5   8   33.22    1.38
  -3   5  -8    3.27    0.42
   3  -5   8    3.44    0.45
  -4   5  -8    2.26    0.37
   4  -5   8    2.50    0.39
  -5   5  -8   56.72    1.94
   5  -5   8   57.73    2.02
  -6   5  -8    0.46    0.28
   6  -5   8    0.89    0.32
  -7   5  -8   48.15    1.73
   7  -5   8   45.20    1.78
  -8   5  -8   28.66    1.25
   8  -5   8   27.25    1.32
   9  -5   8    2.07    0.44
  10  -5   8   16.31    1.11
  11  -5   8   33.07    2.19
  -6  -4   8   15.82    1.08
  -5  -4   8   -0.05    0.28
  -4  -4   8   27.19    1.28
   3   4  -8   17.24    0.99
  -3  -4   8   18.91    1.02
   2   4  -8    4.42    0.51
  -2  -4   8    5.05    0.54
  -2  -4   8    5.53    0.56
   1   4  -8   72.53    2.34
  -1  -4   8   72.14    2.34
  -1  -4   8   71.54    2.31
   0   4  -8   10.93    0.77
   0  -4   8   11.35    0.74
   0  -4   8   12.36    0.81
  -1   4  -8    1.30    0.31
   1  -4   8    1.01    0.30
   1  -4   8    0.77    0.27
  -2   4  -8   51.37    1.75
   2  -4   8   53.53    1.80
   2  -4   8   49.47    1.77
  -3   4  -8    6.65    0.58
   3  -4   8    6.91    0.62
  -4   4  -8   23.59    1.05
   4  -4   8   22.59    1.06
  -5   4  -8   69.74    2.19
   5  -4   8   68.33    2.26
  -6   4  -8    0.09    0.20
   6  -4   8   -0.27    0.23
  -7   4  -8   24.83    1.10
   7  -4   8   23.16    1.16
  -8   4  -8   31.94    1.33
   8  -4   8   32.53    1.41
  -9   4  -8   -0.04    0.24
   9  -4   8    0.09    0.28
  10  -4   8   31.23    1.45
  11  -4   8   20.57    1.18
  12  -4   8   -0.08    0.37
  -6  -3   8    5.30    0.59
  -5  -3   8    3.52    0.47
  -4  -3   8   54.44    1.92
   3   3  -8   28.41    1.25
  -3  -3   8   29.00    1.25
  -3  -3   8   26.85    1.22
   2   3  -8   17.04    0.92
  -2  -3   8   15.79    0.91
  -2  -3   8   15.79    0.87
   1   3  -8   38.92    1.44
  -1  -3   8   39.48    1.45
  -1  -3   8   39.50    1.46
   0   3  -8   -0.29    0.19
   0  -3   8    0.06    0.23
   0  -3   8   -0.15    0.18
  -1   3  -8   73.16    2.24
   1  -3   8   72.89    2.26
   1  -3   8   71.55    2.25
  -2   3  -8   59.76    1.92
   2  -3   8   60.38    1.95
  -3   3  -8    3.94    0.40
   3  -3   8    4.11    0.45
  -4   3  -8   38.71    1.37
   4  -3   8   38.04    1.42
  -5   3  -8   47.07    1.60
   5  -3   8   47.10    1.67
  -6   3  -8   22.55    0.97
   6  -3   8   20.60    1.05
  -7   3  -8   50.43    1.71
   7  -3   8   48.08    1.78
  -8   3  -8   15.21    0.85
   8  -3   8   15.41    0.93
  -9   3  -8    9.74    0.75
   9  -3   8    8.47    0.76
 -10   3  -8   58.22    2.07
  10  -3   8   59.48    2.13
  11  -3   8   20.75    1.16
  12  -3   8    4.71    0.58
  -6  -2   8    4.96    0.54
  -5  -2   8    8.58    0.72
   4   2  -8   69.73    2.21
  -4  -2   8   66.27    2.17
  -4  -2   8   64.52    2.23
   3   2  -8   11.79    0.76
  -3  -2   8   12.12    0.80
  -3  -2   8   10.69    0.74
   2   2  -8   36.74    1.37
  -2  -2   8   39.12    1.42
  -2  -2   8   36.57    1.39
   1   2  -8   74.90    2.25
  -1  -2   8   72.38    2.25
  -1  -2   8   72.83    2.26
   0   2  -8    1.34    0.27
   0  -2   8    1.16    0.27
   0  -2   8    1.34    0.28
  -1   2  -8   60.51    1.87
   1  -2   8   58.71    1.90
   1  -2   8   60.56    1.90
  -2   2  -8   73.48    2.18
   2  -2   8   71.76    2.21
  -3   2  -8   -0.07    0.17
   3  -2   8   -0.60    0.18
  -4   2  -8   78.00    2.29
   4  -2   8   76.10    2.34
  -5   2  -8    2.12    0.29
   5  -2   8    1.76    0.30
  -6   2  -8    8.66    0.60
   6  -2   8    7.97    0.63
  -7   2  -8  114.51    3.26
   7  -2   8  113.33    3.31
  -8   2  -8    3.12    0.38
   8  -2   8    2.73    0.39
  -9   2  -8   41.10    1.55
   9  -2   8   40.76    1.58
 -10   2  -8   39.24    1.57
  10  -2   8   40.63    1.60
 -11   2  -8    3.26    0.54
  11  -2   8    3.83    0.50
  12  -2   8   11.52    0.91
  13  -2   8   15.61    1.05
   5   1  -8   24.01    1.09
  -5  -1   8   22.21    1.18
  -5  -1   8   23.60    1.06
   4   1  -8   71.71    2.22
  -4  -1   8   69.43    2.31
  -4  -1   8   69.06    2.19
   3   1  -8    0.66    0.27
  -3  -1   8    0.30    0.24
  -3  -1   8    0.81    0.27
   2   1  -8   34.83    1.26
  -2  -1   8   35.81    1.29
  -2  -1   8   35.28    1.34
   1   1  -8   64.11    1.98
  -1  -1   8   65.06    2.00
  -1  -1   8   66.73    2.05
   0   1  -8   11.28    0.61
   0  -1   8   11.13    0.62
   0  -1   8   10.58    0.63
  -1   1  -8   53.25    1.64
   1  -1   8   51.61    1.69
  -2   1  -8   43.52    1.43
   2  -1   8   44.82    1.48
  -3   1  -8   13.35    0.64
   3  -1   8   12.26    0.67
  -4   1  -8   72.61    2.13
   4  -1   8   71.74    2.18
  -5   1  -8    3.00    0.32
   5  -1   8    3.54    0.37
  -6   1  -8   33.67    1.23
   6  -1   8   34.64    1.28
  -7   1  -8   90.63    2.70
   7  -1   8   93.85    2.74
  -8   1  -8    0.18    0.22
   8  -1   8    0.23    0.23
  -9   1  -8   57.93    1.96
   9  -1   8   58.38    1.97
 -10   1  -8   51.20    1.82
  10  -1   8   47.89    1.76
 -11   1  -8    2.84    0.48
  11  -1   8    2.95    0.43
  12  -1   8   24.06    1.21
   6   0  -8    0.51    0.29
   5   0  -8   35.17    1.29
  -5   0   8   31.94    1.43
  -5   0   8   32.92    1.29
   4   0  -8   27.78    1.12
  -4   0   8   28.91    1.25
  -4   0   8   28.31    1.12
   3   0  -8    5.35    0.48
  -3   0   8    5.85    0.50
  -3   0   8    5.53    0.55
   2   0  -8   83.49    2.41
  -2   0   8   85.80    2.43
  -2   0   8   82.78    2.53
   1   0  -8   45.90    1.45
  -1   0   8   44.74    1.47
  -1   0   8   44.44    1.52
   0   0  -8    8.59    0.50
   0   0   8    8.36    0.54
  -1   0  -8   77.64    2.20
   1   0   8   76.08    2.26
  -2   0  -8    1.45    0.23
   2   0   8    1.74    0.26
  -3   0  -8   66.23    1.98
   3   0   8   68.94    2.03
  -4   0  -8   25.64    0.97
   4   0   8   27.45    1.02
  -5   0  -8    2.17    0.28
   5   0   8    2.23    0.28
  -6   0  -8  107.98    3.00
   6   0   8  104.96    3.00
  -7   0  -8  111.47    3.19
   7   0   8  113.33    3.19
  -8   0  -8    9.44    0.68
   8   0   8   10.32    0.69
  -9   0  -8   76.46    2.43
   9   0   8   76.96    2.38
 -10   0  -8   30.33    1.35
  10   0   8   32.05    1.28
 -11   0  -8    2.36    0.45
  11   0   8    2.31    0.38
 -12   0  -8   26.81    1.36
  -9   1   8    3.79    0.55
  -8   1   8   20.91    1.14
   7  -1  -8    5.71    0.62
  -7   1   8    7.71    0.72
   6  -1  -8   25.00    1.18
  -6   1   8   22.43    1.08
  -5   1   8   81.25    2.58
  -5   1   8   91.47    2.80
   4  -1  -8   31.32    1.14
  -4   1   8   30.78    1.15
  -4   1   8   33.79    1.38
  -4   1   8   31.35    1.19
   3  -1  -8    9.37    0.55
  -3   1   8    8.16    0.54
  -3   1   8    8.07    0.66
  -3   1   8    8.75    0.55
   2  -1  -8   66.28    1.92
  -2   1   8   64.11    2.06
  -2   1   8   63.67    1.99
  -2   1   8   66.86    1.93
   1  -1  -8    1.80    0.25
  -1   1   8    2.63    0.33
   0  -1  -8   32.27    1.08
   0   1   8   33.10    1.18
  -1  -1  -8  124.95    3.31
   1   1   8  122.60    3.38
  -2  -1  -8    0.02    0.13
   2   1   8    0.30    0.16
  -3  -1  -8   87.84    2.50
   3   1   8   91.81    2.55
  -4  -1  -8  110.96    3.06
   4   1   8  113.31    3.09
  -5  -1  -8    6.84    0.48
   5   1   8    6.83    0.48
  -6  -1  -8   43.41    1.45
   6   1   8   43.53    1.44
  -7  -1  -8   16.54    0.83
   7   1   8   17.13    0.78
  -8  -1  -8   72.38    2.26
   8   1   8   71.59    2.18
  -9  -1  -8  233.17    6.21
   9   1   8  230.05    6.09
 -10  -1  -8   55.86    1.97
  10   1   8   54.67    1.82
 -11  -1  -8    4.92    0.56
 -12  -1  -8   16.90    1.08
 -13  -1  -8    0.00    0.51
  -9   2   8   15.55    1.06
   8  -2  -8   56.16    2.12
  -8   2   8   58.26    2.11
   7  -2  -8    6.10    0.64
  -7   2   8    4.26    0.52
   6  -2  -8   19.42    1.06
  -6   2   8   19.15    0.99
   5  -2  -8   81.93    2.47
  -5   2   8   71.22    2.35
   4  -2  -8   -0.13    0.19
  -4   2   8    0.30    0.25
  -4   2   8    0.12    0.20
   3  -2  -8   88.87    2.41
  -3   2   8   89.77    2.66
  -3   2   8   81.06    2.47
   2  -2  -8   80.54    2.24
  -2   2   8   77.91    2.27
  -2   2   8   82.69    2.45
   1  -2  -8    0.10    0.15
  -1   2   8    0.32    0.13
  -1   2   8    0.26    0.19
   0  -2  -8  101.88    2.75
   0   2   8  102.80    2.69
   0   2   8  101.09    2.87
  -1  -2  -8  106.46    2.96
   1   2   8  117.37    3.03
   1   2   8  107.24    3.04
  -2  -2  -8    0.13    0.14
   2   2   8    0.24    0.14
  -3  -2  -8   78.88    2.22
   3   2   8   78.11    2.24
  -4  -2  -8   51.22    1.56
   4   2   8   49.15    1.54
  -5  -2  -8   40.59    1.35
   5   2   8   40.58    1.32
  -6  -2  -8   85.44    2.54
   6   2   8   90.24    2.49
  -7  -2  -8   11.22    0.68
   7   2   8   11.62    0.60
  -8  -2  -8   26.97    1.13
   8   2   8   25.23    0.99
  -9  -2  -8  109.98    3.25
   9   2   8  108.42    3.06
 -10  -2  -8   17.90    1.02
 -11  -2  -8   40.69    1.65
 -12  -2  -8   29.54    1.42
 -13  -2  -8    0.87    0.39
   9  -3  -8   16.52    1.13
  -9   3   8   18.46    1.16
   8  -3  -8   50.24    1.97
  -8   3   8   51.03    1.96
   7  -3  -8    8.15    0.78
  -7   3   8    8.01    0.76
   6  -3  -8   22.55    1.15
  -6   3   8   24.93    1.15
   5  -3  -8   94.26    2.89
  -5   3   8   93.65    2.83
  -4   3   8    3.72    0.41
  -4   3   8    2.91    0.44
   3  -3  -8   50.31    1.49
  -3   3   8   49.76    1.76
  -3   3   8   51.34    1.63
   2  -3  -8   77.20    2.10
  -2   3   8   75.03    2.19
  -2   3   8   75.50    2.33
   1  -3  -8    0.17    0.13
  -1   3   8    0.37    0.14
  -1   3   8   -0.01    0.17
   0  -3  -8   42.89    1.29
   0   3   8   42.24    1.28
   0   3   8   41.75    1.41
  -1  -3  -8   54.35    1.56
   1   3   8   51.50    1.64
   1   3   8   53.03    1.52
  -2  -3  -8   19.32    0.75
   2   3   8   18.48    0.67
   2   3   8   19.46    0.79
  -3  -3  -8   91.80    2.52
   3   3   8   91.93    2.47
   3   3   8   87.84    2.52
  -4  -3  -8    0.47    0.18
   4   3   8    0.57    0.18
   4   3   8    0.41    0.15
  -5  -3  -8   66.54    1.96
   5   3   8   63.21    1.88
  -6  -3  -8   62.88    1.93
   6   3   8   62.10    1.83
  -7  -3  -8    2.99    0.37
   7   3   8    1.97    0.25
  -8  -3  -8   45.45    1.61
   8   3   8   44.20    1.43
  -9  -3  -8   70.82    2.31
 -10  -3  -8    3.43    0.46
 -11  -3  -8   39.30    1.63
 -12  -3  -8    9.78    0.87
 -13  -3  -8   10.71    0.96
   9  -4  -8   29.23    1.49
  -9   4   8   28.63    1.45
   8  -4  -8    5.77    0.65
  -8   4   8    6.98    0.76
   7  -4  -8    2.23    0.46
  -7   4   8    2.29    0.43
   6  -4  -8   76.86    2.55
  -6   4   8   77.93    2.51
   5  -4  -8   52.17    1.86
  -5   4   8   51.93    1.80
   4  -4  -8   15.90    0.87
  -4   4   8   16.40    0.84
  -3   4   8   46.64    1.68
  -3   4   8   45.67    1.54
   2  -4  -8   24.57    0.80
  -2   4   8   21.81    0.91
  -2   4   8   22.95    1.04
   1  -4  -8   29.93    0.94
  -1   4   8   29.67    1.04
  -1   4   8   27.07    1.10
   0  -4  -8   44.28    1.32
   0   4   8   45.06    1.40
   0   4   8   42.70    1.46
  -1  -4  -8    2.03    0.22
   1   4   8    1.53    0.22
   1   4   8    1.72    0.25
  -2  -4  -8  104.54    2.81
   2   4   8  102.53    2.85
   2   4   8  103.76    2.87
  -3  -4  -8  194.19    5.09
   3   4   8  197.37    5.09
   3   4   8  197.71    5.16
  -4  -4  -8    3.13    0.31
   4   4   8    3.77    0.34
   4   4   8    3.06    0.35
  -5  -4  -8   81.51    2.38
   5   4   8   81.40    2.27
  -6  -4  -8   48.37    1.61
   6   4   8   47.72    1.45
  -7  -4  -8    7.54    0.59
   7   4   8    7.95    0.47
  -8  -4  -8  104.31    3.09
  -9  -4  -8   80.98    2.57
 -10  -4  -8   15.96    0.95
 -11  -4  -8   64.77    2.28
 -12  -4  -8   19.52    1.19
 -13  -4  -8    3.30    0.57
   9  -5  -8   16.24    1.13
  -9   5   8   16.72    1.14
   8  -5  -8   14.11    1.00
  -8   5   8   14.08    1.00
   7  -5  -8    5.15    0.61
  -7   5   8    6.64    0.71
   6  -5  -8   98.96    3.01
  -6   5   8   90.01    2.92
   5  -5  -8    6.57    0.67
  -5   5   8    6.86    0.63
   4  -5  -8   23.51    1.10
  -4   5   8   24.99    1.09
   3  -5  -8   81.01    2.49
  -3   5   8   81.82    2.47
  -2   5   8    1.54    0.28
  -2   5   8    1.65    0.32
   1  -5  -8   61.36    1.69
  -1   5   8   60.89    1.89
  -1   5   8   58.26    1.92
   0  -5  -8  147.33    3.74
   0   5   8  138.13    3.91
   0   5   8  145.39    3.91
  -1  -5  -8    0.67    0.17
   1   5   8    0.81    0.21
   1   5   8    0.67    0.20
  -2  -5  -8   93.00    2.56
   2   5   8   93.63    2.70
   2   5   8   91.50    2.61
  -3  -5  -8    2.15    0.27
   3   5   8    3.30    0.34
   3   5   8    2.34    0.32
  -4  -5  -8   26.11    0.99
   4   5   8   26.59    0.94
  -5  -5  -8  142.95    3.86
   5   5   8  139.57    3.72
  -6  -5  -8   31.38    1.19
   6   5   8   30.60    1.02
  -7  -5  -8   39.40    1.44
  -8  -5  -8  112.21    3.30
  -9  -5  -8   22.48    1.14
 -10  -5  -8   10.34    0.81
 -11  -5  -8   27.69    1.37
 -12  -5  -8    0.39    0.35
 -13  -5  -8   18.77    1.19
   9  -6  -8   21.07    1.30
  -9   6   8   22.33    1.33
   8  -6  -8    3.25    0.53
  -8   6   8    4.70    0.60
   7  -6  -8   18.94    1.13
  -7   6   8   18.36    1.09
   6  -6  -8   55.95    2.07
  -6   6   8   60.30    2.11
   5  -6  -8    5.70    0.59
  -5   6   8    5.40    0.62
   4  -6  -8   37.73    1.46
  -4   6   8   35.67    1.43
   3  -6  -8   48.39    1.67
  -3   6   8   45.53    1.65
   2  -6  -8    2.08    0.31
  -2   6   8    1.69    0.32
   1  -6  -8  120.80    3.08
  -1   6   8  112.31    3.32
  -1   6   8  115.27    3.34
   0  -6  -8  110.49    2.95
   0   6   8  109.40    3.15
   0   6   8  112.68    3.20
  -1  -6  -8    2.26    0.25
   1   6   8    2.90    0.39
   1   6   8    1.45    0.26
  -2  -6  -8  202.24    5.26
   2   6   8  204.98    5.51
   2   6   8  203.15    5.31
  -3  -6  -8   17.47    0.75
   3   6   8   14.67    0.86
   3   6   8   17.08    0.73
  -4  -6  -8   30.66    1.11
   4   6   8   30.45    1.05
  -5  -6  -8   79.97    2.40
   5   6   8   82.30    2.26
  -6  -6  -8   25.26    1.07
  -7  -6  -8   70.97    2.25
  -8  -6  -8  126.60    3.69
  -9  -6  -8    0.75    0.32
 -10  -6  -8   14.18    0.98
 -11  -6  -8   12.15    1.02
 -12  -6  -8    0.31    0.33
   8  -7  -8    1.83    0.44
  -8   7   8    1.36    0.44
   7  -7  -8   43.20    1.76
  -7   7   8   42.70    1.80
   6  -7  -8   24.38    1.25
  -6   7   8   23.99    1.24
   5  -7  -8    0.37    0.30
  -5   7   8    0.33    0.27
   4  -7  -8   61.49    2.03
  -4   7   8   56.04    2.05
   3  -7  -8   44.87    1.62
  -3   7   8   44.46    1.69
   2  -7  -8    5.56    0.56
  -2   7   8    5.72    0.58
   1  -7  -8   99.13    2.79
  -1   7   8   90.91    2.89
   0  -7  -8   68.80    2.11
   0  -7  -8   69.32    1.96
   0   7   8   72.25    2.30
  -1  -7  -8   49.17    1.51
   1   7   8   48.25    1.64
   1   7   8   53.58    1.84
  -2  -7  -8   33.80    1.15
   2   7   8   34.32    1.41
   2   7   8   32.53    1.19
  -3  -7  -8    7.71    0.52
   3   7   8    8.41    0.71
   3   7   8    8.68    0.54
  -4  -7  -8   45.03    1.48
   4   7   8   44.46    1.40
   4   7   8   42.56    1.68
  -5  -7  -8   85.87    2.56
  -6  -7  -8   -0.20    0.22
  -7  -7  -8   82.51    2.58
  -8  -7  -8   52.23    1.91
  -9  -7  -8    0.54    0.30
 -10  -7  -8   17.84    1.10
 -11  -7  -8   10.24    0.94
 -12  -7  -8    4.05    0.58
   8  -8  -8    0.87    0.38
  -8   8   8    0.17    0.36
   7  -8  -8   32.71    1.52
  -7   8   8   30.36    1.53
   6  -8  -8   33.15    1.48
  -6   8   8   29.84    1.49
   5  -8  -8    2.26    0.40
  -5   8   8    2.87    0.50
   4  -8  -8   49.85    1.81
  -4   8   8   49.92    1.93
   3  -8  -8   13.44    0.86
  -3   8   8   14.63    0.96
   2  -8  -8   26.64    1.14
  -2   8   8   26.06    1.28
   1  -8  -8   46.67    1.62
  -1   8   8   46.33    1.78
   0  -8  -8    5.24    0.50
   0   8   8    4.19    0.52
  -1  -8  -8  122.64    3.35
  -1  -8  -8  128.47    3.46
   1   8   8  124.51    3.76
  -2  -8  -8   98.89    2.79
  -2  -8  -8  103.16    2.81
   2   8   8   98.44    3.15
  -3  -8  -8    0.41    0.17
  -3  -8  -8    0.24    0.18
   3   8   8    0.13    0.28
  -4  -8  -8   49.09    1.60
   4   8   8   45.31    1.84
  -5  -8  -8   20.38    0.97
  -6  -8  -8   13.31    0.82
  -7  -8  -8  146.63    4.17
  -8  -8  -8   14.62    0.96
  -9  -8  -8   12.59    0.88
 -10  -8  -8   27.64    1.40
 -11  -8  -8   16.24    1.12
  -8   9   8   12.04    1.23
   7  -9  -8   35.75    1.62
  -7   9   8   33.23    1.69
   6  -9  -8   10.52    0.90
  -6   9   8    9.00    0.89
   5  -9  -8   14.89    0.96
  -5   9   8   13.66    1.01
   4  -9  -8   53.60    1.90
  -4   9   8   49.88    2.03
   3  -9  -8    6.93    0.67
  -3   9   8    5.86    0.70
   2  -9  -8   31.48    1.31
  -2   9   8   31.42    1.48
   1  -9  -8   41.79    1.51
  -1   9   8   40.92    1.71
   0  -9  -8    8.29    0.61
   0   9   8    8.73    0.80
  -1  -9  -8  101.84    2.86
  -1  -9  -8  101.58    2.94
   1   9   8  107.12    3.33
  -2  -9  -8  133.66    3.55
  -2  -9  -8  129.77    3.55
   2   9   8  126.39    3.95
   3   9   8    4.63    0.61
  -4  -9  -8   74.96    2.25
   4   9   8   70.88    2.58
  -5  -9  -8    9.87    0.74
  -6  -9  -8   30.30    1.28
  -7  -9  -8   71.41    2.36
  -8  -9  -8   21.25    1.13
  -9  -9  -8    4.25    0.52
 -10  -9  -8   28.13    1.41
   7 -10  -8   13.27    1.05
  -7  10   8   13.75    1.12
   6 -10  -8   -0.49    0.25
  -6  10   8   -0.37    0.28
   5 -10  -8   30.97    1.42
  -5  10   8   28.46    1.55
   4 -10  -8   22.51    1.16
  -4  10   8   21.06    1.33
   3 -10  -8    1.92    0.38
  -3  10   8    2.17    0.50
   2 -10  -8   44.93    1.66
  -2  10   8   44.32    1.90
   1 -10  -8   23.11    1.04
  -1  10   8   20.34    1.22
   0 -10  -8    2.89    0.37
   0  10   8    2.90    0.54
  -1 -10  -8   29.13    1.14
   1  10   8   28.35    1.47
  -2 -10  -8    0.37    0.22
   2  10   8   -0.16    0.32
  -3 -10  -8   68.18    2.06
   3  10   8   63.36    2.46
  -4 -10  -8  100.14    2.92
   4  10   8   99.03    3.33
  -5 -10  -8   15.18    0.89
  -6 -10  -8   47.67    1.75
  -7 -10  -8   36.86    1.52
  -8 -10  -8    2.22    0.42
  -9 -10  -8   12.64    1.00
   6 -11  -8    1.74    0.45
  -6  11   8    1.88    0.51
   5 -11  -8   33.31    1.52
  -5  11   8   30.66    1.66
   4 -11  -8   26.13    1.28
  -4  11   8   22.22    1.43
   3 -11  -8   11.37    0.88
  -3  11   8   11.29    1.07
   2 -11  -8   69.76    2.29
  -2  11   8   67.14    2.60
   1 -11  -8   11.85    0.81
  -1  11   8   13.64    1.08
   0 -11  -8   28.51    1.21
   0  11   8   29.16    1.53
   1  11   8   70.92    2.65
   2  11   8   33.42    1.66
  -3 -11  -8   22.13    1.01
   3  11   8   20.93    1.33
  -4 -11  -8   47.32    1.66
   4  11   8   44.17    2.02
  -5 -11  -8    0.79    0.29
   5  11   8    0.73    0.42
  -6 -11  -8   35.43    1.47
  -7 -11  -8   32.22    1.46
  -8 -11  -8    0.16    0.29
  -9 -11  -8   24.67    1.65
   5 -12  -8   21.50    1.24
  -5  12   8   18.70    1.36
   4 -12  -8    1.98    0.43
  -4  12   8    1.56    0.50
   3 -12  -8   20.60    1.15
  -3  12   8   17.65    1.31
   2 -12  -8   40.29    1.63
  -2  12   8   42.26    1.97
   1 -12  -8    2.85    0.49
  -1  12   8    2.61    0.55
   0  12   8   41.45    1.92
   1  12   8   32.34    1.67
   2  12   8    0.78    0.38
   3  12   8   26.25    1.52
  -4 -12  -8   28.29    1.23
   4  12   8   29.18    1.64
  -5 -12  -8    2.83    0.42
   5  12   8    2.33    0.57
  -6 -12  -8   37.79    1.59
  -7 -12  -8   14.53    1.00
  -8 -12  -8    3.33    0.57
   5 -13  -8   20.69    1.78
   4 -13  -8    0.17    0.33
  -4  13   8   -0.04    0.48
   3 -13  -8   19.28    1.13
  -3  13   8   18.15    1.36
  -2  13   8   28.14    1.65
  -1  13   8    4.72    0.73
   0  13   8   43.68    2.06
   1  13   8   22.91    1.45
   2  13   8    2.11    0.55
   3  13   8   28.91    1.67
   4  13   8    4.21    0.72
  -5 -13  -8    4.53    0.54
   5  13   8    3.28    0.68
  -6 -13  -8   32.66    1.47
   6  13   8   31.92    2.31
  -7 -13  -8    4.13    0.77
  -1  14   8    6.35    1.09
   0  14   8   27.36    1.65
   1  14   8    3.85    0.66
   2  14   8   10.51    1.17
   3  14   8   24.55    1.93
  -2   7  -9    5.92    0.66
   2  -7   9    8.41    0.84
   2  -7   9    9.81    0.93
  -3   7  -9   18.89    1.13
   3  -7   9   20.51    1.18
  -4   7  -9   -0.82    0.24
   4  -7   9   -0.14    0.28
  -5   7  -9   12.10    0.96
   5  -7   9   13.17    0.98
  -6   7  -9   25.95    1.32
   6  -7   9   24.66    1.33
  -7   7  -9   -0.04    0.27
   1   6  -9    9.03    0.83
  -1  -6   9    6.94    0.71
   0   6  -9   28.04    1.33
   0  -6   9   27.92    1.37
  -1   6  -9   -0.02    0.26
   1  -6   9   -0.07    0.29
   1  -6   9   -0.44    0.26
  -2   6  -9   34.47    1.47
   2  -6   9   33.47    1.52
   2  -6   9   33.90    1.50
  -3   6  -9   24.45    1.22
   3  -6   9   26.37    1.30
  -4   6  -9    0.41    0.31
   4  -6   9    0.46    0.32
  -5   6  -9   15.51    1.00
   5  -6   9   17.53    1.08
  -6   6  -9   15.65    0.98
   6  -6   9   14.44    1.03
  -7   6  -9    6.13    0.62
   7  -6   9    4.55    0.59
  -8   6  -9   24.44    1.23
   8  -6   9   23.15    1.30
   3   5  -9   17.55    1.10
  -3  -5   9   16.29    1.10
   2   5  -9    0.30    0.30
  -2  -5   9    0.42    0.34
   1   5  -9   19.77    1.11
  -1  -5   9   19.91    1.16
   0   5  -9   10.06    0.81
   0  -5   9    9.41    0.80
   0  -5   9   10.07    0.86
  -1   5  -9    7.98    0.73
   1  -5   9    9.82    0.81
   1  -5   9    8.61    0.79
  -2   5  -9   47.18    1.74
   2  -5   9   45.30    1.75
  -3   5  -9   19.80    1.05
   3  -5   9   20.22    1.10
  -4   5  -9    0.50    0.30
   4  -5   9    0.66    0.33
  -5   5  -9   25.93    1.21
   5  -5   9   25.83    1.25
  -6   5  -9   -0.03    0.24
   6  -5   9    0.13    0.29
  -7   5  -9   16.41    0.97
   7  -5   9   16.58    1.07
  -8   5  -9   30.63    1.38
   8  -5   9   31.55    1.49
  -9   5  -9   -0.24    0.26
   9  -5   9    0.26    0.34
  10  -5   9   16.28    1.70
   5   4  -9    0.46    0.39
  -5  -4   9    0.35    0.37
   4   4  -9   12.82    0.93
  -4  -4   9   13.39    0.95
   3   4  -9   14.51    0.95
  -3  -4   9   13.92    0.95
   2   4  -9   10.01    0.80
  -2  -4   9    9.25    0.80
   1   4  -9   65.55    2.18
  -1  -4   9   62.74    2.18
  -1  -4   9   62.43    2.17
   0   4  -9   38.41    1.52
   0  -4   9   38.31    1.52
   0  -4   9   36.25    1.52
  -1   4  -9   13.65    0.88
   1  -4   9   13.61    0.86
   1  -4   9   13.85    0.91
  -2   4  -9   58.67    1.98
   2  -4   9   58.25    2.02
  -3   4  -9   10.46    0.73
   3  -4   9    8.81    0.73
  -4   4  -9   14.04    0.84
   4  -4   9   14.14    0.92
  -5   4  -9   60.60    2.03
   5  -4   9   61.28    2.11
  -6   4  -9   -0.15    0.22
   6  -4   9   -0.47    0.23
  -7   4  -9   41.26    1.57
   7  -4   9   40.76    1.68
  -8   4  -9   48.51    1.78
   8  -4   9   47.96    1.87
  -9   4  -9    2.28    0.41
   9  -4   9    3.26    0.52
 -10   4  -9    5.42    0.85
  10  -4   9    4.78    0.62
  11  -4   9    8.90    0.93
   6   3  -9   14.48    1.05
  -6  -3   9   13.96    1.03
   5   3  -9    2.39    0.45
  -5  -3   9    2.01    0.44
   4   3  -9   24.00    1.20
  -4  -3   9   22.51    1.18
   3   3  -9    9.34    0.80
  -3  -3   9    9.62    0.82
   2   3  -9    9.33    0.74
  -2  -3   9    8.62    0.75
  -2  -3   9    8.42    0.76
   1   3  -9   36.53    1.45
  -1  -3   9   37.65    1.48
  -1  -3   9   38.79    1.50
   0   3  -9    2.08    0.38
   0  -3   9    2.49    0.41
   0  -3   9    2.58    0.40
  -1   3  -9   22.88    1.05
   1  -3   9   23.36    1.08
   1  -3   9   23.93    1.11
  -2   3  -9   82.15    2.54
   2  -3   9   85.04    2.60
  -3   3  -9    5.60    0.57
   3  -3   9    6.03    0.61
  -4   3  -9   42.99    1.54
   4  -3   9   42.87    1.61
  -5   3  -9   28.65    1.17
   5  -3   9   27.97    1.23
  -6   3  -9    0.90    0.28
   6  -3   9    0.98    0.32
  -7   3  -9   36.22    1.40
   7  -3   9   34.84    1.47
  -8   3  -9   18.33    0.98
   8  -3   9   18.81    1.05
  -9   3  -9    6.83    0.67
   9  -3   9    7.54    0.80
 -10   3  -9   43.56    1.73
  10  -3   9   44.51    1.80
  11  -3   9   14.28    1.03
  12  -3   9    2.05    0.48
   5   2  -9   11.10    0.85
  -5  -2   9   11.11    0.86
   4   2  -9   35.53    1.42
  -4  -2   9   32.74    1.39
   3   2  -9    0.65    0.32
  -3  -2   9    0.50    0.30
  -3  -2   9    0.49    0.31
   2   2  -9   28.74    1.22
  -2  -2   9   29.18    1.25
  -2  -2   9   30.00    1.29
   1   2  -9   54.00    1.80
  -1  -2   9   51.42    1.82
  -1  -2   9   53.47    1.82
   0   2  -9   -0.13    0.20
   0  -2   9   -0.49    0.17
   0  -2   9    0.00    0.22
  -1   2  -9   53.21    1.74
   1  -2   9   51.50    1.78
  -2   2  -9   71.42    2.26
   2  -2   9   77.25    2.34
  -3   2  -9    0.32    0.23
   3  -2   9    0.52    0.26
  -4   2  -9   23.09    0.98
   4  -2   9   22.18    1.03
  -5   2  -9   55.36    1.80
   5  -2   9   54.19    1.85
  -6   2  -9   10.52    0.69
   6  -2   9   10.79    0.74
  -7   2  -9   20.96    0.99
   7  -2   9   21.00    1.07
  -8   2  -9   20.16    0.99
   8  -2   9   20.39    1.05
  -9   2  -9    8.73    0.73
   9  -2   9    8.98    0.82
 -10   2  -9   32.02    1.40
  10  -2   9   32.37    1.44
 -11   2  -9    2.82    0.49
  11  -2   9    2.83    0.47
  12  -2   9    5.89    0.66
   5   1  -9   14.81    0.89
  -5  -1   9   14.02    0.91
   4   1  -9   31.36    1.28
  -4  -1   9   28.32    1.36
  -4  -1   9   32.31    1.30
   3   1  -9   -0.48    0.22
  -3  -1   9   -0.38    0.23
  -3  -1   9    0.19    0.27
   2   1  -9   43.83    1.52
  -2  -1   9   41.32    1.58
  -2  -1   9   42.26    1.53
   1   1  -9   24.19    1.02
  -1  -1   9   23.79    1.06
  -1  -1   9   23.95    1.04
   0   1  -9    2.63    0.34
   0  -1   9    2.49    0.36
  -1   1  -9   61.22    1.90
   1  -1   9   59.96    1.96
  -2   1  -9   56.35    1.79
   2  -1   9   56.79    1.85
  -3   1  -9   33.09    1.17
   3  -1   9   29.17    1.18
  -4   1  -9   42.17    1.46
   4  -1   9   44.84    1.54
  -5   1  -9   22.86    0.98
   5  -1   9   23.60    1.03
  -6   1  -9   15.45    0.81
   6  -1   9   15.63    0.86
  -7   1  -9   53.58    1.84
   7  -1   9   58.67    1.92
  -8   1  -9    2.46    0.36
   8  -1   9    1.98    0.36
  -9   1  -9   41.10    1.59
   9  -1   9   43.29    1.64
 -10   1  -9   23.09    1.14
  10  -1   9   22.79    1.15
 -11   1  -9   -0.46    0.25
  11  -1   9   -0.01    0.26
 -12   1  -9   30.39    1.57
  12  -1   9   25.58    1.31
  -5   0   9   23.87    1.27
   4   0  -9   21.71    0.97
  -4   0   9   20.39    0.96
  -4   0   9   20.00    1.09
   3   0  -9   11.62    0.74
  -3   0   9   11.87    0.74
  -3   0   9   13.26    0.86
   2   0  -9   63.99    2.00
  -2   0   9   64.07    2.13
  -2   0   9   66.34    2.03
   1   0  -9    8.29    0.57
  -1   0   9    8.17    0.63
   0   0  -9   28.55    1.08
   0   0   9   29.91    1.17
  -1   0  -9   91.12    2.58
   1   0   9   88.19    2.64
  -2   0  -9    5.63    0.45
   2   0   9    4.93    0.48
  -3   0  -9    2.53    0.29
   3   0   9    2.64    0.32
  -4   0  -9  115.53    3.23
   4   0   9  118.04    3.29
  -5   0  -9    4.47    0.44
   5   0   9    3.75    0.39
  -6   0  -9   52.81    1.76
   6   0   9   56.98    1.82
  -7   0  -9  106.95    3.12
   7   0   9  110.20    3.13
  -8   0  -9    6.12    0.61
   8   0   9    5.97    0.61
  -9   0  -9   24.12    1.13
   9   0   9   24.58    1.13
 -10   0  -9   34.11    1.43
  10   0   9   32.26    1.35
 -11   0  -9    2.04    0.42
  11   0   9    1.79    0.38
 -12   0  -9   40.32    1.71
   6  -1  -9    0.17    0.29
  -5   1   9   30.92    1.45
   4  -1  -9   12.48    0.70
  -4   1   9    9.89    0.82
  -4   1   9   12.69    1.00
   3  -1  -9   51.14    1.63
  -3   1   9   52.29    1.66
  -3   1   9   48.60    1.82
   2  -1  -9   96.82    2.69
  -2   1   9   92.85    2.85
   1  -1  -9    9.27    0.57
  -1   1   9    9.18    0.66
   0  -1  -9   48.87    1.57
   0   1   9   52.07    1.70
  -1  -1  -9   81.74    2.32
   1   1   9   79.91    2.40
  -2  -1  -9    8.77    0.53
   2   1   9    8.94    0.57
  -3  -1  -9   22.27    0.87
   3   1   9   21.80    0.91
  -4  -1  -9   37.91    1.32
   4   1   9   41.53    1.38
  -5  -1  -9    5.15    0.45
   5   1   9    5.58    0.50
  -6  -1  -9   77.79    2.34
   6   1   9   79.15    2.35
  -7  -1  -9   49.31    1.68
   7   1   9   49.33    1.64
  -8  -1  -9    1.63    0.32
   8   1   9    1.94    0.33
  -9  -1  -9    9.94    0.75
   9   1   9    9.80    0.70
 -10  -1  -9   20.95    1.09
  10   1   9   21.25    1.02
 -11  -1  -9    8.42    0.83
 -12  -1  -9   27.14    1.39
 -13  -1  -9    1.36    0.44
   7  -2  -9    1.80    0.45
   6  -2  -9   13.21    0.92
  -5   2   9   39.18    1.65
  -4   2   9   10.57    0.85
   3  -2  -9   36.14    1.24
  -3   2   9   37.48    1.48
   2  -2  -9   17.50    0.76
  -2   2   9   18.33    0.96
   1  -2  -9   38.08    1.24
  -1   2   9   36.64    1.39
   0  -2  -9  207.91    5.37
   0   2   9  207.21    5.51
  -1  -2  -9   75.57    2.17
   1   2   9   76.80    2.29
  -2  -2  -9   19.28    0.79
   2   2   9   19.18    0.84
  -3  -2  -9  111.23    3.13
   3   2   9  117.97    3.19
  -4  -2  -9   58.85    1.80
   4   2   9   58.61    1.81
  -5  -2  -9   30.97    1.14
   5   2   9   31.31    1.13
  -6  -2  -9   72.13    2.18
   6   2   9   71.23    2.13
  -7  -2  -9    7.08    0.60
   7   2   9    7.22    0.54
  -8  -2  -9   24.25    1.05
   8   2   9   20.49    0.94
  -9  -2  -9   92.48    2.81
   9   2   9   89.34    2.65
 -10  -2  -9   21.24    1.13
  10   2   9   20.89    1.12
 -11  -2  -9   19.38    1.12
 -12  -2  -9   26.21    1.36
 -13  -2  -9   -0.24    0.31
   8  -3  -9   29.67    1.48
  -8   3   9   29.82    1.43
   7  -3  -9    0.47    0.35
  -7   3   9    0.67    0.32
   6  -3  -9   35.33    1.50
  -6   3   9   32.42    1.41
   5  -3  -9   58.81    2.07
  -5   3   9   58.39    1.97
  -4   3   9    0.18    0.21
  -4   3   9   -0.40    0.25
  -3   3   9   76.64    2.47
  -3   3   9   73.89    2.26
   2  -3  -9   54.94    1.65
  -2   3   9   57.25    1.74
  -2   3   9   55.70    1.90
   1  -3  -9   16.04    0.67
  -1   3   9   14.73    0.83
  -1   3   9   14.00    0.90
   0  -3  -9   83.91    2.31
   0   3   9   80.64    2.46
  -1  -3  -9   40.70    1.29
   1   3   9   40.55    1.40
  -2  -3  -9    1.81    0.24
  -3  -3  -9   68.32    2.02
   3   3   9   70.29    2.06
  -4  -3  -9   29.56    1.08
   4   3   9   30.78    1.10
  -5  -3  -9   48.53    1.57
   5   3   9   46.83    1.51
  -6  -3  -9   66.64    2.06
   6   3   9   65.91    1.97
  -7  -3  -9    0.52    0.23
   7   3   9    0.68    0.20
  -8  -3  -9    8.74    0.68
  -9  -3  -9   43.70    1.67
   9   3   9   45.71    1.58
 -10  -3  -9    1.92    0.39
 -11  -3  -9   28.05    1.35
 -12  -3  -9    6.35    0.67
 -13  -3  -9    1.86    0.46
   8  -4  -9   27.38    1.44
  -8   4   9   28.81    1.42
   7  -4  -9   -0.35    0.26
  -7   4   9    0.15    0.27
   6  -4  -9   18.76    1.09
  -6   4   9   20.38    1.07
   5  -4  -9   35.66    1.49
  -5   4   9   34.64    1.41
   4  -4  -9    4.39    0.52
  -4   4   9    5.52    0.55
  -3   4   9   57.11    1.85
  -3   4   9   57.90    2.02
   2  -4  -9   20.74    0.79
  -2   4   9   19.73    1.03
  -2   4   9   19.65    0.87
   1  -4  -9   46.69    1.36
  -1   4   9   44.02    1.42
  -1   4   9   40.35    1.53
   0  -4  -9   85.95    2.35
   0   4   9   81.74    2.37
   0   4   9   85.94    2.54
  -1  -4  -9   27.23    0.97
   1   4   9   27.56    1.09
   1   4   9   29.29    1.00
  -2  -4  -9   64.08    1.85
   2   4   9   65.18    1.94
   2   4   9   58.61    1.81
  -3  -4  -9   88.79    2.46
   3   4   9   83.77    2.46
  -4  -4  -9   -0.31    0.15
   4   4   9   -0.08    0.14
  -5  -4  -9   88.25    2.59
   5   4   9   90.36    2.52
  -6  -4  -9   56.27    1.81
   6   4   9   55.22    1.69
  -7  -4  -9   -0.15    0.19
   7   4   9   -0.16    0.14
  -8  -4  -9   66.26    2.14
   8   4   9   63.63    2.05
  -9  -4  -9   29.93    1.30
 -10  -4  -9    7.34    0.75
 -11  -4  -9   43.82    1.77
 -12  -4  -9   12.75    0.98
 -13  -4  -9    1.92    0.50
   8  -5  -9    5.71    0.66
  -8   5   9    4.54    0.61
   7  -5  -9    3.79    0.59
  -7   5   9    3.76    0.53
   6  -5  -9   31.10    1.39
  -6   5   9   27.65    1.31
   5  -5  -9    7.83    0.79
  -5   5   9    8.10    0.71
   4  -5  -9   24.91    1.15
  -4   5   9   23.94    1.10
   3  -5  -9   46.90    1.67
  -3   5   9   45.69    1.62
  -2   5   9   10.67    0.66
  -2   5   9    8.90    0.75
   1  -5  -9   50.14    1.49
  -1   5   9   50.17    1.75
  -1   5   9   50.59    1.65
   0  -5  -9   62.05    1.74
   0   5   9   59.71    1.85
   0   5   9   55.31    1.89
  -1  -5  -9    5.38    0.42
   1   5   9    4.93    0.50
   1   5   9    5.16    0.45
  -2  -5  -9   99.52    2.68
   2   5   9   94.67    2.75
   2   5   9   94.74    2.75
  -3  -5  -9   53.77    1.66
   3   5   9   51.50    1.66
   3   5   9   54.52    1.74
  -4  -5  -9    0.38    0.19
   4   5   9   -0.29    0.13
   4   5   9    0.15    0.18
  -5  -5  -9   75.67    2.26
   5   5   9   73.42    2.15
  -6  -5  -9   28.64    1.17
   6   5   9   28.62    1.02
  -7  -5  -9    4.24    0.45
   7   5   9    4.00    0.44
  -8  -5  -9  117.57    3.44
  -9  -5  -9   21.48    1.10
 -10  -5  -9   11.50    0.86
 -11  -5  -9   20.73    1.23
 -12  -5  -9    0.13    0.35
   8  -6  -9    4.68    0.64
  -8   6   9    4.30    0.63
   7  -6  -9    7.85    0.83
  -7   6   9    7.77    0.79
   6  -6  -9   37.18    1.58
  -6   6   9   35.93    1.55
   5  -6  -9    0.00    0.26
  -5   6   9   -0.01    0.24
   4  -6  -9   39.69    1.53
  -4   6   9   35.90    1.48
   3  -6  -9   36.32    1.42
  -3   6   9   35.79    1.41
   2  -6  -9   -0.37    0.20
  -2   6   9   -0.21    0.17
  -1   6   9   71.53    2.31
  -1   6   9   73.24    2.28
   0  -6  -9  101.00    2.72
   0   6   9  100.86    2.94
   0   6   9   98.74    2.95
  -1  -6  -9    8.29    0.50
   1   6   9    7.56    0.60
   1   6   9    7.00    0.56
  -2  -6  -9  102.42    2.83
   2   6   9  105.17    2.92
   2   6   9   98.53    2.98
  -3  -6  -9   11.64    0.63
   3   6   9   10.77    0.62
   3   6   9   11.22    0.72
  -4  -6  -9   23.72    0.97
   4   6   9   24.45    0.94
   4   6   9   22.44    1.08
  -5  -6  -9   87.86    2.59
   5   6   9   87.45    2.48
  -6  -6  -9   63.77    2.04
  -7  -6  -9   45.95    1.65
  -8  -6  -9   94.43    2.91
  -9  -6  -9    7.79    0.76
 -10  -6  -9   17.14    1.05
 -11  -6  -9   17.99    1.15
 -12  -6  -9    1.02    0.42
   8  -7  -9   -0.21    0.30
  -8   7   9   -0.34    0.28
   7  -7  -9   22.36    1.25
  -7   7   9   23.54    1.30
   6  -7  -9   27.67    1.38
  -6   7   9   26.94    1.36
   5  -7  -9    0.97    0.36
  -5   7   9    1.13    0.36
   4  -7  -9   57.13    2.01
  -4   7   9   54.70    2.01
   3  -7  -9   38.82    1.46
  -3   7   9   33.19    1.44
   2  -7  -9    5.68    0.59
  -2   7   9    4.80    0.55
   1  -7  -9   86.49    2.57
  -1   7   9   83.54    2.67
   0  -7  -9   72.34    2.21
   0   7   9   73.33    2.35
   0   7   9   71.39    2.28
  -1  -7  -9    5.49    0.45
   1   7   9    5.52    0.58
   1   7   9    5.30    0.55
  -2  -7  -9  112.72    3.24
   2   7   9  124.26    3.38
   2   7   9  121.82    3.54
  -3  -7  -9   18.52    0.82
   3   7   9   18.14    0.83
   3   7   9   18.76    1.00
  -4  -7  -9   20.39    0.89
   4   7   9   20.94    1.09
   4   7   9   20.34    0.86
  -5  -7  -9   35.01    1.32
  -6  -7  -9   26.74    1.17
  -7  -7  -9   95.11    2.90
  -8  -7  -9   55.56    1.99
  -9  -7  -9   -0.10    0.26
 -10  -7  -9   33.37    1.50
 -11  -7  -9   15.14    1.07
   7  -8  -9   34.33    1.59
  -7   8   9   34.22    1.66
   6  -8  -9   19.64    1.14
  -6   8   9   16.56    1.15
   5  -8  -9    0.33    0.33
  -5   8   9    0.36    0.31
   4  -8  -9   27.86    1.27
  -4   8   9   25.86    1.31
   3  -8  -9    3.03    0.44
  -3   8   9    2.26    0.43
   2  -8  -9   12.57    0.85
  -2   8   9   13.12    0.91
   1  -8  -9   81.63    2.54
  -1   8   9   84.92    2.73
   0  -8  -9   24.05    1.03
   0   8   9   22.88    1.15
  -1  -8  -9    2.91    0.30
  -1  -8  -9    2.35    0.32
   1   8   9    2.94    0.45
  -2  -8  -9   14.91    0.73
  -2  -8  -9   15.57    0.76
   2   8   9   14.40    0.95
  -3  -8  -9    1.86    0.29
   3   8   9    1.62    0.38
   3   8   9    1.83    0.30
  -4  -8  -9   31.61    1.19
   4   8   9   29.28    1.40
  -5  -8  -9   81.00    2.47
  -6  -8  -9    1.01    0.31
  -7  -8  -9   25.16    1.22
  -8  -8  -9   22.51    1.18
  -9  -8  -9   10.02    0.83
 -10  -8  -9   33.91    1.54
 -11  -8  -9    6.16    0.70
   7  -9  -9   35.00    1.63
  -7   9   9   30.44    1.64
   6  -9  -9   10.90    0.90
  -6   9   9    8.38    0.93
   5  -9  -9   14.15    0.99
  -5   9   9   11.95    1.01
   4  -9  -9   30.81    1.38
  -4   9   9   30.71    1.52
   3  -9  -9   -0.38    0.24
  -3   9   9   -0.10    0.27
   2  -9  -9   56.56    2.00
  -2   9   9   60.42    2.24
   1  -9  -9   38.27    1.45
  -1   9   9   36.01    1.61
   0  -9  -9    1.13    0.27
   0   9   9    1.10    0.36
  -1  -9  -9   80.85    2.43
   1   9   9   79.54    2.72
  -2  -9  -9   48.23    1.60
  -2  -9  -9   51.52    1.64
   2   9   9   49.21    1.97
  -3  -9  -9    2.94    0.36
   3   9   9    2.10    0.47
  -4  -9  -9   42.10    1.48
   4   9   9   39.32    1.75
  -5  -9  -9   30.61    1.27
   5   9   9   31.58    1.53
  -6  -9  -9   17.53    0.95
  -7  -9  -9   55.58    1.96
  -8  -9  -9   20.80    1.16
  -9  -9  -9   15.41    1.01
 -10  -9  -9   35.09    1.61
   6 -10  -9    0.07    0.32
  -6  10   9   -0.16    0.34
   5 -10  -9   23.24    1.25
  -5  10   9   19.91    1.31
   4 -10  -9   24.78    1.24
  -4  10   9   20.44    1.31
   3 -10  -9    0.23    0.26
  -3  10   9   -0.01    0.32
   2 -10  -9   50.12    1.82
  -2  10   9   49.23    2.07
   1 -10  -9   31.71    1.33
  -1  10   9   32.26    1.57
   0 -10  -9   -0.06    0.21
   0  10   9   -0.15    0.26
  -1 -10  -9   24.16    1.03
   1  10   9   21.92    1.28
   2  10   9    2.46    0.52
  -3 -10  -9    6.12    0.56
   3  10   9    3.78    0.61
  -4 -10  -9  117.55    3.34
   4  10   9  113.60    3.72
  -5 -10  -9   -0.21    0.26
   5  10   9   -0.04    0.37
  -6 -10  -9   12.08    0.86
  -7 -10  -9   68.63    2.32
  -8 -10  -9    9.74    0.84
  -9 -10  -9   15.15    1.07
   6 -11  -9    3.10    0.88
  -6  11   9    2.84    0.81
   5 -11  -9   37.13    1.62
  -5  11   9   34.01    1.81
   4 -11  -9   21.63    1.20
  -4  11   9   19.89    1.38
   3 -11  -9    7.97    0.82
  -3  11   9    5.98    0.79
   2 -11  -9   49.47    1.83
  -2  11   9   48.30    2.11
   1 -11  -9   32.29    1.39
  -1  11   9   35.23    1.69
   0 -11  -9   10.03    0.73
   0  11   9   11.61    1.01
   1  11   9   52.41    2.16
   2  11   9    5.30    0.70
  -3 -11  -9    7.57    0.63
   3  11   9    6.56    0.77
  -4 -11  -9   27.72    1.22
   4  11   9   30.32    1.60
  -5 -11  -9    0.56    0.29
   5  11   9    0.59    0.42
  -6 -11  -9   21.77    1.10
   6  11   9   21.69    1.40
  -7 -11  -9   37.07    1.56
  -8 -11  -9   -0.13    0.29
  -9 -11  -9    9.10    0.93
   5 -12  -9   20.95    1.25
  -5  12   9   14.51    1.72
   4 -12  -9    6.25    0.66
  -4  12   9    5.81    0.82
   3 -12  -9    7.69    0.81
  -3  12   9    7.84    0.95
   2 -12  -9   49.03    1.85
  -2  12   9   48.67    2.16
   1 -12  -9    9.80    0.80
  -1  12   9   12.58    1.09
   0  12   9   20.55    1.35
   1  12   9   28.35    1.57
   2  12   9    1.51    0.50
   3  12   9   34.45    1.76
  -4 -12  -9    5.91    0.57
   4  12   9    6.10    0.79
  -5 -12  -9    2.07    0.39
   5  12   9    1.81    0.56
  -6 -12  -9   36.17    1.51
   6  12   9   36.62    1.92
  -7 -12  -9   18.05    1.12
  -8 -12  -9    3.37    0.55
   4 -13  -9    0.37    0.34
   3 -13  -9    8.98    0.88
  -3  13   9    8.91    1.03
   2 -13  -9   30.24    1.57
  -2  13   9   32.60    1.76
  -1  13   9    2.64    0.56
   0  13   9   24.16    1.52
   1  13   9   16.81    1.28
   2  13   9    1.14    0.49
   3  13   9   15.16    1.24
   4  13   9    6.34    0.84
  -5 -13  -9    9.14    0.77
   5  13   9    6.00    0.85
  -6 -13  -9   49.30    1.86
   6  13   9   44.86    2.68
  -7 -13  -9    4.93    0.70
   0  14   9   30.78    2.41
   1  14   9   18.87    1.55
   2  14   9    3.39    0.76
   1  -6  10    0.57    0.63
  -2   6 -10   14.78    1.05
   2  -6  10   15.25    1.06
  -3   6 -10   21.18    1.17
   3  -6  10   21.55    1.22
  -4   6 -10   -0.48    0.27
   4  -6  10   -0.12    0.29
  -5   6 -10   23.80    1.26
   5  -6  10   23.30    1.30
  -6   6 -10   33.64    1.52
   6  -6  10   33.60    1.62
  -7   6 -10    0.91    0.36
  -8   6 -10   20.43    1.17
   1   5 -10   14.01    1.07
  -1  -5  10   14.14    1.11
   0   5 -10   32.30    1.48
   0  -5  10   33.06    1.54
   0  -5  10   32.47    1.51
  -1   5 -10    0.15    0.28
   1  -5  10   -0.30    0.26
   1  -5  10    0.11    0.32
  -2   5 -10   14.45    0.93
   2  -5  10   14.96    1.01
  -3   5 -10   16.88    1.01
   3  -5  10   17.25    1.04
  -4   5 -10    0.94    0.36
   4  -5  10    1.06    0.36
  -5   5 -10   30.73    1.37
   5  -5  10   29.97    1.41
  -6   5 -10   15.52    0.99
   6  -5  10   15.02    1.02
  -7   5 -10    4.60    0.54
   7  -5  10    4.17    0.57
  -8   5 -10   27.40    1.32
   8  -5  10   26.55    1.42
  -9   5 -10    2.04    0.43
   3   4 -10   14.13    1.00
  -3  -4  10   13.71    1.03
   2   4 -10    0.63    0.34
  -2  -4  10    0.64    0.35
   1   4 -10   22.03    1.16
  -1  -4  10   21.86    1.18
  -1  -4  10   19.58    1.16
   0   4 -10   12.40    0.88
   0  -4  10   11.95    0.91
   0  -4  10   11.21    0.86
  -1   4 -10    4.35    0.53
   1  -4  10    3.73    0.52
  -2   4 -10   38.79    1.54
   2  -4  10   38.94    1.60
  -3   4 -10   17.70    1.01
   3  -4  10   18.36    1.05
  -4   4 -10    8.32    0.74
   4  -4  10    7.48    0.76
  -5   4 -10   29.34    1.29
   5  -4  10   29.98    1.38
  -6   4 -10    2.41    0.42
   6  -4  10    2.32    0.43
  -7   4 -10   24.82    1.19
   7  -4  10   25.36    1.30
  -8   4 -10   53.01    1.98
   8  -4  10   55.01    2.08
  -9   4 -10    7.18    0.69
   9  -4  10    6.81    0.71
 -10   4 -10    9.25    0.84
  10  -4  10    8.19    1.01
   4   3 -10   22.81    1.19
  -4  -3  10   21.14    1.21
   3   3 -10    8.93    0.79
  -3  -3  10    5.53    0.59
   2   3 -10    6.12    0.61
  -2  -3  10    5.96    0.63
  -2  -3  10    5.54    0.58
   1   3 -10   39.27    1.56
  -1  -3  10   37.77    1.59
  -1  -3  10   40.58    1.60
   0   3 -10   15.01    0.90
   0  -3  10   14.61    0.93
   0  -3  10   14.89    0.94
  -1   3 -10   16.21    0.94
   1  -3  10   16.04    0.95
  -2   3 -10   45.23    1.67
   2  -3  10   46.69    1.74
  -3   3 -10    4.08    0.48
   3  -3  10    3.68    0.46
  -4   3 -10   23.47    1.09
   4  -3  10   23.49    1.16
  -5   3 -10   39.77    1.51
   5  -3  10   39.49    1.57
  -6   3 -10   -0.23    0.22
   6  -3  10   -0.53    0.24
  -7   3 -10   28.66    1.26
   7  -3  10   29.10    1.34
  -8   3 -10   27.87    1.27
   8  -3  10   27.09    1.32
  -9   3 -10    0.02    0.26
   9  -3  10    0.14    0.33
 -10   3 -10   22.38    1.21
  10  -3  10   23.04    1.30
 -11   3 -10   10.15    1.09
  11  -3  10    9.60    0.91
   5   2 -10    6.09    0.64
  -5  -2  10    5.38    0.63
   4   2 -10   24.80    1.20
  -4  -2  10   22.20    1.19
   3   2 -10    6.65    0.64
  -3  -2  10    5.43    0.62
  -3  -2  10    5.62    0.60
   2   2 -10   18.07    0.99
  -2  -2  10   16.07    0.99
  -2  -2  10   17.29    1.03
   1   2 -10   31.80    1.32
  -1  -2  10   31.38    1.37
  -1  -2  10   31.34    1.35
   0   2 -10    0.46    0.28
   0  -2  10    0.17    0.26
  -1   2 -10   36.58    1.39
   1  -2  10   35.10    1.43
  -2   2 -10   93.67    2.83
   2  -2  10   95.34    2.89
  -3   2 -10    1.45    0.31
   3  -2  10    1.84    0.36
  -4   2 -10   20.23    0.96
   4  -2  10   19.82    1.03
  -5   2 -10   24.59    1.08
   5  -2  10   24.99    1.16
  -6   2 -10    0.17    0.22
   6  -2  10    0.14    0.26
  -7   2 -10   54.85    1.92
   7  -2  10   57.37    2.00
  -8   2 -10   28.59    1.26
   8  -2  10   28.68    1.31
  -9   2 -10    4.52    0.53
   9  -2  10    3.91    0.53
 -10   2 -10   18.02    1.05
  10  -2  10   17.45    1.11
 -11   2 -10    3.91    0.57
  11  -2  10    4.00    0.56
  12  -2  10   11.99    1.01
   4   1 -10   27.46    1.24
  -4  -1  10   27.85    1.38
  -4  -1  10   27.18    1.25
   3   1 -10    0.84    0.31
  -3  -1  10    0.79    0.34
  -3  -1  10    0.54    0.31
   2   1 -10   26.53    1.16
  -2  -1  10   27.09    1.18
  -2  -1  10   27.06    1.27
   1   1 -10   66.67    2.11
  -1  -1  10   63.67    2.19
  -1  -1  10   66.18    2.14
   0   1 -10    1.25    0.31
   0  -1  10    0.64    0.28
  -1   1 -10   44.61    1.55
   1  -1  10   44.55    1.64
  -2   1 -10   33.43    1.27
   2  -1  10   33.60    1.33
  -3   1 -10    1.37    0.28
   3  -1  10    1.76    0.32
  -4   1 -10   21.22    0.94
   4  -1  10   19.88    0.98
  -5   1 -10   26.79    1.11
   5  -1  10   26.72    1.16
  -6   1 -10   20.96    0.98
   6  -1  10   18.79    0.99
  -7   1 -10   53.01    1.82
   7  -1  10   53.84    1.87
  -8   1 -10   13.05    0.83
   8  -1  10   12.75    0.85
  -9   1 -10    4.23    0.50
   9  -1  10    4.58    0.54
 -10   1 -10    8.57    0.76
  10  -1  10    9.39    0.79
 -11   1 -10   -0.29    0.26
  11  -1  10   -0.16    0.27
 -12   1 -10   24.89    1.35
  12  -1  10   22.76    1.28
  -5   0  10   17.95    1.18
   4   0 -10   19.00    0.95
  -4   0  10   17.47    1.10
  -4   0  10   19.87    1.10
   3   0 -10   -0.13    0.22
  -3   0  10   -0.36    0.23
  -3   0  10   -0.32    0.22
   2   0 -10   51.76    1.72
  -2   0  10   49.48    1.86
   1   0 -10   23.07    1.00
  -1   0  10   22.95    1.10
   0   0 -10    6.89    0.55
   0   0  10    6.08    0.62
  -1   0 -10   80.35    2.39
   1   0  10   79.88    2.48
  -2   0 -10    9.79    0.64
   2   0  10    8.98    0.66
  -3   0 -10   39.33    1.38
   3   0  10   38.82    1.43
  -4   0 -10   30.44    1.17
   4   0  10   30.92    1.22
  -5   0 -10   20.76    0.92
   5   0  10   19.69    0.97
  -6   0 -10   48.47    1.66
   6   0  10   47.99    1.68
  -7   0 -10   41.32    1.51
   7   0  10   42.27    1.54
  -8   0 -10    3.32    0.41
   8   0  10    3.10    0.42
  -9   0 -10   59.84    2.07
   9   0  10   61.27    2.07
 -10   0 -10   19.07    1.06
  10   0  10   20.67    1.06
 -11   0 -10    0.09    0.29
  11   0  10   -0.23    0.25
 -12   0 -10   27.23    1.42
  12   0  10   29.53    1.67
 -13   0 -10   13.62    1.38
   6  -1 -10    6.36    0.69
  -5   1  10   33.71    1.59
  -4   1  10    6.05    0.65
   3  -1 -10    6.60    0.57
  -3   1  10    6.66    0.65
   2  -1 -10  112.25    3.17
  -2   1  10  113.11    3.39
   1  -1 -10   28.03    1.09
  -1   1  10   27.71    1.23
   0  -1 -10   37.10    1.31
   0   1  10   38.84    1.46
  -1  -1 -10   82.71    2.44
   1   1  10   85.39    2.57
  -2  -1 -10    2.82    0.33
   2   1  10    3.29    0.40
  -3  -1 -10   14.19    0.72
   3   1  10   15.10    0.80
  -4  -1 -10  113.20    3.19
   4   1  10  114.65    3.24
  -5  -1 -10   -0.05    0.19
   5   1  10   -0.33    0.18
  -6  -1 -10   61.70    2.00
   6   1  10   65.13    2.04
  -7  -1 -10   50.01    1.73
   7   1  10   52.00    1.74
  -8  -1 -10    0.42    0.26
   8   1  10    0.30    0.24
  -9  -1 -10   41.19    1.59
   9   1  10   39.85    1.51
 -10  -1 -10    7.40    0.72
  10   1  10    7.88    0.68
 -11  -1 -10    6.51    0.67
  11   1  10    5.48    0.55
 -12  -1 -10   40.18    1.76
 -13  -1 -10    5.68    0.68
   7  -2 -10   22.28    1.27
   6  -2 -10    2.92    0.51
  -5   2  10   17.22    1.13
  -4   2  10    5.77    0.64
   3  -2 -10   38.71    1.44
  -3   2  10   38.37    1.59
   2  -2 -10   53.47    1.71
  -2   2  10   55.14    1.94
   1  -2 -10    7.66    0.55
  -1   2  10    7.40    0.67
   0  -2 -10  109.58    3.05
   0   2  10  110.82    3.22
  -1  -2 -10  111.26    3.08
   1   2  10  110.82    3.21
  -2  -2 -10    1.95    0.29
   2   2  10    2.12    0.32
  -3  -2 -10   37.09    1.33
   3   2  10   41.60    1.43
  -4  -2 -10   44.66    1.50
   4   2  10   45.34    1.54
  -5  -2 -10    7.35    0.57
   5   2  10    8.13    0.58
  -6  -2 -10   73.33    2.23
   6   2  10   70.68    2.19
  -7  -2 -10   18.27    0.92
   7   2  10   18.08    0.87
  -8  -2 -10   12.62    0.79
   8   2  10   12.43    0.74
  -9  -2 -10   32.10    1.37
   9   2  10   32.91    1.28
 -10  -2 -10    5.37    0.58
  10   2  10    6.40    0.59
 -11  -2 -10   24.62    1.28
 -12  -2 -10   20.77    1.22
 -13  -2 -10    0.25    0.35
   7  -3 -10    3.35    0.56
   6  -3 -10   15.73    1.02
   5  -3 -10   20.69    1.14
  -4   3  10    1.15    0.38
  -3   3  10   52.22    1.94
   2  -3 -10   63.49    1.93
  -2   3  10   67.17    2.22
   1  -3 -10    1.39    0.24
  -1   3  10    1.41    0.34
   0  -3 -10   75.00    2.16
   0   3  10   73.94    2.34
  -1  -3 -10   49.22    1.57
   1   3  10   50.90    1.70
  -2  -3 -10    6.63    0.52
   2   3  10    8.66    0.63
  -3  -3 -10  126.08    3.42
   3   3  10  123.15    3.47
  -4  -3 -10   22.97    0.95
   4   3  10   23.05    0.97
  -5  -3 -10   33.52    1.25
   5   3  10   34.44    1.24
  -6  -3 -10   37.00    1.33
   6   3  10   33.44    1.24
  -7  -3 -10   11.32    0.73
   7   3  10   10.93    0.66
  -8  -3 -10   21.98    1.06
   8   3  10   20.54    0.93
  -9  -3 -10   39.99    1.55
   9   3  10   37.49    1.36
 -10  -3 -10    0.79    0.35
 -11  -3 -10   61.91    2.25
 -12  -3 -10   16.29    1.10
 -13  -3 -10    0.75    0.39
   8  -4 -10   11.36    1.09
   7  -4 -10   -0.16    0.28
   6  -4 -10   38.58    1.65
   5  -4 -10   28.26    1.35
  -3   4  10   47.54    1.84
  -2   4  10   23.93    1.18
   1  -4 -10   15.37    0.70
  -1   4  10   14.78    0.87
   0  -4 -10   92.40    2.55
   0   4  10   88.98    2.74
  -1  -4 -10   53.82    1.63
   1   4  10   50.23    1.75
  -2  -4 -10   14.59    0.71
   2   4  10   14.84    0.79
  -3  -4 -10   70.23    2.08
   3   4  10   68.56    2.12
  -4  -4 -10    3.80    0.38
   4   4  10    5.38    0.50
  -5  -4 -10   77.11    2.30
   5   4  10   75.25    2.26
  -6  -4 -10   58.27    1.91
   6   4  10   59.00    1.83
  -7  -4 -10    2.91    0.40
   7   4  10    2.65    0.31
  -8  -4 -10   19.85    1.01
   8   4  10   18.87    0.86
  -9  -4 -10   27.69    1.29
 -10  -4 -10   11.20    0.86
 -11  -4 -10   85.46    2.84
 -12  -4 -10   20.43    1.21
  -8   5  10    8.57    0.87
   7  -5 -10    0.63    0.38
  -7   5  10    0.66    0.34
   6  -5 -10   25.93    1.33
  -6   5  10   26.53    1.30
   5  -5 -10   15.76    1.02
  -5   5  10   14.98    0.92
   4  -5 -10    9.39    0.79
  -4   5  10    8.15    0.70
  -3   5  10   62.78    2.09
  -3   5  10   66.68    2.30
  -2   5  10    2.90    0.44
  -2   5  10    2.49    0.36
   1  -5 -10   33.62    1.26
  -1   5  10   28.34    1.27
  -1   5  10   29.54    1.16
   0  -5 -10   92.20    2.46
   0   5  10   85.22    2.66
   0   5  10   83.33    2.82
  -1  -5 -10   40.18    1.29
   1   5  10   36.85    1.42
  -2  -5 -10   65.92    1.95
   2   5  10   63.69    2.04
  -3  -5 -10   78.22    2.35
   3   5  10   84.54    2.44
  -4  -5 -10   -0.22    0.18
   4   5  10   -0.01    0.18
  -5  -5 -10   62.73    2.03
   5   5  10   66.57    1.98
  -6  -5 -10   31.74    1.28
   6   5  10   32.87    1.16
  -7  -5 -10    0.28    0.25
   7   5  10   -0.39    0.15
  -8  -5 -10   70.14    2.31
  -9  -5 -10    9.31    0.78
 -10  -5 -10   12.03    0.90
 -11  -5 -10   67.42    2.42
 -12  -5 -10    2.21    0.51
  -8   6  10    2.82    0.64
   7  -6 -10    6.05    0.72
  -7   6  10    7.33    0.80
   6  -6 -10   24.66    1.28
  -6   6  10   23.84    1.27
   5  -6 -10    4.90    0.58
  -5   6  10    4.31    0.54
   4  -6 -10   31.68    1.38
  -4   6  10   28.85    1.30
   3  -6 -10   45.42    1.69
  -3   6  10   44.40    1.66
  -2   6  10   -0.54    0.17
  -2   6  10   -0.23    0.23
  -1   6  10   60.24    1.97
  -1   6  10   60.73    2.09
   0  -6 -10  110.15    3.01
   0   6  10  111.92    3.27
   0   6  10  109.31    3.19
  -1  -6 -10   15.96    0.74
   1   6  10   15.52    0.80
   1   6  10   16.58    0.88
  -2  -6 -10   23.85    0.95
   2   6  10   24.44    1.05
   2   6  10   23.20    1.01
  -3  -6 -10   20.78    0.91
   3   6  10   23.43    0.98
   3   6  10   22.54    1.01
  -4  -6 -10   20.66    0.90
   4   6  10   16.49    1.00
   4   6  10   20.27    0.88
  -5  -6 -10  125.35    3.54
   5   6  10  125.75    3.46
  -6  -6 -10   59.21    1.98
   6   6  10   62.00    1.87
  -7  -6 -10    3.52    0.46
  -8  -6 -10   38.49    1.53
  -9  -6 -10    7.56    0.76
 -10  -6 -10   18.33    1.09
 -11  -6 -10   28.02    1.42
 -12  -6 -10   -0.34    0.34
   7  -7 -10    6.09    0.68
  -7   7  10    8.10    0.85
   6  -7 -10   17.73    1.10
  -6   7  10   15.42    1.05
   5  -7 -10   -0.18    0.28
  -5   7  10   -0.01    0.24
   4  -7 -10   64.75    2.25
  -4   7  10   63.16    2.25
   3  -7 -10   20.79    1.09
  -3   7  10   19.36    1.06
   2  -7 -10    7.23    0.66
  -2   7  10    6.91    0.67
   1  -7 -10  106.29    3.06
  -1   7  10   98.50    3.09
   0   7  10   71.07    2.32
   0   7  10   70.58    2.32
  -1  -7 -10    2.44    0.30
   1   7  10    2.90    0.40
   1   7  10    3.06    0.40
  -2  -7 -10   53.23    1.66
   2   7  10   53.84    1.86
   2   7  10   49.85    1.75
  -3  -7 -10   14.45    0.75
   3   7  10   15.74    0.90
   3   7  10   14.95    0.79
  -4  -7 -10   13.83    0.73
   4   7  10   12.15    0.71
   4   7  10   12.28    0.82
  -5  -7 -10   43.95    1.55
   5   7  10   40.64    1.66
   5   7  10   44.66    1.47
  -6  -7 -10    4.72    0.51
  -7  -7 -10   60.50    2.07
  -8  -7 -10   29.75    1.33
  -9  -7 -10    0.30    0.31
 -10  -7 -10   35.31    1.56
 -11  -7 -10   27.55    1.43
  -7   8  10   13.50    1.08
   6  -8 -10   26.41    1.41
  -6   8  10   27.77    1.44
   5  -8 -10    1.38    0.41
  -5   8  10    0.95    0.39
   4  -8 -10   56.35    2.02
  -4   8  10   51.19    2.03
   3  -8 -10   37.06    1.52
  -3   8  10   36.18    1.59
   2  -8 -10    6.19    0.60
  -2   8  10    5.31    0.61
   1  -8 -10   55.15    1.92
  -1   8  10   58.19    2.08
   0  -8 -10    7.81    0.67
   0   8  10    8.48    0.74
   1   8  10   23.10    1.16
  -2  -8 -10  133.59    3.57
   2   8  10  124.12    3.68
   2   8  10  133.88    3.90
  -3  -8 -10   18.15    0.85
   3   8  10   17.09    1.04
   3   8  10   18.69    0.90
  -4  -8 -10   14.67    0.80
   4   8  10   14.47    0.79
   4   8  10   13.86    0.93
  -5  -8 -10   41.59    1.50
   5   8  10   37.70    1.65
  -6  -8 -10   -0.03    0.27
  -7  -8 -10   41.79    1.61
  -8  -8 -10   21.30    1.16
  -9  -8 -10    3.20    0.48
 -10  -8 -10   33.84    1.55
 -11  -8 -10   13.24    1.15
   6  -9 -10   13.76    1.03
  -6   9  10   12.40    1.09
   5  -9 -10    6.60    0.71
  -5   9  10    5.80    0.74
   4  -9 -10   37.97    1.59
  -4   9  10   33.72    1.63
   3  -9 -10    3.20    0.49
  -3   9  10    2.85    0.51
   2  -9 -10   29.04    1.31
  -2   9  10   27.28    1.42
   1  -9 -10   89.62    2.72
  -1   9  10   83.42    2.89
   0  -9 -10    1.96    0.36
   0   9  10    2.24    0.44
  -1  -9 -10   13.85    0.79
   1   9  10   13.09    0.94
  -2  -9 -10   38.16    1.37
  -2  -9 -10   37.81    1.34
   2   9  10   37.12    1.63
  -3  -9 -10    1.25    0.28
   3   9  10    0.59    0.35
  -4  -9 -10   60.13    1.89
   4   9  10   51.73    2.11
  -5  -9 -10   40.81    1.52
   5   9  10   40.17    1.77
  -6  -9 -10    1.67    0.38
   6   9  10    2.04    0.49
  -7  -9 -10   25.72    1.25
  -8  -9 -10    7.72    0.78
  -9  -9 -10   10.66    0.88
 -10  -9 -10   41.03    1.77
  -6  10  10    1.63    0.50
   5 -10 -10   13.65    1.00
  -5  10  10   12.46    1.09
   4 -10 -10   34.66    1.54
  -4  10  10   34.96    1.73
   3 -10 -10    0.02    0.28
  -3  10  10   -0.34    0.29
   2 -10 -10   55.51    2.01
  -2  10  10   56.32    2.26
   1 -10 -10   34.16    1.43
  -1  10  10   35.28    1.66
   0 -10 -10    0.52    0.29
   0  10  10    0.67    0.36
  -1 -10 -10   49.43    1.73
   1  10  10   49.58    2.03
   2  10  10   16.56    1.13
  -3 -10 -10   21.57    0.97
   3  10  10   19.67    1.25
  -4 -10 -10   56.71    1.86
   4  10  10   51.86    2.14
  -5 -10 -10    3.59    0.46
   5  10  10    3.86    0.64
  -6 -10 -10   23.06    1.11
   6  10  10   22.31    1.38
  -7 -10 -10   45.74    1.75
  -8 -10 -10    4.08    0.57
  -9 -10 -10   20.59    1.21
   5 -11 -10   28.26    1.49
  -5  11  10   27.26    1.60
   4 -11 -10   25.93    1.35
  -4  11  10   25.19    1.52
   3 -11 -10    0.57    0.32
  -3  11  10    0.06    0.36
   2 -11 -10   65.84    2.28
  -2  11  10   68.00    2.64
   1 -11 -10   26.49    1.26
  -1  11  10   29.67    1.57
   0 -11 -10    0.42    0.29
   0  11  10    0.34    0.36
   1  11  10   44.21    1.96
   2  11  10    9.88    0.99
   3  11  10   26.82    1.51
  -4 -11 -10  102.04    3.00
   4  11  10   98.79    3.40
  -5 -11 -10    5.15    0.52
   5  11  10    5.74    0.78
  -6 -11 -10    3.66    0.47
   6  11  10    2.87    0.60
  -7 -11 -10   22.82    1.20
  -8 -11 -10    0.03    0.30
   4 -12 -10    8.41    0.88
  -4  12  10    6.12    0.86
   3 -12 -10   13.99    1.01
  -3  12  10   11.83    1.18
   2 -12 -10   41.64    1.69
  -2  12  10   40.55    2.01
   1 -12 -10   17.26    1.05
  -1  12  10   21.55    1.39
   0  12  10   11.94    1.06
   1  12  10   42.15    1.94
   2  12  10   -0.09    0.31
   3  12  10   20.25    1.36
   4  12  10   28.23    1.60
  -5 -12 -10    0.00    0.27
   5  12  10   -0.11    0.39
  -6 -12 -10   30.29    1.37
   6  12  10   32.27    1.79
  -7 -12 -10   25.72    1.30
   7  12  10   23.87    1.61
  -8 -12 -10    2.12    0.61
   3 -13 -10   11.14    0.95
   2 -13 -10   40.08    1.66
  -2  13  10   38.02    1.99
  -1  13  10    5.15    0.75
   0  13  10   11.63    1.12
   1  13  10   17.48    1.30
   2  13  10   -0.56    0.30
   3  13  10   26.67    1.62
   4  13  10    7.82    0.96
   5  13  10    1.48    0.58
  -6 -13 -10   27.74    1.35
   6  13  10   29.49    2.18
  -7 -13 -10    6.08    0.81
   1  -5  11   -0.24    0.31
   2  -5  11   11.59    0.98
  -3   5 -11   13.23    1.23
   3  -5  11   16.22    1.09
  -4   5 -11    1.69    0.43
   4  -5  11    1.24    0.41
  -5   5 -11   20.43    1.15
   5  -5  11   19.49    1.22
   6  -5  11    5.24    0.77
  -7   5 -11    4.69    0.73
   0   4 -11   25.25    1.27
   0  -4  11   24.39    1.33
  -1   4 -11   -0.50    0.27
   1  -4  11   -0.09    0.29
  -2   4 -11   18.98    1.07
   2  -4  11   19.46    1.16
  -3   4 -11   14.64    0.94
   3  -4  11   13.26    0.98
  -4   4 -11   14.66    0.97
   4  -4  11   14.22    1.01
  -5   4 -11   27.17    1.30
   5  -4  11   26.64    1.34
  -6   4 -11    6.06    0.62
   6  -4  11    4.90    0.59
  -7   4 -11   10.04    0.85
   7  -4  11    9.52    0.92
  -8   4 -11   35.25    1.54
   8  -4  11   31.99    1.65
  -9   4 -11    2.51    0.46
   3   3 -11    7.00    1.10
  -3  -3  11    5.28    1.00
   2   3 -11    4.53    0.57
  -2  -3  11    3.88    0.55
   1   3 -11   34.18    1.46
  -1  -3  11   30.83    1.49
  -1  -3  11   31.27    1.46
   0   3 -11   12.48    0.88
   0  -3  11   11.20    0.89
  -1   3 -11    2.56    0.44
   1  -3  11    2.91    0.47
  -2   3 -11   27.76    1.25
   2  -3  11   27.61    1.33
  -3   3 -11    0.64    0.33
   3  -3  11    0.51    0.31
  -4   3 -11   28.61    1.27
   4  -3  11   28.28    1.34
  -5   3 -11   30.31    1.30
   5  -3  11   27.38    1.34
  -6   3 -11    2.87    0.43
   6  -3  11    2.30    0.45
  -7   3 -11   16.16    0.96
   7  -3  11   16.08    1.05
  -8   3 -11   21.87    1.15
   8  -3  11   21.73    1.24
  -9   3 -11   -0.01    0.28
   9  -3  11    0.47    0.37
 -10   3 -11   13.81    1.01
   4   2 -11   33.89    1.49
  -4  -2  11   28.24    1.43
   3   2 -11    2.84    0.45
  -3  -2  11    3.36    0.48
   2   2 -11    7.89    0.76
  -2  -2  11    7.56    0.77
  -2  -2  11    5.54    0.63
   1   2 -11   32.30    1.38
  -1  -2  11   31.16    1.46
   0   2 -11    3.82    0.48
   0  -2  11    3.94    0.51
  -1   2 -11   24.74    1.16
   1  -2  11   25.28    1.22
  -2   2 -11   41.12    1.58
   2  -2  11   43.02    1.66
  -3   2 -11    0.20    0.26
   3  -2  11    0.17    0.28
  -4   2 -11   35.87    1.44
   4  -2  11   36.57    1.50
  -5   2 -11   28.22    1.23
   5  -2  11   28.57    1.30
  -6   2 -11    0.73    0.28
   6  -2  11    0.30    0.30
  -7   2 -11   22.58    1.12
   7  -2  11   22.49    1.18
  -8   2 -11    3.81    0.48
   8  -2  11    3.45    0.48
  -9   2 -11    4.07    0.52
   9  -2  11    4.61    0.58
 -10   2 -11   30.78    1.42
  10  -2  11   27.86    1.41
 -11   2 -11    6.42    0.68
  11  -2  11    6.00    0.75
   4   1 -11   25.77    1.25
  -4  -1  11   25.16    1.42
   3   1 -11    2.60    0.43
  -3  -1  11    2.53    0.44
  -3  -1  11    2.57    0.48
   2   1 -11   20.07    1.02
  -2  -1  11   18.52    1.13
   1   1 -11   25.22    1.13
  -1  -1  11   23.08    1.22
   0   1 -11    2.06    0.36
   0  -1  11    1.44    0.36
  -1   1 -11   34.88    1.35
   1  -1  11   32.70    1.40
  -2   1 -11   22.42    1.03
   2  -1  11   21.39    1.09
  -3   1 -11   12.91    0.80
   3  -1  11   13.79    0.86
  -4   1 -11   45.99    1.64
   4  -1  11   46.21    1.70
  -5   1 -11   24.95    1.12
   5  -1  11   24.16    1.15
  -6   1 -11    6.31    0.63
   6  -1  11    7.75    0.74
  -7   1 -11   62.46    2.12
   7  -1  11   64.60    2.20
  -8   1 -11   17.31    0.96
   8  -1  11   18.03    1.05
  -9   1 -11   11.65    0.86
   9  -1  11   11.14    0.89
 -10   1 -11   16.43    1.02
  10  -1  11   16.87    1.06
 -11   1 -11    0.32    0.33
  11  -1  11    0.48    0.34
 -12   1 -11   17.33    1.20
  12  -1  11   15.92    1.12
  -4   0  11    7.54    0.78
   3   0 -11    0.28    0.28
  -3   0  11    0.15    0.30
   2   0 -11   43.19    1.58
  -2   0  11   42.32    1.73
   1   0 -11   46.93    1.63
  -1   0  11   43.37    1.73
   0   0 -11   -0.03    0.24
   0   0  11   -0.07    0.26
  -1   0 -11   42.27    1.50
   1   0  11   41.49    1.60
  -2   0 -11    2.49    0.35
   2   0  11    2.53    0.40
  -3   0 -11    6.10    0.56
   3   0  11    6.13    0.62
  -4   0 -11   48.83    1.69
   4   0  11   50.78    1.78
  -5   0 -11    1.88    0.34
   5   0  11    1.89    0.35
  -6   0 -11   31.75    1.28
   6   0  11   32.37    1.33
  -7   0 -11   74.51    2.36
   7   0  11   72.15    2.37
  -8   0 -11    8.70    0.72
   8   0  11   10.11    0.80
  -9   0 -11    7.94    0.73
   9   0  11    8.19    0.73
 -10   0 -11    6.26    0.65
  10   0  11    7.56    0.73
 -11   0 -11   -0.03    0.28
  11   0  11   -0.31    0.26
 -12   0 -11   28.85    1.47
  12   0  11   26.21    1.35
   6  -1 -11   -0.21    0.42
  -5   1  11   25.26    1.44
  -4   1  11   18.25    1.19
   3  -1 -11    0.68    0.28
  -3   1  11    0.70    0.35
   2  -1 -11   30.77    1.21
  -2   1  11   28.67    1.37
   1  -1 -11   12.35    0.75
  -1   1  11   10.41    0.84
   0  -1 -11   10.19    0.68
   0   1  11   10.89    0.78
  -1  -1 -11   45.03    1.53
   1   1  11   44.09    1.65
  -2  -1 -11    2.64    0.35
   2   1  11    2.43    0.37
  -3  -1 -11   50.13    1.68
   3   1  11   51.27    1.78
  -4  -1 -11   40.11    1.43
   4   1  11   39.27    1.48
  -5  -1 -11    4.20    0.44
   5   1  11    3.71    0.45
  -6  -1 -11   75.23    2.37
   6   1  11   78.77    2.43
  -7  -1 -11   45.40    1.65
   7   1  11   47.77    1.68
  -8  -1 -11   -0.49    0.19
   8   1  11   -0.41    0.22
  -9  -1 -11   33.29    1.43
   9   1  11   34.36    1.39
 -10  -1 -11   14.45    0.95
  10   1  11   13.30    0.88
 -11  -1 -11    1.82    0.44
  11   1  11    1.62    0.38
 -12  -1 -11   26.10    1.43
   6  -2 -11    4.76    0.63
  -5   2  11   32.30    1.62
  -4   2  11    3.44    0.55
  -3   2  11    4.50    0.59
   2  -2 -11   46.66    1.54
  -2   2  11   43.55    1.77
   1  -2 -11   -0.16    0.21
  -1   2  11    0.12    0.26
   0  -2 -11   44.13    1.51
   0   2  11   46.70    1.70
  -1  -2 -11   10.52    0.65
   1   2  11   11.68    0.80
  -2  -2 -11    2.83    0.36
   2   2  11    2.49    0.37
  -3  -2 -11   79.87    2.43
   3   2  11   84.87    2.54
  -4  -2 -11   57.97    1.83
   4   2  11   53.47    1.84
  -5  -2 -11    0.34    0.23
   5   2  11    0.31    0.26
  -6  -2 -11   87.10    2.69
   6   2  11   93.36    2.72
  -7  -2 -11   23.57    1.11
   7   2  11   25.69    1.10
  -8  -2 -11   -0.69    0.20
   8   2  11    0.12    0.23
  -9  -2 -11   63.38    2.17
   9   2  11   63.38    2.08
 -10  -2 -11   20.06    1.11
  10   2  11   19.69    1.00
 -11  -2 -11    4.86    0.60
 -12  -2 -11   27.73    1.47
   6  -3 -11    5.72    0.70
   5  -3 -11   29.62    1.42
  -4   3  11    1.43    0.43
  -3   3  11   29.67    1.45
  -2   3  11   47.88    1.85
   1  -3 -11   -0.02    0.20
  -1   3  11    0.06    0.26
   0  -3 -11   33.23    1.22
   0   3  11   35.50    1.42
  -1  -3 -11   60.06    1.84
   1   3  11   58.47    1.99
  -2  -3 -11    1.93    0.31
   2   3  11    1.71    0.34
  -3  -3 -11   14.71    0.77
   3   3  11   15.92    0.87
  -4  -3 -11   28.89    1.13
   4   3  11   28.63    1.17
  -5  -3 -11   26.13    1.10
   5   3  11   27.28    1.12
  -6  -3 -11   67.62    2.16
   6   3  11   67.51    2.12
  -7  -3 -11    9.41    0.74
   7   3  11   11.11    0.70
  -8  -3 -11    4.89    0.54
   8   3  11    6.96    0.59
  -9  -3 -11   34.23    1.49
   9   3  11   36.58    1.36
 -10  -3 -11    3.95    0.55
 -11  -3 -11   13.27    1.05
 -12  -3 -11   23.02    1.31
   6  -4 -11   18.99    1.19
   5  -4 -11   14.89    1.04
  -4   4  11   -0.01    0.34
  -3   4  11   43.03    1.78
  -2   4  11   28.81    1.36
   1  -4 -11    5.56    0.50
  -1   4  11    5.20    0.56
   0  -4 -11   16.75    0.78
   0   4  11   16.71    0.98
  -1  -4 -11    2.19    0.31
   1   4  11    1.80    0.35
  -2  -4 -11   22.32    0.95
   2   4  11   24.33    1.08
  -3  -4 -11  111.13    3.17
   3   4  11  114.99    3.27
  -4  -4 -11   20.86    0.93
   4   4  11   20.27    0.95
  -5  -4 -11   41.21    1.50
   5   4  11   43.80    1.50
  -6  -4 -11   48.94    1.69
   6   4  11   48.39    1.64
  -7  -4 -11   10.47    0.74
   7   4  11    9.66    0.66
  -8  -4 -11   30.25    1.33
   8   4  11   30.71    1.20
  -9  -4 -11   31.54    1.41
 -10  -4 -11   -0.59    0.25
 -11  -4 -11   36.37    1.62
 -12  -4 -11   18.23    1.19
   6  -5 -11   21.91    1.29
   5  -5 -11    8.33    0.84
   4  -5 -11    1.33    0.37
  -3   5  11   51.09    2.02
  -2   5  11    7.38    0.77
  -1   5  11    2.45    0.41
   0  -5 -11   52.62    1.61
   0   5  11   47.75    1.80
  -1  -5 -11    9.17    0.58
   1   5  11    8.45    0.75
  -2  -5 -11   24.25    0.97
   2   5  11   21.49    1.06
  -3  -5 -11   41.76    1.43
   3   5  11   39.71    1.48
  -4  -5 -11    0.07    0.21
   4   5  11   -0.09    0.21
  -5  -5 -11   58.15    1.92
   5   5  11   59.72    1.90
  -6  -5 -11   54.11    1.89
   6   5  11   58.26    1.84
  -7  -5 -11    0.29    0.26
   7   5  11    0.47    0.23
  -8  -5 -11   33.99    1.43
  -9  -5 -11   14.49    0.95
 -10  -5 -11    1.91    0.41
 -11  -5 -11   45.62    1.88
 -12  -5 -11   18.90    1.30
   6  -6 -11   22.57    1.29
   5  -6 -11    3.59    0.54
   4  -6 -11   16.28    1.02
   3  -6 -11   68.77    2.35
  -2   6  11    4.12    0.56
  -1   6  11   23.91    1.22
   0   6  11   32.32    1.40
  -1  -6 -11    7.40    0.54
   1   6  11    5.94    0.58
  -2  -6 -11   97.52    2.76
   2   6  11   96.06    2.92
  -3  -6 -11   47.28    1.61
   3   6  11   50.29    1.72
  -4  -6 -11    4.01    0.43
   4   6  11    3.75    0.42
  -5  -6 -11   68.56    2.19
   5   6  11   70.74    2.17
  -6  -6 -11   57.91    1.97
   6   6  11   59.96    1.89
  -7  -6 -11   11.65    0.84
  -8  -6 -11   74.88    2.45
  -9  -6 -11   14.30    0.95
 -10  -6 -11    1.33    0.39
 -11  -6 -11   34.21    1.60
  -7   7  11    8.17    0.92
   6  -7 -11   18.48    1.15
  -6   7  11   16.05    1.10
   5  -7 -11    0.35    0.33
  -5   7  11    0.25    0.31
   4  -7 -11   20.29    1.15
  -4   7  11   20.15    1.13
   3  -7 -11   29.28    1.32
  -3   7  11   24.84    1.24
   2  -7 -11   -0.28    0.25
  -2   7  11   -0.09    0.23
  -1   7  11   71.54    2.45
  -1   7  11   71.95    2.35
   0   7  11   48.53    1.82
   0   7  11   46.56    1.84
  -1  -7 -11    0.11    0.20
   1   7  11   -0.14    0.24
  -2  -7 -11   18.62    0.86
   2   7  11   19.62    1.00
  -3  -7 -11    6.05    0.56
   3   7  11    6.93    0.64
  -4  -7 -11   15.32    0.82
   4   7  11   15.04    0.85
  -5  -7 -11  110.37    3.20
   5   7  11  109.08    3.15
  -6  -7 -11   29.23    1.26
  -7  -7 -11    6.21    0.59
  -8  -7 -11   25.11    1.25
  -9  -7 -11   -0.01    0.30
 -10  -7 -11   14.05    1.05
 -11  -7 -11   28.79    1.50
  -6   8  11   12.91    1.04
   5  -8 -11   -0.48    0.28
  -5   8  11   -0.15    0.27
   4  -8 -11   29.36    1.43
  -4   8  11   29.23    1.45
   3  -8 -11   11.85    0.92
  -3   8  11   12.96    0.93
   2  -8 -11    1.19    0.36
  -2   8  11    1.91    0.42
   1  -8 -11   49.11    1.76
  -1   8  11   43.81    1.79
   0  -8 -11   10.19    0.82
   0   8  11   11.45    0.86
   1   8  11   14.33    0.90
   1   8  11   12.50    0.90
  -2  -8 -11   44.09    1.48
   2   8  11   43.39    1.69
   2   8  11   42.42    1.62
  -3  -8 -11    0.13    0.23
   3   8  11    0.12    0.27
   3   8  11   -0.16    0.24
  -4  -8 -11   26.98    1.13
   4   8  11   24.55    1.27
   4   8  11   26.66    1.15
  -5  -8 -11   70.51    2.15
   5   8  11   55.91    2.88
  -6  -8 -11   -0.02    0.27
  -7  -8 -11   26.99    1.26
  -8  -8 -11   24.05    1.25
  -9  -8 -11    0.50    0.34
 -10  -8 -11   32.38    1.56
  -6   9  11   15.72    1.17
   5  -9 -11    1.40    0.42
  -5   9  11    1.49    0.46
   4  -9 -11   31.08    1.45
  -4   9  11   28.75    1.51
   3  -9 -11   10.62    0.87
  -3   9  11    9.98    0.90
   2  -9 -11   11.47    0.90
  -2   9  11   12.24    0.97
   1  -9 -11   35.52    1.47
  -1   9  11   37.62    1.65
   0  -9 -11    1.79    0.37
   0   9  11    2.01    0.44
  -1  -9 -11   29.10    1.22
   1   9  11   27.29    1.36
  -2  -9 -11   76.58    2.34
   2   9  11   71.38    2.54
  -3  -9 -11    0.16    0.25
   3   9  11   -0.07    0.26
   3   9  11   -0.01    0.28
  -4  -9 -11   66.51    2.08
   4   9  11   60.02    2.29
  -5  -9 -11   42.74    1.56
   5   9  11   36.16    1.70
  -6  -9 -11    0.42    0.31
   6   9  11   -0.42    0.31
  -7  -9 -11   27.42    1.30
  -8  -9 -11   17.15    1.09
  -9  -9 -11    6.15    0.67
 -10  -9 -11   50.88    2.09
  -5  10  11    8.93    0.99
   4 -10 -11   18.38    1.15
  -4  10  11   19.20    1.29
   3 -10 -11   -0.04    0.30
  -3  10  11    0.03    0.31
   2 -10 -11   17.90    1.06
  -2  10  11   16.90    1.19
   1 -10 -11   22.95    1.16
  -1  10  11   22.32    1.33
   0 -10 -11    0.02    0.25
   0  10  11   -0.23    0.25
  -1 -10 -11   21.52    1.08
   1  10  11   21.55    1.25
  -2 -10 -11   27.35    1.20
   2  10  11   24.99    1.38
   3  10  11    1.65    0.47
  -4 -10 -11   63.32    2.04
   4  10  11   59.39    2.33
  -5 -10 -11    3.67    0.47
   5  10  11    3.11    0.58
  -6 -10 -11    3.09    0.45
   6  10  11    3.32    0.62
  -7 -10 -11   50.65    1.89
   7  10  11   50.70    2.17
  -8 -10 -11   11.94    0.96
  -9 -10 -11   10.41    0.91
   4 -11 -11   29.48    1.50
  -4  11  11   31.52    1.72
   3 -11 -11    0.94    0.37
  -3  11  11    1.33    0.48
   2 -11 -11   23.00    1.21
  -2  11  11   25.07    1.48
   1 -11 -11   22.43    1.18
  -1  11  11   22.69    1.39
   0 -11 -11    0.23    0.31
   0  11  11    0.51    0.37
  -1 -11 -11   35.46    1.64
   1  11  11   32.76    1.67
   2  11  11   22.47    1.36
   3  11  11   29.22    1.56
  -4 -11 -11   55.03    1.96
   4  11  11   51.40    2.20
  -5 -11 -11   20.89    1.07
   5  11  11   19.56    1.35
  -6 -11 -11    2.35    0.41
   6  11  11    2.21    0.60
  -7 -11 -11   22.40    1.21
   7  11  11   23.81    1.50
  -8 -11 -11    4.47    0.59
   3 -12 -11    1.47    0.41
  -3  12  11    1.06    0.50
   2 -12 -11   26.87    1.34
  -2  12  11   25.20    1.59
   1 -12 -11    3.77    0.49
  -1  12  11    3.51    0.62
   0  12  11    3.63    0.61
   1  12  11   23.60    1.44
   2  12  11    5.53    0.75
   3  12  11   21.04    1.37
   4  12  11   15.60    1.25
  -5 -12 -11   -0.05    0.28
   5  12  11   -0.11    0.36
  -6 -12 -11   34.16    1.43
   6  12  11   31.91    1.80
  -7 -12 -11   25.39    1.29
   7  12  11   25.69    1.66
   8  12  11   -0.15    0.47
   2 -13 -11   26.67    1.37
  -1  13  11    2.58    0.61
   0  13  11   13.30    1.18
   1  13  11   36.76    1.87
   2  13  11    0.18    0.36
   3  13  11    5.91    0.83
   4  13  11   28.43    1.67
   5  13  11   -0.02    0.42
  -6 -13 -11   11.72    0.93
   1  -4  12   -0.02    0.31
   2  -4  12   10.74    0.94
   3  -4  12    3.44    0.54
   4  -4  12    3.38    0.57
   5  -4  12   32.86    2.21
  -1  -3  12   15.70    1.15
   0   3 -12    8.84    1.14
   0  -3  12   11.14    0.96
  -1   3 -12   -0.48    0.26
   1  -3  12   -0.20    0.29
  -2   3 -12   26.24    1.31
   2  -3  12   28.00    1.39
  -3   3 -12    3.96    0.51
   3  -3  12    5.52    0.63
  -4   3 -12   19.63    1.09
   4  -3  12   20.32    1.20
  -5   3 -12   20.49    1.12
   5  -3  12   19.12    1.15
  -6   3 -12    2.10    0.43
   6  -3  12    1.63    0.41
  -7   3 -12   26.06    1.29
   7  -3  12   22.94    1.30
  -8   3 -12   29.01    1.40
   2   2 -12    3.21    0.52
  -2  -2  12    2.54    0.53
   1   2 -12   29.73    1.36
  -1  -2  12   25.87    1.41
   0   2 -12   12.43    0.88
   0  -2  12   12.19    0.95
  -1   2 -12    7.28    0.73
   1  -2  12    7.07    0.72
  -2   2 -12   32.13    1.37
   2  -2  12   31.54    1.45
  -3   2 -12    1.96    0.40
   3  -2  12    2.12    0.43
  -4   2 -12   22.65    1.14
   4  -2  12   25.35    1.27
  -5   2 -12   29.83    1.31
   5  -2  12   29.05    1.37
  -6   2 -12    1.23    0.36
   6  -2  12    0.89    0.36
  -7   2 -12   23.17    1.19
   7  -2  12   21.01    1.20
  -8   2 -12   24.84    1.23
   8  -2  12   24.51    1.31
  -9   2 -12    0.17    0.31
   9  -2  12    0.10    0.34
   3   1 -12    6.06    0.64
  -3  -1  12    6.39    0.74
   2   1 -12    5.34    0.59
  -2  -1  12    3.78    0.60
   1   1 -12   24.50    1.19
  -1  -1  12   23.38    1.29
   0   1 -12    5.19    0.55
   0  -1  12    6.02    0.66
  -1   1 -12   14.26    0.88
   1  -1  12   14.48    0.98
  -2   1 -12   20.27    1.03
   2  -1  12   17.96    1.05
  -3   1 -12    1.17    0.34
   3  -1  12    1.46    0.37
  -4   1 -12   33.18    1.38
   4  -1  12   34.10    1.48
  -5   1 -12   17.32    0.97
   5  -1  12   18.74    1.05
  -6   1 -12   -0.10    0.25
   6  -1  12   -0.46    0.25
  -7   1 -12   31.38    1.35
   7  -1  12   30.66    1.40
  -8   1 -12    2.07    0.40
   8  -1  12    2.00    0.42
  -9   1 -12   13.98    0.96
   9  -1  12   14.90    1.01
 -10   1 -12   34.53    1.56
  10  -1  12   35.04    1.60
  -4   0  12   16.74    1.24
   3   0 -12    0.00    0.28
  -3   0  12   -0.30    0.29
   2   0 -12   17.44    0.96
  -2   0  12   17.37    1.11
   1   0 -12   21.88    1.08
  -1   0  12   20.54    1.20
   0   0 -12   -0.30    0.23
   0   0  12    0.12    0.29
  -1   0 -12   26.67    1.14
   1   0  12   25.31    1.25
  -2   0 -12    6.63    0.62
   2   0  12    6.81    0.73
  -3   0 -12   10.87    0.76
   3   0  12   10.02    0.81
  -4   0 -12   66.95    2.21
   4   0  12   70.46    2.32
  -5   0 -12   22.33    1.07
   5   0  12   22.37    1.13
  -6   0 -12    5.21    0.53
   6   0  12    6.60    0.69
  -7   0 -12   50.28    1.83
   7   0  12   52.04    1.88
  -8   0 -12    2.38    0.41
   8   0  12    1.07    0.35
  -9   0 -12   21.87    1.15
   9   0  12   21.39    1.15
 -10   0 -12   35.06    1.55
  10   0  12   36.82    1.57
 -11   0 -12   -0.28    0.29
  11   0  12    0.13    0.31
  -4   1  12    5.91    0.74
  -3   1  12    1.64    0.45
   2  -1 -12   47.36    1.67
  -2   1  12   43.88    1.87
   1  -1 -12   34.91    1.37
  -1   1  12   34.28    1.55
   0  -1 -12    1.54    0.32
   0   1  12    2.30    0.42
  -1  -1 -12   27.67    1.16
   1   1  12   26.57    1.26
  -2  -1 -12    2.57    0.36
   2   1  12    2.03    0.39
  -3  -1 -12   12.78    0.76
   3   1  12   11.54    0.83
  -4  -1 -12   54.71    1.84
   4   1  12   54.39    1.92
  -5  -1 -12    4.24    0.47
   5   1  12    4.80    0.54
  -6  -1 -12   27.93    1.20
   6   1  12   26.44    1.22
  -7  -1 -12   50.60    1.83
   7   1  12   51.56    1.84
  -8  -1 -12    2.32    0.43
   8   1  12    2.31    0.40
  -9  -1 -12   20.61    1.13
   9   1  12   21.00    1.10
 -10  -1 -12   18.26    1.12
  10   1  12   20.07    1.10
 -11  -1 -12   -0.53    0.27
  -5   2  12   17.90    1.30
  -4   2  12    4.37    0.66
  -3   2  12    6.24    0.71
  -2   2  12   35.69    1.61
   1  -2 -12   14.47    0.81
  -1   2  12   15.29    1.02
   0  -2 -12   11.08    0.72
   0   2  12   10.43    0.85
  -1  -2 -12   25.65    1.08
   1   2  12   24.81    1.23
  -2  -2 -12   -0.02    0.20
   2   2  12    0.10    0.27
  -3  -2 -12   65.21    2.08
   3   2  12   67.13    2.22
  -4  -2 -12   54.98    1.86
   4   2  12   58.39    1.97
  -5  -2 -12    0.95    0.31
   5   2  12    0.92    0.32
  -6  -2 -12   40.17    1.53
   6   2  12   42.64    1.59
  -7  -2 -12   29.48    1.30
   7   2  12   31.24    1.30
  -8  -2 -12    2.44    0.44
   8   2  12    2.16    0.39
  -9  -2 -12   50.76    1.89
   9   2  12   49.87    1.81
 -10  -2 -12   10.82    0.88
  10   2  12   10.77    0.80
 -11  -2 -12    2.07    0.49
   5  -3 -12   24.89    1.35
  -4   3  12    0.29    0.38
  -3   3  12   10.10    0.93
  -2   3  12   49.82    1.95
   1  -3 -12    0.47    0.25
  -1   3  12    0.09    0.28
   0  -3 -12   37.35    1.35
   0   3  12   37.68    1.58
  -1  -3 -12   37.72    1.36
   1   3  12   38.01    1.54
  -2  -3 -12    2.83    0.38
   2   3  12    3.40    0.47
  -3  -3 -12   58.17    1.88
   3   3  12   56.65    1.97
  -4  -3 -12   19.50    0.94
   4   3  12   19.19    1.00
  -5  -3 -12    0.41    0.26
   5   3  12    0.38    0.28
  -6  -3 -12   41.19    1.55
   6   3  12   41.55    1.53
  -7  -3 -12   16.64    0.94
   7   3  12   17.18    0.92
  -8  -3 -12    3.15    0.45
   8   3  12    2.69    0.39
  -9  -3 -12   41.10    1.66
   9   3  12   41.74    1.55
 -10  -3 -12    2.75    0.49
 -11  -3 -12    8.11    0.78
   5  -4 -12   26.13    1.37
  -4   4  12    0.99    0.45
  -3   4  12   21.18    1.26
  -2   4  12   31.98    1.50
  -1   4  12   -0.34    0.24
   0  -4 -12   31.53    1.19
   0   4  12   29.92    1.39
  -1  -4 -12   18.39    0.89
   1   4  12   18.15    1.07
  -2  -4 -12   64.30    1.99
   2   4  12   61.83    2.13
  -3  -4 -12   85.22    2.57
   3   4  12   87.11    2.69
  -4  -4 -12   17.69    0.90
   4   4  12   19.02    0.99
  -5  -4 -12   13.44    0.82
   5   4  12   14.35    0.85
  -6  -4 -12   69.15    2.28
   6   4  12   73.36    2.28
  -7  -4 -12    3.32    0.45
   7   4  12    4.34    0.45
  -8  -4 -12   11.94    0.85
   8   4  12   12.99    0.79
  -9  -4 -12   37.37    1.57
 -10  -4 -12    0.05    0.33
 -11  -4 -12   23.40    1.33
   5  -5 -12   15.59    1.12
   4  -5 -12    0.21    0.29
  -3   5  12   32.74    1.58
  -2   5  12   16.32    1.13
  -1   5  12    3.91    0.54
   0  -5 -12   48.81    1.80
   0   5  12   45.71    1.81
  -1  -5 -12   28.63    1.11
   1   5  12   26.53    1.29
  -2  -5 -12   31.18    1.21
   2   5  12   32.05    1.37
  -3  -5 -12   61.94    1.97
   3   5  12   60.04    2.05
  -4  -5 -12    0.28    0.27
   4   5  12    0.69    0.30
  -5  -5 -12   43.60    1.58
   5   5  12   43.63    1.59
  -6  -5 -12   68.89    2.27
   6   5  12   71.37    2.23
  -7  -5 -12    5.07    0.55
   7   5  12    5.01    0.49
  -8  -5 -12   21.88    1.16
  -9  -5 -12   14.62    0.99
 -10  -5 -12    1.83    0.43
 -11  -5 -12   29.17    1.49
   5  -6 -12    2.63    0.51
   4  -6 -12    7.62    0.80
   3  -6 -12   33.52    1.50
  -2   6  12    1.95    0.46
  -1   6  12    5.39    0.63
   0   6  12   76.38    2.58
  -1  -6 -12    2.60    0.34
   1   6  12    1.78    0.40
  -2  -6 -12   35.69    1.31
   2   6  12   33.59    1.44
  -3  -6 -12   48.11    1.68
   3   6  12   51.01    1.81
  -4  -6 -12   -0.52    0.21
   4   6  12   -0.15    0.22
  -5  -6 -12   76.41    2.38
   5   6  12   73.34    2.35
  -6  -6 -12   35.34    1.43
   6   6  12   35.02    1.36
  -7  -6 -12    4.75    0.53
  -8  -6 -12   51.35    1.90
  -9  -6 -12   14.84    0.99
 -10  -6 -12    0.74    0.35
 -11  -6 -12   25.64    1.48
   5  -7 -12    2.04    0.64
   4  -7 -12   21.29    1.25
   3  -7 -12   46.76    1.85
   2  -7 -12   -0.06    0.28
  -1   7  12   22.64    1.27
   0   7  12   28.08    1.38
   1   7  12    9.61    0.82
  -2  -7 -12  115.99    3.25
   2   7  12  113.74    3.43
  -3  -7 -12   79.07    2.43
   3   7  12   80.37    2.54
  -4  -7 -12    1.04    0.31
   4   7  12    0.67    0.32
  -5  -7 -12   74.10    2.37
   5   7  12   73.95    2.36
  -6  -7 -12   23.30    1.13
  -7  -7 -12   16.78    0.99
  -8  -7 -12   31.73    1.43
  -9  -7 -12    4.23    0.54
 -10  -7 -12   11.28    0.98
   4  -8 -12   20.96    1.23
   3  -8 -12   30.72    1.47
   2  -8 -12   -0.43    0.26
   1  -8 -12   46.32    1.79
   0   8  12   10.80    0.91
   1   8  12    1.80    0.41
   2   8  12   36.08    1.52
  -3  -8 -12   31.77    1.27
   3   8  12   32.56    1.39
  -4  -8 -12   13.89    0.83
   4   8  12   15.11    0.92
  -5  -8 -12   87.12    2.69
  -6  -8 -12    2.09    0.40
  -7  -8 -12   15.64    0.97
  -8  -8 -12   33.58    1.50
  -9  -8 -12    0.64    0.37
 -10  -8 -12    7.34    0.74
  -5   9  12    0.40    0.37
   4  -9 -12   29.25    1.47
  -4   9  12   27.06    1.49
   3  -9 -12   13.72    0.99
  -3   9  12   12.49    1.00
   2  -9 -12   10.77    0.87
  -2   9  12    9.69    0.89
   1  -9 -12   22.46    1.18
  -1   9  12   20.44    1.22
   0  -9 -12    0.19    0.29
   0   9  12    0.12    0.35
  -1  -9 -12   35.33    1.44
   2   9  12   74.97    2.50
  -3  -9 -12    8.86    0.72
   3   9  12    9.59    0.81
  -4  -9 -12   26.26    1.16
  -5  -9 -12   45.40    1.69
  -6  -9 -12    0.34    0.29
  -7  -9 -12   25.15    1.27
  -8  -9 -12   16.43    1.05
  -9  -9 -12    1.67    0.45
  -4  10  12   23.74    1.43
   3 -10 -12    6.04    0.66
  -3  10  12    4.65    0.68
   2 -10 -12   16.85    1.06
  -2  10  12   16.14    1.14
   1 -10 -12   15.86    1.01
  -1  10  12   15.85    1.14
   0 -10 -12   -0.43    0.25
   0  10  12   -0.48    0.26
  -1 -10 -12   24.05    1.18
   1  10  12   24.70    1.34
  -2 -10 -12   38.31    1.48
   2  10  12   34.93    1.65
   3  10  12   -0.24    0.29
  -4 -10 -12   77.59    2.36
   4  10  12   66.88    2.72
  -5 -10 -12   20.66    1.09
  -6 -10 -12    0.18    0.29
  -7 -10 -12   29.48    1.40
  -8 -10 -12    4.61    0.60
  -9 -10 -12    5.39    0.72
  -4  11  12   22.19    1.87
   3 -11 -12   -0.28    0.29
  -3  11  12    0.01    0.34
   2 -11 -12   25.16    1.29
  -2  11  12   22.85    1.47
   1 -11 -12   21.57    1.18
  -1  11  12   20.19    1.35
   0 -11 -12    3.20    0.49
   0  11  12    2.98    0.58
  -1 -11 -12   34.65    1.47
   1  11  12   36.49    1.73
   2  11  12   18.92    1.27
   3  11  12   11.80    1.04
   4  11  12   64.84    2.52
  -5 -11 -12   27.38    1.24
   5  11  12   23.62    1.46
  -6 -11 -12    1.54    0.39
   6  11  12    1.03    0.49
  -7 -11 -12   35.99    1.57
   7  11  12   34.14    1.96
  -8 -11 -12   12.50    1.01
   2 -12 -12   18.73    1.15
  -2  12  12   17.37    1.36
   1 -12 -12   11.22    0.90
  -1  12  12   10.93    1.14
   0 -12 -12    8.33    0.89
   0  12  12    8.42    0.98
   1  12  12   31.38    1.66
   2  12  12    8.52    0.97
   3  12  12   15.92    1.20
   4  12  12   21.22    1.41
   5  12  12    3.94    0.70
  -6 -12 -12    9.22    0.85
   6  12  12    6.19    0.82
  -7 -12 -12   12.28    1.01
   7  12  12   14.25    1.27
   0  13  12    7.93    0.96
   1  13  12   20.46    1.40
   2  13  12    0.47    0.41
   3  13  12   16.41    1.27
   4  13  12   12.62    1.19
   5  13  12   -0.22    0.38
   1  -2  13    4.59    0.62
  -2   2 -13   32.21    1.56
   2  -2  13   29.56    1.50
  -3   2 -13    0.74    0.36
   3  -2  13    1.16    0.42
  -4   2 -13   23.63    1.20
   4  -2  13   22.38    1.30
  -5   2 -13   36.34    1.52
   5  -2  13   31.18    1.52
  -6   2 -13    3.57    0.57
   6  -2  13    2.64    0.52
   1   1 -13   28.81    1.37
  -1  -1  13   25.87    1.46
   0   1 -13    2.22    0.44
   0  -1  13    2.06    0.48
  -1   1 -13   16.43    1.02
   1  -1  13   17.39    1.15
  -2   1 -13   21.63    1.10
   2  -1  13   19.15    1.19
  -3   1 -13    2.63    0.45
   3  -1  13    2.33    0.48
  -4   1 -13   14.31    0.91
   4  -1  13   15.66    1.03
  -5   1 -13   14.21    0.91
   5  -1  13   13.16    1.00
  -6   1 -13    1.52    0.40
   6  -1  13    0.55    0.35
  -7   1 -13   21.49    1.15
   7  -1  13   21.32    1.23
  -8   1 -13   18.15    1.09
   8  -1  13   19.06    1.17
   2   0 -13    9.96    0.88
  -2   0  13   10.85    1.02
   1   0 -13   16.66    0.99
  -1   0  13   16.39    1.13
   0   0 -13   -0.07    0.26
   0   0  13   -0.11    0.30
  -1   0 -13   20.01    1.05
   1   0  13   17.80    1.16
  -2   0 -13   11.78    0.81
   2   0  13   11.32    0.91
  -3   0 -13    4.08    0.49
   3   0  13    3.04    0.49
  -4   0 -13   33.35    1.39
   4   0  13   33.14    1.48
  -5   0 -13   10.99    0.81
   5   0  13   11.13    0.91
  -6   0 -13    2.19    0.40
   6   0  13    1.94    0.42
  -7   0 -13   18.47    1.06
   7   0  13   20.15    1.14
  -8   0 -13    1.42    0.36
   8   0  13    1.36    0.40
  -9   0 -13   10.47    0.90
   9   0  13   11.41    0.96
  10   0  13   14.47    1.12
  -3   1  13    0.46    0.47
  -2   1  13   26.21    1.46
   1  -1 -13   19.10    1.01
  -1   1  13   17.65    1.20
   0  -1 -13    1.66    0.37
   0   1  13    1.61    0.42
  -1  -1 -13   22.05    1.06
   1   1  13   19.06    1.15
  -2  -1 -13    6.19    0.61
   2   1  13    4.35    0.55
  -3  -1 -13    9.91    0.74
   3   1  13    9.98    0.87
  -4  -1 -13   56.45    1.94
   4   1  13   55.55    2.04
  -5  -1 -13    0.88    0.33
   5   1  13    1.04    0.36
  -6  -1 -13    9.69    0.76
   6   1  13    9.29    0.81
  -7  -1 -13   42.31    1.66
   7   1  13   45.35    1.75
  -8  -1 -13   -0.29    0.25
   8   1  13   -0.27    0.26
  -9  -1 -13   16.64    1.04
   9   1  13   15.97    1.04
 -10  -1 -13   27.87    1.56
  10   1  13   27.13    1.34
  11   1  13   -0.23    0.29
  -3   2  13    3.60    0.63
  -2   2  13   34.58    1.66
   1  -2 -13    3.58    0.46
  -1   2  13    3.03    0.53
   0  -2 -13   12.17    0.80
   0   2  13   12.36    0.99
  -1  -2 -13   35.45    1.37
   1   2  13   34.05    1.53
  -2  -2 -13    3.17    0.41
   2   2  13    2.16    0.44
  -3  -2 -13   26.00    1.14
   3   2  13   24.71    1.26
  -4  -2 -13   26.73    1.18
   4   2  13   27.15    1.26
  -5  -2 -13   -0.14    0.24
   5   2  13   -0.48    0.25
  -6  -2 -13   26.22    1.22
   6   2  13   26.80    1.27
  -7  -2 -13   22.09    1.14
   7   2  13   23.00    1.16
  -8  -2 -13    0.55    0.32
   8   2  13    0.81    0.33
  -9  -2 -13   29.90    1.42
   9   2  13   30.69    1.37
 -10  -2 -13   19.09    1.13
  10   2  13   18.59    1.08
  -3   3  13   13.22    1.10
  -2   3  13   36.53    1.69
  -1   3  13    1.85    0.44
   0  -3 -13   15.84    0.87
   0   3  13   15.04    1.03
  -1  -3 -13   58.73    1.90
   1   3  13   56.16    2.11
  -2  -3 -13    0.22    0.25
   2   3  13   -0.20    0.29
  -3  -3 -13   39.06    1.47
   3   3  13   38.84    1.60
  -4  -3 -13   36.45    1.40
   4   3  13   34.14    1.46
  -5  -3 -13    0.28    0.26
   5   3  13   -0.04    0.26
  -6  -3 -13   14.82    0.91
   6   3  13   16.49    0.97
  -7  -3 -13    4.83    0.52
   7   3  13    6.82    0.70
  -8  -3 -13    8.48    0.82
   8   3  13   10.75    0.82
  -9  -3 -13   53.74    1.99
   9   3  13   50.38    1.86
 -10  -3 -13    4.89    0.60
  10   3  13    5.09    0.84
  -3   4  13   19.66    1.29
  -2   4  13   33.09    1.64
  -1   4  13    0.53    0.35
   0  -4 -13   14.33    0.84
   0   4  13   13.18    1.00
  -1  -4 -13   15.45    0.84
   1   4  13   13.60    0.99
  -2  -4 -13    2.14    0.35
   2   4  13    2.03    0.40
  -3  -4 -13   41.56    1.53
   3   4  13   42.71    1.67
  -4  -4 -13    6.65    0.62
   4   4  13    5.20    0.55
  -5  -4 -13    9.93    0.75
   5   4  13   11.25    0.80
  -6  -4 -13   35.70    1.48
   6   4  13   39.29    1.50
  -7  -4 -13    4.38    0.52
   7   4  13    4.09    0.47
  -8  -4 -13   15.80    0.99
   8   4  13   16.56    0.96
  -9  -4 -13   37.18    1.62
   9   4  13   38.35    1.80
 -10  -4 -13   -0.34    0.31
  -3   5  13   29.72    1.59
  -2   5  13   25.97    1.46
  -1   5  13    1.49    0.42
   0   5  13   28.35    1.42
  -1  -5 -13    0.11    0.22
   1   5  13    0.18    0.32
  -2  -5 -13   32.30    1.25
   2   5  13   30.13    1.42
  -3  -5 -13   75.40    2.31
   3   5  13   71.07    2.42
  -4  -5 -13    8.23    0.70
   4   5  13    9.04    0.78
  -5  -5 -13    0.82    0.30
   5   5  13    1.53    0.34
  -6  -5 -13   25.98    1.22
   6   5  13   28.37    1.24
  -7  -5 -13    3.06    0.45
   7   5  13    2.72    0.42
  -8  -5 -13   43.03    1.71
   8   5  13   43.92    1.73
  -9  -5 -13   27.16    1.36
 -10  -5 -13    0.84    0.38
   3  -6 -13   38.17    1.68
  -2   6  13   23.20    1.37
  -1   6  13   12.29    1.01
   0   6  13   32.79    1.54
   1   6  13    9.51    0.88
  -2  -6 -13   20.72    0.97
   2   6  13   19.95    1.14
  -3  -6 -13   22.30    1.04
   3   6  13   21.51    1.13
  -4  -6 -13   -0.19    0.25
   4   6  13    0.39    0.28
  -5  -6 -13   39.68    1.52
   5   6  13   39.90    1.56
  -6  -6 -13   55.62    1.97
   6   6  13   57.83    1.97
  -7  -6 -13    1.26    0.37
   7   6  13    1.35    0.37
  -8  -6 -13   38.42    1.62
  -9  -6 -13   18.84    1.15
 -10  -6 -13    2.22    0.49
   3  -7 -13   18.11    1.14
   2  -7 -13    5.53    0.63
  -1   7  13   27.50    1.45
   0   7  13   29.13    1.46
   1   7  13   -0.33    0.29
  -2  -7 -13   13.25    0.93
   2   7  13   11.73    0.91
  -3  -7 -13    4.41    0.48
   3   7  13    4.62    0.53
  -4  -7 -13   -0.30    0.23
   4   7  13   -0.07    0.27
  -5  -7 -13   55.43    1.93
   5   7  13   54.51    1.95
  -6  -7 -13   17.28    1.00
   6   7  13   17.02    1.05
  -7  -7 -13    9.11    0.84
  -8  -7 -13   29.04    1.38
  -9  -7 -13    5.20    0.64
 -10  -7 -13    5.87    0.93
   3  -8 -13   44.57    1.89
   2  -8 -13   -0.28    0.29
   1  -8 -13   17.83    1.07
   0   8  13   28.22    1.47
   1   8  13    5.35    0.62
   2   8  13   22.27    1.21
  -3  -8 -13    9.00    0.71
   3   8  13    9.96    0.85
  -4  -8 -13    3.80    0.47
   4   8  13    3.18    0.47
  -5  -8 -13   35.90    1.47
   5   8  13   35.64    1.75
  -6  -8 -13    2.68    0.45
  -7  -8 -13   22.20    1.19
  -8  -8 -13   27.20    1.35
  -9  -8 -13   -0.32    0.30
   3  -9 -13   20.78    1.91
   2  -9 -13    0.45    0.37
   1  -9 -13   28.16    1.39
   0  -9 -13    4.06    0.55
   2   9  13   26.40    1.35
   3   9  13   13.12    0.96
  -4  -9 -13   14.19    0.89
  -5  -9 -13   19.48    1.07
  -6  -9 -13   -0.07    0.27
  -7  -9 -13   27.93    1.35
  -8  -9 -13   24.48    1.32
  -9  -9 -13    1.36    0.47
   2 -10 -13    4.33    0.59
   1 -10 -13   19.64    1.18
   0 -10 -13    1.09    0.38
  -1 -10 -13   23.22    1.20
  -2 -10 -13   27.70    1.28
  -5 -10 -13    8.74    0.82
  -6 -10 -13    0.44    0.34
  -7 -10 -13   26.00    1.33
  -8 -10 -13   14.88    1.05
  -2  11  13    8.24    1.24
   1 -11 -13   18.64    1.16
   0 -11 -13   -0.27    0.29
  -1 -11 -13   19.75    1.13
  -6 -11 -13    9.23    0.84
  -7 -11 -13   40.00    1.70
   1 -12 -13    5.33    0.66
  -1  12  13    6.72    0.88
   0 -12 -13    2.92    0.50
   0  12  13    2.63    0.60
   1  12  13   30.20    1.64
   2  12  13    5.65    0.73
   3  12  13    6.23    0.92
  -6 -12 -13    6.11    0.79
   1  13  13   31.00    1.77
   2  13  13    4.75    0.70
   3  13  13    4.05    0.67
   4  13  13   15.25    1.22
   0   0 -14   -0.92    0.35
  -1   0 -14   20.68    1.16
  -2   0 -14   22.80    1.19
   2   0  14   21.59    1.35
  -3   0 -14    0.47    0.32
   3   0  14   -0.01    0.33
  -4   0 -14   23.40    1.19
   4   0  14   22.14    1.26
  -5   0 -14   11.45    0.88
   5   0  14   12.17    1.00
  -6   0 -14    1.33    0.39
   6   0  14    0.69    0.38
   7   0  14   26.65    1.59
   1  -1 -14   19.68    1.11
   0  -1 -14   -0.27    0.27
   0   1  14   -0.20    0.34
  -1  -1 -14   22.48    1.12
   1   1  14   22.37    1.34
  -2  -1 -14   16.01    0.95
   2   1  14   15.09    1.11
  -3  -1 -14    1.86    0.39
   3   1  14    2.76    0.50
  -4  -1 -14   37.85    1.55
   4   1  14   37.73    1.64
  -5  -1 -14    4.57    0.53
   5   1  14    6.25    0.68
  -6  -1 -14    7.09    0.67
   6   1  14    6.58    0.69
  -7  -1 -14   18.00    1.09
   7   1  14   19.77    1.17
  -8  -1 -14    0.57    0.59
   8   1  14    0.07    0.33
   9   1  14   18.49    1.23
  -1   2  14    5.12    0.95
   0  -2 -14    4.14    0.49
   0   2  14    3.56    0.59
  -1  -2 -14   26.10    1.19
   1   2  14   26.08    1.41
  -2  -2 -14   15.75    0.94
   2   2  14   15.61    1.12
  -3  -2 -14   10.96    0.80
   3   2  14   10.55    0.95
  -4  -2 -14   44.08    1.67
   4   2  14   43.52    1.77
  -5  -2 -14    0.30    0.29
   5   2  14    0.13    0.32
  -6  -2 -14   16.86    0.99
   6   2  14   16.05    1.03
  -7  -2 -14   23.90    1.22
   7   2  14   25.18    1.28
  -8  -2 -14   -0.40    0.26
   8   2  14   -0.47    0.29
   9   2  14   24.77    1.29
  10   2  14   14.16    1.02
  -1   3  14    1.29    0.45
   0  -3 -14   10.93    0.81
   0   3  14   10.86    0.99
  -1  -3 -14   43.72    1.61
   1   3  14   41.62    1.83
  -2  -3 -14    1.85    0.38
   2   3  14    1.70    0.44
  -3  -3 -14   26.35    1.19
   3   3  14   25.78    1.32
  -4  -3 -14   39.82    1.54
   4   3  14   38.48    1.64
  -5  -3 -14   -0.47    0.23
   5   3  14   -0.56    0.27
  -6  -3 -14    8.18    0.78
   6   3  14   11.18    0.89
  -7  -3 -14   14.41    0.98
   7   3  14   15.78    1.01
  -8  -3 -14    5.46    0.62
   8   3  14    5.50    0.60
  -9  -3 -14   28.98    1.51
   9   3  14   29.46    1.39
  10   3  14    8.69    0.89
  -1   4  14   -0.28    0.32
   0   4  14   27.42    1.47
  -1  -4 -14   56.28    1.90
   1   4  14   55.31    2.17
  -2  -4 -14    0.34    0.30
   2   4  14   -0.05    0.31
  -3  -4 -14   24.17    1.15
   3   4  14   26.13    1.31
  -4  -4 -14    7.45    0.71
   4   4  14    8.30    0.85
  -5  -4 -14   10.99    0.84
   5   4  14   11.59    0.90
  -6  -4 -14   46.67    1.76
   6   4  14   45.10    1.75
  -7  -4 -14   19.99    1.10
   7   4  14   21.90    1.14
  -8  -4 -14    6.28    0.66
   8   4  14    5.21    0.57
  -9  -4 -14   32.03    1.52
   9   4  14   32.47    1.44
  -2   5  14    6.92    1.09
  -1   5  14   -0.39    0.33
   0   5  14   27.62    1.47
   1   5  14   19.81    1.24
  -2  -5 -14    1.78    0.36
   2   5  14    2.43    0.48
  -3  -5 -14   27.59    1.22
   3   5  14   30.38    1.43
  -4  -5 -14    7.42    0.71
   4   5  14    7.97    0.83
  -5  -5 -14    2.25    0.42
   5   5  14    3.01    0.46
  -6  -5 -14   22.94    1.18
   6   5  14   23.21    1.18
  -7  -5 -14    1.01    0.36
   7   5  14    1.14    0.36
  -8  -5 -14   15.42    1.07
   8   5  14   15.04    0.97
  -9  -5 -14   21.80    1.24
  -2   6  14    4.52    0.88
  -1   6  14    2.11    0.53
   0   6  14   36.89    1.74
   1   6  14    0.07    0.31
  -2  -6 -14   34.05    1.37
   2   6  14   32.33    1.52
  -3  -6 -14   49.87    1.75
   3   6  14   47.21    1.89
  -4  -6 -14    0.52    0.30
   4   6  14    0.54    0.32
  -5  -6 -14   19.35    1.05
   5   6  14   20.74    1.13
  -6  -6 -14   27.20    1.30
   6   6  14   28.39    1.32
  -7  -6 -14   -0.01    0.29
   7   6  14   -0.06    0.31
  -8  -6 -14   39.70    1.69
  -9  -6 -14   24.56    1.35
   2  -7 -14    6.01    0.92
  -1   7  14   13.90    1.17
   0   7  14   26.37    1.47
   1   7  14    2.81    0.54
   2   7  14   30.54    1.48
  -3  -7 -14   27.72    1.24
   3   7  14   30.01    1.42
  -4  -7 -14   -0.31    0.26
   4   7  14    0.05    0.31
  -5  -7 -14   35.54    1.45
   5   7  14   34.23    1.52
  -6  -7 -14   22.34    1.18
   6   7  14   22.68    1.19
  -7  -7 -14    5.97    0.63
  -8  -7 -14   34.64    1.58
  -9  -7 -14   24.24    1.41
   1  -8 -14   32.17    1.55
   0   8  14   15.21    1.17
   1   8  14   -0.50    0.31
   2   8  14   30.32    1.48
   3   8  14   15.26    1.07
  -4  -8 -14    1.72    0.40
   4   8  14    1.72    0.43
  -5  -8 -14   30.33    1.38
   5   8  14   32.33    1.45
  -6  -8 -14    3.17    0.50
  -7  -8 -14   17.34    1.11
  -8  -8 -14   28.62    1.41
   1  -9 -14   12.48    1.01
   0  -9 -14   12.89    0.97
   1   9  14    5.47    0.67
   2   9  14   47.06    1.95
   3   9  14    4.08    0.58
   4   9  14   18.63    1.19
  -5  -9 -14   38.33    1.58
  -6  -9 -14    0.19    0.33
  -7  -9 -14   17.48    1.13
  -8  -9 -14   18.02    1.13
   1 -10 -14   13.52    1.32
   0 -10 -14    0.64    0.36
  -1 -10 -14   13.44    0.99
  -2 -10 -14   26.61    1.31
  -5 -10 -14   24.07    1.25
  -6 -10 -14    0.01    0.33
  -7 -10 -14   38.40    1.68
   0 -11 -14   -0.27    0.30
  -1 -11 -14   25.56    1.33
  -6 -11 -14    0.98    0.41
  -7 -11 -14   32.13    1.58
  -1  -2 -15   28.80    1.34
  -3  -2 -15    7.52    0.77
  -4  -2 -15   29.04    1.36
   4   2  15   29.21    1.69
  -5  -2 -15    1.47    0.40
   5   2  15    2.01    0.51
  -6  -2 -15   18.11    1.65
   6   2  15   16.82    1.46
   7   2  15   19.20    1.76
  -1  -3 -15   27.49    1.28
  -2  -3 -15   10.20    0.85
   2   3  15    8.54    0.90
  -3  -3 -15    9.82    0.85
   3   3  15   10.40    1.01
  -4  -3 -15   21.73    1.12
   4   3  15   21.88    1.30
  -5  -3 -15    0.11    0.29
   5   3  15    0.12    0.34
  -6  -3 -15   15.68    1.01
   6   3  15   17.10    1.09
  -7  -3 -15   10.17    1.11
   7   3  15   11.69    0.96
   8   3  15   -0.20    0.31
   1   4  15   11.46    1.14
  -2  -4 -15    2.35    0.41
   2   4  15    1.66    0.46
  -3  -4 -15   24.15    1.18
   3   4  15   27.06    1.42
  -4  -4 -15   19.10    1.07
   4   4  15   20.10    1.20
  -5  -4 -15    1.72    0.41
   5   4  15    1.41    0.42
  -6  -4 -15    5.82    0.61
   6   4  15    5.78    0.63
  -7  -4 -15    3.55    0.51
   7   4  15    4.50    0.57
   8   4  15   15.19    1.04
   9   4  15   26.15    1.32
   1   5  15   17.88    1.22
  -2  -5 -15    2.16    0.39
   2   5  15    2.17    0.50
  -3  -5 -15   38.47    1.57
   3   5  15   42.69    1.81
  -4  -5 -15   12.34    0.87
   4   5  15   12.95    1.03
  -5  -5 -15    4.37    0.52
   5   5  15    4.84    0.58
  -6  -5 -15   19.27    1.09
   6   5  15   19.87    1.18
  -7  -5 -15    7.95    0.81
   7   5  15    7.80    0.84
   8   5  15    4.47    0.57
   1   6  15    7.47    0.81
   2   6  15    4.67    0.64
  -3  -6 -15   23.20    1.17
   3   6  15   23.18    1.33
  -4  -6 -15    1.18    0.37
   4   6  15    1.83    0.45
  -5  -6 -15   12.50    0.95
   5   6  15   14.53    1.03
  -6  -6 -15   23.25    1.22
   6   6  15   25.63    1.32
  -7  -6 -15   -0.44    0.27
   7   6  15   -0.69    0.27
  -8  -6 -15   16.65    1.69
   1   7  15    0.15    0.39
   2   7  15   19.41    1.25
   3   7  15   19.60    1.21
  -4  -7 -15   -0.73    0.26
   4   7  15   -0.18    0.34
  -5  -7 -15   28.77    1.34
   5   7  15   25.70    1.37
  -6  -7 -15   17.08    1.07
   6   7  15   16.67    1.09
  -7  -7 -15   -0.36    0.30
   1   8  15    0.01    0.36
   2   8  15   15.40    1.13
   3   8  15   24.39    1.39
  -4  -8 -15    0.58    0.36
   4   8  15    0.39    0.38
  -5  -8 -15   23.89    1.26
   5   8  15   26.12    1.35
  -6  -8 -15    9.45    0.87
  -7  -8 -15    5.43    0.65
   1   9  15    2.48    0.58
   2   9  15   31.55    1.63
   3   9  15   12.33    1.07
   4   9  15    1.98    0.48
  -5  -9 -15   19.83    1.15
  -6  -9 -15    8.44    0.87
  -7  -9 -15    7.27    0.72
  -1 -10 -15    4.24    0.69
  -2 -10 -15   38.94    1.70
   3  10  15    1.41    0.47
  -6 -10 -15   -0.52    0.28
  -3  -4 -16   10.24    0.90
  -4  -4 -16   16.18    1.36
  -3  -5 -16   28.70    1.36
  -4  -5 -16   13.90    0.96
  -5  -5 -16    1.47    0.43
  -4  -6 -16   10.99    0.89
   4   6  16    8.20    1.03
  -5  -6 -16   12.74    0.99
   5   6  16   14.15    1.13
  -6  -6 -16   17.00    1.43
   6   6  16   17.16    1.17
   7   6  16   -0.54    0.31
  -4  -7 -16    1.72    0.45
   4   7  16    1.91    0.50
  -5  -7 -16   16.80    1.08
   5   7  16   18.78    1.23
  -6  -7 -16   16.38    1.27
   6   7  16   18.82    1.21
   4   8  16   -0.26    0.34
  -5  -8 -16   16.06    1.10
   5   8  16   16.36    1.16
  -6  -8 -16    7.48    0.87
   0   0   0    0.00    0.00
;
_shelx_hkl_checksum              2998
_olex2_submission_special_instructions 'No special instructions were received'
loop_
_space_group_symop_operation_xyz
'x, y, z'
'-x, -y, -z'
loop_
_atom_site_label
_atom_site_type_symbol
_atom_site_fract_x
_atom_site_fract_y
_atom_site_fract_z
_atom_site_U_iso_or_equiv
_atom_site_adp_type
_atom_site_occupancy
_atom_site_site_symmetry_order
_atom_site_calc_flag
_atom_site_refinement_flags_posn
_atom_site_refinement_flags_adp
_atom_site_refinement_flags_occupancy
_atom_site_disorder_assembly
_atom_site_disorder_group
Tb1 Tb 0.17820(2) 0.54595(2) 0.48069(2) 0.01873(7) Uani 1 1 d . . . . .
O1 O 1.0171(3) 0.6476(3) 0.0258(2) 0.0320(6) Uani 1 1 d . . . . .
O2 O 1.0508(2) 0.9411(3) 0.2003(2) 0.0285(6) Uani 1 1 d . . . . .
O3 O 0.6555(2) 0.8523(3) 0.1482(3) 0.0356(6) Uani 1 1 d . . . . .
O4 O 0.0469(2) 0.5304(2) 0.3675(2) 0.0234(5) Uani 1 1 d . . . . .
O5 O 0.1022(2) 0.5179(3) 0.6955(2) 0.0298(6) Uani 1 1 d . . . . .
O6 O 0.0659(2) 0.7258(2) 0.4439(2) 0.0295(6) Uani 1 1 d . . . . .
O7 O 0.1431(2) 0.3268(2) 0.5230(2) 0.0301(6) Uani 1 1 d . . . . .
O8 O 0.3298(3) 0.6154(3) 0.2937(2) 0.0396(7) Uani 1 1 d . . . . .
O9 O 0.5328(3) 0.5912(3) 0.2883(3) 0.0508(8) Uani 1 1 d . . . . .
O10 O 0.3175(3) 0.6994(3) 0.4867(3) 0.0387(7) Uani 1 1 d . . . . .
O11 O 0.3462(4) 0.4308(4) 0.5478(5) 0.0874(16) Uani 1 1 d . . . . .
H11A H 0.320187 0.347107 0.592351 0.131 Uiso 1 1 d GR . . . .
H11B H 0.371050 0.459489 0.594566 0.131 Uiso 1 1 d GR . . . .
N1 N 0.4683(3) 0.7622(4) 0.5464(3) 0.0372(8) Uani 1 1 d . . . . .
C1 C 0.9670(4) 0.7315(3) 0.0776(3) 0.0247(8) Uani 1 1 d . . . . .
C2 C 1.0386(4) 0.7952(3) 0.1149(3) 0.0256(8) Uani 1 1 d . . . . .
H2 H 1.124424 0.783250 0.107604 0.031 Uiso 1 1 calc R . . . .
C3 C 0.9769(3) 0.8782(3) 0.1641(3) 0.0231(7) Uani 1 1 d . . . . .
C4 C 0.8504(3) 0.8985(4) 0.1720(3) 0.0266(8) Uani 1 1 d . . . . .
H4 H 0.810594 0.954686 0.203930 0.032 Uiso 1 1 calc R . . . .
C5 C 0.7838(3) 0.8337(4) 0.1314(3) 0.0262(8) Uani 1 1 d . . . . .
C6 C 0.8406(4) 0.7497(4) 0.0838(3) 0.0273(8) Uani 1 1 d . . . . .
H6 H 0.795080 0.706602 0.056807 0.033 Uiso 1 1 calc R . . . .
C7 C 1.1140(3) 0.5759(4) 0.0567(3) 0.0253(8) Uani 1 1 d . . . . .
C8 C 1.1169(3) 0.5106(3) 0.1770(3) 0.0225(7) Uani 1 1 d . . . . .
C9 C 1.2172(4) 0.4367(4) 0.1964(4) 0.0308(8) Uani 1 1 d . . . . .
H9 H 1.222174 0.395271 0.275600 0.037 Uiso 1 1 calc R . . . .
C10 C 1.3098(4) 0.4239(4) 0.0998(4) 0.0393(10) Uani 1 1 d . . . . .
H10 H 1.375086 0.372484 0.114378 0.047 Uiso 1 1 calc R . . . .
C11 C 1.3042(4) 0.4884(4) -0.0185(4) 0.0401(10) Uani 1 1 d . . . . .
H11 H 1.365920 0.480011 -0.083544 0.048 Uiso 1 1 calc R . . . .
C12 C 1.2081(4) 0.5647(4) -0.0405(4) 0.0352(9) Uani 1 1 d . . . . .
H12 H 1.205957 0.608831 -0.120411 0.042 Uiso 1 1 calc R . . . .
C13 C -0.0141(3) 0.4904(3) 0.7125(3) 0.0204(7) Uani 1 1 d . . . . .
C14 C 0.9826(3) 0.9813(4) 0.2908(3) 0.0266(8) Uani 1 1 d . . . . .
C15 C 0.9303(3) 0.8904(3) 0.4113(3) 0.0250(8) Uani 1 1 d . . . . .
C16 C 0.8605(4) 0.9309(4) 0.4997(4) 0.0308(8) Uani 1 1 d . . . . .
H16 H 0.823694 0.870958 0.580832 0.037 Uiso 1 1 calc R . . . .
C17 C 0.8452(4) 1.0598(4) 0.4682(4) 0.0368(9) Uani 1 1 d . . . . .
H17 H 0.797537 1.086181 0.527477 0.044 Uiso 1 1 calc R . . . .
C18 C 0.9018(4) 1.1487(4) 0.3475(4) 0.0414(10) Uani 1 1 d . . . . .
H18 H 0.893841 1.235419 0.326393 0.050 Uiso 1 1 calc R . . . .
C19 C 0.9700(4) 1.1099(4) 0.2579(4) 0.0365(9) Uani 1 1 d . . . . .
H19 H 1.006821 1.169773 0.176758 0.044 Uiso 1 1 calc R . . . .
C20 C -0.0467(4) 0.7516(3) 0.4464(3) 0.0254(8) Uani 1 1 d . . . . .
C21 C 0.5995(3) 0.8409(4) 0.0665(3) 0.0277(8) Uani 1 1 d . . . . .
C22 C 0.4930(3) 0.7496(4) 0.1135(3) 0.0259(8) Uani 1 1 d . . . . .
C23 C 0.4262(4) 0.7558(4) 0.0331(4) 0.0321(9) Uani 1 1 d . . . . .
H23 H 0.352310 0.699044 0.062332 0.039 Uiso 1 1 calc R . . . .
C24 C 0.4672(4) 0.8439(5) -0.0885(4) 0.0436(11) Uani 1 1 d . . . . .
H24 H 0.421493 0.845961 -0.140348 0.052 Uiso 1 1 calc R . . . .
C25 C 0.5768(5) 0.9295(5) -0.1332(4) 0.0484(12) Uani 1 1 d . . . . .
H25 H 0.606338 0.987454 -0.215739 0.058 Uiso 1 1 calc R . . . .
C26 C 0.6419(4) 0.9286(4) -0.0549(4) 0.0408(10) Uani 1 1 d . . . . .
H26 H 0.714315 0.987178 -0.084087 0.049 Uiso 1 1 calc R . . . .
C27 C 0.4502(4) 0.6454(4) 0.2422(3) 0.0303(8) Uani 1 1 d . . . . .
C28 C 0.3670(4) 0.6877(4) 0.5654(4) 0.0352(9) Uani 1 1 d . . . . .
H28 H 0.330622 0.621824 0.643615 0.042 Uiso 1 1 calc R . . . .
C29 C 0.5347(6) 0.8597(6) 0.4269(5) 0.0727(18) Uani 1 1 d . . . . .
H29A H 0.506830 0.941246 0.421024 0.109 Uiso 1 1 calc GR . . . .
H29B H 0.516257 0.840404 0.365783 0.109 Uiso 1 1 calc GR . . . .
H29C H 0.625809 0.863039 0.413552 0.109 Uiso 1 1 calc GR . . . .
C30 C 0.5258(6) 0.7363(6) 0.6432(5) 0.0671(16) Uani 1 1 d . . . . .
H30A H 0.525740 0.810191 0.660411 0.101 Uiso 1 1 calc GR . . . .
H30B H 0.612789 0.717942 0.616452 0.101 Uiso 1 1 calc GR . . . .
H30C H 0.476639 0.663822 0.716314 0.101 Uiso 1 1 calc GR . . . .
loop_
_atom_site_aniso_label
_atom_site_aniso_U_11
_atom_site_aniso_U_22
_atom_site_aniso_U_33
_atom_site_aniso_U_23
_atom_site_aniso_U_13
_atom_site_aniso_U_12
Tb1 0.01732(10) 0.01958(10) 0.01994(10) -0.00910(7) -0.00576(7) 0.00035(6)
O1 0.0395(15) 0.0412(16) 0.0320(14) -0.0258(13) -0.0205(12) 0.0164(13)
O2 0.0221(13) 0.0357(15) 0.0354(14) -0.0231(12) -0.0080(11) -0.0013(11)
O3 0.0194(13) 0.0557(19) 0.0445(16) -0.0334(15) -0.0102(12) 0.0041(12)
O4 0.0243(13) 0.0287(13) 0.0197(11) -0.0120(10) -0.0078(10) -0.0002(10)
O5 0.0199(13) 0.0464(17) 0.0247(13) -0.0170(12) -0.0060(10) -0.0029(11)
O6 0.0288(14) 0.0226(13) 0.0426(15) -0.0160(12) -0.0161(12) 0.0049(11)
O7 0.0277(14) 0.0218(13) 0.0412(15) -0.0130(12) -0.0123(12) 0.0000(11)
O8 0.0248(15) 0.0582(19) 0.0319(15) -0.0200(14) -0.0014(12) -0.0119(13)
O9 0.0406(18) 0.060(2) 0.0419(17) -0.0081(15) -0.0197(15) 0.0106(16)
O10 0.0382(16) 0.0411(17) 0.0471(17) -0.0241(14) -0.0192(14) -0.0056(13)
O11 0.096(3) 0.087(3) 0.173(5) -0.100(3) -0.112(4) 0.065(3)
N1 0.0304(18) 0.045(2) 0.0413(19) -0.0229(17) -0.0109(15) -0.0026(16)
C1 0.0288(19) 0.0275(19) 0.0191(16) -0.0107(15) -0.0084(15) 0.0060(15)
C2 0.0240(18) 0.0283(19) 0.0241(18) -0.0104(15) -0.0083(15) 0.0039(15)
C3 0.0253(18) 0.0220(18) 0.0203(16) -0.0082(14) -0.0059(14) -0.0027(14)
C4 0.0234(18) 0.030(2) 0.0309(19) -0.0176(16) -0.0078(15) 0.0030(15)
C5 0.0186(17) 0.032(2) 0.0265(18) -0.0119(16) -0.0054(15) -0.0002(15)
C6 0.030(2) 0.029(2) 0.0270(18) -0.0147(16) -0.0105(16) -0.0024(16)
C7 0.0261(19) 0.029(2) 0.0259(18) -0.0165(16) -0.0087(15) 0.0025(15)
C8 0.0220(17) 0.0247(18) 0.0258(18) -0.0152(15) -0.0077(14) -0.0006(14)
C9 0.035(2) 0.031(2) 0.032(2) -0.0168(17) -0.0145(17) 0.0088(17)
C10 0.031(2) 0.042(2) 0.053(3) -0.030(2) -0.011(2) 0.0128(19)
C11 0.034(2) 0.049(3) 0.040(2) -0.029(2) -0.0010(18) 0.0051(19)
C12 0.038(2) 0.042(2) 0.0272(19) -0.0207(18) -0.0038(17) 0.0032(18)
C13 0.0230(18) 0.0175(17) 0.0203(16) -0.0072(14) -0.0074(14) 0.0002(13)
C14 0.0261(19) 0.0259(19) 0.037(2) -0.0178(16) -0.0154(16) -0.0001(15)
C15 0.0243(18) 0.0249(19) 0.0334(19) -0.0155(16) -0.0151(16) 0.0043(15)
C16 0.031(2) 0.029(2) 0.036(2) -0.0161(17) -0.0131(17) 0.0031(16)
C17 0.041(2) 0.036(2) 0.050(2) -0.031(2) -0.020(2) 0.0101(18)
C18 0.052(3) 0.026(2) 0.058(3) -0.023(2) -0.026(2) 0.0111(19)
C19 0.048(3) 0.024(2) 0.038(2) -0.0094(17) -0.020(2) 0.0013(18)
C20 0.029(2) 0.0233(19) 0.0253(18) -0.0104(15) -0.0109(15) 0.0045(15)
C21 0.0185(17) 0.035(2) 0.034(2) -0.0194(17) -0.0069(15) 0.0026(15)
C22 0.0183(17) 0.034(2) 0.0280(18) -0.0167(16) -0.0057(15) 0.0044(15)
C23 0.0242(19) 0.039(2) 0.039(2) -0.0207(18) -0.0114(17) 0.0025(17)
C24 0.045(3) 0.055(3) 0.037(2) -0.019(2) -0.021(2) 0.012(2)
C25 0.047(3) 0.053(3) 0.031(2) -0.007(2) -0.010(2) 0.010(2)
C26 0.029(2) 0.036(2) 0.044(2) -0.0094(19) -0.0030(19) -0.0033(18)
C27 0.029(2) 0.038(2) 0.0267(19) -0.0182(17) -0.0062(16) 0.0005(17)
C28 0.031(2) 0.035(2) 0.039(2) -0.0185(19) -0.0077(18) 0.0012(17)
C29 0.078(4) 0.077(4) 0.054(3) -0.022(3) -0.014(3) -0.031(3)
C30 0.070(4) 0.079(4) 0.063(3) -0.029(3) -0.037(3) -0.008(3)
loop_
_atom_type_symbol
_atom_type_description
_atom_type_scat_dispersion_real
_atom_type_scat_dispersion_imag
_atom_type_scat_source
C C 0.0033 0.0016 'International Tables Vol C Tables 4.2.6.8 and 6.1.1.4'
H H 0.0000 0.0000 'International Tables Vol C Tables 4.2.6.8 and 6.1.1.4'
N N 0.0061 0.0033 'International Tables Vol C Tables 4.2.6.8 and 6.1.1.4'
O O 0.0106 0.0060 'International Tables Vol C Tables 4.2.6.8 and 6.1.1.4'
Tb Tb -0.1723 4.1537 'International Tables Vol C Tables 4.2.6.8 and 6.1.1.4'
loop_
_geom_angle_atom_site_label_1
_geom_angle_atom_site_label_2
_geom_angle_atom_site_label_3
_geom_angle
_geom_angle_site_symmetry_1
_geom_angle_site_symmetry_3
_geom_angle_publ_flag
O4 Tb1 Tb1 38.46(6) . 2_566 ?
O4 Tb1 Tb1 35.69(5) 2_566 2_566 ?
O4 Tb1 O4 74.15(9) . 2_566 ?
O4 Tb1 O5 125.96(8) . . ?
O4 Tb1 O10 141.16(9) . . ?
O4 Tb1 O11 135.19(10) . . ?
O4 Tb1 C13 26.51(9) 2_566 . ?
O4 Tb1 C13 100.12(9) . . ?
O5 Tb1 Tb1 87.70(6) . 2_566 ?
O5 Tb1 O4 52.19(8) . 2_566 ?
O5 Tb1 C13 25.87(9) . . ?
O6 Tb1 Tb1 69.31(6) . 2_566 ?
O6 Tb1 O4 73.70(9) . . ?
O6 Tb1 O4 73.55(9) . 2_566 ?
O6 Tb1 O5 84.53(9) . . ?
O6 Tb1 O7 138.56(9) . . ?
O6 Tb1 O10 77.19(10) . . ?
O6 Tb1 O11 150.34(11) . . ?
O6 Tb1 C13 75.67(9) . . ?
O7 Tb1 Tb1 69.38(6) . 2_566 ?
O7 Tb1 O4 75.06(8) . 2_566 ?
O7 Tb1 O4 72.20(9) . . ?
O7 Tb1 O5 96.97(9) . . ?
O7 Tb1 O10 143.37(9) . . ?
O7 Tb1 O11 69.33(12) . . ?
O7 Tb1 C13 87.84(9) . . ?
O8 Tb1 Tb1 119.80(7) . 2_566 ?
O8 Tb1 O4 81.35(9) . . ?
O8 Tb1 O4 155.45(9) . 2_566 ?
O8 Tb1 O5 151.66(9) . . ?
O8 Tb1 O6 98.27(11) . . ?
O8 Tb1 O7 99.17(10) . . ?
O8 Tb1 O10 77.97(10) . . ?
O8 Tb1 O11 82.92(15) . . ?
O8 Tb1 C13 172.93(10) . . ?
O10 Tb1 Tb1 143.63(7) . 2_566 ?
O10 Tb1 O4 120.98(9) . 2_566 ?
O10 Tb1 O5 75.18(9) . . ?
O10 Tb1 C13 96.94(10) . . ?
O11 Tb1 Tb1 135.39(12) . 2_566 ?
O11 Tb1 O4 115.82(15) . 2_566 ?
O11 Tb1 O5 81.20(13) . . ?
O11 Tb1 O10 74.09(12) . . ?
O11 Tb1 C13 100.51(15) . . ?
C13 Tb1 Tb1 61.83(7) . 2_566 ?
C7 O1 C1 121.8(3) . . ?
C3 O2 C14 115.9(3) . . ?
C5 O3 C21 118.4(3) . . ?
Tb1 O4 Tb1 105.85(9) . 2_566 ?
C13 O4 Tb1 159.0(2) 2_566 . ?
C13 O4 Tb1 91.49(19) 2_566 2_566 ?
C13 O5 Tb1 95.2(2) . . ?
C20 O6 Tb1 138.1(2) . . ?
C20 O7 Tb1 135.9(2) 2_566 . ?
C27 O8 Tb1 141.0(3) . . ?
C28 O10 Tb1 129.5(3) . . ?
Tb1 O11 H11A 111.6 . . ?
Tb1 O11 H11B 110.9 . . ?
H11A O11 H11B 107.3 . . ?
C28 N1 C29 121.1(4) . . ?
C28 N1 C30 120.7(4) . . ?
C29 N1 C30 117.7(4) . . ?
C2 C1 O1 123.2(3) . . ?
C6 C1 O1 113.8(3) . . ?
C6 C1 C2 122.9(3) . . ?
C1 C2 H2 121.3 . . ?
C1 C2 C3 117.4(3) . . ?
C3 C2 H2 121.3 . . ?
O2 C3 C2 116.3(3) . . ?
C4 C3 O2 122.4(3) . . ?
C4 C3 C2 121.3(3) . . ?
C3 C4 H4 120.6 . . ?
C3 C4 C5 118.9(3) . . ?
C5 C4 H4 120.6 . . ?
O3 C5 C4 116.1(3) . . ?
C6 C5 O3 122.1(3) . . ?
C6 C5 C4 121.7(3) . . ?
C1 C6 H6 121.1 . . ?
C5 C6 C1 117.9(3) . . ?
C5 C6 H6 121.1 . . ?
O1 C7 C8 124.0(3) . . ?
O1 C7 C12 115.5(3) . . ?
C12 C7 C8 120.4(3) . . ?
C7 C8 C13 123.7(3) . 2_666 ?
C9 C8 C7 118.4(3) . . ?
C9 C8 C13 117.8(3) . 2_666 ?
C8 C9 H9 119.4 . . ?
C10 C9 C8 121.2(4) . . ?
C10 C9 H9 119.4 . . ?
C9 C10 H10 120.3 . . ?
C11 C10 C9 119.3(4) . . ?
C11 C10 H10 120.3 . . ?
C10 C11 H11 119.7 . . ?
C12 C11 C10 120.6(4) . . ?
C12 C11 H11 119.7 . . ?
C7 C12 H12 120.0 . . ?
C11 C12 C7 120.1(4) . . ?
C11 C12 H12 120.0 . . ?
O4 C13 Tb1 62.01(17) 2_566 . ?
O4 C13 C8 119.0(3) 2_566 2_666 ?
O5 C13 Tb1 58.97(17) . . ?
O5 C13 O4 120.3(3) . 2_566 ?
O5 C13 C8 120.5(3) . 2_666 ?
C8 C13 Tb1 168.6(2) 2_666 . ?
C15 C14 O2 119.0(3) . . ?
C19 C14 O2 119.3(3) . . ?
C19 C14 C15 121.6(4) . . ?
C14 C15 C16 118.5(3) . . ?
C14 C15 C20 120.5(3) . 1_655 ?
C16 C15 C20 120.9(3) . 1_655 ?
C15 C16 H16 119.6 . . ?
C17 C16 C15 120.7(4) . . ?
C17 C16 H16 119.6 . . ?
C16 C17 H17 120.4 . . ?
C18 C17 C16 119.3(4) . . ?
C18 C17 H17 120.4 . . ?
C17 C18 H18 119.6 . . ?
C17 C18 C19 120.8(4) . . ?
C19 C18 H18 119.6 . . ?
C14 C19 C18 119.0(4) . . ?
C14 C19 H19 120.5 . . ?
C18 C19 H19 120.5 . . ?
O6 C20 O7 126.8(3) . 2_566 ?
O6 C20 C15 116.7(3) . 1_455 ?
O7 C20 C15 116.5(3) 2_566 1_455 ?
C22 C21 O3 118.6(3) . . ?
C26 C21 O3 119.1(4) . . ?
C26 C21 C22 121.9(4) . . ?
C21 C22 C23 116.8(3) . . ?
C21 C22 C27 123.7(3) . . ?
C23 C22 C27 119.5(3) . . ?
C22 C23 H23 119.2 . . ?
C24 C23 C22 121.7(4) . . ?
C24 C23 H23 119.2 . . ?
C23 C24 H24 120.1 . . ?
C23 C24 C25 119.8(4) . . ?
C25 C24 H24 120.1 . . ?
C24 C25 H25 120.1 . . ?
C26 C25 C24 119.8(4) . . ?
C26 C25 H25 120.1 . . ?
C21 C26 C25 119.9(4) . . ?
C21 C26 H26 120.0 . . ?
C25 C26 H26 120.0 . . ?
O8 C27 C22 116.0(3) . . ?
O9 C27 O8 124.8(4) . . ?
O9 C27 C22 119.1(3) . . ?
O10 C28 N1 124.4(4) . . ?
O10 C28 H28 117.8 . . ?
N1 C28 H28 117.8 . . ?
N1 C29 H29A 109.5 . . ?
N1 C29 H29B 109.5 . . ?
N1 C29 H29C 109.5 . . ?
H29A C29 H29B 109.5 . . ?
H29A C29 H29C 109.5 . . ?
H29B C29 H29C 109.5 . . ?
N1 C30 H30A 109.5 . . ?
N1 C30 H30B 109.5 . . ?
N1 C30 H30C 109.5 . . ?
H30A C30 H30B 109.5 . . ?
H30A C30 H30C 109.5 . . ?
H30B C30 H30C 109.5 . . ?
loop_
_geom_bond_atom_site_label_1
_geom_bond_atom_site_label_2
_geom_bond_distance
_geom_bond_site_symmetry_2
_geom_bond_publ_flag
Tb1 Tb1 3.9053(5) 2_566 ?
Tb1 O4 2.525(2) 2_566 ?
Tb1 O4 2.369(2) . ?
Tb1 O5 2.459(2) . ?
Tb1 O6 2.333(2) . ?
Tb1 O7 2.368(2) . ?
Tb1 O8 2.255(3) . ?
Tb1 O10 2.402(3) . ?
Tb1 O11 2.401(3) . ?
Tb1 C13 2.858(3) . ?
O1 C1 1.391(4) . ?
O1 C7 1.380(4) . ?
O2 C3 1.383(4) . ?
O2 C14 1.405(4) . ?
O3 C5 1.382(4) . ?
O3 C21 1.397(4) . ?
O4 C13 1.276(4) 2_566 ?
O5 C13 1.252(4) . ?
O6 C20 1.257(4) . ?
O7 C20 1.261(4) 2_566 ?
O8 C27 1.264(5) . ?
O9 C27 1.242(5) . ?
O10 C28 1.228(5) . ?
O11 H11A 0.8916 . ?
O11 H11B 0.8900 . ?
N1 C28 1.320(5) . ?
N1 C29 1.427(6) . ?
N1 C30 1.461(6) . ?
C1 C2 1.382(5) . ?
C1 C6 1.380(5) . ?
C2 H2 0.9300 . ?
C2 C3 1.398(5) . ?
C3 C4 1.382(5) . ?
C4 H4 0.9300 . ?
C4 C5 1.384(5) . ?
C5 C6 1.380(5) . ?
C6 H6 0.9300 . ?
C7 C8 1.398(5) . ?
C7 C12 1.391(5) . ?
C8 C9 1.392(5) . ?
C8 C13 1.497(5) 2_666 ?
C9 H9 0.9300 . ?
C9 C10 1.387(6) . ?
C10 H10 0.9300 . ?
C10 C11 1.385(6) . ?
C11 H11 0.9300 . ?
C11 C12 1.374(6) . ?
C12 H12 0.9300 . ?
C14 C15 1.386(5) . ?
C14 C19 1.377(5) . ?
C15 C16 1.391(5) . ?
C15 C20 1.508(5) 1_655 ?
C16 H16 0.9300 . ?
C16 C17 1.388(6) . ?
C17 H17 0.9300 . ?
C17 C18 1.385(6) . ?
C18 H18 0.9300 . ?
C18 C19 1.386(6) . ?
C19 H19 0.9300 . ?
C21 C22 1.395(5) . ?
C21 C26 1.375(6) . ?
C22 C23 1.399(5) . ?
C22 C27 1.500(5) . ?
C23 H23 0.9300 . ?
C23 C24 1.378(6) . ?
C24 H24 0.9300 . ?
C24 C25 1.386(7) . ?
C25 H25 0.9300 . ?
C25 C26 1.379(7) . ?
C26 H26 0.9300 . ?
C28 H28 0.9300 . ?
C29 H29A 0.9600 . ?
C29 H29B 0.9600 . ?
C29 H29C 0.9600 . ?
C30 H30A 0.9600 . ?
C30 H30B 0.9600 . ?
C30 H30C 0.9600 . ?
loop_
_geom_torsion_atom_site_label_1
_geom_torsion_atom_site_label_2
_geom_torsion_atom_site_label_3
_geom_torsion_atom_site_label_4
_geom_torsion
_geom_torsion_site_symmetry_1
_geom_torsion_site_symmetry_2
_geom_torsion_site_symmetry_3
_geom_torsion_site_symmetry_4
_geom_torsion_publ_flag
Tb1 O5 C13 O4 9.5(3) . . . 2_566 ?
Tb1 O5 C13 C8 -166.7(3) . . . 2_666 ?
Tb1 O6 C20 O7 1.9(6) . . . 2_566 ?
Tb1 O6 C20 C15 -179.2(2) . . . 1_455 ?
Tb1 O8 C27 O9 36.2(7) . . . . ?
Tb1 O8 C27 C22 -147.3(3) . . . . ?
Tb1 O10 C28 N1 160.3(3) . . . . ?
O1 C1 C2 C3 179.2(3) . . . . ?
O1 C1 C6 C5 -178.6(3) . . . . ?
O1 C7 C8 C9 177.1(3) . . . . ?
O1 C7 C8 C13 0.6(6) . . . 2_666 ?
O1 C7 C12 C11 -175.7(4) . . . . ?
O2 C3 C4 C5 178.6(3) . . . . ?
O2 C14 C15 C16 -178.6(3) . . . . ?
O2 C14 C15 C20 3.8(5) . . . 1_655 ?
O2 C14 C19 C18 179.5(4) . . . . ?
O3 C5 C6 C1 -176.0(3) . . . . ?
O3 C21 C22 C23 169.2(3) . . . . ?
O3 C21 C22 C27 -12.5(5) . . . . ?
O3 C21 C26 C25 -171.4(4) . . . . ?
C1 O1 C7 C8 43.9(5) . . . . ?
C1 O1 C7 C12 -140.0(4) . . . . ?
C1 C2 C3 O2 -179.7(3) . . . . ?
C1 C2 C3 C4 -1.8(5) . . . . ?
C2 C1 C6 C5 -1.1(5) . . . . ?
C2 C3 C4 C5 0.8(5) . . . . ?
C3 O2 C14 C15 74.0(4) . . . . ?
C3 O2 C14 C19 -106.5(4) . . . . ?
C3 C4 C5 O3 176.4(3) . . . . ?
C3 C4 C5 C6 0.1(6) . . . . ?
C4 C5 C6 C1 0.0(5) . . . . ?
C5 O3 C21 C22 121.0(4) . . . . ?
C5 O3 C21 C26 -66.0(5) . . . . ?
C6 C1 C2 C3 1.9(5) . . . . ?
C7 O1 C1 C2 30.5(5) . . . . ?
C7 O1 C1 C6 -152.0(3) . . . . ?
C7 C8 C9 C10 -2.3(6) . . . . ?
C8 C7 C12 C11 0.5(6) . . . . ?
C8 C9 C10 C11 1.7(6) . . . . ?
C9 C10 C11 C12 0.1(7) . . . . ?
C10 C11 C12 C7 -1.2(7) . . . . ?
C12 C7 C8 C9 1.3(5) . . . . ?
C12 C7 C8 C13 -175.2(3) . . . 2_666 ?
C13 C8 C9 C10 174.4(4) 2_666 . . . ?
C14 O2 C3 C2 -155.5(3) . . . . ?
C14 O2 C3 C4 26.6(5) . . . . ?
C14 C15 C16 C17 -0.9(6) . . . . ?
C15 C14 C19 C18 -0.9(6) . . . . ?
C15 C16 C17 C18 -0.8(6) . . . . ?
C16 C17 C18 C19 1.8(6) . . . . ?
C17 C18 C19 C14 -0.9(6) . . . . ?
C19 C14 C15 C16 1.8(5) . . . . ?
C19 C14 C15 C20 -175.7(3) . . . 1_655 ?
C20 C15 C16 C17 176.6(4) 1_655 . . . ?
C21 O3 C5 C4 151.9(3) . . . . ?
C21 O3 C5 C6 -31.8(5) . . . . ?
C21 C22 C23 C24 3.0(6) . . . . ?
C21 C22 C27 O8 144.2(4) . . . . ?
C21 C22 C27 O9 -39.0(6) . . . . ?
C22 C21 C26 C25 1.4(6) . . . . ?
C22 C23 C24 C25 -0.3(7) . . . . ?
C23 C22 C27 O8 -37.6(5) . . . . ?
C23 C22 C27 O9 139.1(4) . . . . ?
C23 C24 C25 C26 -2.0(7) . . . . ?
C24 C25 C26 C21 1.5(7) . . . . ?
C26 C21 C22 C23 -3.5(6) . . . . ?
C26 C21 C22 C27 174.7(4) . . . . ?
C27 C22 C23 C24 -175.3(4) . . . . ?
C29 N1 C28 O10 -4.2(7) . . . . ?
C30 N1 C28 O10 -176.1(5) . . . . ?
