#------------------------------------------------------------------------------
#$Date: 2020-04-10 00:15:42 +0300 (Fri, 10 Apr 2020) $
#$Revision: 250539 $
#$URL: file:///home/coder/svn-repositories/cod/cif/4/51/75/4517556.cif $
#------------------------------------------------------------------------------
#
# This file is available in the Crystallography Open Database (COD),
# http://www.crystallography.net/
#
# All data on this site have been placed in the public domain by the
# contributors.
#
data_4517556
loop_
_publ_author_name
'Kan, Liang'
'Li, Guanghua'
'Liu, Yunling'
_publ_section_title
;
 Highly Selective Separation of C3H8 and C2H2 over CH4 within Two
 Water-Stable Zn5 Cluster-Based Metal-Organic Frameworks.
;
_journal_name_full               'ACS applied materials &amp; interfaces'
_journal_paper_doi               10.1021/acsami.0c04538
_journal_year                    2020
_chemical_formula_moiety         'C37.50 H42.50 N23.50 O13.50 Zn5'
_chemical_formula_sum            'C37.5 H42.5 N23.5 O13.5 Zn5'
_chemical_formula_weight         1365.30
_space_group_crystal_system      triclinic
_space_group_IT_number           2
_space_group_name_Hall           '-P 1'
_space_group_name_H-M_alt        'P -1'
_atom_sites_solution_hydrogens   geom
_audit_creation_method           SHELXL-2016/6
_cell_angle_alpha                97.60(3)
_cell_angle_beta                 95.92(3)
_cell_angle_gamma                106.86(3)
_cell_formula_units_Z            2
_cell_length_a                   14.406(3)
_cell_length_b                   15.241(3)
_cell_length_c                   16.333(3)
_cell_measurement_reflns_used    21793
_cell_measurement_temperature    293(2)
_cell_measurement_theta_max      25.056
_cell_measurement_theta_min      1.272
_cell_volume                     3363.8(14)
_computing_structure_refinement  'SHELXL-2016/6 (Sheldrick, 2016)'
_diffrn_ambient_temperature      293(2)
_diffrn_detector_area_resol_mean 20.00cm
_diffrn_measured_fraction_theta_full 0.990
_diffrn_measured_fraction_theta_max 0.990
_diffrn_measurement_device_type  'CCD area detector'
_diffrn_measurement_method       'phi and omega scans'
_diffrn_radiation_type           MoK\a
_diffrn_radiation_wavelength     0.71073
_diffrn_reflns_av_R_equivalents  0.0308
_diffrn_reflns_av_unetI/netI     0.0570
_diffrn_reflns_Laue_measured_fraction_full 0.990
_diffrn_reflns_Laue_measured_fraction_max 0.990
_diffrn_reflns_limit_h_max       17
_diffrn_reflns_limit_h_min       -17
_diffrn_reflns_limit_k_max       17
_diffrn_reflns_limit_k_min       -14
_diffrn_reflns_limit_l_max       18
_diffrn_reflns_limit_l_min       -19
_diffrn_reflns_number            21793
_diffrn_reflns_point_group_measured_fraction_full 0.990
_diffrn_reflns_point_group_measured_fraction_max 0.990
_diffrn_reflns_theta_full        25.056
_diffrn_reflns_theta_max         25.056
_diffrn_reflns_theta_min         1.272
_exptl_absorpt_coefficient_mu    1.823
_exptl_absorpt_correction_T_max  0.5518
_exptl_absorpt_correction_T_min  0.5357
_exptl_absorpt_correction_type   empirical
_exptl_absorpt_process_details   SADABS
_exptl_crystal_colour            colourless
_exptl_crystal_density_diffrn    1.348
_exptl_crystal_description       block
_exptl_crystal_F_000             1380
_exptl_crystal_size_max          0.24
_exptl_crystal_size_mid          0.20
_exptl_crystal_size_min          0.19
_refine_diff_density_max         1.117
_refine_diff_density_min         -0.736
_refine_diff_density_rms         0.073
_refine_ls_extinction_method     none
_refine_ls_goodness_of_fit_ref   1.046
_refine_ls_hydrogen_treatment    constr
_refine_ls_matrix_type           full
_refine_ls_number_parameters     622
_refine_ls_number_reflns         11818
_refine_ls_number_restraints     48
_refine_ls_restrained_S_all      1.068
_refine_ls_R_factor_all          0.0639
_refine_ls_R_factor_gt           0.0449
_refine_ls_shift/su_max          0.001
_refine_ls_shift/su_mean         0.000
_refine_ls_structure_factor_coef Fsqd
_refine_ls_weighting_details
'w=1/[\s^2^(Fo^2^)+(0.0671P)^2^] where P=(Fo^2^+2Fc^2^)/3'
_refine_ls_weighting_scheme      calc
_refine_ls_wR_factor_gt          0.1234
_refine_ls_wR_factor_ref         0.1301
_reflns_Friedel_coverage         0.000
_reflns_number_gt                8251
_reflns_number_total             11818
_reflns_threshold_expression     'I > 2\s(I)'
_cod_data_source_file            am0c04538_si_002.cif
_cod_data_source_block           JLU-MOF66
_cod_original_cell_volume        3364.1(13)
_cod_original_formula_sum        'C37.50 H42.50 N23.50 O13.50 Zn5'
_cod_database_code               4517556
_shelx_shelxl_version_number     2016/6
_shelx_space_group_comment
;
The symmetry employed for this shelxl refinement is uniquely defined
by the following loop, which should always be used as a source of
symmetry information in preference to the above space-group names.
They are only intended as comments.
;
_shelx_res_file
;
TITL aaa in P-1
    aaa.res
    created by SHELXL-2016/6 at 14:35:34 on 23-Dec-2019
CELL 0.71073  14.4065  15.2410  16.3335  97.598  95.918 106.857
ZERR    2.00   0.0029   0.0030   0.0033   0.030   0.030   0.030
LATT  1
SFAC C H N O ZN
UNIT 75 85 47 27 10

L.S. 15
BOND $h
acta
htab
isor 0.001 0.001 o2 o3 o7 o9 o10 c31 c32 c32'
FMAP 2
PLAN -20

WGHT    0.067100
FVAR       0.08789
ZN1   5    0.787996    0.616449    0.095587    11.00000    0.03019    0.03380 =
         0.04009   -0.00014   -0.00114    0.01412
ZN2   5    1.020383    0.660127    0.221025    11.00000    0.03181    0.07240 =
         0.05362   -0.00581   -0.00933    0.02131
ZN3   5    0.603187    0.608992    0.235153    11.00000    0.04094    0.06229 =
         0.05320    0.00560    0.01229    0.02471
ZN4   5    0.808368    0.798693   -0.034605    11.00000    0.05316    0.03748 =
         0.05251    0.00857   -0.00331    0.01683
ZN5   5    0.722723    0.396114   -0.036245    11.00000    0.04950    0.03196 =
         0.05042   -0.00703   -0.00271    0.01472
O1    4    1.155651    0.669390    0.255360    11.00000    0.04276    0.08423 =
         0.07406   -0.02597   -0.02906    0.02487
O2    4    1.129103    0.781885    0.334121    11.00000    0.08656    0.09317 =
         0.09332    0.00721    0.00881    0.03422
O3    4    1.600035    0.715713    0.369194    11.00000    0.06943    0.07806 =
         0.07913    0.00310    0.01129    0.02884
O4    4    1.486759    0.643544    0.262915    11.00000    0.05171    0.08039 =
         0.04743   -0.00359    0.01309    0.03283
O5    4    1.795215    0.930508    0.959738    11.00000    0.07915    0.05857 =
         0.05897    0.01750   -0.01232    0.02793
O6    4    1.698019    0.818656    0.864101    11.00000    0.09158    0.04112 =
         0.07320    0.00907   -0.00853    0.03270
O7    4    1.737202    1.238898    0.995017    11.00000    0.08773    0.07872 =
         0.08114    0.01037    0.00440    0.02636
O8    4    1.669820    1.280224    0.886740    11.00000    0.08096    0.03304 =
         0.04903   -0.00385   -0.00815    0.02126
O9    4    0.564803    0.493978    0.308581    11.00000    0.10584    0.10391 =
         0.10595    0.02089    0.02220    0.03330
O10   4    0.916317    0.832629   -0.120279    11.00000    0.09852    0.10287 =
         0.10035    0.02029    0.01687    0.03078
N1    3    0.902118    0.647922    0.279426    11.00000    0.04748    0.05864 =
         0.04757    0.00110   -0.00727    0.02595
N2    3    0.815774    0.633048    0.231758    11.00000    0.03349    0.04559 =
         0.04338    0.00254   -0.00034    0.01928
N3    3    0.747208    0.630465    0.281015    11.00000    0.04602    0.06105 =
         0.04311    0.00601    0.00866    0.02274
N4    3    1.003381    0.752076    0.147219    11.00000    0.03375    0.05579 =
         0.05602   -0.00104   -0.00650    0.01370
N5    3    0.919258    0.735845    0.096631    11.00000    0.03277    0.04393 =
         0.04666    0.00196   -0.00638    0.01330
N6    3    0.925954    0.805761    0.054578    11.00000    0.04555    0.03946 =
         0.05625    0.00207   -0.00184    0.01161
N7    3    0.965870    0.540615    0.133646    11.00000    0.03640    0.05395 =
         0.05067    0.00416   -0.00554    0.02299
N8    3    0.878883    0.524236    0.088899    11.00000    0.03443    0.03963 =
         0.04729    0.00229   -0.00218    0.01512
N9    3    0.854937    0.442619    0.038716    11.00000    0.04239    0.03782 =
         0.04819    0.00030    0.00057    0.02016
N10   3    0.640481    0.711409    0.154442    11.00000    0.04480    0.05975 =
         0.04788    0.00219    0.00674    0.03150
N11   3    0.703789    0.708694    0.101628    11.00000    0.03855    0.04291 =
         0.04808    0.00381   -0.00114    0.01985
N12   3    0.711548    0.777392    0.057449    11.00000    0.04208    0.04039 =
         0.05274    0.00281    0.00036    0.01830
N13   3    0.581535    0.503866    0.134822    11.00000    0.03449    0.05264 =
         0.05712   -0.00248    0.00773    0.01302
N14   3    0.654313    0.500204    0.093299    11.00000    0.03397    0.03692 =
         0.04784   -0.00031    0.00725    0.00960
N15   3    0.628376    0.421349    0.038863    11.00000    0.04034    0.03780 =
         0.06508   -0.00546    0.00217    0.00537
N16   3    0.770999    0.659547   -0.086805    11.00000    0.04697    0.03722 =
         0.04348    0.00492   -0.00061    0.01686
N17   3    0.764746    0.592305   -0.041515    11.00000    0.03930    0.03540 =
         0.03722    0.00060   -0.00094    0.01189
N18   3    0.738232    0.510344   -0.092474    11.00000    0.04847    0.03504 =
         0.04685   -0.00336   -0.00149    0.01565
N19   3    1.514389    0.910580    0.616012    11.00000    0.04685    0.04119 =
         0.03486   -0.00738   -0.00754    0.02289
N20   3    1.400657    0.971974    0.583439    11.00000    0.06051    0.06095 =
         0.05580   -0.01536   -0.02296    0.03628
AFIX  43
H20'  2    1.352468    0.982565    0.555186    11.00000   -1.20000
AFIX   0
N21   3    1.446086    1.019400    0.660474    11.00000    0.07787    0.06479 =
         0.04874   -0.01413   -0.01637    0.04561
C1    1    0.887035    0.655199    0.359069    11.00000    0.06748    0.10767 =
         0.04073    0.00182   -0.01087    0.04004
AFIX  43
H1    2    0.934610    0.665704    0.405376    11.00000   -1.20000
AFIX   0
C2    1    0.791099    0.644719    0.360862    11.00000    0.07056    0.10445 =
         0.03285    0.00236    0.00212    0.04119
AFIX  43
H2    2    0.760759    0.646904    0.408334    11.00000   -1.20000
AFIX   0
C3    1    1.063576    0.833590    0.135795    11.00000    0.03688    0.07126 =
         0.07653    0.00621   -0.00470   -0.00410
AFIX  43
H3    2    1.127154    0.862502    0.163430    11.00000   -1.20000
AFIX   0
C4    1    1.016367    0.866233    0.077705    11.00000    0.05361    0.05390 =
         0.07990    0.01566    0.00797   -0.00177
AFIX  43
H4    2    1.041757    0.920969    0.057148    11.00000   -1.20000
AFIX   0
C5    1    0.997286    0.467869    0.110675    11.00000    0.04381    0.07447 =
         0.07430    0.01699    0.00580    0.03573
AFIX  43
H5    2    1.056523    0.460778    0.132163    11.00000   -1.20000
AFIX   0
C6    1    0.929224    0.406956    0.051583    11.00000    0.05345    0.04958 =
         0.06753    0.00122    0.00533    0.03147
AFIX  43
H6    2    0.932726    0.350592    0.024549    11.00000   -1.20000
AFIX   0
C7    1    0.606622    0.782801    0.142333    11.00000    0.07253    0.08263 =
         0.07385    0.01617    0.01981    0.05917
AFIX  43
H7    2    0.559481    0.800312    0.169474    11.00000   -1.20000
AFIX   0
C8    1    0.653557    0.824663    0.083448    11.00000    0.08006    0.05410 =
         0.06559    0.01034    0.00917    0.04478
AFIX  43
H8    2    0.646156    0.877574    0.064624    11.00000   -1.20000
AFIX   0
C9    1    0.507310    0.426654    0.106738    11.00000    0.03963    0.08791 =
         0.09074   -0.00640    0.01803    0.00561
AFIX  43
H9    2    0.446587    0.411056    0.125158    11.00000   -1.20000
AFIX   0
C10   1    0.536220    0.374382    0.046017    11.00000    0.04862    0.06476 =
         0.09221   -0.02087    0.00983   -0.01223
AFIX  43
H10   2    0.498859    0.316828    0.015306    11.00000   -1.20000
AFIX   0
C11   1    0.748659    0.620135   -0.166897    11.00000    0.06917    0.05982 =
         0.03878    0.00594   -0.00962    0.02081
AFIX  43
H11   2    0.748085    0.651015   -0.212304    11.00000   -1.20000
AFIX   0
C12   1    0.726835    0.526704   -0.170475    11.00000    0.07214    0.05369 =
         0.04275   -0.00535   -0.00767    0.02584
AFIX  43
H12   2    0.707400    0.482082   -0.218751    11.00000   -1.20000
AFIX   0
C13   1    1.440916    0.907060    0.557824    11.00000    0.04187    0.03659 =
         0.04378   -0.00233   -0.00105    0.01803
C14   1    1.513559    0.978915    0.676613    11.00000    0.04884    0.03702 =
         0.03771   -0.00117   -0.00488    0.01714
C15   1    1.409712    0.844531    0.476709    11.00000    0.03452    0.04134 =
         0.03758    0.00487    0.00196    0.01274
C16   1    1.315655    0.824643    0.433976    11.00000    0.03643    0.04984 =
         0.04148   -0.00187    0.00119    0.02088
AFIX  43
H16   2    1.272013    0.852550    0.455835    11.00000   -1.20000
AFIX   0
C17   1    1.286645    0.763354    0.358881    11.00000    0.03641    0.04945 =
         0.04096    0.00522   -0.00236    0.01553
C18   1    1.352522    0.723218    0.326324    11.00000    0.04000    0.04203 =
         0.03627   -0.00199   -0.00268    0.01555
AFIX  43
H18   2    1.333558    0.682713    0.275494    11.00000   -1.20000
AFIX   0
C19   1    1.446345    0.742745    0.368642    11.00000    0.03160    0.03805 =
         0.03642    0.00624    0.00239    0.01134
C20   1    1.474645    0.803868    0.443623    11.00000    0.03258    0.04408 =
         0.04171    0.00184   -0.00326    0.01200
AFIX  43
H20   2    1.537890    0.817691    0.471977    11.00000   -1.20000
AFIX   0
C21   1    1.184639    0.737883    0.313454    11.00000    0.04030    0.07143 =
         0.05658   -0.00160   -0.00981    0.03375
C22   1    1.516665    0.698624    0.331715    11.00000    0.03286    0.05566 =
         0.05639   -0.00036    0.00281    0.01976
C23   1    1.581030    1.007421    0.756210    11.00000    0.05044    0.03625 =
         0.03433   -0.00179   -0.00250    0.01723
C24   1    1.621417    0.944232    0.789085    11.00000    0.05884    0.02926 =
         0.04123   -0.00341    0.00020    0.01779
AFIX  43
H24   2    1.605457    0.883752    0.760194    11.00000   -1.20000
AFIX   0
C25   1    1.684373    0.969906    0.863436    11.00000    0.05462    0.03390 =
         0.03797    0.00830    0.00298    0.01834
C26   1    1.706255    1.059250    0.906578    11.00000    0.05083    0.04200 =
         0.03942    0.00178   -0.00232    0.01416
AFIX  43
H26   2    1.748412    1.076849    0.957080    11.00000   -1.20000
AFIX   0
C27   1    1.666609    1.123307    0.876096    11.00000    0.05138    0.03166 =
         0.03646    0.00090   -0.00183    0.01468
C28   1    1.604434    1.097015    0.801243    11.00000    0.04952    0.03408 =
         0.03899    0.00209    0.00074    0.02032
AFIX  43
H28   2    1.577682    1.139749    0.780470    11.00000   -1.20000
AFIX   0
C29   1    1.728091    0.901395    0.897114    11.00000    0.06128    0.05104 =
         0.05100    0.02000    0.00836    0.02679
C30   1    1.693330    1.219531    0.921995    11.00000    0.05881    0.04685 =
         0.03514   -0.00503   -0.01228    0.01566
C31   1    0.518836    0.464505    0.347123    11.00000    0.14399    0.14353 =
         0.14427    0.02582    0.02277    0.04448
part 1
C32   1    0.989933    0.871274   -0.125512    10.50000    0.11939    0.11955 =
         0.11969    0.02064    0.01757    0.03607
part 2
C32'  1    0.961465    0.800077   -0.139405    10.50000    0.09632    0.09526 =
         0.09593    0.01566    0.01428    0.03037
part 0
HKLF 4




REM  aaa in P-1
REM R1 =  0.0449 for    8251 Fo > 4sig(Fo)  and  0.0639 for all   11818 data
REM    622 parameters refined using     48 restraints

END

WGHT      0.0670      0.0000

REM No hydrogen bonds found for HTAB generation

REM Highest difference peak  1.117,  deepest hole -0.736,  1-sigma level  0.073
Q1    1   1.1533  0.8208  0.3080  11.00000  0.05    1.12
Q2    1   1.5849  0.6837  0.3965  11.00000  0.05    0.93
Q3    1   1.1108  0.7478  0.3554  11.00000  0.05    0.92
Q4    1   1.6969  1.2336  1.0102  11.00000  0.05    0.87
Q5    1   0.7822  0.2525 -0.0266  11.00000  0.05    0.84
Q6    1   0.6022  0.5196  0.3404  11.00000  0.05    0.78
Q7    1   1.6180  0.7545  0.3523  11.00000  0.05    0.78
Q8    1   0.5278  0.4750  0.2778  11.00000  0.05    0.72
Q9    1   0.9029  0.7907 -0.1425  11.00000  0.05    0.42
Q10   1   1.0135  0.6066  0.2332  11.00000  0.05    0.41
Q11   1   0.4920  0.4401  0.3229  11.00000  0.05    0.41
Q12   1   0.9408  0.8750 -0.0929  11.00000  0.05    0.38
Q13   1   0.5842  0.6616  0.2089  11.00000  0.05    0.35
Q14   1   0.6745  0.3243 -0.0729  11.00000  0.05    0.35
Q15   1   0.8264  0.5440  0.1100  11.00000  0.05    0.33
Q16   1   0.7420  0.6222  0.0189  11.00000  0.05    0.31
Q17   1   0.6807  0.6417  0.2641  11.00000  0.05    0.31
Q18   1   0.9802  0.7180  0.1909  11.00000  0.05    0.31
Q19   1   0.6961  0.4209  0.0163  11.00000  0.05    0.30
Q20   1   1.0238  0.5569  0.2939  11.00000  0.05    0.29
;
_shelx_res_checksum              94894
_shelx_hkl_file
;
  -1   0   0   49.07    0.03
  -1   0   0   49.07    0.03
   1   0   0   53.79    0.03
   1   0   0   49.07    0.03
  -2   0   0   40.00    2.83
  -2   0   0   41.22    3.03
   2   0   0   39.80    2.83
   2   0   0   39.71    3.03
  -3   0   0   29.00    0.11
   3   0   0   29.00    0.13
   3   0   0   23.42    0.12
   4   0   0   90.04    4.21
   4   0   0   86.29    3.92
   5   0   0   60.55    2.18
   5   0   0   59.65    2.02
   6   0   0    0.94    0.43
   6   0   0    0.96    0.37
  -7   0   0    1.74    0.16
   7   0   0    0.83    0.24
  -8   0   0    1.10    0.23
   8   0   0    0.73    0.29
  -9   0   0    5.30    0.46
   9   0   0    5.00    0.59
 -10   0   0   64.76    2.35
  10   0   0   66.35    2.62
 -11   0   0    0.07    0.25
  11   0   0    1.55    0.40
 -12   0   0    2.51    0.39
  12   0   0    2.25    0.55
  13   0   0    1.41    0.50
  14   0   0    0.66    0.51
  15   0   0    5.05    0.67
  16   0   0    2.43    0.64
  16  -1   0    3.72    0.67
  15  -1   0    3.72    0.60
  14  -1   0    5.29    0.70
  13  -1   0    0.70    0.45
 -13   1   0    0.31    0.30
  12  -1   0    1.52    0.45
 -12   1   0    1.27    0.35
  11  -1   0    4.59    0.56
 -11   1   0    4.44    0.43
  10  -1   0   10.67    0.72
 -10   1   0   10.04    0.61
   9  -1   0   48.56    1.87
  -9   1   0   48.25    1.70
   8  -1   0  137.83    5.30
   7  -1   0   45.31    1.91
   6  -1   0  175.45    5.79
   5  -1   0   18.36    0.68
   4  -1   0  232.26   12.24
   3  -1   0    7.49    1.12
  -3   1   0    7.48    1.12
   2  -1   0   85.59    2.10
  -2   1   0   86.45    2.10
  -1   1   0   24.95    1.75
  -1   1   0   23.81    1.65
   0  -1   0  343.22    7.18
   0  -1   0  337.60    6.74
   0   1   0  339.65    7.16
  -1  -1   0  189.25    2.22
  -1  -1   0  189.84    2.09
   1   1   0  186.04    2.09
   1   1   0  185.34    2.22
  -2  -1   0    0.45    0.47
  -2  -1   0    0.52    0.51
   2   1   0    0.53    0.48
   2   1   0    0.58    0.51
  -3  -1   0    5.83    0.47
   3   1   0    6.34    0.59
   3   1   0    5.89    0.56
  -4  -1   0    8.44    1.34
   4   1   0    9.43    1.50
   4   1   0    8.64    1.39
  -5  -1   0    9.60    0.22
   5   1   0    8.46    0.26
   5   1   0    9.55    0.33
  -6  -1   0   37.31    1.50
   6   1   0   36.92    1.56
   6   1   0   37.75    1.71
  -7  -1   0   13.81    0.48
   7   1   0   14.27    0.60
   7   1   0   14.32    0.66
  -8  -1   0    0.16    0.16
   8   1   0    0.21    0.23
   8   1   0    0.26    0.29
  -9  -1   0   55.79    2.03
   9   1   0   56.64    2.13
   9   1   0   58.47    2.33
 -10  -1   0    0.09    0.19
  10   1   0    0.09    0.33
 -11  -1   0    1.56    0.30
  11   1   0    1.39    0.50
 -12  -1   0    9.51    0.57
  12   1   0    8.21    0.81
  13   1   0    2.16    0.55
  14   1   0    0.27    0.47
  15   1   0    0.00    0.45
  16  -2   0    0.18    0.50
  15  -2   0    1.88    0.55
  14  -2   0    1.78    0.48
 -14   2   0    1.52    0.39
  13  -2   0    0.02    0.35
 -13   2   0    0.04    0.30
  12  -2   0   32.45    1.55
 -12   2   0   32.39    1.41
  11  -2   0    6.83    0.64
 -11   2   0    8.57    0.64
  10  -2   0   38.83    1.57
   9  -2   0   15.52    0.91
   8  -2   0   56.90    2.56
   7  -2   0  135.98    4.65
   6  -2   0  144.57    4.43
   5  -2   0    0.21    0.15
   4  -2   0   94.49    2.07
   3  -2   0    6.73    4.45
  -3   2   0    6.28    4.45
   2  -2   0   54.63    2.45
  -2   2   0   63.87    2.45
  -2   2   0   62.57    2.32
   1  -2   0  195.53    1.97
  -1   2   0  196.03    1.96
   0  -2   0   49.60    0.42
   0  -2   0   48.33    0.42
   0   2   0   48.13    0.42
   0   2   0   47.86    0.42
  -1  -2   0   19.08    0.99
  -1  -2   0   19.65    0.95
   1   2   0   17.23    0.95
   1   2   0   18.20    0.99
   2   2   0    0.05    0.24
   2   2   0    0.07    0.23
   3   2   0    0.09    0.27
   3   2   0    0.06    0.28
   4   2   0   56.93    1.24
   4   2   0   57.71    1.34
  -5  -2   0    0.25    0.07
   5   2   0    0.16    0.19
   5   2   0    0.02    0.19
  -6  -2   0    0.55    0.09
   6   2   0    0.51    0.22
   6   2   0    0.33    0.25
  -7  -2   0   29.04    0.80
   7   2   0   31.12    1.08
   7   2   0   29.12    0.98
  -8  -2   0    0.47    0.11
   8   2   0    0.47    0.25
   8   2   0    0.47    0.25
  -9  -2   0   18.79    0.65
   9   2   0   19.88    0.87
   9   2   0   19.67    0.97
 -10  -2   0    4.13    0.23
  10   2   0    3.44    0.41
  10   2   0    3.44    0.48
  11   2   0    3.12    0.52
  11   2   0    1.92    0.52
  12   2   0   19.22    1.21
  13   2   0    0.75    0.50
  14   2   0    0.01    0.42
  15   2   0    0.84    0.52
  16  -3   0    2.91    0.66
  15  -3   0    1.91    0.56
 -15   3   0    2.29    0.50
  14  -3   0    0.00    0.37
 -14   3   0    0.00    0.34
  13  -3   0    2.44    0.44
 -13   3   0    2.82    0.42
  12  -3   0   13.10    0.91
 -12   3   0   14.98    0.85
  11  -3   0    0.00    0.36
  10  -3   0   46.92    1.96
   9  -3   0    1.01    0.30
   8  -3   0    0.63    0.31
   7  -3   0   10.45    0.50
   6  -3   0   19.62    0.60
   5  -3   0   34.08    1.28
   4  -3   0    3.15    0.06
   3  -3   0   31.68    1.60
  -3   3   0   30.93    1.60
  -3   3   0   31.68    1.55
   2  -3   0    3.44    0.44
  -2   3   0    3.63    0.51
  -2   3   0    3.27    0.44
   1  -3   0    4.29    0.50
  -1   3   0    4.37    0.48
   0  -3   0   33.38    1.29
   0   3   0   31.16    1.29
   0   3   0   31.41    1.26
  -1  -3   0   33.79    5.06
   1   3   0   31.41    5.06
   1   3   0   29.82    4.77
   2   3   0    3.50    0.28
   2   3   0    3.26    0.26
   3   3   0    4.58    0.45
   3   3   0    4.37    0.44
   4   3   0  104.83    3.93
   4   3   0  100.41    3.69
   5   3   0   16.77    0.60
   5   3   0   15.86    0.59
   6   3   0   25.66    1.18
   6   3   0   25.26    1.10
   7   3   0    4.52    0.57
   7   3   0    3.70    0.60
   8   3   0   46.68    2.17
   8   3   0   44.63    2.32
   9   3   0    0.18    0.37
   9   3   0    0.37    0.31
  10   3   0    4.46    0.58
  10   3   0    3.46    0.56
  11   3   0    2.39    0.57
  11   3   0    3.48    0.57
  12   3   0    1.79    0.49
  12   3   0    1.52    0.53
  13   3   0    0.71    0.55
  14   3   0    0.01    0.47
  15   3   0    0.00    0.48
  16  -4   0    0.47    0.50
 -16   4   0    0.43    0.40
  15  -4   0    0.89    0.50
 -15   4   0    2.01    0.48
  14  -4   0    0.56    0.39
 -14   4   0    1.30    0.44
  13  -4   0    6.46    0.67
 -13   4   0    8.85    0.71
  12  -4   0    0.64    0.42
  11  -4   0    0.14    0.34
  10  -4   0   42.81    1.74
   9  -4   0    9.83    0.75
   8  -4   0   37.75    1.22
   7  -4   0    0.24    0.18
   6  -4   0   22.50    0.97
  -5   4   0   33.66    1.33
   4  -4   0   20.56    0.73
  -4   4   0   20.32    0.74
  -4   4   0   20.13    0.75
   3  -4   0    0.16    0.36
  -3   4   0    0.22    0.45
  -3   4   0    0.17    0.36
  -2   4   0    0.90    0.16
   1  -4   0   37.50    0.71
  -1   4   0   37.23    0.71
  -1   4   0   39.62    0.78
   0  -4   0   66.18    2.35
   0   4   0   63.38    2.35
   0   4   0   61.84    2.26
   1   4   0    2.37    0.21
   1   4   0    2.51    0.18
   2   4   0   36.39    1.10
   2   4   0   37.49    1.13
   3   4   0    4.65    0.55
   3   4   0    4.94    0.52
   4   4   0   59.79    2.49
   4   4   0   61.66    2.63
   5   4   0   22.64    1.24
   5   4   0   22.25    1.29
   6   4   0   79.14    2.70
   6   4   0   77.48    2.56
   7   4   0   23.20    1.44
   7   4   0   21.39    1.37
   8   4   0    1.05    0.35
   8   4   0    1.83    0.36
   9   4   0    0.03    0.35
   9   4   0    0.03    0.37
  10   4   0    0.05    0.39
  10   4   0    0.43    0.43
  11   4   0    5.93    0.62
  11   4   0    5.01    0.64
  12   4   0   10.45    0.90
  12   4   0    9.40    0.91
  13   4   0    0.30    0.49
  13   4   0    0.34    0.43
  14   4   0    0.12    0.50
  17  -5   0    0.42    0.52
  16  -5   0    0.35    0.48
 -16   5   0    0.17    0.45
  15  -5   0   14.88    1.06
 -15   5   0   15.93    1.06
  14  -5   0    2.07    0.46
 -14   5   0    1.85    0.46
  13  -5   0    7.12    0.73
  12  -5   0    2.26    0.41
  11  -5   0    1.87    0.33
  10  -5   0   48.83    1.84
   9  -5   0    0.24    0.23
   8  -5   0    1.73    0.46
   7  -5   0    2.59    0.18
  -7   5   0    3.21    0.25
   6  -5   0   25.36    1.37
  -6   5   0   24.97    1.33
   5  -5   0   39.97    1.30
  -5   5   0   39.29    1.30
   4  -5   0   48.67    1.86
  -4   5   0   47.67    1.86
  -4   5   0   47.60    1.86
  -3   5   0    1.40    0.39
  -3   5   0    1.26    0.23
  -3   5   0    1.39    0.24
  -2   5   0  134.16    3.99
   1  -5   0   37.01    1.93
  -1   5   0   35.15    1.92
  -1   5   0   36.27    1.94
   0  -5   0  190.98    6.23
   0   5   0  190.59    5.93
   0   5   0  183.16    6.23
   1   5   0   20.24    0.47
   1   5   0   19.41    0.50
   2   5   0   86.07    2.65
   2   5   0   83.37    2.54
   3   5   0   64.33    2.10
   3   5   0   66.42    2.20
   4   5   0    0.97    0.09
   4   5   0    1.05    0.09
   4   5   0    0.81    0.26
   4   5   0    0.92    0.25
   5   5   0    1.87    0.26
   5   5   0    1.70    0.26
   6   5   0   12.44    0.67
   6   5   0   12.06    0.67
   7   5   0   24.67    1.07
   7   5   0   22.33    1.08
   8   5   0   26.24    1.21
   8   5   0   25.28    1.20
   9   5   0   21.27    1.25
   9   5   0   22.15    1.28
  10   5   0    9.75    0.83
  10   5   0    8.82    0.81
  11   5   0    0.77    0.44
  11   5   0    0.18    0.41
  12   5   0    7.16    0.81
  12   5   0    8.24    0.79
  13   5   0    2.76    0.62
  13   5   0    3.55    0.64
  14   5   0    0.42    0.48
  14   5   0    0.01    0.51
  17  -6   0    0.29    0.49
  16  -6   0    3.84    0.57
 -16   6   0    4.36    0.64
  15  -6   0    7.17    0.75
 -15   6   0    7.01    0.76
  14  -6   0    4.05    0.54
 -14   6   0    3.33    0.58
  13  -6   0    1.19    0.40
  12  -6   0    0.78    0.37
  11  -6   0    0.79    0.29
  10  -6   0    0.06    0.26
   9  -6   0    1.46    0.26
  -9   6   0    1.73    0.30
  -8   6   0   48.12    1.71
   7  -6   0    3.81    0.32
  -7   6   0    4.00    0.36
   6  -6   0  261.64    8.28
  -6   6   0  272.66    7.88
   5  -6   0    6.32    0.15
  -5   6   0    5.71    0.24
  -5   6   0    6.40    0.16
  -4   6   0  138.07    3.84
  -4   6   0  137.18    3.92
  -4   6   0  141.01    3.92
  -3   6   0    1.10    0.29
  -2   6   0   97.60    3.07
   1  -6   0  204.63    6.28
  -1   6   0  204.69    6.02
  -1   6   0  198.54    6.28
   0  -6   0    0.34    0.10
   0   6   0    0.52    0.17
   0   6   0    0.93    0.10
   1   6   0   11.95    0.63
   1   6   0   12.30    0.69
   2   6   0   19.53    0.80
   2   6   0   18.83    0.77
   3   6   0    0.31    0.31
   3   6   0    0.37    0.27
   4   6   0   66.45    2.09
   4   6   0   66.60    2.03
   5   6   0   11.08    0.73
   5   6   0   12.84    0.73
   6   6   0   23.50    1.13
   6   6   0   21.93    1.11
   7   6   0    0.04    0.31
   7   6   0    0.04    0.33
   8   6   0    5.72    0.65
   8   6   0    7.05    0.71
   9   6   0   30.37    1.46
   9   6   0   31.38    1.46
  10   6   0    3.29    0.59
  10   6   0    5.39    0.66
  11   6   0    2.26    0.57
  11   6   0    1.49    0.47
  12   6   0    3.28    0.67
  12   6   0    2.90    0.66
  13   6   0    0.04    0.49
  13   6   0    0.23    0.42
  16  -7   0    2.60    0.51
 -16   7   0    4.34    0.66
  15  -7   0    4.41    0.64
 -15   7   0    4.94    0.70
  14  -7   0    0.26    0.37
  13  -7   0    1.05    0.36
 -13   7   0    1.12    0.38
  12  -7   0   41.82    1.77
 -12   7   0   42.52    1.68
  11  -7   0   13.83    0.89
 -11   7   0   15.85    0.92
 -10   7   0   69.95    2.49
   9  -7   0    2.60    0.30
  -9   7   0    2.08    0.34
   8  -7   0    0.01    0.17
  -8   7   0    0.02    0.23
   7  -7   0    7.69    0.26
  -7   7   0    7.99    0.36
  -6   7   0   83.86    3.25
  -6   7   0   85.50    3.31
  -5   7   0   17.03    0.70
  -5   7   0   18.33    0.53
  -5   7   0   17.52    0.53
  -4   7   0    0.17    0.26
  -3   7   0    3.62    0.28
  -2   7   0   14.83    0.54
   1  -7   0    1.79    0.13
  -1   7   0    1.71    0.25
  -1   7   0    1.69    0.14
   0   7   0   90.24    3.24
   0   7   0   87.01    3.31
   1   7   0   38.37    1.85
   1   7   0   38.44    1.85
   2   7   0   16.83    0.90
   2   7   0   15.40    0.81
   3   7   0   40.63    1.69
   3   7   0   38.92    1.67
   4   7   0   61.63    2.33
   4   7   0   64.22    2.39
   5   7   0   12.96    0.84
   5   7   0   11.72    0.84
   6   7   0   20.74    1.08
   6   7   0   20.51    1.11
   7   7   0    0.78    0.38
   7   7   0    1.01    0.47
   8   7   0    0.21    0.40
   8   7   0    0.10    0.36
   9   7   0    0.81    0.45
   9   7   0    1.32    0.51
  10   7   0    1.43    0.55
  10   7   0    0.32    0.41
  11   7   0    0.31    0.45
  11   7   0    0.08    0.52
  12   7   0    1.79    0.52
  12   7   0    2.27    0.60
  16  -8   0    0.15    0.40
 -16   8   0    0.43    0.44
 -16   8   0    0.50    0.51
  15  -8   0    8.15    0.76
 -15   8   0    9.99    0.80
 -15   8   0    9.42    0.90
  14  -8   0   14.83    0.94
 -14   8   0   15.68    0.95
  13  -8   0    2.83    0.47
 -13   8   0    2.48    0.50
  12  -8   0    7.62    0.54
 -12   8   0    8.55    0.65
  11  -8   0    2.30    0.31
 -11   8   0    3.10    0.40
  10  -8   0   31.25    1.32
 -10   8   0   34.25    1.37
   9  -8   0   14.81    0.82
  -9   8   0   16.03    0.91
   8  -8   0    4.53    0.34
  -8   8   0    4.61    0.45
  -7   8   0    8.04    0.38
  -7   8   0    8.17    0.27
  -6   8   0   15.66    0.70
  -6   8   0   17.11    0.70
  -6   8   0   16.91    0.86
  -5   8   0    7.81    0.65
  -4   8   0    0.69    0.31
  -3   8   0   42.63    1.41
   2  -8   0   20.89    0.79
  -2   8   0   21.45    0.96
   1  -8   0   46.34    1.63
  -1   8   0   44.81    1.63
  -1   8   0   44.39    1.70
   0   8   0   31.34    1.29
   0   8   0   29.61    1.20
   1   8   0    0.00    0.27
   1   8   0    0.00    0.15
   2   8   0    0.18    0.25
   2   8   0    0.18    0.19
   3   8   0    7.75    0.50
   3   8   0    7.15    0.58
   4   8   0    8.47    0.67
   4   8   0    9.01    0.74
   5   8   0    2.38    0.41
   5   8   0    1.59    0.42
   5   8   0    2.27    0.15
   6   8   0   26.80    1.32
   6   8   0   28.88    1.32
   7   8   0    0.08    0.38
   7   8   0    0.08    0.38
   8   8   0    0.92    0.39
   8   8   0    1.63    0.43
   9   8   0    0.06    0.39
   9   8   0    0.06    0.44
  10   8   0    1.95    0.61
  10   8   0    2.42    0.59
  11   8   0    0.96    0.49
  11   8   0    1.10    0.47
  12   8   0    1.40    0.55
  12   8   0    0.55    0.54
  16  -9   0    2.79    0.52
 -16   9   0    2.05    0.57
 -16   9   0    2.68    0.55
 -16   9   0    1.83    0.60
  15  -9   0    7.04    0.69
 -15   9   0    8.57    0.78
  14  -9   0    0.76    0.33
 -14   9   0    1.01    0.43
  13  -9   0    2.24    0.32
 -13   9   0    4.39    0.50
  12  -9   0    0.13    0.26
 -12   9   0    0.12    0.33
  11  -9   0    0.90    0.28
 -11   9   0    1.45    0.39
 -10   9   0    4.52    0.42
 -10   9   0    3.56    0.45
  -9   9   0    8.80    0.73
  -9   9   0    9.30    0.63
  -8   9   0    0.23    0.29
  -8   9   0    0.27    0.19
  -7   9   0    0.36    0.13
  -7   9   0    0.20    0.27
  -7   9   0    0.27    0.13
  -6   9   0    9.27    0.55
  -5   9   0    0.03    0.24
  -4   9   0   20.24    0.82
  -3   9   0    8.33    0.64
   2  -9   0   49.93    1.86
   2  -9   0   58.37    1.88
  -2   9   0   52.56    1.99
   1  -9   0   24.18    0.94
  -1   9   0   22.88    0.95
  -1   9   0   23.49    1.10
   0   9   0   38.56    1.64
   0   9   0   38.50    1.73
   1   9   0   27.42    1.20
   1   9   0   28.41    1.32
   2   9   0   34.46    1.36
   2   9   0   32.67    1.42
   3   9   0    0.39    0.25
   3   9   0    0.39    0.41
   4   9   0    1.52    0.38
   4   9   0    1.88    0.49
   4   9   0    1.73    0.24
   5   9   0    0.36    0.33
   5   9   0    0.36    0.37
   5   9   0    0.36    0.13
   6   9   0   27.23    1.38
   6   9   0   27.40    1.34
   7   9   0   10.59    0.89
   7   9   0   10.31    0.85
   8   9   0    0.23    0.42
   8   9   0    0.23    0.40
   9   9   0    0.03    0.45
   9   9   0    0.03    0.42
  10   9   0    0.61    0.48
  10   9   0    0.00    0.49
  11   9   0    0.01    0.51
  11   9   0    0.52    0.52
 -16  10   0    7.15    0.83
 -16  10   0    5.65    0.83
 -16  10   0    4.67    0.72
 -15  10   0    0.90    0.48
 -15  10   0    1.63    0.51
 -14  10   0    0.11    0.39
 -14  10   0    0.83    0.47
 -13  10   0    4.28    0.59
 -13  10   0    2.93    0.49
 -12  10   0    1.36    0.40
 -12  10   0    1.55    0.39
 -11  10   0    5.34    0.54
 -11  10   0    6.26    0.68
 -10  10   0    0.42    0.39
 -10  10   0    0.57    0.27
  -9  10   0   12.46    0.76
  -9  10   0   11.99    0.54
  -8  10   0   11.93    0.73
  -8  10   0   12.23    0.51
  -7  10   0    0.55    0.30
  -6  10   0   65.87    2.11
  -5  10   0    0.80    0.38
  -4  10   0    0.37    0.33
  -3  10   0    4.84    0.58
   2 -10   0   56.28    2.20
   2 -10   0   66.76    2.22
  -2  10   0   55.05    2.32
  -1  10   0  100.21    3.70
   0  10   0   49.04    1.85
   0  10   0   50.09    1.97
   1  10   0    0.32    0.43
   1  10   0    0.26    0.25
   2  10   0   14.36    0.67
   2  10   0   14.04    0.81
   3  10   0    1.60    0.35
   3  10   0    0.99    0.46
   4  10   0    0.09    0.29
   4  10   0    0.09    0.40
   4  10   0    1.08    0.21
   5  10   0    1.00    0.38
   5  10   0    1.11    0.48
   6  10   0    0.98    0.40
   6  10   0    1.27    0.50
   7  10   0    2.52    0.54
   7  10   0    2.53    0.60
   8  10   0    0.92    0.50
   8  10   0    0.50    0.40
   9  10   0    2.47    0.55
   9  10   0    2.84    0.67
  10  10   0    3.77    0.75
  10  10   0    4.50    0.76
 -15  11   0    0.20    0.46
 -14  11   0    0.02    0.37
 -13  11   0    0.62    0.35
 -13  11   0    0.46    0.39
 -12  11   0    0.15    0.28
 -12  11   0    0.01    0.39
 -11  11   0   20.37    0.85
 -11  11   0   18.91    0.97
 -10  11   0    3.69    0.51
 -10  11   0    3.60    0.33
  -9  11   0    0.79    0.18
  -9  11   0    0.75    0.42
  -8  11   0    0.42    0.36
  -7  11   0    0.76    0.40
  -6  11   0   66.94    2.54
  -5  11   0    2.58    0.57
  -4  11   0   24.91    1.11
  -3  11   0    5.15    0.52
   2 -11   0    8.23    0.36
   2 -11   0   10.29    0.38
  -2  11   0    9.94    0.70
   1 -11   0   32.53    1.36
  -1  11   0   34.68    1.57
   0  11   0    0.33    0.18
   0  11   0    0.48    0.39
   1  11   0   16.02    0.78
   1  11   0   17.13    1.01
   2  11   0    0.06    0.26
   2  11   0    0.06    0.43
   3  11   0    7.36    0.55
   3  11   0    7.58    0.73
   4  11   0    8.89    0.73
   4  11   0    6.93    0.83
   5  11   0    0.21    0.35
   5  11   0    0.42    0.47
   6  11   0    6.05    0.66
   6  11   0    6.66    0.81
   7  11   0    5.44    0.73
   7  11   0    7.11    0.90
   8  11   0    0.40    0.52
   8  11   0    0.92    0.52
   9  11   0    1.51    0.56
   9  11   0    2.51    0.77
 -15  12   0    3.73    0.62
 -14  12   0    0.00    0.44
 -13  12   0    0.77    0.48
 -12  12   0   27.41    1.31
 -11  12   0    1.58    0.49
 -10  12   0   32.10    1.49
  -9  12   0    0.75    0.37
  -8  12   0    5.00    0.47
  -7  12   0   18.27    0.92
  -6  12   0   30.00    1.22
  -5  12   0    0.57    0.34
  -4  12   0   14.01    0.85
  -3  12   0    0.29    0.43
  -2  12   0   24.79    1.32
   1 -12   0    1.07    0.21
  -1  12   0    1.68    0.53
   0 -12   0    4.06    0.39
   0  12   0    4.05    0.64
   1  12   0    0.32    0.24
   1  12   0    0.06    0.50
   2  12   0    4.57    0.67
   2  12   0    4.34    0.46
   3  12   0   19.24    0.98
   3  12   0   17.59    1.21
   3  12   0   17.34    1.02
   4  12   0    4.47    0.53
   4  12   0    5.73    0.73
   5  12   0    3.31    0.66
   5  12   0    3.94    0.53
   6  12   0    1.17    0.43
   6  12   0    1.47    0.56
   7  12   0    1.42    0.57
   7  12   0    0.84    0.45
   8  12   0    0.03    0.48
   8  12   0    0.03    0.44
 -14  13   0    0.90    0.51
 -13  13   0    0.99    0.50
 -12  13   0   21.66    1.18
 -11  13   0    8.29    0.76
 -10  13   0   11.50    0.84
  -9  13   0    0.01    0.33
  -8  13   0    0.76    0.38
  -7  13   0    0.00    0.34
  -6  13   0   21.64    1.04
  -5  13   0    1.08    0.38
  -4  13   0    5.91    0.60
  -3  13   0    0.70    0.40
  -2  13   0    8.78    0.71
  -1  13   0   12.56    0.90
   0 -13   0    0.66    0.23
   0  13   0    0.00    0.44
  -1 -13   0    0.71    0.25
   1  13   0    0.38    0.45
   2  13   0    0.93    0.47
   2  13   0    2.40    0.32
   3  13   0    1.81    0.37
   3  13   0    0.82    0.56
   4  13   0    0.01    0.48
   4  13   0    0.30    0.35
   5  13   0    1.03    0.40
   5  13   0    0.01    0.55
   6  13   0    0.35    0.53
   6  13   0    1.51    0.46
   7  13   0    0.67    0.59
   7  13   0    0.94    0.47
 -14  14   0    0.03    0.44
 -13  14   0    0.46    0.47
 -12  14   0    1.11    0.45
 -11  14   0    2.29    0.48
 -10  14   0    0.01    0.34
  -9  14   0    7.41    0.66
  -8  14   0    0.91    0.47
  -7  14   0    0.09    0.34
  -6  14   0    4.36    0.56
  -5  14   0    1.66    0.43
  -4  14   0    0.08    0.38
  -3  14   0    3.08    0.54
  -2  14   0    0.07    0.42
  -1  14   0    0.27    0.44
   0  14   0    4.35    0.73
   1  14   0    0.16    0.53
   2  14   0    3.83    0.71
   3  14   0    0.01    0.29
   3  14   0    0.01    0.51
   4  14   0    3.53    0.49
   4  14   0    2.42    0.67
   5  14   0    0.28    0.38
   5  14   0    0.16    0.60
   6  14   0    1.00    0.46
 -13  15   0    0.67    0.51
 -12  15   0    0.01    0.39
 -11  15   0    0.20    0.40
 -10  15   0    0.04    0.37
  -9  15   0    0.25    0.38
  -8  15   0    0.03    0.35
  -7  15   0    0.02    0.35
  -6  15   0   12.06    0.82
  -5  15   0    3.27    0.56
  -4  15   0    4.63    0.64
  -3  15   0    0.34    0.44
  -2  15   0    0.85    0.50
  -1  15   0    0.99    0.52
   0  15   0    7.71    0.86
   1  15   0    4.14    0.78
   2  15   0    1.16    0.58
   3  15   0    0.10    0.55
   4  15   0    0.01    0.54
 -11  16   0    1.51    0.49
 -10  16   0    0.17    0.40
  -9  16   0    0.90    0.45
  -8  16   0    9.61    0.81
  -7  16   0    1.33    0.54
  -6  16   0   13.39    0.93
  -5  16   0    0.53    0.48
  -4  16   0    9.68    0.89
  -3  16   0    0.97    0.58
  -2  16   0    0.30    0.54
  -1  16   0    0.50    0.59
   0  16   0    0.01    0.53
   1  16   0    0.12    0.51
   2  16   0    1.60    0.70
  -9  17   0    0.16    0.43
  -8  17   0    3.18    0.60
  -7  17   0    5.74    0.74
  -6  17   0    0.05    0.45
  -5  17   0    3.09    0.63
  -4  17   0    0.11    0.47
  -3  17   0    0.86    0.54
  -2  17   0    1.79    0.64
  -1  17   0    1.45    0.60
   0  17  -1    0.00    0.52
  -1  17  -1    0.06    0.53
  -2  17  -1    4.40    0.75
  -3  17  -1    2.27    0.61
  -4  17  -1    0.08    0.54
  -5  17  -1    0.36    0.47
  -6  17  -1    3.12    0.62
  -7  17  -1    6.00    0.73
  -8  17  -1    4.97    0.66
  -9  17  -1    1.52    0.55
 -10  17  -1    3.96    0.64
   2  16  -1    1.19    0.66
   1  16  -1    0.63    0.60
   0  16  -1    0.05    0.51
  -1  16  -1    2.22    0.71
  -2  16  -1    4.23    0.69
  -3  16  -1    4.29    0.71
  -4  16  -1    9.99    0.87
  -5  16  -1    0.01    0.49
  -6  16  -1   30.43    1.51
  -7  16  -1    0.05    0.41
  -8  16  -1   10.30    0.84
  -9  16  -1    0.06    0.41
 -10  16  -1    1.60    0.46
 -11  16  -1    1.26    0.52
   4  15  -1    0.82    0.64
   3  15  -1    1.67    0.60
   2  15  -1    1.70    0.71
   1  15  -1    1.51    0.56
   0  15  -1   11.99    1.05
  -1  15  -1    0.24    0.46
  -2  15  -1    8.31    0.89
  -3  15  -1    1.27    0.52
  -4  15  -1    8.99    0.78
  -5  15  -1    2.33    0.51
  -6  15  -1    9.57    0.78
  -7  15  -1   10.97    0.78
  -8  15  -1    0.43    0.40
  -9  15  -1    1.18    0.43
 -10  15  -1    0.32    0.41
 -11  15  -1    0.08    0.45
 -12  15  -1    4.37    0.64
 -13  15  -1    0.08    0.43
   6  14  -1    5.93    0.91
   6  14  -1    6.29    0.73
   5  14  -1    0.01    0.54
   5  14  -1    0.50    0.39
   4  14  -1    8.35    0.95
   4  14  -1    9.53    0.74
   3  14  -1    1.16    0.66
   3  14  -1    1.66    0.39
   2  14  -1   11.68    1.04
   2  14  -1   12.70    0.74
   1  14  -1    0.00    0.50
   0  14  -1    1.83    0.48
  -1  14  -1    0.01    0.43
  -2  14  -1    2.40    0.50
  -3  14  -1    0.95    0.46
  -4  14  -1    2.26    0.50
  -5  14  -1    0.00    0.37
  -6  14  -1    0.66    0.39
  -7  14  -1    0.20    0.36
  -8  14  -1    0.66    0.43
  -9  14  -1    0.61    0.39
 -10  14  -1    0.32    0.37
 -11  14  -1    0.10    0.39
 -12  14  -1    6.46    0.68
 -13  14  -1    1.01    0.53
 -14  14  -1    0.01    0.50
   7  13  -1    0.01    0.46
   7  13  -1    0.26    0.42
   6  13  -1    1.28    0.60
   6  13  -1    1.88    0.50
   5  13  -1    1.56    0.63
   5  13  -1    1.11    0.42
   4  13  -1    5.49    0.57
   4  13  -1    6.12    0.80
   3  13  -1    2.26    0.67
   3  13  -1    1.97    0.40
   2  13  -1    1.52    0.62
   2  13  -1    1.69    0.37
   1  13  -1    1.09    0.27
   1  13  -1    0.71    0.47
   0  13  -1    0.14    0.21
   0  13  -1    0.10    0.47
  -1  13  -1    0.07    0.42
  -2  13  -1   11.93    0.90
  -3  13  -1    1.48    0.42
  -4  13  -1    5.09    0.64
  -5  13  -1   10.56    0.77
  -6  13  -1    0.77    0.38
  -7  13  -1    0.30    0.39
  -8  13  -1    0.00    0.33
  -9  13  -1    3.97    0.55
 -10  13  -1   16.97    0.94
 -11  13  -1    0.58    0.45
 -12  13  -1   16.47    1.07
 -13  13  -1    2.54    0.54
 -14  13  -1    7.86    0.82
   8  12  -1    0.85    0.63
   8  12  -1    1.07    0.52
   7  12  -1    0.00    0.42
   7  12  -1    0.00    0.50
   6  12  -1    0.61    0.43
   6  12  -1    0.55    0.53
   5  12  -1    0.35    0.49
   5  12  -1    0.11    0.34
   4  12  -1    5.69    0.81
   4  12  -1    7.70    0.69
   3  12  -1    4.05    0.62
   3  12  -1    5.66    0.50
   2  12  -1    2.15    0.33
   2  12  -1    1.84    0.53
   1  12  -1    2.83    0.58
   1  12  -1    2.85    0.31
   0  12  -1    2.16    0.28
   0  12  -1    2.13    0.50
  -1  12  -1    3.19    0.29
  -1  12  -1    2.13    0.51
  -2  12  -1    0.61    0.44
   2 -12   1    0.47    0.15
  -3  12  -1    0.02    0.36
  -4  12  -1    5.21    0.58
  -5  12  -1    5.44    0.53
  -6  12  -1   47.50    1.89
  -7  12  -1    5.15    0.62
  -8  12  -1   11.65    0.89
  -9  12  -1   18.99    1.01
 -10  12  -1   15.07    0.88
 -11  12  -1   24.44    1.27
 -12  12  -1    6.09    0.66
 -13  12  -1    0.04    0.45
 -14  12  -1    2.32    0.53
 -15  12  -1    0.71    0.53
   9  11  -1    1.19    0.59
   9  11  -1    1.20    0.57
   8  11  -1    0.50    0.46
   8  11  -1    0.64    0.56
   7  11  -1    0.94    0.51
   7  11  -1    0.99    0.47
   6  11  -1    0.00    0.43
   6  11  -1    0.61    0.38
   5  11  -1    0.25    0.49
   5  11  -1    0.08    0.31
   4  11  -1    6.23    0.59
   4  11  -1    7.03    0.75
   3  11  -1    0.34    0.46
   3  11  -1    0.87    0.30
   2  11  -1    2.13    0.49
   2  11  -1    2.26    0.31
   1  11  -1    3.32    0.54
   1  11  -1    2.98    0.33
   0  11  -1    9.33    0.45
   0  11  -1    8.96    0.67
  -1  11  -1   78.01    2.22
  -1  11  -1   76.89    2.35
   2 -11   1   63.16    1.70
  -3  11  -1    7.24    0.68
  -4  11  -1    1.82    0.35
  -5  11  -1    0.22    0.34
  -6  11  -1   71.77    2.57
  -7  11  -1    5.64    0.64
  -8  11  -1    9.90    0.32
  -8  11  -1    9.95    0.64
  -9  11  -1    2.30    0.46
  -9  11  -1    2.19    0.23
 -10  11  -1    0.00    0.34
 -10  11  -1    0.34    0.22
 -11  11  -1   17.25    0.83
 -11  11  -1   18.40    1.04
 -12  11  -1    6.61    0.73
 -12  11  -1    7.02    0.59
 -13  11  -1    3.86    0.60
 -13  11  -1    4.15    0.53
 -14  11  -1    0.01    0.41
 -14  11  -1    0.01    0.37
 -15  11  -1    1.16    0.54
  10  10  -1    1.91    0.62
  10  10  -1    2.43    0.59
   9  10  -1    1.72    0.51
   9  10  -1    1.64    0.57
   8  10  -1    7.27    0.92
   8  10  -1    9.36    0.90
   7  10  -1    2.89    0.51
   7  10  -1    3.49    0.63
   6  10  -1    3.45    0.53
   6  10  -1    3.04    0.62
   5  10  -1    1.56    0.53
   5  10  -1    1.79    0.43
   4  10  -1    0.00    0.31
   4  10  -1    0.00    0.43
   3  10  -1   12.38    0.84
   3  10  -1   13.04    0.70
   2  10  -1   20.62    1.12
   2  10  -1   19.95    0.96
   1  10  -1    0.09    0.20
   1  10  -1    0.07    0.37
   0  10  -1   66.41    2.34
   0  10  -1   68.76    2.42
  -1  10  -1   13.13    0.78
  -1  10  -1   14.07    0.59
  -2  10  -1  162.74    5.30
  -2  10  -1  162.75    5.24
   2 -10   1  148.60    5.30
  -3  10  -1    1.56    0.38
  -4  10  -1    0.97    0.37
  -5  10  -1   10.78    0.58
  -6  10  -1    3.76    0.51
  -7  10  -1   31.82    0.87
  -7  10  -1   30.06    0.90
  -7  10  -1   32.43    1.13
  -8  10  -1    1.21    0.38
  -8  10  -1    1.31    0.20
  -9  10  -1    2.84    0.30
  -9  10  -1    2.21    0.44
 -10  10  -1   16.11    0.97
 -10  10  -1   15.09    0.78
 -11  10  -1    4.41    0.58
 -11  10  -1    5.00    0.51
 -12  10  -1    9.95    0.74
 -12  10  -1    9.71    0.68
 -13  10  -1    0.10    0.37
 -13  10  -1    0.10    0.36
 -14  10  -1    2.79    0.55
 -14  10  -1    3.11    0.54
 -15  10  -1    8.06    0.77
 -15  10  -1    7.16    0.73
 -16  10  -1    0.47    0.49
 -16  10  -1    0.00    0.46
  11   9  -1    0.02    0.41
  11   9  -1    1.06    0.55
  10   9  -1    0.07    0.47
  10   9  -1    0.96    0.47
   9   9  -1    3.24    0.63
   9   9  -1    2.16    0.59
   8   9  -1    0.04    0.45
   8   9  -1    0.11    0.40
   7   9  -1    6.54    0.73
   7   9  -1    6.23    0.65
   6   9  -1   26.56    1.28
   6   9  -1   25.77    1.24
   5   9  -1    0.16    0.30
   5   9  -1    0.02    0.39
   4   9  -1   52.42    1.98
   4   9  -1   52.12    2.01
   3   9  -1    4.94    0.44
   3   9  -1    4.43    0.53
   2   9  -1   14.98    0.81
   2   9  -1   15.99    0.93
   1   9  -1    3.47    0.52
   1   9  -1    3.69    0.41
   0   9  -1   57.49    1.91
   0   9  -1   56.78    1.85
  -1   9  -1   33.04    1.61
  -1   9  -1   31.24    1.51
   1  -9   1   36.99    1.56
  -2   9  -1    8.46    0.50
  -2   9  -1    8.42    0.29
   2  -9   1    8.44    0.30
  -3   9  -1    1.28    0.28
  -4   9  -1    4.18    0.45
  -5   9  -1    0.21    0.25
  -6   9  -1   23.73    0.91
  -6   9  -1   26.02    1.14
  -6   9  -1   25.73    0.89
  -7   9  -1    0.37    0.30
  -7   9  -1    0.98    0.16
  -8   9  -1    0.30    0.34
  -8   9  -1    0.56    0.20
  -9   9  -1    1.23    0.30
  -9   9  -1    1.38    0.40
 -10   9  -1   17.58    0.84
 -10   9  -1   17.54    0.94
 -11   9  -1   30.00    1.28
 -11   9  -1   27.06    1.26
 -12   9  -1    3.23    0.53
 -12   9  -1    3.97    0.55
 -13   9  -1    0.66    0.43
 -13   9  -1    0.23    0.42
 -14   9  -1    7.78    0.76
 -14   9  -1    8.36    0.82
 -15   9  -1    1.81    0.54
 -15   9  -1    1.43    0.43
 -16   9  -1    1.15    0.44
 -16   9  -1    0.21    0.51
  12   8  -1    1.70    0.60
  12   8  -1    2.57    0.66
  11   8  -1    1.67    0.57
  11   8  -1    1.21    0.56
  10   8  -1    5.64    0.74
  10   8  -1    4.36    0.70
   9   8  -1    8.15    0.85
   9   8  -1    8.39    0.86
   8   8  -1   12.44    0.95
   8   8  -1   11.87    0.97
   7   8  -1    3.42    0.63
   7   8  -1    3.14    0.57
   6   8  -1   12.01    0.85
   6   8  -1   10.27    0.86
   5   8  -1    0.01    0.35
   5   8  -1    0.01    0.28
   4   8  -1   38.73    1.70
   4   8  -1   38.17    1.71
   3   8  -1    0.00    0.33
   3   8  -1    0.24    0.23
   2   8  -1    5.23    0.46
   2   8  -1    6.43    0.58
   1   8  -1   10.77    0.59
   1   8  -1   11.22    0.69
   0   8  -1    0.00    0.25
   0   8  -1    0.12    0.17
  -1   8  -1   20.91    0.84
  -1   8  -1   20.27    0.71
   1  -8   1   21.99    0.71
  -2   8  -1    4.01    0.18
  -2   8  -1    3.95    0.34
   2  -8   1    3.98    0.19
  -3   8  -1   37.64    1.62
  -4   8  -1    3.21    0.38
  -5   8  -1   24.30    1.06
  -5   8  -1   24.57    1.22
  -5   8  -1   25.30    1.04
  -6   8  -1   54.84    1.94
  -6   8  -1   55.51    1.88
  -6   8  -1   57.49    1.86
  -7   8  -1    1.00    0.29
  -7   8  -1    1.32    0.20
  -8   8  -1    2.67    0.36
  -8   8  -1    2.56    0.27
  -9   8  -1    0.21    0.24
  -9   8  -1    0.17    0.32
 -10   8  -1   20.53    1.00
 -10   8  -1   20.03    1.01
 -11   8  -1    0.33    0.36
 -11   8  -1    0.32    0.33
 -12   8  -1   12.37    0.83
 -12   8  -1   12.44    0.84
  12  -8   1   11.06    0.74
 -13   8  -1    2.90    0.52
 -13   8  -1    1.93    0.43
  13  -8   1    1.72    0.36
 -14   8  -1    5.78    0.64
 -14   8  -1    5.81    0.73
  14  -8   1    4.67    0.57
 -15   8  -1    0.39    0.44
 -15   8  -1    0.05    0.49
 -16   8  -1    0.39    0.53
 -16   8  -1    0.25    0.43
  13   7  -1    0.01    0.36
  13   7  -1    0.57    0.61
  12   7  -1    1.82    0.53
  12   7  -1    1.03    0.55
  11   7  -1    2.04    0.61
  11   7  -1    2.91    0.65
  10   7  -1    8.61    0.85
  10   7  -1    8.01    0.87
   9   7  -1    6.56    0.71
   9   7  -1    7.34    0.76
   8   7  -1    4.82    0.59
   8   7  -1    4.36    0.58
   7   7  -1    1.94    0.48
   7   7  -1    1.27    0.42
   6   7  -1    0.06    0.33
   6   7  -1    0.25    0.32
   5   7  -1    4.06    0.45
   5   7  -1    3.58    0.21
   5   7  -1    3.43    0.46
   4   7  -1   54.91    2.12
   4   7  -1   52.56    2.15
   3   7  -1   12.75    0.77
   3   7  -1   12.66    0.82
   2   7  -1    1.88    0.28
   2   7  -1    1.76    0.35
   1   7  -1   68.35    1.92
   1   7  -1   67.75    1.93
   0   7  -1    1.63    0.25
   0   7  -1    1.22    0.15
  -1   7  -1    0.21    0.27
  -1   7  -1    0.49    0.17
   1  -7   1    0.51    0.19
  -2   7  -1    5.23    0.17
  -2   7  -1    5.42    0.34
   2  -7   1    4.80    0.17
  -3   7  -1    1.10    0.27
  -4   7  -1    8.18    0.42
  -4   7  -1    8.33    0.22
  -4   7  -1    7.93    0.23
  -5   7  -1    1.55    0.36
  -5   7  -1    2.03    0.24
  -5   7  -1    1.76    0.22
  -6   7  -1   35.97    1.23
  -6   7  -1   35.77    1.29
  -7   7  -1    4.11    0.56
  -7   7  -1    3.09    0.47
  -8   7  -1   83.26    2.68
  -8   7  -1   84.82    2.60
  -9   7  -1    1.21    0.26
   9  -7   1    0.36    0.14
 -10   7  -1    6.02    0.55
  10  -7   1    6.03    0.52
 -11   7  -1    0.87    0.40
  11  -7   1    1.20    0.34
  12  -7   1    3.79    0.47
  13  -7   1   21.31    1.06
  14  -7   1    0.00    0.32
  15  -7   1    2.46    0.52
 -16   7  -1    0.00    0.53
 -16   7  -1    0.13    0.47
  16  -7   1    0.00    0.40
  13   6  -1    0.45    0.51
  13   6  -1    0.42    0.44
  12   6  -1    1.99    0.54
  12   6  -1    1.21    0.60
  11   6  -1    0.31    0.44
  11   6  -1    0.21    0.43
  10   6  -1    7.13    0.71
  10   6  -1    6.61    0.71
   9   6  -1   19.13    1.12
   9   6  -1   19.35    1.16
   8   6  -1   10.29    0.83
   8   6  -1   10.10    0.86
   7   6  -1    6.95    0.72
   7   6  -1    6.21    0.77
   6   6  -1    0.57    0.32
   6   6  -1    0.74    0.30
   5   6  -1    4.70    0.25
   5   6  -1    5.07    0.48
   5   6  -1    5.22    0.47
   4   6  -1   11.81    0.81
   4   6  -1   12.00    0.84
   3   6  -1   11.18    0.53
   3   6  -1   11.42    0.55
   2   6  -1    3.94    0.52
   2   6  -1    3.85    0.48
   1   6  -1    5.65    0.19
   1   6  -1    5.17    0.23
   0   6  -1   90.78    2.42
   0   6  -1   91.14    2.37
   0  -6   1   93.74    2.43
  -1   6  -1   38.90    0.92
  -1   6  -1   38.56    0.98
   1  -6   1   42.11    0.93
  -2   6  -1   52.29    2.18
  -2   6  -1   50.35    2.19
   2  -6   1   52.81    2.18
  -3   6  -1    0.58    0.07
  -3   6  -1    0.66    0.07
  -3   6  -1    0.44    0.19
  -4   6  -1  219.86    7.44
  -4   6  -1  220.47    7.13
  -4   6  -1  216.31    7.43
  -5   6  -1   54.25    2.55
  -5   6  -1   54.98    2.52
  -6   6  -1  104.95    3.50
  -6   6  -1  109.17    3.65
  -7   6  -1    1.13    0.27
   7  -6   1    1.23    0.20
  -8   6  -1  124.21    4.02
   9  -6   1    3.93    0.52
  10  -6   1   17.41    0.94
  11  -6   1    0.09    0.29
  12  -6   1    0.88    0.37
  13  -6   1   11.87    0.86
  14  -6   1   14.34    0.97
  15  -6   1   11.09    0.84
 -16   6  -1    1.55    0.55
  16  -6   1    1.34    0.49
  14   5  -1    0.19    0.54
  14   5  -1    0.27    0.46
  13   5  -1    3.22    0.57
  13   5  -1    2.89    0.61
  12   5  -1    3.14    0.61
  12   5  -1    4.01    0.62
  11   5  -1    0.80    0.45
  11   5  -1    0.91    0.42
  10   5  -1   11.97    0.89
  10   5  -1   10.54    0.80
   9   5  -1    4.57    0.60
   9   5  -1    5.50    0.54
   8   5  -1    4.57    0.55
   8   5  -1    4.95    0.58
   7   5  -1    2.78    0.43
   7   5  -1    2.49    0.44
   6   5  -1    9.16    0.73
   6   5  -1    9.92    0.72
   5   5  -1   17.71    0.77
   5   5  -1   18.66    1.04
   5   5  -1   19.03    1.02
   4   5  -1   51.06    1.63
   4   5  -1   50.34    1.76
   4   5  -1   50.85    1.84
   3   5  -1   62.68    2.35
   3   5  -1   64.36    2.46
   2   5  -1   11.02    0.77
   2   5  -1   11.13    0.77
   1   5  -1    0.23    0.20
   1   5  -1    0.16    0.23
   0   5  -1  374.74   12.38
   0   5  -1  372.93   11.68
   0  -5   1  366.41   12.37
  -1   5  -1   24.74    1.21
  -1   5  -1   24.38    1.24
   1  -5   1   28.36    1.23
  -2   5  -1   20.86    0.77
  -2   5  -1   20.93    0.86
   2  -5   1   21.01    0.77
  -3   5  -1    4.91    0.07
  -3   5  -1    5.25    0.19
  -3   5  -1    4.78    0.08
  -4   5  -1   35.13    0.88
  -4   5  -1   35.26    0.84
  -4   5  -1   35.57    0.84
  -5   5  -1   61.54    2.30
  -5   5  -1   62.48    2.22
  -6   5  -1   47.98    2.30
   7  -5   1   37.86    1.08
   8  -5   1    4.24    0.31
   9  -5   1    4.06    0.48
  10  -5   1   29.78    1.35
  11  -5   1   15.19    0.93
  12  -5   1    2.05    0.48
  13  -5   1    0.03    0.32
  14  -5   1    1.92    0.43
 -15   5  -1    1.22    0.49
  15  -5   1    1.14    0.46
 -16   5  -1    1.55    0.50
  16  -5   1    0.62    0.48
  14   4  -1    5.48    0.84
  13   4  -1    0.99    0.43
  13   4  -1    0.05    0.48
  12   4  -1    0.25    0.34
  12   4  -1    0.05    0.38
  11   4  -1    1.39    0.42
  11   4  -1    1.34    0.47
  10   4  -1    0.41    0.34
  10   4  -1    0.05    0.37
   9   4  -1   26.21    1.29
   9   4  -1   27.32    1.22
   8   4  -1   15.36    0.93
   8   4  -1   16.57    0.91
   7   4  -1    0.11    0.30
   7   4  -1    0.02    0.28
   6   4  -1   10.09    0.70
   6   4  -1   10.37    0.75
   5   4  -1   13.08    0.20
   5   4  -1   14.16    0.45
   5   4  -1   12.96    0.41
   4   4  -1  192.71    5.73
   4   4  -1  193.88    5.67
   4   4  -1  199.69    6.04
   3   4  -1    0.46    0.27
   3   4  -1    0.69    0.29
   2   4  -1    6.84    0.60
   2   4  -1    7.47    0.62
   1   4  -1   44.02    0.77
   1   4  -1   45.23    0.79
   0   4  -1  131.73    4.67
   0   4  -1  129.90    4.43
   0  -4   1  130.56    4.66
  -1   4  -1  132.57    7.12
  -1   4  -1  130.54    6.76
   1  -4   1  137.37    7.13
  -2   4  -1   14.49    0.54
  -2   4  -1   14.50    0.42
   2  -4   1   13.90    0.44
  -3   4  -1    6.46    0.22
  -3   4  -1    6.62    0.22
  -3   4  -1    6.81    0.30
  -4   4  -1    0.41    0.14
  -4   4  -1    0.09    0.15
  -4   4  -1    0.37    0.14
   5  -4   1    0.02    0.07
   6  -4   1   49.63    1.51
   7  -4   1    0.07    0.19
   8  -4   1   10.40    0.46
   9  -4   1   29.86    1.13
  10  -4   1    0.87    0.32
  11  -4   1   26.10    1.11
  12  -4   1   10.44    0.83
  13  -4   1    0.07    0.40
 -14   4  -1    1.24    0.42
  14  -4   1    0.53    0.45
 -15   4  -1    4.79    0.61
  15  -4   1    2.79    0.57
  16  -4   1    2.30    0.60
  15   3  -1    0.10    0.49
  14   3  -1    3.90    0.71
  13   3  -1    3.86    0.65
  12   3  -1   10.83    0.78
  12   3  -1    8.87    0.86
  11   3  -1    0.17    0.40
  11   3  -1    0.16    0.35
  10   3  -1   19.41    1.02
  10   3  -1   17.25    1.08
   9   3  -1   29.72    1.27
   9   3  -1   28.12    1.37
   8   3  -1   37.60    1.41
   8   3  -1   40.33    1.32
   7   3  -1   35.11    1.19
   7   3  -1   34.71    1.30
   6   3  -1    8.24    0.37
   6   3  -1    8.35    0.41
   5   3  -1   44.33    1.07
   5   3  -1   44.32    0.99
   4   3  -1  114.10    4.27
   4   3  -1  117.66    4.56
   4   3  -1  113.13    4.29
   3   3  -1   20.41    0.35
   3   3  -1   19.65    0.44
   3   3  -1   20.01    0.48
   2   3  -1    0.34    0.23
   2   3  -1    0.37    0.24
   1   3  -1   43.49    0.81
   1   3  -1   43.58    0.78
  -1  -3   1   43.41    0.80
   0   3  -1   19.22    0.81
   0   3  -1   19.69    0.81
   0  -3   1   19.78    0.81
  -1   3  -1   28.30    1.20
  -1   3  -1   29.55    1.21
   1  -3   1   31.13    1.20
  -2   3  -1    1.69    0.13
  -2   3  -1    1.69    0.08
   2  -3   1    0.83    0.09
  -3   3  -1   14.79    1.97
  -3   3  -1   14.11    1.97
   4  -3   1    1.90    0.27
   5  -3   1   65.09    2.56
   6  -3   1   63.55    2.66
   7  -3   1   37.12    1.68
   8  -3   1   24.68    1.11
   9  -3   1    9.62    0.69
  10  -3   1    0.25    0.28
  11  -3   1    0.18    0.38
  12  -3   1   25.04    1.18
 -13   3  -1    0.01    0.33
  13  -3   1    0.00    0.37
 -14   3  -1    0.29    0.36
  14  -3   1    1.10    0.46
 -15   3  -1   12.06    0.92
  15  -3   1   12.98    1.02
  16  -3   1    0.04    0.43
  15   2  -1    0.51    0.55
  14   2  -1    0.00    0.46
  13   2  -1    1.90    0.56
  12   2  -1   17.94    1.07
  11   2  -1    4.40    0.49
  11   2  -1    2.94    0.54
 -11  -2   1    3.67    0.27
  10   2  -1   19.02    1.12
  10   2  -1   19.44    0.98
 -10  -2   1   19.28    0.76
   9   2  -1    1.30    0.35
   9   2  -1    1.52    0.47
  -9  -2   1    1.67    0.23
   8   2  -1    0.07    0.25
   8   2  -1    0.05    0.31
  -8  -2   1    0.08    0.15
   7   2  -1    2.80    0.51
   7   2  -1    2.89    0.45
  -7  -2   1    2.87    0.31
   6   2  -1    9.37    0.74
   6   2  -1    9.02    0.80
  -6  -2   1    8.98    0.60
   5   2  -1   22.61    1.72
   5   2  -1   21.73    1.58
  -5  -2   1   22.40    1.50
   4   2  -1    2.34    0.26
   4   2  -1    2.76    0.26
   4   2  -1    2.41    0.18
  -4  -2   1    2.43    0.17
   3   2  -1   36.76    1.84
   3   2  -1   36.24    1.71
   3   2  -1   36.58    1.70
   2   2  -1    2.39    0.49
   2   2  -1    2.61    0.52
   2   2  -1    2.51    0.43
  -2  -2   1    2.77    0.47
   1   2  -1   88.52    0.46
   1   2  -1   88.68    0.49
  -1  -2   1   89.62    0.48
  -1  -2   1   88.36    0.45
   0   2  -1  341.54    6.26
   0   2  -1  342.87    5.89
   0  -2   1  356.08    5.90
   0  -2   1  357.11    6.26
  -1   2  -1  105.51    0.44
  -1   2  -1  106.70    0.46
   1  -2   1  104.78    0.45
   1  -2   1  105.48    0.44
  -2   2  -1    3.46    0.20
  -2   2  -1    3.53    0.20
  -3   2  -1   57.96    4.03
   3  -2   1   60.31    4.03
   4  -2   1    2.28    0.13
   5  -2   1   33.26    1.38
   6  -2   1   17.46    0.95
   7  -2   1   59.81    1.85
   8  -2   1  135.83    3.83
   9  -2   1    0.27    0.28
  10  -2   1    2.69    0.48
  11  -2   1    1.19    0.41
 -12   2  -1    6.81    0.61
  12  -2   1    5.73    0.70
 -13   2  -1    0.68    0.36
  13  -2   1    0.51    0.42
 -14   2  -1    0.79    0.36
  14  -2   1    1.40    0.46
  15  -2   1    0.60    0.53
  16  -2   1    1.84    0.56
  16   1  -1    4.45    0.79
  15   1  -1    1.16    0.57
  14   1  -1    4.02    0.70
  13   1  -1    1.56    0.48
  12   1  -1    1.47    0.42
 -12  -1   1    1.14    0.26
  11   1  -1    1.94    0.51
 -11  -1   1    1.85    0.29
  10   1  -1   10.70    0.83
 -10  -1   1    9.33    0.56
   9   1  -1    1.82    0.30
   9   1  -1    1.76    0.25
  -9  -1   1    0.76    0.19
   8   1  -1    4.57    0.48
   8   1  -1    4.56    0.59
  -8  -1   1    4.83    0.44
   7   1  -1   60.05    2.43
   7   1  -1   61.90    2.23
  -7  -1   1   59.50    2.20
   6   1  -1    1.86    0.18
   6   1  -1    2.20    0.21
  -6  -1   1    1.79    0.14
   5   1  -1   30.00    1.57
   5   1  -1   28.77    1.42
  -5  -1   1   30.18    1.41
   4   1  -1    0.53    0.56
   4   1  -1    0.71    0.64
  -4  -1   1    0.52    0.53
   3   1  -1   16.41    0.17
   3   1  -1   17.90    0.23
   3   1  -1   18.02    0.21
  -3  -1   1   17.39    0.20
  -3  -1   1   16.53    0.17
   2   1  -1  112.42    4.01
   2   1  -1  108.88    3.74
   2   1  -1  110.62    3.87
  -2  -1   1  116.41    3.74
  -2  -1   1  109.24    3.87
  -2  -1   1  115.40    4.01
   1   1  -1    9.96    0.06
   1   1  -1   10.55    0.08
   1   1  -1   10.73    0.07
  -1  -1   1   10.66    0.06
  -1  -1   1   10.80    0.09
   0   1  -1 1515.07   19.34
   0   1  -1 1501.71   20.54
   0  -1   1 1515.66   19.31
   0  -1   1 1461.33   20.51
  -1   1  -1    9.26    0.06
   1  -1   1    9.22    0.06
  -2   1  -1   49.28    4.63
   2  -1   1   49.24    4.63
   3  -1   1  181.44    3.86
   4  -1   1   22.42    0.39
   5  -1   1   18.34    1.05
   6  -1   1    9.23    0.46
   7  -1   1    3.04    0.32
   8  -1   1   69.23    2.67
   9  -1   1    0.07    0.32
  10  -1   1    4.75    0.48
 -11   1  -1    0.05    0.27
  11  -1   1    0.31    0.41
 -12   1  -1   17.34    0.93
  12  -1   1   17.32    1.10
 -13   1  -1    0.99    0.33
  13  -1   1    0.56    0.45
  14  -1   1    0.04    0.41
  15  -1   1    0.93    0.50
  16  -1   1    5.41    0.78
  16   0  -1    0.44    0.51
  15   0  -1    3.50    0.73
  14   0  -1   11.61    1.04
  13   0  -1    0.16    0.39
 -13   0   1    0.07    0.27
  12   0  -1    1.00    0.46
 -12   0   1    1.47    0.34
  11   0  -1    4.46    0.59
 -11   0   1    5.51    0.45
  10   0  -1   17.05    0.89
 -10   0   1   15.93    0.72
   9   0  -1   14.94    0.75
  -9   0   1   14.81    0.61
   8   0  -1    1.67    0.26
  -8   0   1    1.42    0.19
   7   0  -1   30.30    1.58
  -7   0   1   29.52    1.42
   6   0  -1   15.38    0.40
   6   0  -1   16.13    0.49
  -6   0   1   16.23    0.41
   5   0  -1   12.46    0.40
   5   0  -1   11.85    0.34
  -5   0   1   12.16    0.35
   4   0  -1  332.86    5.47
   4   0  -1  350.70    5.89
  -4   0   1  343.36    5.69
   3   0  -1    0.50    0.22
  -3   0   1    0.50    0.18
  -3   0   1    0.50    0.18
   2   0  -1  232.12    4.98
   2   0  -1  227.20    4.85
  -2   0   1  234.72    4.98
  -2   0   1  230.81    4.64
  -2   0   1  229.27    4.85
   1   0  -1  156.99    0.67
   1   0  -1  153.03    0.65
  -1   0   1  152.44    0.65
  -1   0   1  157.28    0.67
   0   0  -1 1221.76   11.58
   0   0  -1 1213.21   12.40
   0   0  -1 1188.06   12.11
   0   0   1 1228.34   12.38
   0   0   1 1165.87   12.08
  -1   0  -1   99.77    3.33
  -1   0  -1   96.58    3.34
  -1   0  -1  100.46    3.13
   1   0   1   96.94    3.13
   1   0   1   95.12    3.33
  -2   0  -1  528.35   12.31
  -2   0  -1  535.49   11.55
   2   0   1  524.73   11.55
   2   0   1  525.54   12.31
   3   0   1  252.38   14.42
   3   0   1  252.50   13.53
   4   0   1    0.39    0.15
   4   0   1    0.39    0.15
   5   0   1    0.55    0.15
   5   0   1    0.61    0.16
   6   0   1   16.83    0.90
   7   0   1  100.95    3.69
   8   0   1   26.12    1.17
   9   0   1   26.79    1.26
 -10   0  -1    5.30    0.38
  10   0   1    4.96    0.54
 -11   0  -1    7.29    0.54
  11   0   1    7.05    0.70
 -12   0  -1   27.78    1.10
  12   0   1   26.98    1.39
  13   0   1    6.41    0.73
  14   0   1    0.55    0.46
  15   0   1    0.55    0.47
  16   0   1    0.18    0.53
  16  -1  -1    0.06    0.45
  15  -1  -1    0.00    0.42
  14  -1  -1   13.04    0.94
 -14   1   1   13.96    0.81
  13  -1  -1    0.04    0.40
 -13   1   1    0.12    0.30
  12  -1  -1    3.21    0.49
 -12   1   1    3.61    0.39
  11  -1  -1    8.85    0.68
 -11   1   1    9.28    0.60
  10  -1  -1   13.13    0.76
 -10   1   1   12.77    0.66
   9  -1  -1   69.72    2.72
  -9   1   1   69.61    2.54
   8  -1  -1   35.24    1.29
  -8   1   1   32.39    1.16
   7  -1  -1    0.08    0.20
  -7   1   1    0.08    0.18
   6  -1  -1  183.48    7.01
  -6   1   1  184.67    6.79
   5  -1  -1    7.63    0.24
  -5   1   1    8.40    0.23
   4  -1  -1  320.35   13.06
  -4   1   1  309.83   12.73
  -4   1   1  331.46   12.22
   3  -1  -1  146.25    1.74
  -3   1   1  146.51    1.74
   2  -1  -1   17.25    1.19
  -2   1   1   18.09    1.19
  -2   1   1   16.85    1.17
   1  -1  -1  609.47    8.63
  -1   1   1  612.64    8.63
  -1   1   1  604.38    8.93
  -1   1   1  575.49    9.20
   0  -1  -1  116.32    0.26
   0  -1  -1  121.20    0.26
   0  -1  -1  119.80    0.27
   0   1   1  120.55    0.26
   0   1   1  119.18    0.26
   0   1   1  121.49    0.26
  -1  -1  -1  206.25    4.87
  -1  -1  -1  208.80    4.72
  -1  -1  -1  210.72    5.02
   1   1   1  207.85    4.72
   1   1   1  204.23    4.87
   1   1   1  209.01    5.02
  -2  -1  -1   26.16    5.03
   2   1   1   27.14    5.23
   2   1   1   27.15    4.92
   3   1   1    0.47    0.53
   3   1   1    0.34    0.51
   4   1   1   30.16    0.72
   4   1   1   30.35    0.69
   5   1   1   45.38    1.51
   5   1   1   45.95    1.41
   6   1   1   11.95    0.54
   6   1   1   12.64    0.51
   7   1   1    0.66    0.28
   7   1   1    0.58    0.29
  -8  -1  -1   18.95    0.76
   8   1   1   18.33    1.00
   8   1   1   19.30    0.91
  -9  -1  -1   59.12    2.19
   9   1   1   58.51    2.33
   9   1   1   57.15    2.50
 -10  -1  -1    6.06    0.45
  10   1   1    5.94    0.66
 -11  -1  -1    8.51    0.48
  11   1   1    7.47    0.70
  12   1   1    9.73    0.89
  13   1   1    3.86    0.59
  14   1   1    0.00    0.43
  15   1   1    0.82    0.53
  16  -2  -1    0.76    0.48
  15  -2  -1    1.24    0.53
  14  -2  -1    0.03    0.37
 -14   2   1    0.30    0.34
  13  -2  -1    0.29    0.38
 -13   2   1    0.01    0.29
  12  -2  -1    2.91    0.55
 -12   2   1    3.00    0.47
  11  -2  -1    3.06    0.53
 -11   2   1    3.53    0.44
  10  -2  -1  202.97    7.12
 -10   2   1  201.51    6.84
   9  -2  -1    0.33    0.26
  -9   2   1    0.41    0.26
   8  -2  -1   25.19    1.33
  -8   2   1   26.10    1.27
   7  -2  -1    0.41    0.19
   6  -2  -1   65.26    2.91
   5  -2  -1   82.31    3.17
   4  -2  -1   14.45    1.86
   3  -2  -1    0.88    0.17
  -3   2   1    1.12    0.18
  -3   2   1    1.52    0.20
   2  -2  -1   41.50    1.46
   2  -2  -1   38.27    1.52
  -2   2   1   41.79    1.46
  -2   2   1   42.47    1.53
   1  -2  -1    0.03    0.64
   1  -2  -1    0.04    0.63
  -1   2   1    0.12    0.62
  -1   2   1    0.07    0.63
   0  -2  -1  389.36   15.21
   0  -2  -1  406.75   16.23
   0   2   1  382.52   15.22
  -1  -2  -1   54.02    3.26
   1   2   1   52.35    3.09
   1   2   1   52.13    3.26
   1   2   1   49.89    3.15
   2   2   1    6.14    1.26
   2   2   1    6.46    1.19
   2   2   1    6.97    1.31
   3   2   1    1.99    0.24
   3   2   1    1.29    0.19
   4   2   1   53.38    2.51
   4   2   1   57.13    2.38
   5   2   1   75.64    2.90
   5   2   1   74.65    3.08
  -6  -2  -1   10.20    0.46
   6   2   1    9.49    0.65
   6   2   1   10.95    0.71
  -7  -2  -1   21.50    0.78
   7   2   1   22.15    1.06
   7   2   1   22.00    0.99
  -8  -2  -1    3.11    0.23
   8   2   1    2.74    0.42
   8   2   1    3.44    0.41
  -9  -2  -1    4.07    0.27
   9   2   1    5.39    0.52
   9   2   1    4.58    0.53
 -10  -2  -1    0.17    0.14
  10   2   1    0.33    0.33
  10   2   1    0.03    0.35
  11   2   1    0.16    0.43
  12   2   1    0.63    0.43
  13   2   1    0.23    0.44
  14   2   1    2.47    0.65
  15   2   1    0.02    0.53
  16  -3  -1    4.51    0.73
  15  -3  -1    3.77    0.61
 -15   3   1    4.34    0.57
  14  -3  -1    4.24    0.63
 -14   3   1    4.63    0.54
  13  -3  -1    8.99    0.78
 -13   3   1    9.60    0.77
  12  -3  -1    5.03    0.68
 -12   3   1    5.04    0.63
  11  -3  -1   13.56    1.01
 -11   3   1   15.36    0.99
  10  -3  -1  136.38    4.97
 -10   3   1  137.14    4.80
   9  -3  -1   27.26    1.38
   8  -3  -1    0.06    0.22
   7  -3  -1   14.29    0.85
   6  -3  -1    0.89    0.28
   5  -3  -1   50.84    1.40
   4  -3  -1    0.32    0.02
  -4   3   1    0.32    0.12
  -4   3   1    0.11    0.12
   3  -3  -1    0.75    0.41
   3  -3  -1    0.91    0.43
  -3   3   1    0.80    0.42
  -3   3   1    0.62    0.45
   2  -3  -1   36.37    3.21
   2  -3  -1   38.50    3.09
  -2   3   1   36.92    3.07
  -2   3   1   36.40    3.22
   1  -3  -1  134.20    7.82
  -1   3   1  134.20    7.81
  -1   3   1  131.34    7.38
   0  -3  -1   61.32    2.95
   0  -3  -1   69.99    2.96
   0   3   1   63.90    2.81
  -1  -3  -1   49.94    4.65
   1   3   1   49.77    4.51
   1   3   1   45.90    4.40
   1   3   1   48.53    4.65
   2   3   1    6.07    0.17
   2   3   1    5.97    0.26
   2   3   1    6.39    0.23
   3   3   1    0.23    0.20
   3   3   1    0.23    0.18
   4   3   1   29.09    0.85
   4   3   1   28.87    0.87
   5   3   1    9.92    0.69
   5   3   1   10.91    0.72
   6   3   1   72.08    2.71
   6   3   1   72.20    2.56
   7   3   1    2.45    0.36
   7   3   1    2.51    0.37
   8   3   1    1.18    0.32
   8   3   1    0.62    0.33
   9   3   1   10.30    0.72
   9   3   1   10.57    0.67
  10   3   1   17.93    1.04
  10   3   1   18.53    1.08
  11   3   1    4.15    0.62
  11   3   1    3.42    0.52
  12   3   1    2.65    0.58
  12   3   1    2.33    0.50
  13   3   1    0.01    0.44
  14   3   1    3.43    0.73
  17  -4  -1    1.60    0.57
  16  -4  -1    2.73    0.61
 -16   4   1    3.34    0.61
  15  -4  -1    7.77    0.84
 -15   4   1    8.17    0.77
  14  -4  -1    3.70    0.55
 -14   4   1    2.73    0.50
  13  -4  -1    9.74    0.80
 -13   4   1    9.57    0.74
  12  -4  -1    2.12    0.42
 -12   4   1    1.46    0.42
  11  -4  -1    1.48    0.35
 -11   4   1    0.31    0.34
  10  -4  -1    6.52    0.51
   9  -4  -1    0.09    0.21
   8  -4  -1    0.57    0.23
   7  -4  -1   21.15    0.91
   6  -4  -1   56.21    2.83
  -6   4   1   55.65    2.65
   5  -4  -1   27.72    0.91
  -5   4   1   32.00    0.89
   4  -4  -1   16.37    0.75
  -4   4   1   15.73    0.76
  -4   4   1   16.10    0.75
   3  -4  -1    4.07    0.28
  -3   4   1    3.73    0.29
  -3   4   1    4.23    0.36
   2  -4  -1    7.61    1.05
  -2   4   1    6.95    1.05
  -2   4   1    8.05    1.10
   1  -4  -1   46.56    0.92
   1  -4  -1   47.22    0.92
  -1   4   1   45.17    0.94
   0  -4  -1    0.17    0.11
   0   4   1    0.19    0.10
   0   4   1    0.57    0.17
   1   4   1   21.97    0.68
   1   4   1   20.00    0.70
   2   4   1   55.45    2.09
   2   4   1   56.05    2.17
   2   4   1   54.16    2.04
   3   4   1   30.05    0.74
   3   4   1   30.19    0.89
   3   4   1   31.44    0.90
   4   4   1    0.00    0.22
   4   4   1    0.00    0.19
   5   4   1    0.63    0.22
   5   4   1    0.27    0.23
   6   4   1   36.02    1.46
   6   4   1   33.57    1.50
   7   4   1   39.67    1.54
   7   4   1   42.13    1.48
   8   4   1    0.05    0.31
   8   4   1    0.00    0.32
   9   4   1    5.23    0.58
   9   4   1    5.31    0.59
  10   4   1    0.50    0.38
  10   4   1    0.61    0.48
  11   4   1    1.78    0.46
  11   4   1    2.14    0.52
  12   4   1   14.00    0.93
  12   4   1   13.20    0.98
  13   4   1    1.44    0.48
  13   4   1    1.36    0.56
  14   4   1    0.53    0.52
  17  -5  -1    3.51    0.62
 -17   5   1    3.61    0.63
  16  -5  -1    3.06    0.63
 -16   5   1    2.35    0.57
  15  -5  -1    0.26    0.44
 -15   5   1    0.13    0.44
  14  -5  -1    3.10    0.52
 -14   5   1    3.72    0.57
  13  -5  -1    3.10    0.55
 -13   5   1    3.00    0.56
  12  -5  -1    0.49    0.35
 -12   5   1    0.35    0.40
  11  -5  -1    0.29    0.30
  10  -5  -1    0.61    0.26
   9  -5  -1    2.29    0.42
   8  -5  -1   43.40    2.16
  -8   5   1   42.39    2.01
   6  -5  -1  172.45    5.29
  -6   5   1  172.10    5.00
   5  -5  -1    0.77    0.30
  -5   5   1    0.70    0.36
   4  -5  -1   40.36    1.53
  -4   5   1   38.92    1.54
  -4   5   1   38.78    1.53
   3  -5  -1    7.04    0.27
  -3   5   1    6.73    0.38
  -3   5   1    7.04    0.26
  -2   5   1   45.62    1.11
   1  -5  -1   29.21    0.91
   1  -5  -1   30.38    0.92
  -1   5   1   29.05    0.96
   0  -5  -1   11.41    0.48
   0   5   1   11.13    0.47
   0   5   1   10.65    0.53
   1   5   1    5.13    0.54
   1   5   1    5.29    0.59
   2   5   1  148.62    4.86
   2   5   1  150.06    5.11
   2   5   1  152.30    4.92
   3   5   1   24.56    0.98
   3   5   1   22.57    0.96
   3   5   1   23.66    0.82
   4   5   1    4.76    0.54
   4   5   1    4.06    0.50
   5   5   1    3.66    0.37
   5   5   1    2.68    0.37
   6   5   1    5.06    0.44
   6   5   1    4.65    0.41
   7   5   1   12.08    0.87
   7   5   1   12.82    0.91
   8   5   1   19.14    1.06
   8   5   1   18.64    1.04
   9   5   1    3.39    0.56
   9   5   1    2.75    0.51
  10   5   1    2.41    0.55
  10   5   1    2.96    0.56
  11   5   1    9.35    0.92
  11   5   1    9.82    0.88
  12   5   1   11.94    0.98
  12   5   1   12.74    0.95
  13   5   1    0.26    0.58
  13   5   1    0.56    0.47
  17  -6  -1    0.26    0.42
  16  -6  -1    6.84    0.75
 -16   6   1    7.31    0.78
  15  -6  -1    5.47    0.73
 -15   6   1    5.09    0.74
  14  -6  -1    0.06    0.36
 -14   6   1    0.06    0.39
  13  -6  -1    6.68    0.67
 -13   6   1    7.09    0.74
  12  -6  -1    7.58    0.67
  11  -6  -1   18.40    1.00
 -11   6   1   19.24    0.94
  10  -6  -1   29.48    1.36
 -10   6   1   28.81    1.26
   9  -6  -1    1.31    0.34
  -9   6   1    1.24    0.35
   8  -6  -1    0.05    0.18
  -8   6   1    0.02    0.23
   7  -6  -1   20.90    1.02
  -7   6   1   20.47    1.01
   6  -6  -1  155.37    5.65
  -6   6   1  151.38    5.39
   5  -6  -1    7.32    0.23
  -5   6   1    6.49    0.31
  -5   6   1    7.66    0.23
   4  -6  -1   47.94    1.62
  -4   6   1   46.57    1.66
  -4   6   1   49.13    1.62
  -3   6   1    6.65    0.29
   2  -6  -1   80.01    3.01
  -2   6   1   87.95    2.97
   1  -6  -1   57.48    1.91
   1  -6  -1   53.37    1.91
  -1   6   1   55.32    1.91
   0   6   1    0.01    0.17
   0   6   1    0.02    0.10
   1   6   1   11.74    0.47
   1   6   1   11.19    0.52
   2   6   1    1.08    0.17
   2   6   1    0.50    0.21
   3   6   1    9.40    0.58
   3   6   1    8.30    0.46
   3   6   1    8.45    0.63
   4   6   1   26.61    1.13
   4   6   1   25.02    1.13
   4   6   1   24.70    0.89
   5   6   1   16.49    0.81
   5   6   1   15.15    0.83
   6   6   1   77.34    3.07
   6   6   1   78.81    2.97
   7   6   1    7.72    0.71
   7   6   1    8.49    0.75
   8   6   1    0.07    0.35
   8   6   1    1.44    0.46
   9   6   1    6.08    0.68
   9   6   1    6.54    0.68
  10   6   1    2.49    0.55
  10   6   1    1.86    0.52
  11   6   1    8.90    0.93
  11   6   1    8.06    0.89
  12   6   1    0.98    0.43
  12   6   1    0.78    0.50
  13   6   1    0.94    0.47
  13   6   1    0.82    0.59
  17  -7  -1    0.67    0.49
  16  -7  -1    0.00    0.41
 -16   7   1    0.13    0.45
 -16   7   1    0.04    0.38
  15  -7  -1   24.31    1.29
 -15   7   1   25.61    1.20
 -15   7   1   26.09    1.42
  14  -7  -1    4.80    0.57
 -14   7   1    4.58    0.52
 -14   7   1    4.81    0.65
  13  -7  -1    0.24    0.32
 -13   7   1    0.67    0.45
 -13   7   1    0.18    0.31
  12  -7  -1    7.32    0.66
 -12   7   1    8.11    0.66
  11  -7  -1    5.27    0.49
 -11   7   1    5.44    0.51
 -10   7   1  119.20    3.84
   9  -7  -1    2.47    0.35
  -9   7   1    2.70    0.38
   8  -7  -1   13.53    0.53
  -8   7   1   15.17    0.62
   7  -7  -1    0.86    0.17
  -7   7   1    1.59    0.27
   6  -7  -1    0.61    0.18
  -6   7   1    0.68    0.28
   5  -7  -1  113.63    4.18
  -5   7   1  108.76    4.08
  -5   7   1  116.85    4.18
  -4   7   1   11.47    0.50
  -3   7   1    2.29    0.29
   2  -7  -1   37.65    1.42
   2  -7  -1   36.66    1.42
  -2   7   1   38.29    1.51
   1  -7  -1   91.43    3.11
   1  -7  -1  100.01    3.12
  -1   7   1   94.07    3.07
   0   7   1  107.34    3.31
   0   7   1  110.22    3.39
   1   7   1    0.80    0.24
   1   7   1    0.66    0.15
   2   7   1  117.11    4.23
   2   7   1  117.29    4.09
   3   7   1    7.80    0.57
   3   7   1    8.39    0.41
   3   7   1    7.76    0.50
   4   7   1    3.61    0.34
   4   7   1    3.66    0.19
   4   7   1    3.46    0.40
   5   7   1   28.36    1.24
   5   7   1   28.01    1.21
   6   7   1   22.32    1.16
   6   7   1   22.03    1.17
   7   7   1    8.15    0.70
   7   7   1    6.17    0.65
   8   7   1    1.21    0.43
   8   7   1    1.47    0.47
   9   7   1    3.07    0.57
   9   7   1    2.68    0.53
  10   7   1    2.23    0.58
  10   7   1    1.85    0.59
  11   7   1    0.42    0.40
  11   7   1    0.89    0.48
  12   7   1    0.01    0.42
  12   7   1    0.01    0.41
  16  -8  -1   11.48    0.88
 -16   8   1   11.49    0.86
 -16   8   1   13.12    1.05
  15  -8  -1    8.10    0.81
 -15   8   1   10.19    1.00
 -15   8   1   10.30    0.81
  14  -8  -1   10.66    0.79
 -14   8   1    8.22    0.86
 -14   8   1   11.91    0.80
  13  -8  -1    1.17    0.34
 -13   8   1    1.47    0.38
 -12   8   1    2.38    0.42
  11  -8  -1    9.78    0.55
 -11   8   1   10.23    0.63
  10  -8  -1    7.85    0.58
 -10   8   1    8.86    0.68
   9  -8  -1    6.17    0.42
  -9   8   1    7.00    0.53
   8  -8  -1    4.70    0.34
  -8   8   1    4.54    0.43
   7  -8  -1    0.97    0.12
  -7   8   1    0.55    0.23
  -6   8   1   43.76    1.41
  -6   8   1   44.10    1.51
  -6   8   1   43.76    1.41
  -5   8   1    2.92    0.45
  -4   8   1   22.01    0.70
  -3   8   1    4.53    0.39
   2  -8  -1   34.41    1.05
   2  -8  -1   33.04    1.06
  -2   8   1   34.43    1.20
   1  -8  -1  185.50    6.54
   1  -8  -1  197.53    6.54
  -1   8   1  190.42    6.31
   0   8   1    3.03    0.35
   0   8   1    3.72    0.24
   1   8   1    0.59    0.32
   1   8   1    0.39    0.20
   2   8   1   12.48    0.92
   2   8   1   12.61    0.83
   3   8   1    0.00    0.23
   3   8   1    0.08    0.17
   3   8   1    0.00    0.35
   4   8   1    0.26    0.30
   4   8   1    0.16    0.16
   4   8   1    0.32    0.36
   5   8   1    1.14    0.45
   5   8   1    0.89    0.49
   6   8   1    5.63    0.61
   6   8   1    4.34    0.61
   7   8   1    0.07    0.41
   7   8   1    1.32    0.41
   8   8   1    1.77    0.47
   8   8   1    2.15    0.46
   9   8   1    0.13    0.47
   9   8   1    0.72    0.47
  10   8   1    1.56    0.62
  10   8   1    1.02    0.53
  11   8   1    1.55    0.57
  11   8   1    0.12    0.40
  16  -9  -1   10.72    0.88
 -16   9   1   11.39    1.04
 -16   9   1    9.91    0.86
  15  -9  -1    1.80    0.47
 -15   9   1    1.98    0.63
 -15   9   1    1.49    0.49
 -14   9   1    6.19    0.68
 -14   9   1    6.37    0.79
  13  -9  -1    1.16    0.33
 -13   9   1    1.13    0.38
  12  -9  -1    0.67    0.28
 -12   9   1    0.50    0.32
  11  -9  -1    9.99    0.65
 -11   9   1   10.32    0.77
  10  -9  -1    6.83    0.52
 -10   9   1    7.38    0.62
   9  -9  -1    6.31    0.36
  -9   9   1    6.49    0.52
   8  -9  -1    9.81    0.46
  -8   9   1   10.42    0.63
  -7   9   1    6.47    0.49
  -7   9   1    6.90    0.30
  -7   9   1    6.91    0.30
  -6   9   1   43.57    1.82
  -5   9   1   30.69    1.12
  -4   9   1    4.12    0.42
  -3   9   1    4.28    0.40
   2  -9  -1    1.82    0.19
   2  -9  -1    2.52    0.18
  -2   9   1    2.20    0.39
   1  -9  -1   28.25    0.96
  -1   9   1   28.55    1.11
   0  -9  -1    2.98    0.25
   0   9   1    2.25    0.37
   1   9   1    1.26    0.20
   1   9   1    0.48    0.32
   2   9   1   39.98    1.63
   2   9   1   39.07    1.53
   3   9   1   14.82    1.02
   3   9   1   15.17    0.82
   3   9   1   15.21    0.91
   4   9   1    0.23    0.17
   4   9   1    0.05    0.33
   4   9   1    0.05    0.28
   5   9   1    1.44    0.48
   5   9   1    1.97    0.40
   6   9   1    0.54    0.46
   6   9   1    0.67    0.40
   7   9   1    4.84    0.60
   7   9   1    3.82    0.64
   8   9   1    3.77    0.52
   8   9   1    3.97    0.61
   9   9   1    0.44    0.48
   9   9   1    0.35    0.50
  10   9   1    1.79    0.63
  10   9   1    1.34    0.59
  11   9   1    1.91    0.68
  11   9   1    1.23    0.62
 -16  10   1    3.52    0.56
 -16  10   1    3.53    0.64
  15 -10  -1    1.78    0.44
 -15  10   1    2.57    0.55
 -15  10   1    1.32    0.57
  14 -10  -1    0.09    0.31
 -14  10   1    0.12    0.40
  13 -10  -1    4.20    0.49
 -13  10   1    3.93    0.59
  12 -10  -1    0.00    0.25
 -12  10   1    0.20    0.32
  11 -10  -1    0.10    0.24
 -11  10   1    0.62    0.39
 -10  10   1    5.36    0.44
 -10  10   1    4.28    0.52
  -9  10   1    1.75    0.44
  -9  10   1    1.99    0.29
  -8  10   1    1.08    0.37
  -8  10   1    0.64    0.16
  -8  10   1    0.34    0.15
  -7  10   1    4.32    0.54
  -6  10   1   31.58    1.29
  -5  10   1    2.89    0.47
  -4  10   1   28.15    1.06
  -3  10   1    5.75    0.45
   2 -10  -1   14.02    0.52
   2 -10  -1   11.76    0.52
  -2  10   1   14.96    0.80
   1 -10  -1    4.23    0.28
  -1  10   1    4.06    0.48
   0 -10  -1   15.62    0.62
   0  10   1   17.15    0.84
   1  10   1   22.33    1.10
   1  10   1   22.59    0.93
   2  10   1   22.70    1.28
   2  10   1   25.39    1.28
   2  10   1   23.95    1.43
   3  10   1    7.85    0.71
   3  10   1    7.81    0.56
   3  10   1    8.36    0.53
   4  10   1    0.11    0.42
   4  10   1    0.41    0.21
   4  10   1    0.09    0.31
   5  10   1    0.24    0.33
   5  10   1    0.01    0.44
   6  10   1    7.40    0.80
   6  10   1    7.12    0.67
   7  10   1    4.56    0.63
   7  10   1    2.94    0.61
   8  10   1    2.36    0.56
   8  10   1    1.88    0.57
   9  10   1    0.49    0.48
   9  10   1    0.13    0.43
  10  10   1    3.76    0.72
  10  10   1    3.99    0.71
 -15  11   1    2.95    0.54
 -15  11   1    3.56    0.66
 -14  11   1    1.42    0.48
 -13  11   1    0.80    0.43
 -12  11   1    7.40    0.56
 -12  11   1    7.21    0.67
 -11  11   1    0.02    0.31
 -11  11   1    0.02    0.24
 -10  11   1    5.62    0.53
 -10  11   1    5.60    0.38
  -9  11   1    4.60    0.34
  -9  11   1    4.44    0.60
  -8  11   1    5.17    0.54
  -7  11   1    4.93    0.48
  -6  11   1    6.16    0.59
  -5  11   1    4.80    0.42
  -4  11   1   85.34    2.95
  -3  11   1    1.75    0.36
   2 -11  -1    0.34    0.10
  -2  11   1    0.04    0.36
   1 -11  -1    0.66    0.18
  -1  11   1    0.58    0.37
   0 -11  -1    0.38    0.23
   0  11   1    0.75    0.44
  -1 -11  -1   13.49    0.71
   1  11   1   12.31    0.88
   2  11   1    5.00    0.51
   2  11   1    4.14    0.68
   2  11   1    4.77    0.50
   3  11   1    6.44    0.76
   3  11   1    6.81    0.59
   3  11   1    7.06    0.62
   4  11   1    0.01    0.39
   4  11   1    0.01    0.27
   5  11   1    7.34    0.82
   5  11   1    8.08    0.71
   6  11   1   13.77    0.93
   6  11   1   12.79    1.03
   7  11   1    7.63    0.75
   7  11   1    7.04    0.83
   8  11   1    0.37    0.50
   8  11   1    0.27    0.46
   9  11   1    0.38    0.51
   9  11   1    0.95    0.55
 -15  12   1    0.60    0.41
 -15  12   1    0.01    0.50
 -14  12   1    0.18    0.44
 -13  12   1    1.36    0.43
 -12  12   1   18.90    1.05
 -11  12   1   13.52    0.90
 -10  12   1   41.21    1.71
  -9  12   1    0.07    0.35
  -8  12   1   39.48    1.63
  -7  12   1    1.57    0.40
  -6  12   1    0.35    0.38
  -5  12   1    0.10    0.33
  -4  12   1    1.27    0.41
  -3  12   1    1.33    0.47
  -2  12   1   11.71    0.88
   1 -12  -1   15.35    0.64
  -1  12   1   17.31    0.95
   0 -12  -1   14.24    0.69
   0  12   1   15.21    1.03
  -1 -12  -1    4.40    0.49
   1  12   1    4.39    0.74
  -2 -12  -1    8.20    0.62
   2  12   1   11.16    0.93
   2  12   1   11.50    0.73
   3  12   1    7.42    0.76
   3  12   1    8.25    0.61
   3  12   1    8.98    0.60
   4  12   1    1.47    0.40
   4  12   1    1.96    0.56
   5  12   1   10.64    0.80
   5  12   1   10.30    1.00
   6  12   1    0.00    0.51
   6  12   1    0.24    0.38
   7  12   1    0.00    0.43
   7  12   1    0.00    0.34
   8  12   1    0.01    0.54
   8  12   1    0.01    0.42
 -14  13   1    1.98    0.52
 -13  13   1    0.00    0.36
 -12  13   1    8.57    0.69
 -11  13   1   15.58    0.92
 -10  13   1    4.29    0.55
  -9  13   1    0.12    0.33
  -8  13   1    0.01    0.32
  -7  13   1    0.15    0.33
  -6  13   1   30.36    1.46
  -5  13   1    0.27    0.37
  -4  13   1    7.76    0.81
  -3  13   1    3.95    0.63
  -2  13   1    1.36    0.47
  -1  13   1    6.47    0.72
   0  13   1    1.24    0.49
  -1 -13  -1    9.38    0.63
   1  13   1   11.53    0.95
   1  13   1   11.26    0.81
  -2 -13  -1    0.02    0.27
   2  13   1    0.13    0.47
   2  13   1    0.22    0.32
  -3 -13  -1    1.33    0.36
   3  13   1    0.99    0.58
  -4 -13  -1    0.15    0.33
   4  13   1    0.05    0.46
  -5 -13  -1    2.11    0.49
   5  13   1    1.68    0.47
   5  13   1    1.55    0.61
  -6 -13  -1    1.01    0.41
   6  13   1    0.00    0.38
   6  13   1    0.45    0.55
  -7 -13  -1    2.06    0.55
   7  13   1    3.10    0.62
 -14  14   1    0.88    0.47
 -13  14   1    0.15    0.44
 -12  14   1    2.48    0.52
 -11  14   1    0.34    0.44
 -10  14   1    3.73    0.54
  -9  14   1    0.21    0.40
  -8  14   1    1.98    0.43
  -7  14   1   10.12    0.77
  -6  14   1    5.34    0.59
  -5  14   1    6.06    0.63
  -4  14   1    3.06    0.52
  -3  14   1    1.89    0.49
  -2  14   1    5.02    0.67
  -1  14   1    1.57    0.59
   0  14   1    1.27    0.49
   0  14   1    1.17    0.30
   1  14   1    1.19    0.56
   1  14   1    1.46    0.41
   2  14   1    0.67    0.52
   3  14   1    1.09    0.60
   4  14   1    1.72    0.58
  -5 -14  -1    0.57    0.21
   5  14   1    1.16    0.59
 -13  15   1    0.96    0.48
 -12  15   1    4.79    0.61
 -11  15   1    0.61    0.45
 -10  15   1    0.51    0.41
  -9  15   1    0.61    0.39
  -8  15   1    1.07    0.43
  -7  15   1    3.54    0.53
  -6  15   1    1.49    0.49
  -5  15   1    0.20    0.42
  -4  15   1    1.80    0.50
  -3  15   1    0.27    0.47
  -2  15   1    0.82    0.55
  -1  15   1    4.46    0.58
  -1  15   1    3.57    0.65
   0  15   1    3.62    0.57
   0  15   1    1.89    0.63
   1  15   1    0.27    0.54
   2  15   1    0.28    0.55
   3  15   1    0.39    0.60
   4  15   1    0.00    0.49
 -11  16   1    0.01    0.38
 -10  16   1    0.61    0.42
  -9  16   1    1.58    0.47
  -8  16   1    4.25    0.59
  -7  16   1    0.15    0.47
  -6  16   1    2.49    0.56
  -5  16   1    4.88    0.67
  -4  16   1    9.82    0.93
  -3  16   1    0.65    0.51
  -2  16   1    1.91    0.61
  -2  16   1    2.30    0.52
  -1  16   1    0.01    0.39
  -1  16   1    0.41    0.52
   0  16   1    1.68    0.63
   0  16   1    2.59    0.51
   1  16   1    0.01    0.53
   2  16   1    0.98    0.63
  -9  17   1    0.88    0.51
  -8  17   1    1.99    0.57
  -7  17   1    0.17    0.51
  -6  17   1    0.09    0.46
  -5  17   1    1.24    0.54
  -4  17   1    0.22    0.52
  -3  17   1    0.73    0.49
  -3  17   1    0.30    0.55
  -2  17   1    0.83    0.57
  -2  17   1    1.99    0.53
  -1  17   1    0.97    0.60
   0  17  -2    0.00    0.52
  -1  17  -2    0.17    0.52
  -2  17  -2    0.02    0.49
  -3  17  -2    1.45    0.55
  -4  17  -2    0.45    0.47
  -5  17  -2    1.29    0.52
  -6  17  -2    3.23    0.59
  -7  17  -2    0.11    0.48
  -8  17  -2    6.87    0.74
  -9  17  -2    5.36    0.72
 -10  17  -2    3.39    0.60
   2  16  -2    0.14    0.55
   1  16  -2    0.47    0.56
   0  16  -2    0.54    0.54
  -1  16  -2    4.37    0.72
  -2  16  -2    8.70    0.86
  -3  16  -2    2.86    0.59
  -4  16  -2   12.02    0.91
  -5  16  -2    1.53    0.52
  -6  16  -2   22.97    1.24
  -7  16  -2    1.93    0.55
  -8  16  -2    8.70    0.81
  -9  16  -2    0.00    0.40
 -10  16  -2    1.01    0.53
 -11  16  -2    0.43    0.44
   4  15  -2    2.55    0.73
   3  15  -2    6.61    1.00
   2  15  -2    8.02    0.92
   1  15  -2    2.78    0.71
   0  15  -2    4.91    0.74
  -1  15  -2    0.95    0.49
  -2  15  -2   19.35    1.12
  -3  15  -2    0.50    0.43
  -4  15  -2    7.25    0.76
  -5  15  -2    2.64    0.49
  -6  15  -2    2.51    0.50
  -7  15  -2   17.21    1.03
  -8  15  -2    0.05    0.35
  -9  15  -2    0.86    0.47
 -10  15  -2    0.35    0.46
 -11  15  -2    2.77    0.52
 -12  15  -2    5.79    0.73
 -13  15  -2    0.15    0.45
   6  14  -2    3.60    0.60
   6  14  -2    4.54    0.82
   5  14  -2    0.01    0.58
   5  14  -2    0.01    0.38
   4  14  -2   13.18    0.92
   4  14  -2   14.92    1.18
   3  14  -2    1.21    0.40
   3  14  -2    0.34    0.57
   2  14  -2   15.67    1.17
   2  14  -2   17.24    0.93
   1  14  -2    1.09    0.57
   1  14  -2    1.53    0.33
   0  14  -2    2.50    0.60
  -1  14  -2    2.54    0.61
  -2  14  -2    0.54    0.40
  -3  14  -2    1.84    0.48
  -4  14  -2    0.39    0.39
  -5  14  -2    0.00    0.33
  -6  14  -2    7.13    0.68
  -7  14  -2    0.74    0.37
  -8  14  -2    3.11    0.47
  -9  14  -2    0.26    0.39
 -10  14  -2    5.02    0.66
 -11  14  -2    3.11    0.57
 -12  14  -2    0.22    0.43
 -13  14  -2    0.00    0.50
   7  13  -2    0.30    0.44
   7  13  -2    0.06    0.59
   6  13  -2    1.99    0.52
   6  13  -2    1.92    0.66
   5  13  -2    2.38    0.63
   5  13  -2    1.94    0.44
   4  13  -2    6.69    0.68
   4  13  -2    6.93    0.89
   3  13  -2    4.22    0.71
   3  13  -2    4.51    0.52
   2  13  -2    6.10    0.55
   2  13  -2    7.90    0.83
   1  13  -2    0.41    0.47
   1  13  -2    0.06    0.23
   0  13  -2    0.14    0.23
   0  13  -2    0.24    0.45
  -1  13  -2    1.96    0.25
  -1  13  -2    1.63    0.48
  -2  13  -2    0.08    0.38
  -3  13  -2    6.30    0.74
  -4  13  -2    2.69    0.45
  -5  13  -2   11.16    0.74
  -6  13  -2   12.38    0.80
  -7  13  -2   10.57    0.74
  -8  13  -2    4.58    0.56
  -9  13  -2   10.51    0.81
 -10  13  -2   11.62    0.90
 -11  13  -2    5.72    0.65
 -12  13  -2    3.46    0.57
 -13  13  -2    0.70    0.45
 -14  13  -2    8.21    0.83
   8  12  -2    0.97    0.58
   8  12  -2    2.49    0.60
   7  12  -2    0.10    0.43
   7  12  -2    0.13    0.52
   6  12  -2    0.66    0.52
   6  12  -2    0.02    0.37
   5  12  -2    0.01    0.45
   5  12  -2    0.18    0.34
   4  12  -2    1.64    0.36
   4  12  -2    0.98    0.50
   3  12  -2    0.02    0.29
   3  12  -2    0.06    0.42
   2  12  -2    0.07    0.45
   2  12  -2    0.12    0.28
   1  12  -2   14.79    1.07
   1  12  -2   14.53    0.85
   0  12  -2    1.88    0.28
   0  12  -2    1.70    0.46
  -1  12  -2    0.05    0.40
  -1  12  -2    0.43    0.20
  -2  12  -2   40.99    1.63
  -2  12  -2   39.55    1.39
  -3  12  -2    2.41    0.41
  -4  12  -2    0.92    0.36
  -5  12  -2    5.59    0.61
  -6  12  -2   10.23    0.73
  -7  12  -2    0.09    0.35
  -8  12  -2   23.35    1.11
  -9  12  -2    3.58    0.55
 -10  12  -2   16.93    0.98
 -11  12  -2    1.16    0.45
 -12  12  -2    0.52    0.42
 -13  12  -2    9.41    0.87
 -14  12  -2    3.87    0.63
 -15  12  -2    0.34    0.49
   9  11  -2    0.46    0.54
   9  11  -2    0.63    0.55
   8  11  -2    3.18    0.68
   8  11  -2    3.05    0.62
   7  11  -2    0.28    0.43
   7  11  -2    0.73    0.50
   6  11  -2    0.58    0.38
   6  11  -2    0.07    0.44
   5  11  -2    2.64    0.65
   5  11  -2    2.94    0.55
   4  11  -2    0.06    0.33
   4  11  -2    0.23    0.45
   3  11  -2    1.31    0.39
   3  11  -2    1.19    0.51
   2  11  -2    0.04    0.42
   2  11  -2    1.03    0.29
   1  11  -2    0.43    0.48
   1  11  -2    0.68    0.25
   0  11  -2   18.72    1.12
   0  11  -2   18.25    0.94
  -1  11  -2    4.78    0.63
  -1  11  -2    4.75    0.43
  -2  11  -2   70.53    2.72
  -2  11  -2   68.07    2.81
  -3  11  -2    6.25    0.58
  -4  11  -2   13.80    0.93
  -5  11  -2    0.07    0.30
  -6  11  -2   18.06    0.91
  -7  11  -2   13.25    0.78
  -7  11  -2   13.74    0.48
  -7  11  -2   12.99    0.48
  -8  11  -2   29.15    1.10
  -8  11  -2   29.14    1.40
  -9  11  -2    2.12    0.24
  -9  11  -2    2.53    0.51
 -10  11  -2    1.49    0.42
 -10  11  -2    1.77    0.27
 -11  11  -2    0.01    0.24
 -11  11  -2    0.14    0.36
 -12  11  -2    6.14    0.70
 -12  11  -2    6.07    0.57
 -13  11  -2    1.94    0.51
 -13  11  -2    2.77    0.44
 -14  11  -2    6.64    0.68
 -14  11  -2    7.04    0.81
 -15  11  -2    0.32    0.46
  10  10  -2    0.10    0.55
  10  10  -2    0.11    0.49
   9  10  -2    0.23    0.50
   9  10  -2    0.32    0.48
   8  10  -2    2.53    0.53
   8  10  -2    3.91    0.66
   7  10  -2    1.59    0.59
   7  10  -2    2.42    0.52
   6  10  -2    0.21    0.41
   6  10  -2    0.35    0.37
   5  10  -2    0.17    0.35
   5  10  -2    0.10    0.48
   4  10  -2   11.16    0.91
   4  10  -2   10.67    0.77
   3  10  -2   13.43    0.80
   3  10  -2   12.84    0.93
   2  10  -2   10.97    0.61
   2  10  -2   11.68    0.77
   1  10  -2    9.58    0.71
   1  10  -2   10.60    0.58
   0  10  -2   53.91    1.94
   0  10  -2   55.55    2.03
  -1  10  -2   21.89    1.08
  -1  10  -2   22.33    0.93
  -2  10  -2   34.60    1.24
  -2  10  -2   35.52    1.06
   2 -10   2   29.98    1.06
  -3  10  -2    2.16    0.41
  -3  10  -2    2.34    0.18
   3 -10   2    2.20    0.19
  -4  10  -2   41.04    1.42
  -5  10  -2    0.27    0.29
  -6  10  -2   25.51    1.13
  -6  10  -2   24.17    0.89
  -6  10  -2   25.58    0.89
  -7  10  -2   20.74    0.90
  -7  10  -2   20.48    1.14
  -8  10  -2    2.55    0.24
  -8  10  -2    1.87    0.41
  -9  10  -2   10.14    0.56
  -9  10  -2   10.01    0.75
 -10  10  -2    9.64    0.62
 -10  10  -2    8.82    0.76
 -11  10  -2   28.04    1.13
 -11  10  -2   26.94    1.25
 -12  10  -2   18.75    1.01
 -12  10  -2   20.60    0.97
 -13  10  -2    1.02    0.45
 -13  10  -2    0.89    0.42
 -14  10  -2   16.98    1.03
 -14  10  -2   17.26    1.02
 -15  10  -2    1.00    0.54
 -15  10  -2    1.08    0.52
 -16  10  -2    0.14    0.48
 -16  10  -2    0.07    0.48
  11   9  -2    0.12    0.47
  11   9  -2    0.12    0.42
  10   9  -2    0.25    0.44
  10   9  -2    0.58    0.53
   9   9  -2    8.23    0.83
   9   9  -2    8.70    0.87
   8   9  -2    8.34    0.84
   8   9  -2    8.54    0.82
   7   9  -2    3.43    0.55
   7   9  -2    2.27    0.56
   6   9  -2    8.06    0.73
   6   9  -2    8.18    0.78
   5   9  -2    1.12    0.39
   5   9  -2    0.80    0.50
   4   9  -2   77.62    2.94
   4   9  -2   79.23    2.90
   3   9  -2    0.65    0.43
   3   9  -2    1.07    0.30
   2   9  -2    7.73    0.67
   2   9  -2    6.65    0.55
   1   9  -2    0.33    0.35
   1   9  -2    0.63    0.25
   0   9  -2   16.22    0.79
   0   9  -2   15.45    0.66
  -1   9  -2   85.44    2.66
  -1   9  -2   84.07    2.66
  -2   9  -2   16.59    0.68
  -2   9  -2   17.11    0.51
   2  -9   2   14.90    0.51
  -3   9  -2    1.91    0.16
  -3   9  -2    1.87    0.33
   3  -9   2    1.98    0.17
  -4   9  -2    1.65    0.13
  -4   9  -2    1.77    0.14
  -4   9  -2    1.73    0.33
  -5   9  -2    1.82    0.16
  -5   9  -2    1.78    0.35
  -5   9  -2    1.87    0.16
  -6   9  -2  110.49    3.79
  -6   9  -2  110.40    3.81
  -7   9  -2    4.22    0.58
  -7   9  -2    4.88    0.38
  -8   9  -2   29.62    1.29
  -8   9  -2   29.51    1.14
  -9   9  -2    2.53    0.34
  -9   9  -2    2.91    0.48
 -10   9  -2   13.95    0.72
 -10   9  -2   14.56    0.84
 -11   9  -2    0.24    0.39
 -11   9  -2    0.52    0.34
 -12   9  -2    0.00    0.34
 -12   9  -2    0.48    0.36
 -13   9  -2    3.51    0.57
 -13   9  -2    5.03    0.59
 -14   9  -2    1.57    0.50
 -14   9  -2    1.96    0.48
 -15   9  -2    0.08    0.45
 -15   9  -2    0.03    0.44
 -16   9  -2    0.87    0.59
 -16   9  -2    1.09    0.46
  12   8  -2    0.00    0.50
  12   8  -2    0.51    0.46
  11   8  -2    0.03    0.40
  11   8  -2    0.05    0.53
  10   8  -2    7.71    0.79
  10   8  -2    7.35    0.76
   9   8  -2    7.35    0.83
   9   8  -2    8.36    0.88
   8   8  -2   33.29    1.52
   8   8  -2   35.45    1.59
   7   8  -2    0.15    0.39
   7   8  -2    0.59    0.37
   6   8  -2    0.34    0.44
   6   8  -2    0.47    0.36
   5   8  -2    4.45    0.50
   5   8  -2    4.24    0.57
   4   8  -2   18.55    0.86
   4   8  -2   18.44    0.81
   3   8  -2   23.59    1.24
   3   8  -2   21.75    1.17
   2   8  -2    1.15    0.32
   2   8  -2    1.21    0.25
   1   8  -2    6.21    0.45
   1   8  -2    6.53    0.38
   0   8  -2   37.24    1.58
   0   8  -2   37.99    1.55
  -1   8  -2    5.67    0.33
  -1   8  -2    5.83    0.21
  -2   8  -2   96.55    3.65
  -2   8  -2   98.99    3.70
   2  -8   2   77.86    3.69
  -3   8  -2    3.93    0.15
  -3   8  -2    4.19    0.31
   3  -8   2    4.16    0.16
  -4   8  -2    4.50    0.34
  -4   8  -2    4.22    0.34
  -4   8  -2    4.68    0.53
  -5   8  -2   31.22    1.01
  -5   8  -2   30.83    1.04
  -5   8  -2   30.66    1.17
  -6   8  -2    6.96    0.39
  -6   8  -2    7.09    0.59
  -7   8  -2   12.81    0.66
  -7   8  -2   12.23    0.77
  -8   8  -2   49.98    1.95
  -8   8  -2   50.73    1.97
  -9   8  -2    9.26    0.63
  -9   8  -2    8.68    0.58
 -10   8  -2    1.20    0.35
 -10   8  -2    1.25    0.41
 -11   8  -2    4.30    0.55
 -11   8  -2    3.62    0.53
 -12   8  -2    2.53    0.48
 -12   8  -2    2.28    0.44
 -13   8  -2    6.90    0.72
 -13   8  -2    6.01    0.64
 -14   8  -2    0.00    0.43
 -14   8  -2    0.21    0.43
 -15   8  -2    6.48    0.77
 -16   8  -2    3.55    0.74
  13   7  -2    0.59    0.49
  13   7  -2    0.15    0.55
  12   7  -2    3.48    0.61
  12   7  -2    2.96    0.67
  11   7  -2    2.44    0.62
  11   7  -2    1.76    0.49
  10   7  -2   10.13    0.98
  10   7  -2   10.21    0.94
   9   7  -2    0.00    0.38
   9   7  -2    0.29    0.38
   8   7  -2    5.77    0.66
   8   7  -2    5.76    0.65
   7   7  -2    0.54    0.37
   7   7  -2    1.22    0.39
   6   7  -2    0.90    0.16
   6   7  -2    0.72    0.39
   6   7  -2    0.85    0.37
   5   7  -2    0.16    0.32
   5   7  -2    0.54    0.43
   4   7  -2    0.63    0.28
   4   7  -2    0.27    0.23
   3   7  -2   12.44    0.51
   3   7  -2   12.83    0.55
   2   7  -2    0.29    0.24
   2   7  -2    0.48    0.19
   1   7  -2   33.72    1.39
   1   7  -2   33.35    1.39
   0   7  -2   51.28    2.25
   0   7  -2   51.85    2.29
  -1   7  -2   73.26    2.97
  -1   7  -2   72.51    3.03
   1  -7   2   82.11    3.05
  -2   7  -2    0.05    0.11
  -2   7  -2    0.06    0.21
   2  -7   2    0.05    0.11
  -3   7  -2    3.18    0.25
  -3   7  -2    2.90    0.13
   3  -7   2    2.71    0.12
  -4   7  -2   11.12    0.59
  -4   7  -2   11.16    0.75
  -4   7  -2   10.95    0.62
  -5   7  -2   16.85    0.83
  -5   7  -2   16.76    0.95
  -6   7  -2    3.20    0.32
  -6   7  -2    3.28    0.41
  -7   7  -2    2.59    0.31
  -7   7  -2    2.18    0.22
  -8   7  -2  107.01    4.06
  -8   7  -2  107.55    4.24
  -9   7  -2    2.16    0.38
  -9   7  -2    2.79    0.39
 -10   7  -2    0.00    0.30
 -11   7  -2    0.78    0.37
 -12   7  -2   19.25    1.09
 -13   7  -2   17.98    1.09
 -14   7  -2    3.39    0.59
 -15   7  -2    0.04    0.46
 -16   7  -2    0.00    0.54
  13   6  -2    0.34    0.59
  13   6  -2    0.84    0.46
  12   6  -2    0.29    0.37
  12   6  -2    0.00    0.52
  11   6  -2    0.01    0.46
  11   6  -2    0.01    0.39
  10   6  -2    3.89    0.63
  10   6  -2    5.95    0.65
   9   6  -2    0.29    0.37
   9   6  -2    0.76    0.46
   8   6  -2    0.01    0.35
   8   6  -2    0.01    0.33
   7   6  -2   22.10    1.00
   7   6  -2   22.77    1.01
   6   6  -2    0.05    0.32
   6   6  -2    0.20    0.29
   6   6  -2    0.00    0.11
   5   6  -2    4.85    0.33
   5   6  -2    5.88    0.47
   5   6  -2    5.89    0.49
   4   6  -2   30.71    1.57
   4   6  -2   30.02    1.62
   3   6  -2   10.49    0.52
   3   6  -2   10.06    0.52
   2   6  -2    3.14    0.56
   2   6  -2    3.42    0.60
   1   6  -2    1.93    0.20
   1   6  -2    0.55    0.14
   0   6  -2   53.27    1.60
   0   6  -2   54.92    1.61
  -1   6  -2   48.55    0.91
  -1   6  -2   45.55    0.94
   1  -6   2   52.58    0.93
  -2   6  -2   34.24    0.85
  -2   6  -2   34.07    0.92
   2  -6   2   34.32    0.84
  -3   6  -2   27.53    1.32
  -3   6  -2   26.95    1.23
   3  -6   2   25.93    1.25
  -4   6  -2  183.92    6.20
  -4   6  -2  179.63    6.45
  -4   6  -2  173.27    6.47
  -5   6  -2   40.93    0.86
  -5   6  -2   40.42    0.80
  -6   6  -2   20.76    1.01
  -6   6  -2   21.25    1.03
  -7   6  -2    3.26    0.40
  -7   6  -2    3.32    0.38
  -8   6  -2   27.91    1.00
  -9   6  -2    0.36    0.37
 -10   6  -2    0.54    0.39
  10  -6   2    0.27    0.28
 -11   6  -2    7.75    0.68
  11  -6   2    7.63    0.58
  12  -6   2    8.68    0.68
 -13   6  -2    1.09    0.52
  13  -6   2    1.57    0.39
 -14   6  -2   19.97    1.21
  14  -6   2   18.52    1.08
 -15   6  -2    0.54    0.59
 -16   6  -2    2.60    0.62
  14   5  -2    4.29    0.76
  14   5  -2    5.96    0.69
  13   5  -2    1.53    0.50
  13   5  -2    1.24    0.57
  12   5  -2    0.01    0.43
  12   5  -2    0.61    0.38
  11   5  -2    4.16    0.59
  11   5  -2    3.15    0.61
  10   5  -2    0.28    0.38
  10   5  -2    0.01    0.39
   9   5  -2    6.21    0.68
   9   5  -2    5.80    0.60
   8   5  -2    0.31    0.31
   8   5  -2    0.00    0.34
   7   5  -2    1.69    0.45
   7   5  -2    1.68    0.42
   6   5  -2    6.48    0.37
   6   5  -2    5.90    0.57
   6   5  -2    5.97    0.60
   5   5  -2    2.86    0.33
   5   5  -2    3.40    0.37
   5   5  -2    2.52    0.21
   4   5  -2   92.85    2.78
   4   5  -2   93.66    2.74
   4   5  -2   96.05    2.95
   3   5  -2    2.16    0.32
   3   5  -2    2.18    0.33
   2   5  -2   43.16    1.07
   2   5  -2   43.21    1.12
   1   5  -2    3.54    0.18
   1   5  -2    3.39    0.20
   0   5  -2   78.08    3.94
   0   5  -2   82.07    3.77
   0  -5   2   87.49    3.96
  -1   5  -2   36.26    1.12
  -1   5  -2   36.22    1.10
   1  -5   2   38.36    1.11
  -2   5  -2   69.57    2.48
  -2   5  -2   68.73    2.45
   2  -5   2   70.93    2.49
  -3   5  -2    3.04    0.47
  -3   5  -2    3.13    0.57
   3  -5   2    3.16    0.50
  -4   5  -2    0.94    0.21
  -4   5  -2    1.70    0.30
  -5   5  -2   20.52    1.12
  -5   5  -2   22.01    1.14
  -6   5  -2   37.88    1.40
  -7   5  -2   36.52    1.50
   8  -5   2   48.05    1.59
   9  -5   2   12.68    0.54
  10  -5   2    0.02    0.29
  11  -5   2   24.93    1.18
  12  -5   2   36.69    1.62
  13  -5   2    9.15    0.76
  14  -5   2    0.37    0.39
  15  -5   2    0.04    0.41
 -16   5  -2    0.42    0.44
 -16   5  -2    0.04    0.58
  16  -5   2    0.04    0.43
  14   4  -2    6.55    0.85
  13   4  -2    1.01    0.43
  13   4  -2    0.92    0.52
  12   4  -2    0.64    0.35
  12   4  -2    0.14    0.45
  11   4  -2    0.17    0.37
  11   4  -2    0.93    0.36
  10   4  -2    1.16    0.40
  10   4  -2    0.88    0.45
   9   4  -2   29.55    1.32
   9   4  -2   28.10    1.43
   8   4  -2   22.53    1.19
   8   4  -2   24.40    1.10
   7   4  -2    0.48    0.35
   7   4  -2    0.52    0.31
   6   4  -2    5.09    0.39
   6   4  -2    5.27    0.55
   6   4  -2    6.23    0.62
   5   4  -2    5.16    0.31
   5   4  -2    6.06    0.21
   5   4  -2    5.06    0.33
   4   4  -2  188.04    6.60
   4   4  -2  186.41    6.47
   4   4  -2  188.60    6.90
   3   4  -2    9.93    0.65
   3   4  -2    9.38    0.55
   3   4  -2    9.81    0.61
   2   4  -2   19.99    0.88
   2   4  -2   18.94    0.83
   1   4  -2    0.29    0.25
   1   4  -2    0.10    0.29
   0   4  -2    0.03    0.17
   0   4  -2    0.05    0.20
   0  -4   2    0.06    0.21
  -1   4  -2   44.60    2.03
  -1   4  -2   45.33    1.98
   1  -4   2   43.44    2.02
  -2   4  -2    0.58    0.51
  -2   4  -2    0.53    0.43
   2  -4   2    0.49    0.45
  -3   4  -2   24.13    0.39
  -3   4  -2   23.90    0.34
   3  -4   2   24.26    0.37
  -4   4  -2   44.26    1.96
  -5   4  -2   79.05    2.32
  -6   4  -2   58.78    2.55
   7  -4   2   11.25    0.72
   8  -4   2  139.68    5.76
   9  -4   2   26.58    1.21
  10  -4   2    4.38    0.49
  11  -4   2    4.18    0.51
  12  -4   2    8.90    0.82
  13  -4   2    9.57    0.80
  14  -4   2    1.51    0.48
 -15   4  -2    7.90    0.73
  15  -4   2    6.69    0.75
  16  -4   2    0.01    0.46
  15   3  -2    0.37    0.55
  14   3  -2    0.36    0.50
  13   3  -2    9.35    0.88
  12   3  -2    3.27    0.49
  12   3  -2    3.32    0.62
  11   3  -2    1.13    0.38
  11   3  -2    0.66    0.43
  10   3  -2   30.61    1.55
  10   3  -2   31.56    1.41
 -10  -3   2   32.88    1.16
   9   3  -2    0.19    0.34
   9   3  -2    0.75    0.31
  -9  -3   2    1.05    0.17
   8   3  -2   46.29    1.73
   8   3  -2   45.05    1.88
  -8  -3   2   46.07    1.56
   7   3  -2    8.14    0.43
   7   3  -2    7.46    0.48
  -7  -3   2    8.40    0.28
   6   3  -2   41.06    1.77
   6   3  -2   38.78    1.53
   6   3  -2   39.97    1.62
   5   3  -2   85.29    3.35
   5   3  -2   80.16    3.35
   5   3  -2   81.66    3.59
   4   3  -2    0.20    0.11
   4   3  -2    0.73    0.16
   4   3  -2    0.20    0.16
   3   3  -2  144.80    6.42
   3   3  -2  148.12    6.87
   3   3  -2  147.96    6.62
   2   3  -2   81.63    1.19
   2   3  -2   79.80    1.10
   1   3  -2  102.83    6.56
   1   3  -2  100.12    7.00
   0   3  -2  427.92   16.23
   0   3  -2  443.58   15.26
   0  -3   2  470.91   16.30
  -1   3  -2  125.74    6.74
  -1   3  -2  125.52    6.38
   1  -3   2  129.69    6.75
  -2   3  -2    7.47    0.16
  -2   3  -2    7.66    0.12
   2  -3   2    7.53    0.14
  -3   3  -2    5.46    0.25
   3  -3   2    5.37    0.25
  -4   3  -2    5.43    0.37
  -5   3  -2   68.27    1.92
   5  -3   2   65.31    1.89
   6  -3   2    6.81    0.66
   7  -3   2   16.20    0.71
   8  -3   2   57.73    2.24
   9  -3   2    0.06    0.24
  10  -3   2    6.40    0.68
  11  -3   2    0.21    0.36
  12  -3   2    0.01    0.34
  13  -3   2    0.22    0.38
 -14   3  -2    4.95    0.56
  14  -3   2    5.66    0.70
  15  -3   2    0.18    0.47
  16  -3   2    0.32    0.44
  15   2  -2    1.29    0.54
  14   2  -2   17.03    1.18
  13   2  -2    2.54    0.58
  12   2  -2    2.39    0.57
  11   2  -2    0.53    0.32
  11   2  -2    0.50    0.40
 -11  -2   2    0.17    0.21
  10   2  -2   22.57    1.04
  10   2  -2   19.60    1.15
 -10  -2   2   21.18    0.87
   9   2  -2   24.29    0.95
   9   2  -2   24.40    1.09
  -9  -2   2   25.19    0.82
   8   2  -2    0.02    0.20
   8   2  -2    0.10    0.27
  -8  -2   2    0.08    0.15
   7   2  -2   29.74    1.30
   7   2  -2   31.33    1.46
  -7  -2   2   30.63    1.22
   6   2  -2    0.52    0.23
   6   2  -2    0.65    0.31
  -6  -2   2    0.65    0.18
   5   2  -2   36.43    0.52
   5   2  -2   37.02    0.57
   5   2  -2   38.59    0.66
  -5  -2   2   37.12    0.51
   4   2  -2   24.82    0.98
   4   2  -2   25.14    0.87
   4   2  -2   24.09    0.86
  -4  -2   2   24.19    0.84
   3   2  -2    3.30    0.43
   3   2  -2    3.46    0.49
   3   2  -2    3.04    0.41
  -3  -2   2    3.08    0.38
   2   2  -2   67.61    1.38
   2   2  -2   68.14    1.27
   2   2  -2   68.90    1.31
  -2  -2   2   65.62    1.24
   1   2  -2    9.92    0.12
   1   2  -2    9.60    0.10
  -1  -2   2    9.19    0.11
  -1  -2   2   10.22    0.11
   0   2  -2    1.88    3.52
   0   2  -2    1.75    3.31
   0  -2   2    1.81    3.52
   0  -2   2    1.76    3.31
  -1   2  -2  243.19    7.12
   1  -2   2  246.58    7.13
  -2   2  -2    4.02    0.11
   2  -2   2    4.83    0.13
  -3   2  -2   26.75    0.56
  -4   2  -2    1.04    0.22
   5  -2   2    0.00    0.19
   6  -2   2   48.30    1.73
   7  -2   2    3.55    0.36
   8  -2   2    9.71    0.71
   9  -2   2    3.93    0.59
  10  -2   2    9.28    0.74
  11  -2   2    1.58    0.40
  12  -2   2   12.86    0.93
  13  -2   2    0.02    0.36
 -14   2  -2    4.04    0.48
  14  -2   2    2.93    0.58
  15  -2   2    1.61    0.57
  16  -2   2    2.15    0.56
  16   1  -2    0.92    0.55
  15   1  -2    0.04    0.45
  14   1  -2   18.98    1.24
  13   1  -2    1.44    0.49
  12   1  -2    1.20    0.45
 -12  -1   2    1.03    0.29
  11   1  -2    0.38    0.37
 -11  -1   2    0.32    0.24
  10   1  -2    0.59    0.38
 -10  -1   2    1.17    0.26
   9   1  -2   13.58    0.66
   9   1  -2   13.44    0.78
  -9  -1   2   13.94    0.61
   8   1  -2    0.01    0.17
   8   1  -2    0.01    0.25
  -8  -1   2    0.18    0.17
   7   1  -2   18.93    0.72
   7   1  -2   18.24    0.84
  -7  -1   2   18.39    0.69
   6   1  -2    0.18    0.34
   6   1  -2    0.27    0.28
  -6  -1   2    0.27    0.29
   5   1  -2   11.44    0.36
  -5  -1   2   11.82    0.29
   4   1  -2    1.07    0.13
   4   1  -2    0.67    0.04
   4   1  -2    0.85    0.16
  -4  -1   2    2.02    0.14
   3   1  -2    0.64    1.29
   3   1  -2    0.68    1.22
  -3  -1   2    0.68    1.20
  -3  -1   2    0.62    1.15
   2   1  -2   56.06    0.33
   2   1  -2   57.26    0.36
   2   1  -2   54.71    0.28
  -2  -1   2   56.62    0.27
  -2  -1   2   55.75    0.32
   1   1  -2   24.46    0.45
   1   1  -2   24.27    0.48
  -1  -1   2   24.47    0.44
  -1  -1   2   26.47    0.48
  -1  -1   2   26.01    0.41
   0   1  -2   18.61    0.11
   0  -1   2   17.54    0.12
  -1   1  -2   52.86    1.09
   1  -1   2   52.66    1.09
  -2   1  -2  276.51    6.44
   2  -1   2  264.01    6.44
  -3   1  -2  258.68    8.70
   4  -1   2    7.57    0.45
   5  -1   2   30.71    1.02
   6  -1   2    3.38    0.32
   7  -1   2   38.72    1.54
   8  -1   2    0.59    0.26
   9  -1   2    4.54    0.42
  10  -1   2    3.78    0.43
  11  -1   2    0.01    0.36
 -12   1  -2   25.99    1.08
  12  -1   2   23.12    1.25
 -13   1  -2    1.63    0.35
  13  -1   2    2.34    0.51
  14  -1   2    6.00    0.77
  15  -1   2    0.12    0.44
  16  -1   2    1.25    0.57
  16   0  -2    1.04    0.58
  15   0  -2    1.14    0.55
  14   0  -2    8.74    0.87
  13   0  -2    0.53    0.39
 -13   0   2    0.63    0.30
  12   0  -2    0.02    0.40
 -12   0   2    0.02    0.27
  11   0  -2    3.32    0.55
 -11   0   2    3.15    0.40
  10   0  -2    1.72    0.38
 -10   0   2    2.15    0.28
   9   0  -2    0.56    0.33
  -9   0   2    0.37    0.26
   8   0  -2    0.77    0.25
  -8   0   2    1.38    0.21
   7   0  -2   11.10    0.78
  -7   0   2   11.12    0.69
   6   0  -2   13.34    1.02
  -6   0   2   12.96    0.93
   5   0  -2    1.03    0.20
   5   0  -2    1.09    0.26
  -5   0   2    1.15    0.23
   4   0  -2  122.06    6.74
   4   0  -2  117.81    6.25
  -4   0   2  116.63    6.25
  -4   0   2  118.02    6.54
   3   0  -2   85.76    4.41
   3   0  -2   82.21    4.07
   3   0  -2   79.04    4.28
  -3   0   2   81.56    4.28
  -3   0   2   86.34    4.07
   2   0  -2  381.89   11.62
   2   0  -2  376.22   12.13
   2   0  -2  391.81   12.43
  -2   0   2  398.06   12.42
  -2   0   2  397.37   11.62
  -2   0   2  383.45   12.13
   1   0  -2   52.54    0.12
   1   0  -2   53.59    0.14
  -1   0   2   53.24    0.13
  -1   0   2   53.41    0.13
   0   0  -2    8.06    0.15
   0   0  -2    7.56    0.17
   0   0  -2    8.03    0.16
   0   0   2    7.98    0.16
   0   0   2    7.61    0.17
  -1   0  -2    4.75    0.09
  -1   0  -2    3.52    0.11
   1   0   2    4.34    0.10
   1   0   2    4.60    0.09
  -2   0  -2  255.90    6.36
   2   0   2  248.22    5.97
   3   0   2    1.95    0.21
   3   0   2    1.88    0.22
   4   0   2    4.32    0.32
   4   0   2    4.05    0.32
   5   0   2  135.08    4.04
   5   0   2  130.65    3.79
   6   0   2    0.16    0.20
   7   0   2    8.03    0.59
   8   0   2  101.40    3.78
   9   0   2    0.34    0.30
  10   0   2    0.13    0.38
 -11   0  -2   12.63    0.66
  11   0   2   10.73    0.83
 -12   0  -2   19.76    0.89
  12   0   2   18.81    1.13
  13   0   2   13.12    0.95
  14   0   2    2.89    0.62
  15   0   2    4.23    0.74
  16  -1  -2    0.12    0.50
  15  -1  -2    2.43    0.55
  14  -1  -2    0.00    0.38
 -14   1   2    0.00    0.31
  13  -1  -2    0.65    0.43
 -13   1   2    0.91    0.35
  12  -1  -2    5.80    0.70
 -12   1   2    6.78    0.59
  11  -1  -2    1.36    0.53
 -11   1   2    1.39    0.40
  10  -1  -2   71.26    3.11
 -10   1   2   70.05    2.88
   9  -1  -2    5.00    0.45
  -9   1   2    4.94    0.38
   8  -1  -2   16.73    0.71
  -8   1   2   17.06    0.66
   7  -1  -2   93.29    2.99
  -7   1   2   91.96    2.85
   6  -1  -2  184.72    5.18
  -6   1   2  183.47    5.02
   5  -1  -2   16.61    1.09
  -5   1   2   16.34    1.05
   4  -1  -2   17.80    0.37
  -4   1   2   18.43    0.41
  -4   1   2   17.78    0.28
   3  -1  -2  145.96    4.30
  -3   1   2  144.00    4.21
   2  -1  -2  307.95    7.60
   2  -1  -2  306.58    8.13
   2  -1  -2  295.12    7.96
  -2   1   2  306.66    7.59
  -2   1   2  308.18    8.13
  -2   1   2  304.38    7.96
   1  -1  -2   75.03    3.07
   1  -1  -2   79.60    2.91
   1  -1  -2   79.12    3.14
  -1   1   2   77.63    2.91
  -1   1   2   80.64    3.12
  -1   1   2   74.96    3.07
   0  -1  -2   29.75    2.09
   0  -1  -2   31.02    1.98
   0  -1  -2   28.59    2.05
   0   1   2   29.30    1.98
   0   1   2   28.90    2.09
   0   1   2   29.32    2.05
  -1  -1  -2   13.86    2.47
  -1  -1  -2   13.44    2.62
  -1  -1  -2   13.18    2.53
   1   1   2   12.42    2.62
   1   1   2   13.98    2.47
  -2  -1  -2   13.91    1.31
  -2  -1  -2   12.28    1.20
   2   1   2   12.89    1.23
   3   1   2   36.72    1.08
   3   1   2   37.71    1.04
   4   1   2   34.99    2.04
   4   1   2   34.17    1.93
   5   1   2  118.18    4.04
   5   1   2  115.75    4.29
   6   1   2   49.95    1.60
   6   1   2   49.12    1.69
   7   1   2   73.27    2.63
   7   1   2   73.13    2.48
   8   1   2    9.59    0.63
   8   1   2    9.55    0.62
   9   1   2    8.41    0.61
 -10  -1  -2    1.79    0.24
  10   1   2    1.59    0.44
 -11  -1  -2   11.54    0.63
  11   1   2   12.04    0.92
  12   1   2    0.62    0.42
  13   1   2    4.39    0.66
  14   1   2    0.62    0.49
  15   1   2    0.21    0.53
  16  -2  -2    1.32    0.55
  15  -2  -2    9.80    0.98
 -15   2   2   10.29    0.84
  14  -2  -2    5.57    0.72
 -14   2   2    5.82    0.61
  13  -2  -2    1.08    0.45
 -13   2   2    1.11    0.41
  12  -2  -2    6.57    0.68
 -12   2   2    6.67    0.56
  11  -2  -2    3.54    0.44
 -11   2   2    2.27    0.36
  10  -2  -2  190.05    6.49
 -10   2   2  193.92    6.25
   9  -2  -2   18.99    0.96
  -9   2   2   18.95    0.94
   8  -2  -2  102.05    3.62
  -8   2   2  105.01    3.49
   7  -2  -2   57.19    1.93
  -7   2   2   57.19    1.86
   6  -2  -2   18.29    0.64
  -6   2   2   17.25    0.62
   5  -2  -2   22.89    0.91
  -5   2   2   22.96    0.92
   4  -2  -2    4.70    0.16
  -4   2   2    4.72    0.21
   3  -2  -2    0.26    0.64
  -3   2   2    0.23    0.58
  -3   2   2    0.21    0.65
  -3   2   2    0.18    0.71
   2  -2  -2    0.55    1.21
  -2   2   2    0.29    1.32
  -2   2   2    0.35    1.20
  -2   2   2    0.31    1.30
   1  -2  -2  203.69    3.44
   1  -2  -2  197.86    3.61
  -1   2   2  196.14    3.61
  -1   2   2  200.35    3.44
  -1   2   2  202.46    3.65
   0  -2  -2   14.93    1.20
   0  -2  -2   14.62    1.21
   0  -2  -2   16.79    1.17
   0   2   2   15.82    1.17
   0   2   2   14.94    1.22
   0   2   2   14.89    1.20
  -1  -2  -2  127.86    3.35
  -1  -2  -2  126.37    3.46
   1   2   2  131.33    3.29
   1   2   2  115.95    3.35
  -2  -2  -2  253.39    5.52
   2   2   2  250.66    5.72
   2   2   2  249.28    5.40
   2   2   2  253.46    5.52
  -3  -2  -2    6.87    0.21
   3   2   2    6.71    0.33
   3   2   2    7.04    0.31
  -4  -2  -2    4.17    0.11
   4   2   2    4.75    0.27
   4   2   2    3.84    0.24
  -5  -2  -2   23.75    0.53
   5   2   2   22.61    0.73
   5   2   2   23.20    0.71
  -6  -2  -2   42.68    1.38
   6   2   2   43.86    1.66
   6   2   2   41.05    1.56
   7   2   2   59.61    2.45
   7   2   2   60.61    2.32
  -8  -2  -2    6.82    0.32
   8   2   2    6.41    0.59
   8   2   2    7.34    0.62
  -9  -2  -2   11.14    0.54
   9   2   2   11.97    0.83
   9   2   2   11.79    0.88
 -10  -2  -2    8.61    0.41
  10   2   2    9.02    0.73
  10   2   2    8.94    0.78
  11   2   2    0.82    0.43
  12   2   2    4.18    0.63
  13   2   2    4.17    0.71
  14   2   2    1.58    0.63
  15   2   2    0.15    0.49
  17  -3  -2    0.70    0.51
  16  -3  -2    6.69    0.76
  15  -3  -2    1.92    0.53
 -15   3   2    1.37    0.47
  14  -3  -2   12.15    0.88
 -14   3   2   11.95    0.84
  13  -3  -2    0.48    0.39
 -13   3   2    0.05    0.35
  12  -3  -2   20.89    1.13
 -12   3   2   24.80    1.16
  11  -3  -2    8.56    0.72
 -11   3   2    8.52    0.66
  10  -3  -2   42.23    1.83
 -10   3   2   42.83    1.75
   9  -3  -2   33.64    1.27
  -9   3   2   33.34    1.25
   8  -3  -2   36.73    1.50
  -8   3   2   36.30    1.46
   7  -3  -2    0.29    0.17
  -7   3   2    0.24    0.23
   6  -3  -2   44.30    1.10
  -6   3   2   43.41    1.13
   5  -3  -2    5.33    0.24
  -5   3   2    5.92    0.30
  -5   3   2    5.73    0.21
  -4   3   2    9.92    0.49
   3  -3  -2   24.64    1.05
   3  -3  -2   26.45    1.10
  -3   3   2   26.84    1.11
  -3   3   2   25.88    1.17
  -3   3   2   26.41    1.04
   2  -3  -2   37.16    0.28
   2  -3  -2   36.06    0.25
  -2   3   2   36.27    0.24
  -2   3   2   35.93    0.31
  -2   3   2   38.06    0.22
   1  -3  -2  224.00    6.81
  -1   3   2  216.76    6.81
  -1   3   2  221.25    6.72
  -1   3   2  210.24    6.43
   0   3   2  126.06    3.42
   0   3   2  124.58    3.48
   0   3   2  121.92    3.30
  -1  -3  -2   13.87    0.24
   1   3   2   11.93    0.24
   1   3   2   12.28    0.18
   2   3   2   34.87    1.67
   2   3   2   35.99    1.79
   2   3   2   34.33    1.72
   3   3   2   31.49    1.37
   3   3   2   31.68    1.42
   3   3   2   31.84    1.25
   4   3   2    0.01    0.19
   4   3   2    0.01    0.17
   5   3   2    2.75    0.35
   5   3   2    2.70    0.38
   6   3   2    8.74    0.61
   6   3   2    9.56    0.62
   7   3   2    2.38    0.43
   7   3   2    2.37    0.44
   8   3   2    0.31    0.33
   8   3   2    0.16    0.31
   9   3   2   10.37    0.83
   9   3   2   10.20    0.76
  10   3   2   23.92    1.19
  10   3   2   22.13    1.11
  11   3   2    0.15    0.39
  11   3   2    0.00    0.33
  12   3   2    5.16    0.70
  13   3   2    3.07    0.58
  14   3   2    0.17    0.51
  17  -4  -2    0.71    0.48
  16  -4  -2    6.68    0.80
 -16   4   2    7.89    0.78
  15  -4  -2    2.98    0.59
 -15   4   2    3.92    0.60
  14  -4  -2    6.25    0.71
 -14   4   2    6.79    0.68
  13  -4  -2    5.35    0.57
 -13   4   2    4.84    0.53
  12  -4  -2    1.25    0.39
 -12   4   2    0.37    0.37
  11  -4  -2    5.51    0.57
 -11   4   2    8.17    0.67
  10  -4  -2   31.22    1.14
 -10   4   2   33.03    1.18
   9  -4  -2    2.96    0.47
  -9   4   2    2.90    0.51
   8  -4  -2   24.06    0.89
  -8   4   2   25.48    0.95
   7  -4  -2    1.37    0.18
  -7   4   2    1.56    0.16
   6  -4  -2   78.79    2.07
  -6   4   2   81.78    1.94
   5  -4  -2   13.02    0.99
  -5   4   2   16.81    0.97
   4  -4  -2   38.34    0.96
  -4   4   2   38.34    0.95
  -4   4   2   38.14    0.97
   3  -4  -2    2.07    0.09
  -3   4   2    2.19    0.10
  -3   4   2    2.10    0.12
   2  -4  -2    3.24    0.41
  -2   4   2    3.41    0.37
  -2   4   2    3.29    0.43
   1  -4  -2    3.34    0.33
  -1   4   2    3.59    0.35
  -1   4   2    4.03    0.45
  -1   4   2    3.34    0.38
   0  -4  -2   28.79    1.36
   0   4   2   27.85    1.36
   0   4   2   26.40    1.33
  -1  -4  -2   10.80    0.65
   1   4   2   11.53    0.62
   1   4   2   11.29    0.67
   2   4   2   67.34    2.00
   2   4   2   66.82    1.95
   2   4   2   67.49    2.07
   3   4   2    6.03    0.46
   3   4   2    6.30    0.59
   3   4   2    5.74    0.61
   4   4   2    0.08    0.24
   4   4   2    0.02    0.19
   5   4   2    3.36    0.42
   5   4   2    3.68    0.41
   6   4   2    2.52    0.33
   6   4   2    1.78    0.32
   7   4   2    0.09    0.29
   7   4   2    0.34    0.29
   8   4   2    0.00    0.32
   8   4   2    0.09    0.37
   9   4   2    2.61    0.47
   9   4   2    4.01    0.57
  10   4   2    1.04    0.46
  10   4   2    0.25    0.41
  11   4   2    5.99    0.72
  11   4   2    6.85    0.72
  12   4   2   12.12    0.92
  12   4   2   12.36    0.98
  13   4   2    0.03    0.44
  14   4   2    5.74    0.85
  17  -5  -2    0.01    0.46
 -17   5   2    0.22    0.48
  16  -5  -2    4.37    0.66
 -16   5   2    4.41    0.61
  15  -5  -2   11.90    0.93
 -15   5   2   13.29    0.92
  14  -5  -2    0.35    0.36
 -14   5   2    0.00    0.40
  13  -5  -2    1.94    0.40
 -13   5   2    1.70    0.42
  12  -5  -2    0.98    0.42
 -12   5   2    1.00    0.47
  11  -5  -2    0.06    0.31
 -11   5   2    0.06    0.38
  10  -5  -2   11.96    0.79
 -10   5   2   11.01    0.90
   9  -5  -2   29.65    1.45
  -9   5   2   30.89    1.33
  -9   5   2   30.65    1.50
   8  -5  -2    4.71    0.36
  -8   5   2    4.98    0.34
   6  -5  -2   17.13    1.00
  -6   5   2   15.82    0.97
   5  -5  -2   66.25    2.81
  -5   5   2   65.03    2.69
   4  -5  -2   52.34    2.46
  -4   5   2   54.30    2.38
  -4   5   2   53.35    2.46
   3  -5  -2    6.90    0.36
  -3   5   2    7.33    0.45
  -3   5   2    6.78    0.34
   2  -5  -2   34.79    2.19
  -2   5   2   39.74    2.14
  -2   5   2   38.55    2.18
   1  -5  -2    7.80    0.34
   1  -5  -2    7.24    0.33
  -1   5   2    7.37    0.40
   0  -5  -2   61.83    2.54
   0   5   2   61.59    2.46
   0   5   2   61.60    2.52
   1   5   2   12.56    0.50
   1   5   2   12.16    0.54
   2   5   2   18.47    0.82
   2   5   2   18.92    0.90
   2   5   2   19.28    0.92
   3   5   2    0.16    0.13
   3   5   2    0.11    0.22
   3   5   2    0.22    0.26
   4   5   2    8.91    0.78
   4   5   2    8.18    0.53
   4   5   2    9.24    0.77
   5   5   2    4.22    0.47
   5   5   2    4.97    0.48
   6   5   2   23.11    1.06
   6   5   2   23.68    1.05
   7   5   2    2.30    0.41
   7   5   2    1.42    0.40
   8   5   2    2.92    0.54
   8   5   2    4.31    0.61
   9   5   2    2.24    0.48
   9   5   2    1.88    0.48
  10   5   2    9.75    0.87
  10   5   2    8.29    0.76
  11   5   2   15.85    1.01
  11   5   2   15.79    1.03
  12   5   2    2.35    0.64
  12   5   2    1.79    0.56
  13   5   2    0.22    0.41
  13   5   2    0.58    0.56
  17  -6  -2    5.88    0.75
 -17   6   2    4.82    0.71
  16  -6  -2    0.56    0.45
 -16   6   2    0.02    0.45
  15  -6  -2   15.31    0.97
 -15   6   2   17.71    1.12
  14  -6  -2    1.11    0.43
 -14   6   2    1.45    0.44
 -14   6   2    1.53    0.37
  13  -6  -2    0.00    0.31
 -13   6   2    0.00    0.41
 -13   6   2    0.02    0.30
  12  -6  -2    2.43    0.49
 -12   6   2    1.70    0.55
 -12   6   2    1.83    0.41
  11  -6  -2    0.00    0.30
 -11   6   2    0.13    0.28
 -11   6   2    0.22    0.43
  10  -6  -2   46.26    1.73
 -10   6   2   46.73    1.60
 -10   6   2   45.52    1.80
   9  -6  -2    6.56    0.43
   8  -6  -2   25.39    1.14
  -8   6   2   24.55    1.09
   7  -6  -2    9.96    0.37
  -7   6   2   10.04    0.42
   6  -6  -2    3.01    0.21
  -6   6   2    3.41    0.29
   5  -6  -2   76.81    2.58
  -5   6   2   75.85    2.59
  -5   6   2   75.81    2.52
   4  -6  -2  100.28    3.42
  -4   6   2  102.65    3.40
  -4   6   2  102.65    3.32
   3  -6  -2    3.06    0.30
  -3   6   2    3.01    0.30
  -3   6   2    2.80    0.40
   2  -6  -2   94.99    2.89
   2  -6  -2   99.61    2.89
  -2   6   2   96.45    2.82
   1  -6  -2   11.48    0.42
   1  -6  -2   12.01    0.43
  -1   6   2   12.46    0.51
   0  -6  -2   50.65    1.70
   0   6   2   49.71    1.70
   0   6   2   46.56    1.70
   1   6   2   24.77    1.14
   1   6   2   21.97    1.17
   2   6   2  111.80    3.88
   2   6   2  112.08    4.03
   2   6   2  109.01    3.88
   3   6   2    0.53    0.12
   3   6   2    1.09    0.21
   3   6   2    0.40    0.24
   4   6   2    0.02    0.31
   4   6   2    0.03    0.25
   4   6   2    0.03    0.13
   5   6   2   10.56    0.70
   5   6   2   10.63    0.73
   6   6   2   49.43    1.92
   6   6   2   48.44    1.94
   7   6   2   44.83    1.91
   7   6   2   46.41    1.95
   8   6   2    7.58    0.79
   8   6   2    8.85    0.77
   9   6   2    0.16    0.38
   9   6   2    0.04    0.39
  10   6   2    0.00    0.46
  10   6   2    0.27    0.39
  11   6   2    4.46    0.68
  11   6   2    5.27    0.71
  12   6   2    2.06    0.57
  12   6   2    1.66    0.51
  13   6   2    1.20    0.58
  13   6   2    1.49    0.54
  17  -7  -2    1.26    0.47
  16  -7  -2    4.95    0.67
 -16   7   2    4.42    0.73
 -16   7   2    5.09    0.61
  15  -7  -2    1.28    0.47
 -15   7   2    1.71    0.44
 -15   7   2    2.32    0.62
  14  -7  -2   15.50    1.00
 -14   7   2   14.58    1.14
 -14   7   2   16.06    0.91
  13  -7  -2    4.76    0.55
 -13   7   2    4.77    0.64
 -13   7   2    4.33    0.51
  12  -7  -2    2.94    0.49
 -12   7   2    3.53    0.49
 -12   7   2    3.85    0.63
  11  -7  -2    1.04    0.33
 -11   7   2    1.79    0.55
 -11   7   2    0.82    0.33
 -10   7   2   26.71    1.22
   9  -7  -2    6.27    0.44
  -9   7   2    7.16    0.46
   8  -7  -2  129.32    4.86
  -8   7   2  126.47    4.63
   7  -7  -2    7.69    0.44
  -7   7   2    8.22    0.51
   6  -7  -2    0.29    0.13
  -6   7   2    0.39    0.23
   5  -7  -2    0.02    0.09
  -5   7   2    0.03    0.20
  -5   7   2    0.02    0.08
   4  -7  -2   12.10    0.42
  -4   7   2   11.92    0.56
  -4   7   2   12.28    0.41
   3  -7  -2   64.61    1.96
   3  -7  -2   63.25    1.96
  -3   7   2   64.73    2.01
   2  -7  -2   41.13    1.48
   2  -7  -2   43.52    1.48
  -2   7   2   42.20    1.54
   1  -7  -2   43.60    1.74
   1  -7  -2   44.19    1.74
  -1   7   2   41.86    1.77
   0  -7  -2   29.30    1.13
   0   7   2   28.93    1.19
   0   7   2   24.86    1.16
  -1  -7  -2    5.78    0.44
   1   7   2    4.98    0.52
   1   7   2    4.89    0.48
   2   7   2  110.13    3.47
   2   7   2  108.71    3.39
   2   7   2  108.13    3.34
   3   7   2    5.19    0.45
   3   7   2    6.28    0.57
   3   7   2    5.73    0.62
   4   7   2    4.71    0.53
   4   7   2    4.34    0.32
   4   7   2    5.20    0.51
   5   7   2    9.52    0.62
   5   7   2    9.91    0.71
   6   7   2    0.15    0.36
   6   7   2    0.06    0.36
   7   7   2   12.14    0.90
   7   7   2   10.31    0.87
   8   7   2    0.70    0.40
   8   7   2    0.00    0.43
   9   7   2    0.49    0.46
   9   7   2    1.55    0.46
  10   7   2    2.24    0.53
  10   7   2    3.71    0.66
  11   7   2    1.09    0.54
  11   7   2    1.09    0.52
  12   7   2    0.90    0.52
  12   7   2    0.03    0.49
  16  -8  -2   14.03    1.01
 -16   8   2   16.34    0.96
 -16   8   2   15.06    1.12
  15  -8  -2    2.28    0.53
 -15   8   2    4.53    0.59
 -15   8   2    3.58    0.73
  14  -8  -2   21.87    1.14
 -14   8   2   19.40    1.29
 -14   8   2   20.33    1.04
  13  -8  -2    1.18    0.37
 -13   8   2    2.29    0.57
 -13   8   2    1.80    0.40
 -12   8   2    7.13    0.56
 -12   8   2    7.42    0.71
  11  -8  -2   26.53    1.25
 -11   8   2   26.57    1.24
  10  -8  -2    1.32    0.30
 -10   8   2    1.06    0.36
   9  -8  -2   17.85    0.86
  -9   8   2   17.36    0.92
   8  -8  -2    2.20    0.21
  -8   8   2    2.47    0.31
   7  -8  -2    2.05    0.25
  -7   8   2    2.61    0.39
   6  -8  -2   43.49    1.62
  -6   8   2   42.31    1.69
  -6   8   2   44.75    1.62
  -5   8   2   31.50    1.11
  -4   8   2   69.63    2.59
  -3   8   2    2.35    0.27
   2  -8  -2   44.89    1.51
   2  -8  -2   42.27    1.50
  -2   8   2   43.82    1.61
   1  -8  -2   32.70    1.23
  -1   8   2   30.73    1.32
   0  -8  -2    3.02    0.26
   0   8   2    2.55    0.36
   0   8   2    1.99    0.28
  -1  -8  -2  107.14    3.38
   1   8   2  106.89    3.31
   1   8   2  112.14    3.32
   2   8   2   29.02    1.06
   2   8   2   29.93    0.97
   2   8   2   28.62    0.93
   3   8   2    3.55    0.43
   3   8   2    1.80    0.45
   3   8   2    3.12    0.31
   4   8   2    0.02    0.36
   4   8   2    0.43    0.31
   4   8   2    0.04    0.15
   5   8   2    0.71    0.46
   5   8   2    0.47    0.37
   6   8   2    4.11    0.52
   6   8   2    3.71    0.59
   7   8   2    0.99    0.51
   7   8   2    1.45    0.42
   8   8   2    4.68    0.65
   8   8   2    4.66    0.71
   9   8   2    0.15    0.46
   9   8   2    1.45    0.44
  10   8   2    0.82    0.45
  10   8   2    0.07    0.40
  11   8   2   11.01    0.98
  11   8   2   10.37    1.09
  16  -9  -2    2.64    0.53
 -16   9   2    3.04    0.68
 -16   9   2    3.56    0.57
  15  -9  -2   12.93    0.89
 -15   9   2   14.55    1.09
 -15   9   2   14.01    0.88
 -14   9   2    1.23    0.51
 -14   9   2    1.36    0.42
  13  -9  -2    0.02    0.29
 -13   9   2    0.36    0.34
 -13   9   2    0.02    0.48
  12  -9  -2    0.20    0.26
 -12   9   2    0.00    0.29
 -12   9   2    0.04    0.42
  11  -9  -2    0.39    0.29
 -11   9   2    0.13    0.31
  10  -9  -2   34.43    1.27
 -10   9   2   33.57    1.31
   9  -9  -2    0.27    0.18
  -9   9   2    0.27    0.26
   8  -9  -2   11.14    0.41
  -8   9   2   11.98    0.55
   7  -9  -2    7.31    0.34
  -7   9   2    8.44    0.34
  -7   9   2    8.56    0.55
  -6   9   2   12.77    0.67
  -5   9   2   30.41    1.34
  -4   9   2   35.40    1.22
  -3   9   2    1.94    0.34
   2  -9  -2    0.11    0.14
   2  -9  -2    0.15    0.14
  -2   9   2    0.20    0.31
   1  -9  -2    2.31    0.22
  -1   9   2    1.64    0.35
   0  -9  -2    1.06    0.26
   0   9   2    0.48    0.37
   0   9   2    0.73    0.26
  -1  -9  -2    0.57    0.23
   1   9   2    1.41    0.27
   1   9   2    0.04    0.37
  -2  -9  -2    3.77    0.40
   2   9   2    5.59    0.41
   2   9   2    5.19    0.57
   3   9   2   15.45    0.67
   3   9   2   14.37    0.86
   3   9   2   16.51    0.77
   4   9   2    8.65    0.55
   4   9   2    9.32    0.72
   4   9   2    8.95    0.80
   5   9   2    6.75    0.64
   5   9   2    7.15    0.57
   6   9   2    0.68    0.39
   6   9   2    0.32    0.43
   7   9   2    8.45    0.75
   7   9   2    8.56    0.83
   8   9   2    1.90    0.54
   8   9   2    1.09    0.52
   9   9   2    0.31    0.46
   9   9   2    0.07    0.44
  10   9   2    1.15    0.52
  10   9   2    1.15    0.50
 -16  10   2    1.59    0.58
 -16  10   2    2.22    0.51
  15 -10  -2    3.27    0.52
 -15  10   2    2.96    0.57
 -15  10   2    3.67    0.74
  14 -10  -2    0.60    0.33
 -14  10   2    0.32    0.40
 -14  10   2    0.03    0.53
  13 -10  -2    0.10    0.28
 -13  10   2    0.09    0.46
 -13  10   2    0.07    0.35
  12 -10  -2    7.73    0.54
 -12  10   2    7.89    0.65
  11 -10  -2   19.02    0.77
 -11  10   2   19.87    0.87
  10 -10  -2    2.46    0.33
 -10  10   2    2.60    0.48
   9 -10  -2    1.20    0.19
  -9  10   2    1.39    0.36
  -8  10   2   32.08    1.21
  -8  10   2   32.05    1.23
  -8  10   2   29.93    1.36
  -7  10   2    5.89    0.47
  -6  10   2    0.00    0.30
  -5  10   2    0.01    0.28
  -4  10   2   39.39    1.78
  -3  10   2    0.60    0.36
   2 -10  -2    9.46    0.38
   2 -10  -2    7.52    0.38
  -2  10   2    8.76    0.63
   1 -10  -2   18.12    0.71
  -1  10   2   18.30    0.91
   0 -10  -2    9.26    0.52
   0  10   2    9.52    0.71
  -1 -10  -2    1.93    0.35
   1  10   2    1.42    0.47
   1  10   2    2.13    0.38
  -2 -10  -2    0.07    0.26
   2  10   2    0.07    0.37
   2  10   2    0.07    0.23
   3  10   2    3.19    0.56
   3  10   2    3.44    0.35
   4  10   2    9.24    0.61
   4  10   2    9.72    0.49
   4  10   2   10.01    0.75
   5  10   2    3.08    0.51
   5  10   2    2.92    0.63
   6  10   2   11.15    0.83
   6  10   2   13.08    0.96
   7  10   2    1.49    0.56
   7  10   2    1.69    0.51
   8  10   2    7.65    0.92
   8  10   2    6.94    0.77
   9  10   2    0.74    0.46
   9  10   2    0.00    0.49
  10  10   2    0.81    0.54
  10  10   2    0.33    0.49
 -15  11   2    1.51    0.48
 -15  11   2    1.03    0.58
 -14  11   2    0.01    0.37
 -14  11   2    0.01    0.53
 -13  11   2    1.44    0.44
 -13  11   2    1.15    0.60
 -12  11   2    5.20    0.58
 -11  11   2   20.49    1.13
 -10  11   2    5.40    0.42
 -10  11   2    4.98    0.56
  -9  11   2    3.55    0.41
  -8  11   2   19.26    0.90
  -7  11   2    6.67    0.64
  -6  11   2    0.05    0.28
  -5  11   2    0.37    0.34
  -4  11   2   33.64    1.36
  -3  11   2    9.40    0.78
   2 -11  -2    3.01    0.23
  -2  11   2    3.78    0.50
   1 -11  -2    2.77    0.24
  -1  11   2    2.91    0.45
   0 -11  -2    1.72    0.33
   0  11   2    1.66    0.52
  -1 -11  -2    0.05    0.24
   1  11   2    0.44    0.44
   1  11   2    0.49    0.31
  -2 -11  -2    6.36    0.49
   2  11   2    7.72    0.50
   2  11   2    6.60    0.66
  -3 -11  -2    1.39    0.34
   3  11   2    2.01    0.54
   3  11   2    2.83    0.37
  -4 -11  -2    1.09    0.33
   4  11   2    0.52    0.40
  -5 -11  -2   10.41    0.73
   5  11   2   11.27    0.90
   5  11   2   10.50    0.72
  -6 -11  -2    1.74    0.47
   6  11   2    1.13    0.45
   6  11   2    2.60    0.60
  -7 -11  -2    1.96    0.51
   7  11   2    1.62    0.58
   7  11   2    2.12    0.53
  -8 -11  -2    0.95    0.48
   8  11   2    0.68    0.52
   8  11   2    0.75    0.48
  -9 -11  -2    6.45    0.77
   9  11   2    6.11    0.82
   9  11   2    7.70    0.82
 -15  12   2    1.89    0.50
 -15  12   2    2.33    0.67
 -14  12   2    1.46    0.47
 -14  12   2    0.62    0.56
 -13  12   2    0.87    0.55
 -13  12   2    0.87    0.41
 -12  12   2   10.29    0.73
 -11  12   2    6.90    0.58
 -10  12   2   15.56    0.83
  -9  12   2    3.33    0.44
  -8  12   2   41.10    1.60
  -7  12   2   10.89    0.80
  -6  12   2    0.16    0.34
  -5  12   2    0.58    0.37
  -4  12   2    5.36    0.63
  -3  12   2    0.97    0.40
  -2  12   2    3.93    0.54
   1 -12  -2    1.14    0.27
  -1  12   2    2.04    0.51
  -1  12   2    1.94    0.57
   0 -12  -2   16.76    0.75
   0  12   2   18.11    1.01
  -1 -12  -2   22.91    0.94
   1  12   2   24.21    1.18
   1  12   2   25.19    1.07
  -2 -12  -2    5.66    0.51
   2  12   2    4.40    0.65
   2  12   2    6.57    0.53
  -3 -12  -2    4.62    0.53
   3  12   2    4.17    0.66
  -4 -12  -2    1.43    0.29
   4  12   2    3.61    0.64
  -5 -12  -2   11.66    0.85
   5  12   2   12.46    1.02
  -6 -12  -2    4.25    0.58
   6  12   2    3.60    0.69
  -7 -12  -2    0.53    0.43
   7  12   2    0.01    0.56
  -8 -12  -2    0.17    0.46
 -14  13   2    7.49    0.97
 -14  13   2    8.15    0.78
 -13  13   2    0.01    0.34
 -13  13   2    0.23    0.59
 -12  13   2    0.16    0.34
 -11  13   2    6.88    0.66
 -10  13   2    0.02    0.36
  -9  13   2   13.32    0.89
  -8  13   2    4.29    0.53
  -7  13   2    1.04    0.36
  -6  13   2    2.24    0.44
  -5  13   2    2.48    0.51
  -4  13   2   17.85    0.92
  -3  13   2    6.29    0.58
  -2  13   2    0.68    0.38
  -2  13   2    0.58    0.45
  -1  13   2    6.57    0.64
  -1  13   2    5.20    0.68
   0  13   2    0.89    0.30
   0  13   2    0.67    0.48
  -1 -13  -2   18.18    0.89
   1  13   2   17.44    1.13
   1  13   2   20.64    1.03
  -2 -13  -2    0.87    0.32
   2  13   2    1.22    0.59
   2  13   2    0.85    0.33
  -3 -13  -2    5.05    0.57
   3  13   2    5.14    0.80
  -4 -13  -2    0.01    0.33
   4  13   2    0.27    0.55
  -5 -13  -2    0.00    0.36
   5  13   2    0.34    0.51
  -6 -13  -2    0.68    0.43
   6  13   2    1.33    0.62
 -13  14   2    0.20    0.41
 -13  14   2    1.43    0.59
 -12  14   2    4.83    0.81
 -12  14   2    4.48    0.60
 -11  14   2    0.90    0.44
 -10  14   2    8.02    0.76
  -9  14   2    1.64    0.46
  -8  14   2    8.72    0.73
  -7  14   2   14.71    0.92
  -6  14   2    2.11    0.50
  -5  14   2   21.18    1.14
  -4  14   2    2.02    0.54
  -3  14   2    5.68    0.74
  -2  14   2    0.28    0.50
  -2  14   2    0.18    0.37
  -1  14   2    2.00    0.59
  -1  14   2    1.28    0.43
   0  14   2    1.11    0.52
   0  14   2    1.48    0.44
   1  14   2    0.33    0.35
   1  14   2    0.00    0.48
   2  14   2    0.00    0.48
   3  14   2    1.55    0.59
   4  14   2    0.20    0.52
   5  14   2    4.93    0.86
 -12  15   2    1.79    0.43
 -12  15   2    0.81    0.55
 -11  15   2    9.30    0.76
 -10  15   2    0.10    0.43
  -9  15   2    1.49    0.48
  -8  15   2    1.36    0.47
  -7  15   2    0.86    0.47
  -6  15   2    0.08    0.45
  -5  15   2    7.08    0.72
  -4  15   2    2.09    0.55
  -4  15   2    1.12    0.51
  -3  15   2    5.97    0.68
  -3  15   2    4.86    0.67
  -2  15   2    4.65    0.59
  -2  15   2    2.64    0.57
  -1  15   2    3.21    0.57
  -1  15   2    3.01    0.67
   0  15   2    0.00    0.37
   0  15   2    0.11    0.50
   1  15   2    3.66    0.74
   2  15   2    0.01    0.48
   3  15   2    0.04    0.52
 -11  16   2    1.58    0.65
 -11  16   2    0.31    0.45
 -10  16   2    2.33    0.65
 -10  16   2    1.05    0.50
  -9  16   2    0.01    0.44
  -8  16   2    0.18    0.46
  -7  16   2    0.37    0.43
  -6  16   2    4.45    0.65
  -6  16   2    4.07    0.67
  -5  16   2    0.00    0.45
  -5  16   2    1.21    0.54
  -4  16   2    1.30    0.53
  -4  16   2    0.11    0.49
  -3  16   2    0.34    0.44
  -3  16   2    0.16    0.51
  -2  16   2    3.73    0.66
  -2  16   2    3.92    0.78
  -1  16   2    0.01    0.50
  -1  16   2    0.01    0.35
   0  16   2    1.37    0.62
   1  16   2    1.78    0.72
  -9  17   2    2.11    0.58
  -9  17   2    1.99    0.68
  -8  17   2    1.03    0.61
  -8  17   2    0.76    0.53
  -7  17   2    0.54    0.49
  -7  17   2    0.51    0.54
  -6  17   2    0.00    0.45
  -6  17   2    0.37    0.48
  -5  17   2    0.00    0.49
  -5  17   2    0.12    0.48
  -4  17   2    3.43    0.67
  -4  17   2    3.48    0.64
  -3  17   2    0.02    0.53
  -3  17   2    0.00    0.42
  -2  17   2    0.15    0.56
  -2  17   2    0.87    0.50
   0  17  -3    0.00    0.53
  -1  17  -3    0.02    0.51
  -2  17  -3    4.07    0.74
  -3  17  -3    0.24    0.47
  -4  17  -3    0.34    0.46
  -5  17  -3    1.12    0.48
  -6  17  -3    2.26    0.54
  -7  17  -3    0.09    0.43
  -8  17  -3    1.57    0.50
  -9  17  -3    0.00    0.44
   3  16  -3    0.13    0.56
   2  16  -3    1.01    0.58
   1  16  -3    1.63    0.66
   0  16  -3    0.04    0.52
  -1  16  -3    0.51    0.51
  -2  16  -3    3.43    0.62
  -3  16  -3    0.75    0.50
  -4  16  -3   13.29    0.92
  -5  16  -3    2.86    0.53
  -6  16  -3    5.47    0.63
  -7  16  -3    2.07    0.49
  -8  16  -3    6.37    0.68
  -9  16  -3    1.55    0.48
 -10  16  -3    0.39    0.43
 -11  16  -3    0.91    0.48
   4  15  -3    0.65    0.60
   3  15  -3    1.28    0.60
   2  15  -3   13.64    1.18
   1  15  -3    1.47    0.62
   0  15  -3   11.36    0.95
  -1  15  -3    0.01    0.44
  -2  15  -3    3.26    0.59
  -3  15  -3    1.35    0.49
  -4  15  -3    7.84    0.72
  -5  15  -3    7.73    0.75
  -6  15  -3    0.51    0.41
  -7  15  -3    2.15    0.46
  -8  15  -3    2.31    0.50
  -9  15  -3    2.32    0.53
 -10  15  -3    4.52    0.59
 -11  15  -3    3.64    0.64
 -12  15  -3    0.67    0.47
   6  14  -3    3.83    0.61
   6  14  -3    3.22    0.81
   5  14  -3    0.53    0.67
   5  14  -3    0.93    0.42
   4  14  -3    8.43    0.96
   4  14  -3    9.17    0.73
   3  14  -3    2.41    0.41
   3  14  -3    2.31    0.70
   2  14  -3   24.73    1.48
   2  14  -3   26.42    1.20
   1  14  -3    0.02    0.45
   1  14  -3    0.02    0.25
   0  14  -3    0.54    0.48
  -1  14  -3    4.38    0.59
  -2  14  -3    5.82    0.68
  -3  14  -3    4.10    0.56
  -4  14  -3    0.05    0.36
  -5  14  -3    0.18    0.36
  -6  14  -3   16.09    0.97
  -7  14  -3    5.91    0.61
  -8  14  -3   12.66    0.82
  -9  14  -3    0.46    0.40
 -10  14  -3    5.79    0.66
 -11  14  -3    3.12    0.59
 -12  14  -3    0.07    0.45
 -13  14  -3    0.85    0.49
   7  13  -3    0.75    0.60
   7  13  -3    0.05    0.42
   6  13  -3    2.05    0.49
   6  13  -3    0.61    0.56
   5  13  -3    0.52    0.40
   5  13  -3    0.43    0.57
   4  13  -3    7.50    0.96
   4  13  -3    6.45    0.68
   3  13  -3   10.81    0.80
   3  13  -3   11.38    1.04
   2  13  -3    0.06    0.27
   2  13  -3    0.36    0.52
   1  13  -3    0.29    0.45
   1  13  -3    0.10    0.26
   0  13  -3    0.09    0.24
   0  13  -3    0.10    0.44
  -1  13  -3    4.69    0.64
  -1  13  -3    5.11    0.44
  -2  13  -3    9.75    0.45
  -2  13  -3    9.41    0.74
  -3  13  -3   11.70    0.73
  -4  13  -3    2.11    0.44
  -5  13  -3    7.23    0.67
  -6  13  -3    3.19    0.51
  -7  13  -3   16.26    0.96
  -8  13  -3    7.20    0.65
  -9  13  -3    0.07    0.37
 -10  13  -3   12.01    0.96
 -11  13  -3    2.47    0.57
 -12  13  -3    0.20    0.51
 -13  13  -3    0.05    0.51
 -14  13  -3    0.71    0.52
   9  12  -3    0.33    0.54
   8  12  -3    1.55    0.57
   8  12  -3    1.21    0.61
   7  12  -3    0.00    0.41
   7  12  -3    0.00    0.53
   6  12  -3    0.00    0.48
   6  12  -3    0.00    0.39
   5  12  -3    0.90    0.40
   5  12  -3    0.38    0.56
   4  12  -3    2.34    0.42
   4  12  -3    2.03    0.55
   3  12  -3    0.98    0.32
   3  12  -3    0.08    0.50
   2  12  -3    4.45    0.71
   2  12  -3    4.59    0.51
   1  12  -3    4.84    0.44
   1  12  -3    4.42    0.61
   0  12  -3    8.38    0.55
   0  12  -3    7.02    0.73
  -1  12  -3    5.38    0.61
  -1  12  -3    4.49    0.40
  -2  12  -3   21.76    0.94
  -2  12  -3   20.64    1.18
  -3  12  -3    2.24    0.43
  -3  12  -3    2.32    0.19
  -4  12  -3    9.38    0.68
  -5  12  -3    1.27    0.37
  -6  12  -3    0.03    0.33
  -7  12  -3    3.36    0.50
  -8  12  -3   12.81    0.58
  -8  12  -3   13.53    0.92
  -9  12  -3    0.33    0.38
 -10  12  -3    2.75    0.49
 -11  12  -3    1.69    0.49
 -12  12  -3    0.04    0.42
 -13  12  -3    1.89    0.49
 -14  12  -3    0.68    0.50
 -15  12  -3    2.01    0.58
  10  11  -3    0.03    0.52
   9  11  -3    0.01    0.45
   9  11  -3    0.44    0.48
   8  11  -3    0.05    0.48
   8  11  -3    0.05    0.46
   7  11  -3    0.00    0.50
   7  11  -3    0.47    0.40
   6  11  -3    0.00    0.50
   6  11  -3    0.00    0.37
   5  11  -3    3.10    0.47
   5  11  -3    2.99    0.65
   4  11  -3    4.07    0.48
   4  11  -3    1.68    0.53
   3  11  -3    2.38    0.56
   3  11  -3    1.54    0.37
   2  11  -3    4.24    0.49
   2  11  -3    2.39    0.61
   1  11  -3    6.49    0.47
   1  11  -3    6.32    0.63
   0  11  -3   11.74    0.56
   0  11  -3   12.39    0.73
  -1  11  -3    6.21    0.39
  -1  11  -3    5.70    0.54
  -2  11  -3   14.18    0.79
  -2  11  -3   14.54    0.60
  -3  11  -3    1.63    0.39
  -3  11  -3    1.47    0.18
   3 -11   3    1.15    0.19
  -4  11  -3   77.93    2.66
  -4  11  -3   79.17    2.78
   4 -11   3   75.85    2.66
  -5  11  -3   12.30    0.47
  -5  11  -3   12.60    0.74
  -5  11  -3   12.81    0.47
  -6  11  -3    0.07    0.11
  -6  11  -3    0.00    0.32
  -6  11  -3    0.00    0.13
  -7  11  -3    0.00    0.14
  -7  11  -3    0.35    0.36
  -8  11  -3    4.42    0.28
  -8  11  -3    4.45    0.53
  -9  11  -3   13.15    0.60
  -9  11  -3   13.44    0.86
 -10  11  -3    0.03    0.36
 -10  11  -3    0.09    0.22
 -11  11  -3    0.30    0.39
 -11  11  -3    0.65    0.30
 -12  11  -3    5.87    0.69
 -12  11  -3    5.24    0.50
 -13  11  -3    0.57    0.51
 -13  11  -3    0.06    0.34
 -14  11  -3   14.48    0.89
 -14  11  -3   16.24    1.05
 -15  11  -3    0.19    0.48
 -15  11  -3    0.13    0.45
  10  10  -3    0.01    0.44
  10  10  -3    0.01    0.44
   9  10  -3    0.30    0.43
   9  10  -3    0.32    0.51
   8  10  -3    2.48    0.56
   8  10  -3    2.34    0.62
   7  10  -3    1.57    0.56
   7  10  -3    1.39    0.48
   6  10  -3    0.02    0.40
   6  10  -3    0.45    0.34
   5  10  -3    0.46    0.37
   5  10  -3    0.34    0.44
   4  10  -3    9.06    0.77
   4  10  -3    9.75    0.95
   3  10  -3    0.18    0.42
   3  10  -3    0.00    0.30
   2  10  -3    5.02    0.50
   2  10  -3    4.98    0.64
   1  10  -3   16.47    0.92
   1  10  -3   15.54    0.80
   0  10  -3   39.49    1.77
   0  10  -3   38.71    1.68
  -1  10  -3   12.84    0.71
  -1  10  -3   12.96    0.56
  -2  10  -3    4.00    0.33
  -2  10  -3    3.48    0.46
  -3  10  -3    0.08    0.26
  -3  10  -3    0.08    0.13
   3 -10   3    0.08    0.14
  -4  10  -3   15.59    0.87
  -4  10  -3   14.35    0.66
   4 -10   3   13.66    0.66
  -5  10  -3   11.59    0.45
  -5  10  -3   11.14    0.44
  -5  10  -3   11.63    0.67
  -6  10  -3    3.15    0.43
  -6  10  -3    2.96    0.20
  -7  10  -3    0.30    0.16
  -7  10  -3    0.22    0.34
  -8  10  -3   36.53    1.41
  -8  10  -3   37.26    1.59
  -9  10  -3    0.08    0.21
  -9  10  -3    0.08    0.35
 -10  10  -3    9.29    0.62
 -10  10  -3    9.12    0.81
 -11  10  -3    0.94    0.43
 -11  10  -3    0.56    0.31
 -12  10  -3    0.92    0.43
 -12  10  -3    1.27    0.37
 -13  10  -3   18.35    1.01
 -13  10  -3   15.48    0.95
 -14  10  -3    9.43    0.86
 -14  10  -3    8.35    0.82
 -15  10  -3    1.56    0.49
 -15  10  -3    1.77    0.55
 -16  10  -3    4.41    0.73
  11   9  -3    0.02    0.48
  11   9  -3    0.26    0.36
  10   9  -3    0.07    0.40
  10   9  -3    0.58    0.53
   9   9  -3    4.14    0.68
   9   9  -3    5.08    0.78
   8   9  -3   25.67    1.45
   8   9  -3   24.53    1.41
   7   9  -3    3.63    0.58
   7   9  -3    3.62    0.67
   6   9  -3    4.99    0.60
   6   9  -3    5.50    0.68
   5   9  -3    3.69    0.58
   5   9  -3    4.30    0.50
   4   9  -3   36.42    1.66
   4   9  -3   34.57    1.57
   3   9  -3    8.62    0.60
   3   9  -3    9.13    0.70
   2   9  -3   22.35    1.02
   2   9  -3   22.33    0.90
   1   9  -3    0.00    0.20
   1   9  -3    0.05    0.33
   0   9  -3    0.12    0.16
   0   9  -3    0.50    0.27
  -1   9  -3    4.56    0.41
  -1   9  -3    4.28    0.29
  -2   9  -3   31.26    1.34
  -2   9  -3   30.37    1.24
  -3   9  -3   29.89    1.20
  -3   9  -3   30.68    1.08
   3  -9   3   30.61    1.09
  -4   9  -3   17.27    0.69
  -4   9  -3   16.51    0.85
   4  -9   3   15.86    0.69
  -5   9  -3    2.47    0.20
  -5   9  -3    2.64    0.38
  -6   9  -3   19.28    0.75
  -6   9  -3   20.17    0.96
  -7   9  -3   12.80    0.70
  -7   9  -3   13.12    0.53
  -8   9  -3  107.20    3.57
  -8   9  -3  106.21    3.55
  -9   9  -3   13.36    0.61
  -9   9  -3   12.30    0.70
 -10   9  -3    0.02    0.29
 -10   9  -3    0.02    0.37
 -11   9  -3    0.77    0.40
 -11   9  -3    0.74    0.35
 -12   9  -3    2.82    0.44
 -12   9  -3    2.31    0.46
 -13   9  -3   16.66    1.04
 -13   9  -3   19.14    1.08
 -14   9  -3    2.04    0.50
 -14   9  -3    2.86    0.57
 -15   9  -3    0.00    0.40
 -15   9  -3    0.33    0.47
 -16   9  -3    1.81    0.58
 -16   9  -3    2.71    0.53
  12   8  -3    1.24    0.66
  12   8  -3    1.66    0.50
  11   8  -3    0.46    0.41
  11   8  -3    0.12    0.54
  10   8  -3    8.21    0.92
  10   8  -3    7.06    0.84
   9   8  -3    0.34    0.43
   9   8  -3    0.01    0.37
   8   8  -3   19.91    1.22
   8   8  -3   19.72    1.19
   7   8  -3    0.22    0.36
   7   8  -3    0.00    0.34
   6   8  -3   11.23    0.81
   6   8  -3   11.13    0.87
   5   8  -3   18.29    1.10
   5   8  -3   17.83    1.02
   4   8  -3    0.41    0.35
   4   8  -3    0.00    0.29
   3   8  -3   15.92    0.73
   3   8  -3   16.60    0.63
   2   8  -3    0.01    0.21
   2   8  -3    0.01    0.26
   1   8  -3    4.16    0.38
   1   8  -3    4.06    0.32
   0   8  -3   46.22    1.57
   0   8  -3   45.73    1.59
  -1   8  -3   60.63    2.74
  -1   8  -3   60.26    2.78
  -2   8  -3   38.84    1.15
  -2   8  -3   37.28    1.22
  -3   8  -3    3.43    0.38
  -3   8  -3    3.18    0.26
   3  -8   3    3.00    0.26
  -4   8  -3   98.52    2.67
  -4   8  -3   95.49    2.69
  -5   8  -3   26.57    0.94
  -5   8  -3   24.88    1.09
  -6   8  -3   25.84    1.06
  -6   8  -3   24.97    0.90
  -7   8  -3   21.47    0.89
  -7   8  -3   21.34    0.78
  -8   8  -3   30.63    1.18
  -8   8  -3   31.89    1.12
  -9   8  -3   23.86    1.22
  -9   8  -3   23.53    1.18
 -10   8  -3    1.51    0.38
 -10   8  -3    1.44    0.40
 -11   8  -3    4.11    0.57
 -11   8  -3    4.67    0.54
 -12   8  -3   12.02    0.79
 -12   8  -3   12.16    0.83
 -13   8  -3    0.34    0.42
 -14   8  -3    9.66    0.89
 -15   8  -3    0.01    0.50
 -16   8  -3    0.84    0.58
  13   7  -3    0.00    0.34
  13   7  -3    0.03    0.60
  12   7  -3    2.62    0.68
  12   7  -3    2.78    0.52
  11   7  -3    0.01    0.46
  11   7  -3    0.45    0.43
  10   7  -3   10.54    0.88
  10   7  -3   10.93    0.94
   9   7  -3   13.40    0.91
   9   7  -3   13.87    1.03
   8   7  -3    0.03    0.40
   8   7  -3    0.03    0.38
   7   7  -3    1.77    0.54
   7   7  -3    1.17    0.47
   6   7  -3    2.51    0.48
   6   7  -3    2.90    0.49
   5   7  -3    0.10    0.33
   5   7  -3    0.01    0.34
   4   7  -3   71.72    2.67
   4   7  -3   75.50    2.58
   3   7  -3   18.79    0.91
   3   7  -3   20.14    0.92
   2   7  -3   11.82    0.76
   2   7  -3   11.25    0.74
   1   7  -3    5.55    0.39
   1   7  -3    5.49    0.34
   0   7  -3    8.86    0.46
   0   7  -3    8.79    0.51
  -1   7  -3  131.45    3.75
  -1   7  -3  128.77    3.88
  -2   7  -3    0.48    0.26
  -2   7  -3    0.46    0.34
  -3   7  -3    0.93    0.22
  -3   7  -3    0.99    0.13
  -4   7  -3   11.89    0.37
  -4   7  -3   11.97    0.52
  -5   7  -3   32.11    1.12
  -5   7  -3   31.83    1.21
  -6   7  -3    2.28    0.28
  -6   7  -3    2.67    0.21
  -7   7  -3    1.82    0.30
  -7   7  -3    1.08    0.33
  -8   7  -3    6.73    0.50
  -8   7  -3    6.60    0.53
  -9   7  -3    1.43    0.32
 -10   7  -3   27.10    1.22
 -11   7  -3    7.39    0.71
 -12   7  -3    0.60    0.43
 -13   7  -3    0.24    0.40
 -14   7  -3    0.61    0.51
 -15   7  -3    2.01    0.63
 -16   7  -3    4.20    0.74
  13   6  -3    0.79    0.44
  13   6  -3    0.90    0.58
  12   6  -3    0.01    0.40
  12   6  -3    0.13    0.52
  11   6  -3    2.06    0.47
  11   6  -3    1.17    0.50
  10   6  -3    0.57    0.37
  10   6  -3    0.17    0.46
   9   6  -3    3.47    0.53
   9   6  -3    2.51    0.55
   8   6  -3    5.32    0.58
   8   6  -3    5.92    0.59
   7   6  -3   11.19    0.79
   7   6  -3   11.19    0.70
   7   6  -3   12.25    0.48
   6   6  -3    0.02    0.29
   6   6  -3    0.10    0.34
   5   6  -3   18.65    0.99
   5   6  -3   17.69    0.98
   4   6  -3   29.90    1.20
   4   6  -3   28.22    1.15
   3   6  -3   17.38    0.82
   3   6  -3   16.57    0.79
   2   6  -3   32.66    1.61
   2   6  -3   34.67    1.55
   1   6  -3   15.06    0.88
   1   6  -3   15.87    0.90
   0   6  -3    5.91    0.40
   0   6  -3    5.98    0.44
  -1   6  -3    1.51    0.45
  -1   6  -3    1.47    0.51
  -2   6  -3   92.54    3.89
  -2   6  -3   94.09    4.03
  -3   6  -3    1.65    0.10
  -3   6  -3    1.48    0.17
  -4   6  -3  114.12    3.90
  -4   6  -3  113.32    4.01
  -5   6  -3   32.06    0.93
  -5   6  -3   33.98    0.89
  -6   6  -3   14.13    0.66
  -6   6  -3   13.71    0.62
  -7   6  -3    5.31    0.43
  -8   6  -3    7.12    0.49
  -9   6  -3    8.90    0.64
 -10   6  -3    9.40    0.79
 -11   6  -3    0.03    0.39
 -12   6  -3   47.07    2.13
 -13   6  -3    6.34    0.80
 -14   6  -3   17.58    1.13
 -15   6  -3    2.87    0.69
 -16   6  -3    2.32    0.74
  14   5  -3    1.89    0.49
  14   5  -3    1.41    0.62
  13   5  -3    0.26    0.51
  13   5  -3    0.15    0.38
  12   5  -3    0.22    0.48
  12   5  -3    0.56    0.39
  11   5  -3    4.69    0.57
  11   5  -3    4.10    0.66
  10   5  -3    0.95    0.54
  10   5  -3    1.46    0.46
   9   5  -3    0.05    0.42
   9   5  -3    0.14    0.36
   8   5  -3   16.49    1.04
   8   5  -3   15.82    1.10
   7   5  -3    1.85    0.32
   7   5  -3    1.55    0.40
   6   5  -3    0.38    0.25
   6   5  -3    0.00    0.28
   5   5  -3    1.04    0.25
   5   5  -3    0.36    0.23
   4   5  -3   16.46    1.09
   4   5  -3   16.98    1.04
   3   5  -3   11.96    0.55
   3   5  -3   12.32    0.53
   2   5  -3  151.39    5.30
   2   5  -3  151.38    5.64
   1   5  -3   62.61    2.18
   1   5  -3   63.19    2.07
   0   5  -3    5.70    0.17
   0   5  -3    5.27    0.20
  -1   5  -3   62.71    2.15
  -1   5  -3   62.65    2.09
  -2   5  -3   62.93    1.95
  -2   5  -3   61.92    1.93
  -3   5  -3   62.96    1.57
  -3   5  -3   62.20    1.56
  -4   5  -3    4.78    0.33
  -4   5  -3    4.13    0.38
  -5   5  -3    4.62    0.14
  -6   5  -3    0.31    0.19
  -7   5  -3    0.03    0.22
  -8   5  -3  131.32    4.56
  -9   5  -3    1.56    0.46
 -10   5  -3    0.05    0.37
 -11   5  -3    0.12    0.41
 -12   5  -3   17.05    1.05
 -13   5  -3   35.26    1.73
 -14   5  -3    4.32    0.71
 -15   5  -3    7.35    0.94
 -16   5  -3    0.02    0.53
  14   4  -3    0.33    0.59
  13   4  -3    3.23    0.65
  13   4  -3    4.14    0.56
  12   4  -3    0.14    0.33
  12   4  -3    0.36    0.50
  11   4  -3    0.53    0.48
  11   4  -3    0.57    0.39
  10   4  -3    3.45    0.42
  10   4  -3    3.21    0.48
   9   4  -3    1.16    0.39
   9   4  -3    0.16    0.42
   8   4  -3   51.24    1.78
   8   4  -3   46.31    1.91
   7   4  -3   49.20    2.09
   7   4  -3   51.25    1.93
   6   4  -3   34.17    1.17
   6   4  -3   34.82    1.08
   5   4  -3    1.30    0.39
   5   4  -3    1.53    0.36
   4   4  -3    7.24    0.32
   4   4  -3    7.47    0.31
   3   4  -3   74.95    2.31
   3   4  -3   74.47    2.15
   2   4  -3  114.20    3.16
   2   4  -3  111.26    3.38
   1   4  -3   36.22    1.33
   1   4  -3   35.83    1.41
   0   4  -3   54.27    1.60
   0   4  -3   54.87    1.53
  -1   4  -3   32.46    1.33
  -1   4  -3   30.51    1.29
   1  -4   3   33.20    1.34
  -2   4  -3   10.08    0.24
  -2   4  -3    9.20    0.30
  -3   4  -3   32.67    1.38
  -4   4  -3  105.39    2.68
  -5   4  -3   34.80    1.52
  -6   4  -3   17.72    0.81
  -7   4  -3   62.51    2.27
  -8   4  -3   71.22    2.19
  -9   4  -3   16.32    0.97
 -10   4  -3    6.57    0.58
  10  -4   3    5.66    0.48
 -11   4  -3    1.82    0.50
  11  -4   3    1.42    0.35
 -12   4  -3    4.55    0.69
  12  -4   3    3.22    0.53
 -13   4  -3    4.42    0.68
  13  -4   3    5.01    0.60
 -14   4  -3    1.40    0.59
 -15   4  -3    0.02    0.56
 -16   4  -3    1.57    0.65
  15   3  -3    0.13    0.50
  14   3  -3    6.37    0.85
  13   3  -3    1.58    0.57
  12   3  -3    4.06    0.65
  12   3  -3    4.96    0.54
  11   3  -3    6.11    0.67
  11   3  -3    5.04    0.79
 -11  -3   3    5.65    0.47
  10   3  -3   12.75    1.02
  10   3  -3   14.12    0.85
 -10  -3   3   13.68    0.66
   9   3  -3   16.69    0.99
   9   3  -3   15.86    0.86
  -9  -3   3   16.56    0.70
   8   3  -3   24.25    1.33
   8   3  -3   27.13    1.20
  -8  -3   3   26.40    1.06
   7   3  -3    8.37    0.72
   7   3  -3    8.54    0.82
  -7  -3   3    8.59    0.60
   6   3  -3   50.36    2.15
   6   3  -3   50.27    1.95
  -6  -3   3   51.05    1.90
   5   3  -3   64.16    2.08
   5   3  -3   63.77    2.27
   4   3  -3    0.80    0.20
   4   3  -3    0.85    0.16
   3   3  -3    5.84    0.27
   3   3  -3    5.41    0.21
   2   3  -3   51.76    1.17
   2   3  -3   55.36    1.07
   1   3  -3  135.35    7.96
   1   3  -3  132.76    8.51
   0   3  -3  175.39   11.92
   0   3  -3  179.53   11.18
  -1   3  -3  126.82    2.13
  -1   3  -3  129.98    2.23
   1  -3   3  132.01    2.25
  -2   3  -3  219.66   12.45
  -3   3  -3   33.96    0.69
  -4   3  -3   41.76    2.55
  -5   3  -3   17.53    1.11
  -6   3  -3   14.55    0.57
  -7   3  -3   74.95    2.49
  -8   3  -3    1.00    0.28
   8  -3   3    0.82    0.22
   9  -3   3    5.88    0.57
  10  -3   3   15.91    1.04
  11  -3   3    0.09    0.31
  12  -3   3   17.81    0.97
 -13   3  -3   11.67    0.94
  13  -3   3   12.24    0.81
 -14   3  -3    0.00    0.48
  14  -3   3    1.19    0.45
 -15   3  -3    2.24    0.73
 -16   3  -3    0.35    0.65
  15   2  -3    0.24    0.47
  14   2  -3   27.36    1.47
  13   2  -3    0.23    0.42
  12   2  -3    4.24    0.69
 -12  -2   3    5.07    0.48
  11   2  -3    0.88    0.30
  11   2  -3    0.83    0.41
 -11  -2   3    0.60    0.24
  10   2  -3    1.55    0.40
  10   2  -3    2.23    0.35
 -10  -2   3    1.76    0.26
   9   2  -3   34.22    1.57
   9   2  -3   34.47    1.81
  -9  -2   3   32.59    1.49
   8   2  -3    0.47    0.24
   8   2  -3    0.27    0.32
  -8  -2   3    0.35    0.21
   7   2  -3   10.61    1.00
  -7  -2   3   11.23    0.82
   6   2  -3    7.58    0.80
  -6  -2   3    7.77    0.64
   5   2  -3    2.47    0.23
  -5  -2   3    2.36    0.15
   4   2  -3  148.94    4.65
  -4  -2   3  148.11    4.44
   3   2  -3   25.77    1.83
  -3  -2   3   24.27    1.71
  -3  -2   3   24.38    1.62
   2   2  -3    2.94    0.54
  -2  -2   3    2.92    0.42
   1   2  -3  109.21    2.39
  -1  -2   3  114.14    2.21
   0   2  -3  109.96    1.97
   0   2  -3  114.41    2.13
   0  -2   3  111.82    2.12
  -1   2  -3   99.15    8.67
   1  -2   3  109.26    8.70
  -2   2  -3   85.99    2.39
  -3   2  -3    9.16    0.21
  -4   2  -3    8.05    0.40
  -5   2  -3   29.41    1.22
  -6   2  -3    0.61    0.22
  -7   2  -3    0.23    0.28
   7  -2   3    0.42    0.25
   8  -2   3   29.75    1.27
   9  -2   3    0.63    0.30
  10  -2   3    7.32    0.63
  11  -2   3    0.08    0.34
  12  -2   3    7.23    0.74
  13  -2   3    9.43    0.80
  14  -2   3    0.24    0.46
 -15   2  -3    0.34    0.56
  15  -2   3    0.14    0.45
 -16   2  -3    0.68    0.59
  16   1  -3    0.38    0.54
  15   1  -3    2.85    0.65
  14   1  -3    4.33    0.71
  13   1  -3   12.93    1.01
 -13  -1   3   14.63    0.79
  12   1  -3    5.26    0.70
 -12  -1   3    5.13    0.44
  11   1  -3    0.12    0.36
 -11  -1   3    0.12    0.26
  10   1  -3    9.51    0.83
 -10  -1   3    9.92    0.68
   9   1  -3    3.34    0.59
  -9  -1   3    2.95    0.40
   8   1  -3    0.43    0.30
   8   1  -3    0.49    0.16
  -8  -1   3    1.31    0.24
   7   1  -3   11.75    0.37
   7   1  -3   10.12    0.47
  -7  -1   3   11.56    0.39
   6   1  -3    7.06    0.41
   6   1  -3    6.11    0.51
  -6  -1   3    6.92    0.45
   5   1  -3  122.33    5.41
   5   1  -3  120.99    4.97
  -5  -1   3  122.85    5.19
   4   1  -3   61.46    1.88
   4   1  -3   63.35    2.11
  -4  -1   3   63.19    1.99
  -4  -1   3   64.73    1.87
   3   1  -3  151.22   13.58
   3   1  -3  152.70   14.57
  -3  -1   3  142.17   13.56
  -3  -1   3  145.12   14.17
   2   1  -3  203.20    3.41
   2   1  -3  199.63    3.11
  -2  -1   3  193.64    3.28
  -2  -1   3  207.59    3.11
   1   1  -3  148.21    2.08
   1   1  -3  146.77    1.87
  -1  -1   3  143.53    1.98
   0   1  -3    0.05    0.28
   0   1  -3    0.06    0.28
   0  -1   3    0.06    0.28
  -1   1  -3    0.05    0.72
  -2   1  -3   28.34    2.82
  -3   1  -3   14.54    0.35
  -4   1  -3   11.08    0.38
  -5   1  -3  192.80    7.90
  -6   1  -3   57.71    2.30
   6  -1   3   57.42    2.27
   7  -1   3   23.15    1.17
   8  -1   3   25.26    1.19
   9  -1   3    7.22    0.48
  10  -1   3    0.01    0.33
  11  -1   3    1.94    0.53
  12  -1   3    2.38    0.51
  13  -1   3    3.98    0.60
  14  -1   3   10.47    0.97
 -15   1  -3    6.68    0.92
  15  -1   3    6.83    0.81
  16   0  -3    0.00    0.50
  15   0  -3    6.74    0.84
  14   0  -3    1.72    0.52
  13   0  -3    0.16    0.43
 -13   0   3    0.24    0.30
  12   0  -3    4.16    0.68
 -12   0   3    4.36    0.48
  11   0  -3    2.85    0.48
 -11   0   3    2.99    0.36
  10   0  -3   24.41    1.14
 -10   0   3   24.64    0.99
   9   0  -3   29.56    1.21
  -9   0   3   29.72    1.05
   8   0  -3    2.63    0.39
  -8   0   3    2.86    0.32
   7   0  -3   17.97    1.06
  -7   0   3   16.35    0.94
   6   0  -3   26.14    0.79
  -6   0   3   25.62    0.71
   5   0  -3   15.85    0.36
   5   0  -3   14.77    0.50
  -5   0   3   14.53    0.45
  -5   0   3   15.00    0.36
   4   0  -3   21.70    1.15
   4   0  -3   21.93    1.34
  -4   0   3   21.84    1.27
  -4   0   3   22.49    1.15
   3   0  -3  626.05   33.10
   3   0  -3  616.52   30.89
  -3   0   3  625.31   30.88
  -3   0   3  614.35   32.45
   2   0  -3  147.76    6.40
  -2   0   3  138.03    6.22
   1   0  -3    6.46    1.25
   1   0  -3    6.53    1.41
  -1   0   3    5.66    1.35
  -1   0   3    6.44    1.39
   0   0  -3   30.79    2.24
   0   0  -3   30.46    2.11
   0   0   3   28.98    2.24
   0   0   3   28.36    2.20
  -1   0  -3   58.28    4.17
  -1   0  -3   52.31    4.31
  -1   0  -3   53.11    4.42
  -2   0  -3    8.70    0.64
   2   0   3    9.40    0.62
  -3   0  -3   25.88    1.00
   3   0   3   25.61    0.95
  -4   0  -3    0.13    0.28
   4   0   3    0.16    0.27
  -5   0  -3   31.55    1.31
   5   0   3   31.17    1.28
   6   0   3   17.19    1.06
   7   0   3    3.08    0.45
   8   0   3   12.56    0.65
   9   0   3    0.87    0.43
  10   0   3   18.61    1.08
  11   0   3   14.00    0.88
 -12   0  -3    0.88    0.28
  12   0   3    0.52    0.41
  13   0   3    8.66    0.86
  14   0   3    5.77    0.72
 -15   0  -3   10.33    1.02
  15   0   3    9.10    0.89
  16  -1  -3    0.02    0.43
  15  -1  -3    2.43    0.64
  14  -1  -3    5.75    0.72
 -14   1   3    6.02    0.57
  13  -1  -3    0.19    0.38
 -13   1   3    0.83    0.33
  12  -1  -3    0.30    0.39
 -12   1   3    0.56    0.35
  11  -1  -3    5.07    0.56
 -11   1   3    4.45    0.42
  10  -1  -3   32.90    1.42
 -10   1   3   29.11    1.26
   9  -1  -3   11.29    0.72
  -9   1   3   10.23    0.68
   8  -1  -3   80.85    3.21
  -8   1   3   83.74    3.07
   7  -1  -3   85.28    3.48
  -7   1   3   88.98    3.36
   6  -1  -3   42.79    2.61
  -6   1   3   41.55    2.51
   5  -1  -3    7.18    0.50
  -5   1   3    7.89    0.53
  -5   1   3    7.28    0.38
   4  -1  -3    1.14    0.17
  -4   1   3    1.09    0.08
  -4   1   3    1.28    0.18
   3  -1  -3   12.99    1.17
  -3   1   3   13.42    0.99
  -3   1   3   13.64    1.16
   2  -1  -3   95.36    2.04
   2  -1  -3   91.50    2.28
  -2   1   3   93.28    2.04
  -2   1   3   92.31    2.23
   1  -1  -3    0.50    0.15
   1  -1  -3    0.53    0.13
  -1   1   3    0.75    0.16
  -1   1   3    0.66    0.19
  -1   1   3    0.45    0.12
   0  -1  -3   16.30    1.75
   0  -1  -3   16.24    1.74
   0  -1  -3   16.16    1.66
   0   1   3   15.97    1.66
   0   1   3   15.37    1.73
   0   1   3   17.41    1.77
  -1  -1  -3    0.71    0.15
  -1  -1  -3    0.71    0.15
   1   1   3    1.08    0.19
   1   1   3    0.70    0.15
  -2  -1  -3  272.71   10.52
  -2  -1  -3  276.11   10.83
   2   1   3  273.57   10.18
  -3  -1  -3    8.47    0.41
  -3  -1  -3    9.35    0.33
   3   1   3    9.18    0.40
  -4  -1  -3   23.67    0.83
   4   1   3   23.46    0.78
   5   1   3    1.99    0.32
   5   1   3    1.88    0.32
   6   1   3   45.62    1.76
   6   1   3   43.47    1.83
   7   1   3  150.38    4.61
   7   1   3  149.42    4.89
   8   1   3    5.62    0.62
   8   1   3    4.85    0.57
   9   1   3    7.97    0.76
  10   1   3   16.32    0.97
 -11  -1  -3   17.87    0.74
  11   1   3   15.36    1.00
  12   1   3    6.49    0.73
  13   1   3    1.47    0.51
  14   1   3    3.00    0.62
 -15  -1  -3    0.97    0.61
  15   1   3    1.18    0.55
  16  -2  -3    0.97    0.51
  15  -2  -3    0.04    0.47
 -15   2   3    0.00    0.36
  14  -2  -3   10.62    0.87
 -14   2   3   11.78    0.84
  13  -2  -3    6.70    0.70
 -13   2   3    7.08    0.61
  12  -2  -3   12.30    0.82
 -12   2   3   12.48    0.83
  11  -2  -3    1.40    0.50
 -11   2   3    0.98    0.42
  10  -2  -3   41.88    1.65
 -10   2   3   42.08    1.57
   9  -2  -3    8.73    0.63
  -9   2   3    8.51    0.61
   8  -2  -3  113.02    3.94
  -8   2   3  112.77    3.82
   7  -2  -3    1.29    0.22
  -7   2   3    1.19    0.26
   6  -2  -3    5.18    0.86
  -6   2   3    4.70    0.86
   5  -2  -3   17.08    0.56
  -5   2   3   17.78    0.60
   4  -2  -3    3.18    0.90
  -4   2   3    3.06    0.94
  -4   2   3    3.40    0.78
   3  -2  -3   31.35    0.83
   3  -2  -3   29.44    0.70
  -3   2   3   28.18    0.84
  -3   2   3   29.27    0.68
   2  -2  -3  196.57   17.84
   2  -2  -3  255.94   16.76
  -2   2   3  251.39   16.79
  -2   2   3  244.78   17.46
  -2   2   3  247.65   17.90
   1  -2  -3   19.88    2.12
   1  -2  -3   17.50    1.99
  -1   2   3   16.55    2.11
  -1   2   3   17.35    2.00
  -1   2   3   16.93    2.12
   0  -2  -3   12.53    0.91
   0   2   3   12.50    0.93
   0   2   3   12.64    0.89
  -1  -2  -3   60.01    2.83
  -1  -2  -3   60.69    2.74
   1   2   3   62.43    2.69
  -2  -2  -3  362.37   13.17
  -2  -2  -3  368.26   12.80
   2   2   3  375.11   12.80
   2   2   3  372.26   12.38
  -3  -2  -3  153.38    4.96
  -3  -2  -3  154.33    5.19
   3   2   3  158.13    4.90
  -4  -2  -3    5.18    0.42
  -4  -2  -3    5.18    0.57
   4   2   3    5.57    0.56
   4   2   3    5.21    0.55
  -5  -2  -3    8.19    0.46
   5   2   3    7.98    0.63
   5   2   3    8.71    0.64
  -6  -2  -3   10.78    0.40
   6   2   3   10.80    0.61
   6   2   3   11.51    0.60
  -7  -2  -3   17.10    0.59
   7   2   3   17.02    0.83
   7   2   3   17.03    0.85
  -8  -2  -3    7.49    0.40
   8   2   3    6.91    0.72
   8   2   3    6.95    0.66
  -9  -2  -3    0.21    0.13
  -9  -2  -3    0.09    0.12
   9   2   3    0.00    0.30
   9   2   3    0.02    0.34
  10   2   3    5.05    0.63
  10   2   3    5.43    0.61
  11   2   3    1.31    0.45
  12   2   3    8.47    0.87
  13   2   3   12.19    1.06
  14   2   3    0.60    0.54
  17  -3  -3    0.83    0.47
  16  -3  -3    9.43    0.92
 -16   3   3    7.99    0.76
  15  -3  -3    4.27    0.64
 -15   3   3    5.20    0.61
  14  -3  -3    5.49    0.71
 -14   3   3    5.41    0.63
  13  -3  -3    7.81    0.73
 -13   3   3    7.39    0.64
  12  -3  -3   11.33    0.82
 -12   3   3   12.68    0.85
  11  -3  -3   13.17    0.92
 -11   3   3   13.99    0.95
  10  -3  -3    1.75    0.44
 -10   3   3    1.48    0.40
   9  -3  -3   10.15    0.70
  -9   3   3   10.79    0.72
   8  -3  -3   21.31    0.97
  -8   3   3   21.81    0.98
   7  -3  -3   49.51    2.20
  -7   3   3   49.67    2.19
   6  -3  -3   31.74    1.32
  -6   3   3   32.45    1.35
  -6   3   3   32.93    1.18
   5  -3  -3  105.17    3.05
  -5   3   3  105.73    3.04
  -5   3   3  101.23    2.81
   4  -3  -3   45.94    1.16
   4  -3  -3   45.10    1.05
  -4   3   3   47.28    1.05
  -4   3   3   45.46    1.21
   3  -3  -3    0.19    0.33
  -3   3   3    0.16    0.29
  -3   3   3    0.13    0.44
   2  -3  -3   94.02    2.32
  -2   3   3   90.63    2.44
  -2   3   3   89.51    2.31
  -2   3   3   90.31    2.47
  -1   3   3   14.40    0.26
  -1   3   3   14.03    0.22
  -1   3   3   13.65    0.28
   0  -3  -3   34.43    1.74
   0   3   3   33.32    1.68
   0   3   3   33.57    1.72
  -1  -3  -3   75.15    2.34
   1   3   3   75.28    2.24
  -2  -3  -3    4.43    0.22
  -2  -3  -3    3.30    0.24
   2   3   3    4.08    0.29
   2   3   3    4.23    0.21
  -3  -3  -3   22.87    0.61
  -3  -3  -3   22.88    0.74
   3   3   3   22.65    0.73
   3   3   3   23.60    0.61
  -4  -3  -3    5.08    0.17
   4   3   3    5.43    0.29
   4   3   3    4.40    0.30
  -5  -3  -3    0.01    0.10
   5   3   3    0.02    0.23
   5   3   3    0.11    0.22
   6   3   3    3.71    0.40
   6   3   3    4.06    0.42
   7   3   3   16.16    0.85
   7   3   3   16.87    0.87
   8   3   3    0.70    0.35
   8   3   3    0.95    0.35
   9   3   3    0.01    0.35
   9   3   3    0.48    0.36
  10   3   3    1.13    0.44
  10   3   3    1.70    0.45
  11   3   3   14.79    0.94
  11   3   3   14.66    0.99
  12   3   3    0.14    0.42
  13   3   3    1.71    0.57
  14   3   3    2.21    0.57
  17  -4  -3    0.59    0.48
  16  -4  -3    6.08    0.78
 -16   4   3    6.42    0.71
  15  -4  -3    9.32    0.88
 -15   4   3   12.08    0.91
  14  -4  -3    0.51    0.43
 -14   4   3    0.22    0.41
  13  -4  -3    0.67    0.39
 -13   4   3    1.31    0.40
  12  -4  -3    0.99    0.40
 -12   4   3    0.22    0.34
  11  -4  -3    5.57    0.54
 -11   4   3    4.46    0.55
  10  -4  -3   47.81    1.96
 -10   4   3   49.64    1.95
   9  -4  -3   10.36    0.63
  -9   4   3   12.09    0.77
   8  -4  -3   30.26    1.14
  -8   4   3   31.51    1.02
  -8   4   3   29.80    1.19
   7  -4  -3   12.06    0.90
  -7   4   3   11.55    0.98
  -7   4   3   11.03    0.78
   6  -4  -3    1.28    0.20
  -6   4   3    0.82    0.25
  -6   4   3    1.30    0.18
  -5   4   3  123.00    3.25
  -5   4   3  126.12    3.02
   4  -4  -3   53.26    1.79
  -4   4   3   52.97    1.67
  -4   4   3   52.16    1.85
   3  -4  -3   55.96    1.48
  -3   4   3   51.26    1.52
  -3   4   3   56.57    1.43
  -3   4   3   52.91    1.37
   2  -4  -3   19.06    0.90
  -2   4   3   19.77    0.87
  -2   4   3   20.11    0.97
  -2   4   3   20.26    0.87
   1  -4  -3   25.30    0.96
  -1   4   3   23.63    0.96
  -1   4   3   24.25    1.02
   0   4   3    0.24    0.25
   0   4   3    0.29    0.27
  -1  -4  -3    6.98    0.48
   1   4   3    6.39    0.44
   1   4   3    6.59    0.50
  -2  -4  -3   19.47    0.82
   2   4   3   19.17    0.82
   2   4   3   19.01    0.73
  -3  -4  -3    4.55    0.44
   3   4   3    4.51    0.43
   3   4   3    4.62    0.32
   4   4   3   23.17    1.03
   4   4   3   23.23    1.04
   5   4   3    2.29    0.33
   5   4   3    2.28    0.35
   6   4   3    0.00    0.29
   6   4   3    0.27    0.30
   7   4   3   38.84    1.59
   7   4   3   37.74    1.63
   8   4   3    0.02    0.33
   8   4   3    0.51    0.37
   9   4   3    9.50    0.79
   9   4   3    9.36    0.84
  10   4   3    3.71    0.63
  10   4   3    3.25    0.57
  11   4   3   10.08    0.91
  11   4   3    7.62    0.78
  12   4   3    0.00    0.42
  12   4   3    0.83    0.44
  13   4   3    0.84    0.51
 -14  -4  -3    4.31    0.82
  17  -5  -3    0.19    0.41
 -17   5   3    0.66    0.51
  16  -5  -3    0.00    0.39
 -16   5   3    0.09    0.46
  15  -5  -3    5.97    0.78
 -15   5   3    5.42    0.72
  14  -5  -3    2.81    0.46
 -14   5   3    2.08    0.49
  13  -5  -3    1.03    0.39
 -13   5   3    1.26    0.46
  12  -5  -3    1.14    0.35
 -12   5   3    0.81    0.43
  11  -5  -3   30.11    1.33
 -11   5   3   32.58    1.17
 -11   5   3   30.89    1.35
  10  -5  -3   11.86    0.66
 -10   5   3   11.08    0.54
 -10   5   3   11.86    0.81
   9  -5  -3   32.75    1.22
  -9   5   3   32.35    1.09
  -9   5   3   33.39    1.29
   8  -5  -3   41.03    1.35
  -8   5   3   40.95    1.24
  -8   5   3   42.17    1.44
  -7   5   3   21.48    0.80
  -7   5   3   21.89    1.00
   6  -5  -3    2.54    0.17
  -6   5   3    2.66    0.20
  -6   5   3    2.01    0.27
   5  -5  -3   18.27    1.09
  -5   5   3   17.77    1.21
  -5   5   3   17.56    1.05
   4  -5  -3    3.20    0.12
  -4   5   3    3.11    0.15
  -4   5   3    2.00    0.21
   3  -5  -3   25.36    1.26
  -3   5   3   22.45    1.20
  -3   5   3   21.71    1.20
  -3   5   3   23.03    1.34
   2  -5  -3   29.88    0.49
  -2   5   3   29.19    0.60
  -2   5   3   30.66    0.53
  -2   5   3   30.40    0.48
   1  -5  -3   35.20    1.10
  -1   5   3   33.90    1.17
  -1   5   3   33.11    1.11
   0   5   3  143.34    3.49
   0   5   3  142.40    3.40
  -1  -5  -3   10.25    0.45
   1   5   3    9.73    0.45
   1   5   3    9.77    0.49
  -2  -5  -3    6.08    0.44
   2   5   3    5.90    0.38
   2   5   3    5.91    0.46
  -3  -5  -3   12.65    0.56
   3   5   3   12.18    0.58
   3   5   3   12.12    0.43
   4   5   3   18.19    0.78
   4   5   3   15.73    0.54
   4   5   3   17.66    0.74
   5   5   3    0.04    0.23
   5   5   3    0.00    0.27
   6   5   3    5.34    0.60
   6   5   3    4.69    0.60
   7   5   3   28.45    1.30
   7   5   3   28.15    1.31
   8   5   3    6.64    0.71
   8   5   3    7.55    0.75
   9   5   3    0.03    0.37
   9   5   3    0.03    0.38
  10   5   3    5.45    0.66
  10   5   3    5.08    0.65
  11   5   3    4.33    0.69
  11   5   3    4.93    0.72
  12   5   3    0.00    0.39
  12   5   3    0.02    0.51
  13   5   3    3.57    0.66
  13   5   3    2.43    0.68
  17  -6  -3    0.70    0.45
  16  -6  -3    2.00    0.54
 -16   6   3    2.31    0.46
 -16   6   3    1.40    0.54
  15  -6  -3    4.64    0.66
 -15   6   3    4.22    0.69
 -15   6   3    4.26    0.51
  14  -6  -3   16.98    1.04
 -14   6   3   17.63    0.91
 -14   6   3   15.63    1.11
  13  -6  -3    2.05    0.44
 -13   6   3    2.33    0.37
 -13   6   3    2.51    0.54
  12  -6  -3    0.95    0.39
 -12   6   3    0.46    0.41
 -12   6   3    1.05    0.33
  11  -6  -3    5.72    0.55
 -11   6   3    5.24    0.65
 -11   6   3    5.67    0.48
  10  -6  -3    4.41    0.40
 -10   6   3    3.47    0.35
 -10   6   3    3.92    0.53
   9  -6  -3    0.05    0.19
  -9   6   3    0.30    0.38
  -9   6   3    0.42    0.27
   8  -6  -3   65.54    2.28
  -8   6   3   63.85    2.16
  -8   6   3   63.57    2.38
   7  -6  -3    0.10    0.15
  -7   6   3    0.01    0.27
  -7   6   3    0.10    0.19
   6  -6  -3   13.02    0.59
  -6   6   3   12.94    0.78
  -6   6   3   13.18    0.60
   5  -6  -3   10.24    0.57
  -5   6   3    9.97    0.76
  -5   6   3   10.79    0.61
   4  -6  -3    1.86    0.21
  -4   6   3    1.66    0.37
  -4   6   3    1.80    0.18
  -4   6   3    1.49    0.25
   3  -6  -3   57.67    1.43
  -3   6   3   53.64    1.54
  -3   6   3   54.17    1.38
  -3   6   3   52.86    1.39
   2  -6  -3   54.48    2.52
  -2   6   3   51.83    2.46
  -2   6   3   55.26    2.60
  -2   6   3   54.16    2.52
   1  -6  -3    7.88    0.41
  -1   6   3    8.05    0.49
  -1   6   3    8.34    0.55
   0  -6  -3   67.62    2.61
   0   6   3   67.12    2.60
   0   6   3   64.27    2.54
   1   6   3    4.10    0.43
   1   6   3    3.67    0.47
  -2  -6  -3   61.63    2.26
   2   6   3   61.91    2.14
   2   6   3   62.16    2.21
  -3  -6  -3    9.78    0.62
   3   6   3    9.64    0.51
   3   6   3    9.36    0.66
  -4  -6  -3   19.41    0.83
   4   6   3   17.05    0.61
   4   6   3   20.18    0.82
   4   6   3   19.83    0.88
   5   6   3    0.11    0.32
   5   6   3    0.07    0.35
   6   6   3    6.94    0.66
   6   6   3    6.29    0.58
   7   6   3   20.28    1.04
   7   6   3   19.65    1.07
   8   6   3   15.07    0.92
   8   6   3   14.29    0.86
   9   6   3   11.73    0.88
   9   6   3   12.43    0.87
  10   6   3    0.89    0.44
  10   6   3    0.46    0.48
  11   6   3    0.14    0.51
  11   6   3    0.02    0.44
  12   6   3    1.83    0.59
  12   6   3    0.46    0.49
  17  -7  -3    0.13    0.44
  16  -7  -3    5.15    0.67
 -16   7   3    4.97    0.57
 -16   7   3    5.40    0.74
  15  -7  -3    6.62    0.70
 -15   7   3    6.74    0.61
 -15   7   3    6.90    0.80
  14  -7  -3   13.02    0.87
 -14   7   3   13.04    0.76
 -14   7   3   12.65    1.00
  13  -7  -3    3.10    0.44
 -13   7   3    2.89    0.54
 -13   7   3    3.91    0.44
  12  -7  -3   17.87    0.94
 -12   7   3   19.57    0.87
 -12   7   3   17.93    1.14
  11  -7  -3    0.00    0.26
 -11   7   3    0.31    0.30
 -11   7   3    0.13    0.39
  10  -7  -3    0.67    0.20
 -10   7   3    0.22    0.39
 -10   7   3    0.22    0.27
   9  -7  -3    6.10    0.42
  -9   7   3    5.88    0.56
  -9   7   3    5.80    0.42
   8  -7  -3   29.04    1.25
  -8   7   3   28.17    1.22
  -8   7   3   30.38    1.48
   7  -7  -3    6.56    0.35
  -7   7   3    6.70    0.56
  -7   7   3    6.40    0.40
   6  -7  -3    5.20    0.41
  -6   7   3    4.89    0.46
  -6   7   3    5.22    0.66
   5  -7  -3   16.20    0.49
  -5   7   3   16.24    0.46
  -5   7   3   15.48    0.73
  -5   7   3   16.85    0.58
   4  -7  -3   29.70    1.01
  -4   7   3   30.39    1.07
  -4   7   3   29.87    1.23
  -4   7   3   29.75    1.00
   3  -7  -3    8.00    0.50
  -3   7   3    7.92    0.67
  -3   7   3    7.08    0.54
  -3   7   3    7.41    0.45
   2  -7  -3   77.53    2.61
   2  -7  -3   74.26    2.61
  -2   7   3   74.59    2.72
  -2   7   3   74.44    2.58
   1  -7  -3   17.00    0.99
  -1   7   3   16.48    1.06
  -1   7   3   16.78    1.10
   0  -7  -3   26.19    1.07
   0   7   3   25.27    1.10
   0   7   3   25.83    1.12
   1   7   3   89.26    3.13
   1   7   3   87.62    3.12
  -2  -7  -3   48.36    1.94
   2   7   3   51.24    1.84
   2   7   3   46.40    1.92
  -3  -7  -3    8.51    0.47
   3   7   3    8.37    0.38
   3   7   3    7.65    0.50
  -4  -7  -3   26.55    1.14
   4   7   3   25.13    1.15
   4   7   3   25.21    0.90
   5   7   3   12.57    0.74
   5   7   3   11.95    0.76
   6   7   3    6.58    0.62
   6   7   3    6.55    0.54
   7   7   3    0.43    0.35
   7   7   3    0.00    0.35
   8   7   3    2.60    0.47
   8   7   3    3.00    0.56
   9   7   3    6.49    0.77
   9   7   3    5.27    0.73
  10   7   3    3.55    0.63
  10   7   3    3.06    0.63
  11   7   3    4.78    0.70
  11   7   3    4.03    0.66
 -12  -7  -3    0.78    0.55
  12   7   3    0.15    0.48
  12   7   3    0.00    0.43
  16  -8  -3    0.94    0.46
 -16   8   3    1.47    0.44
 -16   8   3    1.36    0.60
  15  -8  -3   11.72    0.91
 -15   8   3   11.37    1.00
 -15   8   3   11.53    0.80
  14  -8  -3    5.65    0.63
 -14   8   3    5.05    0.78
 -14   8   3    5.41    0.59
  13  -8  -3    0.44    0.31
 -13   8   3    1.14    0.36
 -13   8   3    0.98    0.46
 -12   8   3   12.45    0.84
 -12   8   3   12.24    1.05
  11  -8  -3    0.15    0.28
 -11   8   3    0.00    0.41
 -11   8   3    0.00    0.28
  10  -8  -3    4.40    0.36
 -10   8   3    3.93    0.57
 -10   8   3    4.20    0.39
   9  -8  -3   27.90    1.16
  -9   8   3   25.82    1.14
  -9   8   3   26.11    1.42
   8  -8  -3   29.72    1.04
  -8   8   3   28.63    1.06
  -8   8   3   28.81    1.29
   7  -8  -3    2.07    0.21
  -7   8   3    2.41    0.31
  -7   8   3    1.72    0.42
   6  -8  -3    4.01    0.20
  -6   8   3    4.21    0.33
  -6   8   3    3.74    0.20
   5  -8  -3   19.52    0.70
  -5   8   3   19.24    0.68
  -5   8   3   19.18    0.82
   4  -8  -3  122.57    4.40
  -4   8   3  120.90    4.29
  -4   8   3  126.94    4.41
  -4   8   3  128.04    4.58
   3  -8  -3   52.88    2.07
   3  -8  -3   54.58    2.11
  -3   8   3   51.60    2.26
  -3   8   3   52.31    2.12
   2  -8  -3   20.27    0.83
   2  -8  -3   18.37    0.83
  -2   8   3   19.15    0.96
  -2   8   3   20.68    1.04
   1  -8  -3   15.35    0.69
  -1   8   3   16.04    0.85
  -1   8   3   14.46    0.80
   0  -8  -3   28.61    0.96
   0   8   3   24.11    1.00
   0   8   3   28.68    1.06
  -1  -8  -3   36.10    1.51
   1   8   3   35.35    1.49
   1   8   3   34.51    1.55
  -2  -8  -3    2.01    0.24
   2   8   3    2.76    0.36
   2   8   3    2.64    0.24
  -3  -8  -3    2.80    0.43
   3   8   3    2.66    0.31
   3   8   3    1.93    0.47
  -4  -8  -3   11.81    0.75
   4   8   3   10.14    0.54
   4   8   3    9.59    0.78
  -5  -8  -3    2.29    0.38
   5   8   3    2.34    0.37
   5   8   3    1.76    0.43
  -6  -8  -3    9.01    0.79
   6   8   3    8.11    0.81
   6   8   3    9.37    0.77
   7   8   3   16.95    1.05
   7   8   3   16.57    1.01
   8   8   3    4.36    0.67
   8   8   3    4.66    0.67
  -9  -8  -3    2.68    0.62
   9   8   3    2.97    0.66
   9   8   3    2.96    0.60
 -10  -8  -3    0.01    0.42
  10   8   3    0.07    0.45
  10   8   3    0.64    0.47
 -11  -8  -3    7.61    0.93
  11   8   3    6.95    0.89
  11   8   3    8.21    0.99
  16  -9  -3    0.00    0.37
 -16   9   3    0.01    0.53
 -16   9   3    0.00    0.36
  15  -9  -3    2.74    0.48
 -15   9   3    2.70    0.68
 -15   9   3    3.15    0.50
  14  -9  -3    0.30    0.25
 -14   9   3    0.52    0.49
 -14   9   3    0.56    0.40
  13  -9  -3   12.46    0.85
 -13   9   3   12.32    0.83
 -13   9   3   12.23    1.06
  12  -9  -3    2.48    0.39
 -12   9   3    2.26    0.41
 -12   9   3    3.65    0.63
  11  -9  -3   10.34    0.60
 -11   9   3   10.62    0.86
 -11   9   3    9.90    0.65
  10  -9  -3   11.18    0.65
 -10   9   3   10.15    0.70
 -10   9   3   11.00    0.96
   9  -9  -3    2.29    0.25
  -9   9   3    2.62    0.48
  -9   9   3    2.06    0.33
   8  -9  -3   86.30    3.48
  -8   9   3   87.34    3.72
  -8   9   3   83.86    3.39
   7  -9  -3   25.58    1.03
  -7   9   3   24.28    1.12
   6  -9  -3    1.69    0.19
  -6   9   3    2.23    0.37
  -6   9   3    1.79    0.17
  -5   9   3    0.46    0.28
  -4   9   3   10.66    0.58
  -4   9   3   10.70    0.69
   3  -9  -3   53.67    1.68
   3  -9  -3   54.95    1.65
  -3   9   3   55.03    1.76
  -3   9   3   53.47    1.90
   2  -9  -3    0.15    0.13
  -2   9   3    0.39    0.26
  -2   9   3    0.15    0.30
   1  -9  -3    7.29    0.44
  -1   9   3    7.49    0.65
  -1   9   3    8.24    0.62
   0  -9  -3    4.37    0.36
   0   9   3    2.69    0.33
   0   9   3    3.45    0.46
  -1  -9  -3    5.74    0.43
   1   9   3    4.60    0.52
   1   9   3    6.12    0.47
   2   9   3    7.62    0.60
   2   9   3    6.46    0.69
  -3  -9  -3    7.32    0.62
   3   9   3    7.15    0.70
   3   9   3    7.39    0.54
  -4  -9  -3    8.61    0.64
   4   9   3    7.59    0.47
   4   9   3    5.68    0.66
  -5  -9  -3   10.19    0.84
   5   9   3   10.36    0.89
  -6  -9  -3    0.20    0.34
   6   9   3    0.16    0.42
  -7  -9  -3    4.74    0.66
   7   9   3    4.22    0.68
   8   9   3    4.00    0.59
  -9  -9  -3    1.67    0.54
   9   9   3    1.32    0.50
 -10  -9  -3    0.21    0.51
  10   9   3    0.07    0.45
 -16  10   3    5.35    0.79
 -16  10   3    6.37    0.66
  15 -10  -3    2.48    0.48
 -15  10   3    1.88    0.47
 -15  10   3    1.75    0.66
  14 -10  -3    3.94    0.50
 -14  10   3    2.62    0.49
 -14  10   3    2.71    0.63
  13 -10  -3    1.83    0.35
 -13  10   3    2.35    0.42
 -13  10   3    2.41    0.57
  12 -10  -3   13.96    0.73
 -12  10   3   13.58    0.79
 -12  10   3   13.39    1.07
  11 -10  -3   35.29    1.48
 -11  10   3   37.68    1.52
 -11  10   3   33.72    1.77
  10 -10  -3    1.98    0.26
 -10  10   3    1.54    0.50
 -10  10   3    1.45    0.35
   9 -10  -3    2.03    0.34
  -9  10   3    1.54    0.44
  -9  10   3    1.92    0.67
   8 -10  -3   18.16    0.55
  -8  10   3   17.19    0.70
   7 -10  -3   15.30    0.54
  -7  10   3   15.80    0.54
  -7  10   3   15.65    0.76
  -6  10   3    0.59    0.29
  -5  10   3    1.46    0.37
  -4  10   3    6.48    0.60
  -4  10   3    5.48    0.47
   3 -10  -3    0.02    0.10
   3 -10  -3    0.14    0.11
  -3  10   3    0.12    0.29
  -3  10   3    0.01    0.30
   2 -10  -3    0.10    0.14
  -2  10   3    0.32    0.33
  -2  10   3    0.10    0.32
   1 -10  -3   10.47    0.56
  -1  10   3   10.26    0.78
  -1  10   3   11.31    0.79
   0 -10  -3    0.06    0.20
   0  10   3    0.03    0.11
   0  10   3    0.06    0.34
  -1 -10  -3   10.18    0.67
   1  10   3   10.64    0.83
   1  10   3   10.21    0.75
  -2 -10  -3    1.00    0.32
   2  10   3    0.81    0.44
   2  10   3    1.06    0.31
  -3 -10  -3    1.37    0.34
   3  10   3    1.20    0.46
   3  10   3    1.44    0.28
  -4 -10  -3    1.76    0.46
   4  10   3    1.26    0.55
  -5 -10  -3    3.47    0.49
   5  10   3    3.13    0.55
  -6 -10  -3    0.02    0.36
   6  10   3    0.85    0.51
  -7 -10  -3    0.45    0.40
   7  10   3    0.23    0.45
  -8 -10  -3    2.77    0.57
   8  10   3    3.48    0.66
  -9 -10  -3    6.54    0.86
   9  10   3    7.77    0.96
 -15  11   3    9.13    1.00
 -15  11   3    8.22    0.75
 -14  11   3    2.30    0.65
 -14  11   3    3.63    0.51
 -13  11   3    0.01    0.32
 -13  11   3    0.01    0.45
 -12  11   3    2.08    0.57
 -12  11   3    1.38    0.39
 -11  11   3    7.11    0.75
 -11  11   3    7.19    0.55
 -10  11   3    2.06    0.56
 -10  11   3    1.83    0.40
  -9  11   3    6.54    0.45
  -9  11   3    7.04    0.70
  -8  11   3    6.64    0.61
  -7  11   3    0.37    0.35
  -6  11   3   10.50    0.74
  -5  11   3    8.46    0.73
  -5  11   3    8.56    0.83
  -4  11   3    0.00    0.39
  -4  11   3    0.15    0.34
  -3  11   3    1.20    0.38
  -3  11   3    1.46    0.39
   2 -11  -3    3.81    0.28
  -2  11   3    3.83    0.52
  -2  11   3    5.06    0.56
   1 -11  -3    0.00    0.18
  -1  11   3    0.00    0.32
  -1  11   3    0.04    0.37
   0 -11  -3    1.34    0.25
   0  11   3    1.39    0.44
  -1 -11  -3   12.51    0.73
   1  11   3   12.31    0.90
   1  11   3   12.66    0.82
  -2 -11  -3    1.27    0.33
   2  11   3    1.42    0.32
   2  11   3    0.69    0.49
   3  11   3    3.35    0.51
   3  11   3    3.33    0.33
  -4 -11  -3   10.59    0.79
   4  11   3   11.32    0.93
  -5 -11  -3    7.36    0.73
   5  11   3    7.10    0.84
  -6 -11  -3    0.01    0.37
   6  11   3    0.98    0.52
  -7 -11  -3    5.92    0.68
   7  11   3    5.81    0.80
  -8 -11  -3    3.66    0.60
   8  11   3    3.56    0.73
 -15  12   3    1.15    0.59
 -15  12   3    1.07    0.43
 -14  12   3    5.24    0.83
 -14  12   3    5.96    0.61
 -13  12   3    0.00    0.35
 -13  12   3    0.00    0.47
 -12  12   3    0.04    0.55
 -12  12   3    0.39    0.38
 -11  12   3    0.53    0.38
 -11  12   3    0.82    0.52
 -10  12   3    9.19    0.91
 -10  12   3    9.48    0.66
  -9  12   3    1.02    0.54
  -9  12   3    1.62    0.42
  -8  12   3    0.16    0.36
  -8  12   3    0.48    0.45
  -7  12   3   18.88    0.85
  -7  12   3   16.98    1.02
  -6  12   3    6.98    0.74
  -6  12   3    6.36    0.62
  -5  12   3    8.17    0.71
  -5  12   3    7.68    0.60
  -4  12   3   16.27    0.98
  -4  12   3   15.43    1.03
  -3  12   3    3.37    0.55
  -3  12   3    2.39    0.49
  -2  12   3    3.54    0.53
  -2  12   3    3.50    0.55
   1 -12  -3    1.09    0.21
  -1  12   3    1.26    0.36
  -1  12   3    1.00    0.43
   0 -12  -3   13.85    0.73
   0  12   3   13.67    0.95
  -1 -12  -3   18.34    0.92
   1  12   3   17.38    1.11
   1  12   3   18.50    1.02
  -2 -12  -3    2.27    0.39
   2  12   3    1.81    0.53
   2  12   3    2.32    0.39
  -3 -12  -3   11.67    0.78
   3  12   3    9.00    0.90
  -4 -12  -3    2.07    0.35
   4  12   3    2.84    0.57
  -5 -12  -3    7.69    0.73
   5  12   3    6.53    0.82
  -6 -12  -3    0.00    0.37
   6  12   3    0.00    0.42
  -7 -12  -3    0.06    0.42
   7  12   3    0.00    0.55
 -14  13   3    4.65    0.57
 -14  13   3    4.97    0.79
 -13  13   3    1.16    0.57
 -13  13   3    0.81    0.40
 -12  13   3    1.33    0.37
 -12  13   3    1.34    0.56
 -11  13   3    1.38    0.59
 -11  13   3    1.70    0.45
 -10  13   3    2.55    0.63
 -10  13   3    2.19    0.47
  -9  13   3    8.75    0.68
  -9  13   3   10.02    0.90
  -8  13   3    9.09    0.92
  -8  13   3    8.91    0.74
  -7  13   3    0.04    0.39
  -7  13   3    0.03    0.33
  -6  13   3    1.14    0.47
  -6  13   3    1.33    0.44
  -5  13   3   24.85    1.20
  -5  13   3   23.24    1.32
  -4  13   3   15.75    1.12
  -4  13   3   14.14    0.96
  -3  13   3   26.46    1.41
  -3  13   3   24.71    1.32
  -2  13   3    9.45    0.80
  -2  13   3    8.03    0.79
  -1  13   3    8.07    0.83
  -1  13   3    7.35    0.74
   0  13   3    0.90    0.37
   0  13   3    0.94    0.50
  -1 -13  -3    7.98    0.60
   1  13   3   10.72    0.82
   1  13   3    8.94    0.88
  -2 -13  -3    0.54    0.31
   2  13   3    0.65    0.50
  -3 -13  -3   10.32    0.75
   3  13   3   10.77    0.97
  -4 -13  -3    0.02    0.31
   4  13   3    0.04    0.48
  -5 -13  -3    3.38    0.56
   5  13   3    3.27    0.72
  -6 -13  -3    0.01    0.36
   6  13   3    0.06    0.50
 -13  14   3    0.73    0.42
 -13  14   3    0.24    0.53
 -12  14   3    1.16    0.60
 -12  14   3    0.95    0.44
 -11  14   3    4.20    0.55
 -11  14   3    4.54    0.78
 -10  14   3    6.74    0.59
 -10  14   3    7.71    0.85
  -9  14   3    7.30    0.68
  -9  14   3    7.84    0.86
  -8  14   3   14.90    1.11
  -8  14   3   14.30    0.83
  -7  14   3    3.91    0.67
  -7  14   3    3.78    0.56
  -6  14   3    5.78    0.73
  -6  14   3    4.93    0.58
  -5  14   3   19.03    1.16
  -5  14   3   22.04    1.27
  -4  14   3    0.57    0.43
  -4  14   3    0.07    0.40
  -3  14   3    0.64    0.44
  -3  14   3    1.29    0.46
  -2  14   3    0.47    0.42
  -2  14   3    0.02    0.44
  -1  14   3    0.77    0.49
  -1  14   3    2.29    0.49
   0  14   3    1.49    0.58
   0  14   3    2.45    0.48
   1  14   3    8.70    0.79
   1  14   3   10.63    0.99
   2  14   3    2.24    0.59
   3  14   3    0.87    0.53
   4  14   3    0.86    0.59
 -12  15   3    0.34    0.56
 -12  15   3    0.07    0.39
 -11  15   3    5.42    0.63
 -11  15   3    7.48    0.91
 -10  15   3    0.46    0.52
 -10  15   3    0.49    0.39
  -9  15   3   11.18    1.10
  -9  15   3   10.30    0.80
  -8  15   3    0.54    0.40
  -8  15   3    0.44    0.54
  -7  15   3    2.28    0.65
  -7  15   3    2.50    0.58
  -6  15   3    0.02    0.45
  -6  15   3    0.98    0.55
  -5  15   3    0.24    0.44
  -5  15   3    0.00    0.37
  -4  15   3   15.07    1.05
  -4  15   3   14.69    1.10
  -3  15   3    0.90    0.47
  -3  15   3    0.45    0.56
  -2  15   3    6.20    0.76
  -2  15   3    6.87    0.70
  -1  15   3    5.78    0.62
  -1  15   3    4.93    0.71
   0  15   3    0.00    0.51
   0  15   3    0.63    0.42
   1  15   3    8.65    0.96
   2  15   3    0.05    0.46
   3  15   3    0.65    0.54
 -10  16   3    1.01    0.61
 -10  16   3    0.51    0.45
  -9  16   3    0.47    0.42
  -9  16   3    1.33    0.57
  -8  16   3    0.52    0.44
  -8  16   3    0.00    0.52
  -7  16   3    1.83    0.50
  -7  16   3    1.11    0.50
  -6  16   3    0.23    0.44
  -6  16   3    0.21    0.50
  -5  16   3    0.58    0.51
  -5  16   3    1.09    0.53
  -4  16   3    0.43    0.48
  -4  16   3    1.11    0.53
  -3  16   3    0.90    0.51
  -3  16   3    0.40    0.45
  -2  16   3    0.05    0.38
  -2  16   3    0.05    0.46
  -1  16   3    0.30    0.29
  -1  16   3    1.32    0.66
   0  16   3    0.07    0.61
  -8  17   3    0.01    0.54
  -8  17   3    0.34    0.45
  -7  17   3    0.19    0.54
  -7  17   3    0.00    0.53
  -6  17   3    1.22    0.54
  -6  17   3    1.18    0.58
  -5  17   3    2.08    0.61
  -5  17   3    2.62    0.63
  -4  17   3    0.11    0.47
  -4  17   3    0.72    0.59
  -3  17   3    0.75    0.51
  -3  17   3    1.84    0.61
   0  17  -4    0.43    0.56
  -1  17  -4    0.19    0.53
  -2  17  -4    0.21    0.53
  -3  17  -4    1.34    0.56
  -4  17  -4    1.65    0.50
  -5  17  -4    0.40    0.49
  -6  17  -4    0.01    0.39
  -7  17  -4    0.09    0.42
  -8  17  -4    0.92    0.47
  -9  17  -4    0.12    0.50
   3  16  -4    0.34    0.58
   2  16  -4    2.16    0.67
   1  16  -4    0.85    0.57
   0  16  -4    0.22    0.51
  -1  16  -4    0.68    0.50
  -2  16  -4    0.22    0.44
  -3  16  -4    0.92    0.47
  -4  16  -4    7.01    0.76
  -5  16  -4    0.17    0.41
  -6  16  -4    4.13    0.58
  -7  16  -4    2.01    0.49
  -8  16  -4    0.17    0.41
  -9  16  -4    0.72    0.45
 -10  16  -4    0.10    0.48
 -11  16  -4    0.33    0.51
   5  15  -4    0.88    0.50
   4  15  -4    0.33    0.61
   3  15  -4    0.11    0.56
   2  15  -4    9.82    1.00
   1  15  -4    3.03    0.72
   0  15  -4   12.83    1.02
  -1  15  -4    3.84    0.58
  -2  15  -4    0.12    0.40
  -3  15  -4    0.00    0.40
  -4  15  -4    6.79    0.67
  -5  15  -4    7.10    0.74
  -6  15  -4    0.08    0.37
  -7  15  -4    0.28    0.40
  -8  15  -4    4.09    0.61
  -9  15  -4    0.72    0.42
 -10  15  -4   11.71    0.92
 -11  15  -4    0.08    0.44
 -12  15  -4    1.24    0.51
   6  14  -4    3.65    0.62
   6  14  -4    3.56    0.78
   5  14  -4    1.94    0.51
   5  14  -4    2.14    0.67
   4  14  -4    6.66    0.71
   4  14  -4    8.76    1.02
   3  14  -4    1.34    0.42
   3  14  -4    1.25    0.60
   2  14  -4    3.97    0.51
   2  14  -4    3.80    0.73
   1  14  -4    4.37    0.72
   1  14  -4    5.15    0.54
   0  14  -4    2.95    0.58
   0  14  -4    2.15    0.33
  -1  14  -4    1.12    0.51
  -2  14  -4    0.30    0.39
  -3  14  -4    0.07    0.34
  -4  14  -4    5.03    0.59
  -5  14  -4    0.11    0.36
  -6  14  -4    5.65    0.59
  -7  14  -4    6.68    0.62
  -8  14  -4   16.83    1.13
  -9  14  -4    9.34    0.81
 -10  14  -4    3.20    0.54
 -11  14  -4    0.45    0.49
 -12  14  -4    0.79    0.51
 -13  14  -4    1.27    0.56
   7  13  -4    0.70    0.57
   7  13  -4    0.46    0.47
   6  13  -4    5.24    0.71
   6  13  -4    4.18    0.87
   5  13  -4    0.80    0.61
   5  13  -4    0.21    0.41
   4  13  -4    2.13    0.60
   4  13  -4    1.59    0.41
   3  13  -4    9.55    0.75
   3  13  -4   10.08    0.98
   2  13  -4    0.63    0.32
   2  13  -4    0.01    0.42
   1  13  -4    1.37    0.47
   1  13  -4    1.51    0.31
   0  13  -4    0.46    0.26
   0  13  -4    0.01    0.41
  -1  13  -4   14.68    0.93
  -1  13  -4   14.03    0.73
  -2  13  -4    6.81    0.41
  -2  13  -4    6.24    0.59
  -3  13  -4   11.76    0.55
  -3  13  -4   12.81    0.87
  -4  13  -4   33.89    1.57
  -5  13  -4    6.08    0.60
  -6  13  -4    0.47    0.37
  -7  13  -4    0.75    0.40
  -8  13  -4    0.15    0.36
  -9  13  -4    4.64    0.61
 -10  13  -4    0.29    0.42
 -11  13  -4    4.09    0.62
 -12  13  -4    0.05    0.47
 -13  13  -4    0.40    0.55
 -14  13  -4    3.48    0.65
   9  12  -4    0.75    0.57
   8  12  -4    0.32    0.61
   8  12  -4    0.46    0.50
   7  12  -4    0.01    0.44
   7  12  -4    0.14    0.44
   6  12  -4    0.08    0.54
   6  12  -4    0.08    0.37
   5  12  -4    0.14    0.56
   5  12  -4    1.17    0.41
   4  12  -4    5.81    0.73
   4  12  -4    6.01    0.60
   3  12  -4    2.52    0.42
   3  12  -4    3.09    0.58
   2  12  -4   12.25    0.69
   2  12  -4   10.31    0.83
   1  12  -4    0.02    0.24
   1  12  -4    0.02    0.37
   0  12  -4   11.51    0.68
   0  12  -4   12.55    0.86
  -1  12  -4    4.80    0.47
  -1  12  -4    5.55    0.64
  -2  12  -4    2.19    0.26
  -2  12  -4    2.84    0.44
  -3  12  -4    0.52    0.36
  -3  12  -4    1.17    0.20
  -4  12  -4   15.62    0.59
  -4  12  -4   17.43    0.87
  -5  12  -4    1.03    0.38
  -5  12  -4    1.46    0.20
  -6  12  -4    6.95    0.64
  -6  12  -4    8.41    0.40
  -7  12  -4   13.32    0.89
  -7  12  -4   12.61    0.57
  -8  12  -4    1.66    0.53
  -8  12  -4    2.12    0.27
  -9  12  -4    0.46    0.18
  -9  12  -4    0.40    0.39
 -10  12  -4    0.13    0.21
 -10  12  -4    0.25    0.45
 -11  12  -4    1.24    0.32
 -11  12  -4    0.87    0.51
 -12  12  -4    0.17    0.45
 -13  12  -4    0.37    0.45
 -14  12  -4    0.36    0.47
  10  11  -4    0.00    0.55
   9  11  -4    0.01    0.52
   9  11  -4    0.01    0.52
   8  11  -4    6.78    0.87
   8  11  -4    6.17    0.76
   7  11  -4    0.01    0.43
   7  11  -4    0.01    0.43
   6  11  -4    0.04    0.53
   6  11  -4    0.04    0.37
   5  11  -4    0.38    0.49
   5  11  -4    1.26    0.41
   4  11  -4    6.15    0.73
   4  11  -4    6.15    0.60
   3  11  -4   14.86    1.07
   3  11  -4   14.15    0.95
   2  11  -4    2.52    0.41
   2  11  -4    2.74    0.56
   1  11  -4    4.15    0.40
   1  11  -4    3.91    0.52
   0  11  -4   17.46    0.98
   0  11  -4   18.75    0.88
  -1  11  -4    0.22    0.35
  -1  11  -4    0.00    0.21
  -2  11  -4    4.76    0.40
  -2  11  -4    4.47    0.55
  -3  11  -4    2.64    0.41
  -3  11  -4    2.95    0.26
  -4  11  -4   13.68    0.64
  -4  11  -4   15.00    0.84
  -5  11  -4    0.59    0.16
  -5  11  -4    0.52    0.32
  -6  11  -4   10.89    0.74
  -6  11  -4   10.18    0.51
  -7  11  -4    9.83    0.75
  -7  11  -4    9.28    0.48
  -8  11  -4    1.52    0.22
  -8  11  -4    1.06    0.42
  -9  11  -4    0.45    0.41
  -9  11  -4    0.37    0.23
 -10  11  -4    0.15    0.43
 -10  11  -4    0.47    0.24
 -11  11  -4    2.90    0.54
 -11  11  -4    3.27    0.41
 -12  11  -4    0.57    0.35
 -12  11  -4    1.06    0.53
 -13  11  -4    7.91    0.70
 -13  11  -4    7.54    0.81
 -14  11  -4    5.56    0.61
 -14  11  -4    5.01    0.68
 -15  11  -4    0.11    0.52
 -15  11  -4    0.23    0.43
  10  10  -4    0.01    0.47
  10  10  -4    0.01    0.41
   9  10  -4    0.08    0.43
   9  10  -4    0.08    0.44
   8  10  -4    6.42    0.78
   8  10  -4    6.22    0.81
   7  10  -4    0.81    0.40
   7  10  -4    0.03    0.38
   6  10  -4    1.58    0.47
   6  10  -4    1.02    0.50
   5  10  -4    0.21    0.37
   5  10  -4    0.54    0.45
   4  10  -4    0.17    0.32
   4  10  -4    0.17    0.43
   3  10  -4    0.30    0.31
   3  10  -4    0.13    0.46
   2  10  -4   10.61    0.71
   2  10  -4   11.48    0.86
   1  10  -4    5.62    0.62
   1  10  -4    5.89    0.55
   0  10  -4   18.83    0.83
   0  10  -4   17.01    0.90
  -1  10  -4    0.74    0.20
  -1  10  -4    0.14    0.27
  -2  10  -4    2.74    0.26
  -2  10  -4    2.77    0.37
  -3  10  -4    5.28    0.48
  -3  10  -4    4.94    0.34
  -4  10  -4    1.12    0.19
  -4  10  -4    0.88    0.33
  -5  10  -4    8.45    0.66
  -5  10  -4    8.29    0.46
  -6  10  -4    6.88    0.35
  -6  10  -4    6.08    0.56
  -7  10  -4    1.09    0.36
  -7  10  -4    0.94    0.19
  -8  10  -4   36.62    1.49
  -8  10  -4   38.03    1.33
  -9  10  -4    7.08    0.53
  -9  10  -4    7.26    0.71
 -10  10  -4    6.67    0.50
 -10  10  -4    5.81    0.60
 -11  10  -4    1.34    0.47
 -11  10  -4    1.44    0.35
 -12  10  -4   15.81    0.98
 -12  10  -4   14.94    0.82
 -13  10  -4   13.19    0.86
 -13  10  -4   12.92    0.92
 -14  10  -4    0.00    0.42
 -14  10  -4    0.55    0.51
 -15  10  -4    5.42    0.70
 -15  10  -4    4.94    0.72
  11   9  -4    0.04    0.50
  11   9  -4    0.04    0.41
  10   9  -4    0.00    0.46
  10   9  -4    0.49    0.51
   9   9  -4    0.02    0.41
   9   9  -4    0.31    0.51
   8   9  -4   15.95    1.10
   8   9  -4   14.33    1.09
   7   9  -4    1.69    0.45
   7   9  -4    1.02    0.50
   6   9  -4   19.63    1.24
   6   9  -4   20.57    1.24
   5   9  -4    1.43    0.54
   5   9  -4    1.21    0.42
   4   9  -4    3.78    0.53
   4   9  -4    4.34    0.62
   3   9  -4    0.08    0.34
   3   9  -4    0.08    0.26
   2   9  -4   29.83    1.47
   2   9  -4   30.42    1.49
   1   9  -4   16.40    0.85
   1   9  -4   16.01    0.75
   0   9  -4    0.09    0.20
   0   9  -4    0.12    0.28
  -1   9  -4    0.75    0.27
  -1   9  -4    0.97    0.19
  -2   9  -4    4.34    0.28
  -2   9  -4    4.46    0.40
  -3   9  -4   10.14    0.44
  -3   9  -4    9.31    0.55
  -4   9  -4   74.65    2.72
  -4   9  -4   75.85    2.76
  -5   9  -4    5.26    0.49
  -5   9  -4    5.70    0.31
  -6   9  -4    1.58    0.33
  -6   9  -4    2.49    0.19
  -7   9  -4    2.87    0.48
  -7   9  -4    2.91    0.33
  -8   9  -4   26.22    1.22
  -8   9  -4   27.32    1.34
  -9   9  -4   46.01    1.62
  -9   9  -4   45.13    1.69
 -10   9  -4   26.39    1.20
 -10   9  -4   25.29    1.25
 -11   9  -4    0.44    0.34
 -11   9  -4    0.62    0.39
 -12   9  -4    4.61    0.61
 -12   9  -4    4.89    0.59
 -13   9  -4    2.27    0.49
 -13   9  -4    1.65    0.47
 -14   9  -4   12.83    0.99
 -14   9  -4   14.01    0.92
 -15   9  -4    0.76    0.48
 -15   9  -4    0.89    0.45
 -16   9  -4    0.96    0.58
  12   8  -4    1.40    0.62
  12   8  -4    1.20    0.52
  11   8  -4    2.94    0.76
  11   8  -4    1.99    0.56
  10   8  -4    7.15    0.81
  10   8  -4    6.16    0.70
   9   8  -4    7.92    0.78
   9   8  -4    8.60    0.79
   8   8  -4    4.03    0.60
   8   8  -4    5.25    0.66
   7   8  -4    0.32    0.38
   7   8  -4    0.88    0.42
   6   8  -4   35.09    1.59
   6   8  -4   34.43    1.60
   5   8  -4   29.70    1.34
   5   8  -4   30.56    1.36
   4   8  -4    1.08    0.40
   4   8  -4    0.78    0.34
   3   8  -4    0.18    0.31
   3   8  -4    0.17    0.28
   2   8  -4    5.61    0.54
   2   8  -4    5.77    0.51
   1   8  -4   20.46    0.85
   1   8  -4   20.47    0.85
   0   8  -4   40.38    1.54
   0   8  -4   40.22    1.54
  -1   8  -4   24.07    0.85
  -1   8  -4   22.21    0.78
  -2   8  -4   38.73    1.72
  -2   8  -4   39.09    1.69
  -3   8  -4   15.11    0.74
  -3   8  -4   16.09    0.85
  -4   8  -4   94.25    3.64
  -4   8  -4   94.05    3.68
  -5   8  -4   46.86    1.68
  -5   8  -4   47.94    1.59
  -6   8  -4    0.93    0.29
  -6   8  -4    0.68    0.19
  -7   8  -4    6.03    0.56
  -7   8  -4    6.23    0.44
  -8   8  -4    2.62    0.35
  -8   8  -4    3.08    0.47
  -9   8  -4    6.71    0.49
  -9   8  -4    7.02    0.57
 -10   8  -4   10.06    0.70
 -10   8  -4    9.29    0.65
 -11   8  -4    1.80    0.41
 -12   8  -4    2.48    0.51
 -13   8  -4    9.19    0.81
 -14   8  -4    1.56    0.55
 -15   8  -4    1.42    0.58
 -16   8  -4    4.81    0.79
  13   7  -4    2.04    0.46
  13   7  -4    1.29    0.59
  12   7  -4    2.27    0.64
  12   7  -4    2.38    0.52
  11   7  -4    0.09    0.39
  11   7  -4    0.05    0.47
  10   7  -4    5.56    0.74
  10   7  -4    4.36    0.74
   9   7  -4   12.91    0.98
   9   7  -4   13.63    0.93
   8   7  -4    2.15    0.50
   8   7  -4    2.03    0.45
   7   7  -4    0.01    0.31
   7   7  -4    0.01    0.35
   6   7  -4    1.76    0.41
   6   7  -4    1.90    0.44
   5   7  -4    0.20    0.30
   5   7  -4    0.03    0.33
   4   7  -4   59.69    2.35
   4   7  -4   61.45    2.47
   3   7  -4   24.16    1.23
   3   7  -4   26.01    1.22
   2   7  -4  107.74    3.59
   2   7  -4  107.09    3.40
   1   7  -4    1.12    0.39
   1   7  -4    0.97    0.35
   0   7  -4    3.87    0.41
   0   7  -4    4.17    0.39
  -1   7  -4    3.67    0.32
  -1   7  -4    3.31    0.35
  -2   7  -4    1.07    0.15
  -2   7  -4    1.50    0.22
  -3   7  -4  120.61    4.22
  -3   7  -4  126.88    4.35
  -4   7  -4    1.31    0.26
  -4   7  -4    1.21    0.16
  -5   7  -4    0.01    0.21
  -5   7  -4    0.23    0.16
  -6   7  -4    7.10    0.36
  -6   7  -4    6.31    0.43
  -7   7  -4    4.42    0.43
  -7   7  -4    4.28    0.36
  -8   7  -4   14.64    0.76
  -9   7  -4   14.67    0.82
 -10   7  -4   15.71    0.90
 -11   7  -4    0.84    0.42
 -12   7  -4    3.80    0.56
 -13   7  -4   32.58    1.55
 -14   7  -4    0.21    0.52
 -15   7  -4    0.24    0.55
 -16   7  -4    1.46    0.64
  13   6  -4    3.50    0.59
  13   6  -4    3.44    0.76
  12   6  -4    0.33    0.39
  12   6  -4    0.07    0.48
  11   6  -4    0.00    0.43
  11   6  -4    0.28    0.32
  10   6  -4    4.49    0.57
  10   6  -4    3.99    0.65
   9   6  -4    3.58    0.56
   9   6  -4    2.67    0.63
   8   6  -4   27.44    1.48
   8   6  -4   27.17    1.38
   7   6  -4    0.01    0.33
   7   6  -4    0.07    0.39
   6   6  -4   41.28    1.90
   6   6  -4   41.61    2.05
   5   6  -4   13.40    0.82
   5   6  -4   13.70    0.88
   4   6  -4    1.12    0.39
   4   6  -4    1.32    0.38
   3   6  -4   72.62    2.44
   3   6  -4   71.69    2.58
   2   6  -4  104.81    3.79
   2   6  -4  103.99    4.03
   1   6  -4    5.65    0.42
   1   6  -4    5.24    0.40
   0   6  -4    7.56    0.53
   0   6  -4    7.43    0.54
  -1   6  -4   76.34    3.07
  -1   6  -4   73.29    2.95
  -2   6  -4   50.96    1.57
  -2   6  -4   50.12    1.57
  -3   6  -4    0.03    0.11
  -3   6  -4    0.02    0.18
  -4   6  -4    4.00    0.44
  -4   6  -4    4.69    0.36
  -5   6  -4   27.23    1.01
  -5   6  -4   27.87    1.04
  -6   6  -4   75.49    2.72
  -7   6  -4    7.80    0.58
  -8   6  -4   21.20    1.11
  -9   6  -4    2.82    0.40
 -10   6  -4    0.19    0.36
 -11   6  -4    7.31    0.70
 -12   6  -4   14.91    1.02
 -13   6  -4    4.66    0.67
 -14   6  -4    3.52    0.72
 -15   6  -4    4.26    0.75
 -16   6  -4    0.55    0.63
  14   5  -4    2.20    0.71
  14   5  -4    2.38    0.51
  13   5  -4    0.62    0.53
  13   5  -4    0.00    0.36
  12   5  -4    1.05    0.36
  12   5  -4    1.24    0.52
  11   5  -4    0.10    0.42
  11   5  -4    0.51    0.35
  10   5  -4    4.15    0.65
  10   5  -4    3.83    0.52
   9   5  -4   16.59    1.06
   9   5  -4   16.28    0.91
   8   5  -4   29.00    1.17
   8   5  -4   29.00    1.07
   7   5  -4    6.24    0.68
   7   5  -4    5.74    0.62
   6   5  -4   11.74    0.84
   6   5  -4   11.73    0.75
   5   5  -4    0.82    0.24
   5   5  -4    1.42    0.21
   4   5  -4    1.16    0.21
   4   5  -4    0.43    0.22
   3   5  -4    0.22    0.24
   3   5  -4    0.15    0.28
   2   5  -4   24.74    1.00
   2   5  -4   25.84    0.94
   1   5  -4   21.30    0.75
   1   5  -4   20.67    0.79
   0   5  -4   73.41    2.74
   0   5  -4   75.66    2.60
  -1   5  -4   31.85    1.32
  -1   5  -4   31.72    1.29
  -2   5  -4    2.87    0.48
  -2   5  -4    2.82    0.54
  -3   5  -4   13.10    0.74
  -3   5  -4   13.30    0.79
  -4   5  -4    0.68    0.14
  -5   5  -4   12.99    0.94
  -6   5  -4    0.01    0.22
  -7   5  -4    9.63    0.52
  -8   5  -4   13.16    0.85
  -9   5  -4    6.36    0.51
 -10   5  -4   31.90    1.36
 -11   5  -4    3.33    0.54
 -12   5  -4    2.51    0.54
 -13   5  -4   14.71    1.02
 -14   5  -4    4.24    0.75
 -15   5  -4   20.51    1.43
 -16   5  -4    0.18    0.53
  14   4  -4    4.35    0.77
  13   4  -4    1.08    0.38
  13   4  -4    0.76    0.56
  12   4  -4    2.03    0.46
  12   4  -4    2.06    0.64
  11   4  -4    2.89    0.48
  11   4  -4    2.41    0.58
  10   4  -4    0.46    0.35
  10   4  -4    0.11    0.41
   9   4  -4   13.15    0.80
   9   4  -4   12.71    0.67
   8   4  -4   10.15    0.82
   8   4  -4    8.65    0.91
   7   4  -4    0.60    0.23
   7   4  -4    0.60    0.29
   6   4  -4   49.64    2.23
   6   4  -4   48.76    2.02
   5   4  -4    4.62    0.51
   5   4  -4    4.96    0.42
   4   4  -4    0.09    0.21
   4   4  -4    0.09    0.17
   3   4  -4    1.14    0.15
   3   4  -4    1.54    0.21
   2   4  -4    2.63    0.23
   2   4  -4    1.71    0.15
   1   4  -4  130.39    3.34
   1   4  -4  130.16    3.12
   0   4  -4  238.67    7.13
   0   4  -4  242.12    6.70
  -1   4  -4   45.91    1.60
  -1   4  -4   47.09    1.67
  -2   4  -4  156.59    3.82
  -2   4  -4  160.42    4.01
  -3   4  -4   17.85    0.82
  -4   4  -4  173.50    6.44
  -5   4  -4    1.26    0.28
  -6   4  -4   72.94    2.94
  -7   4  -4   80.25    3.46
  -8   4  -4    1.61    0.37
  -9   4  -4   20.20    0.90
 -10   4  -4   26.13    1.47
 -11   4  -4   20.13    1.29
 -12   4  -4    6.78    0.73
 -13   4  -4   11.00    0.94
 -14   4  -4    5.13    0.83
 -15   4  -4    1.96    0.70
 -16   4  -4    3.67    0.86
  15   3  -4    0.23    0.52
  14   3  -4    6.83    0.89
  13   3  -4    0.87    0.57
  12   3  -4    9.20    0.86
  12   3  -4    5.89    0.53
  11   3  -4    3.14    0.28
  11   3  -4    4.71    0.54
  10   3  -4    3.55    0.51
 -10  -3   4    4.20    0.32
   9   3  -4    4.48    0.63
  -9  -3   4    4.85    0.42
   8   3  -4    4.99    0.39
  -8  -3   4    5.29    0.24
   7   3  -4   22.24    1.12
  -7  -3   4   22.20    0.89
   6   3  -4   22.92    0.99
  -6  -3   4   22.12    0.80
   5   3  -4    5.20    0.51
  -5  -3   4    4.48    0.38
   4   3  -4    1.01    0.52
   2   3  -4   79.93    2.78
   1   3  -4   50.91    2.55
   1   3  -4   52.79    2.36
   0   3  -4   71.69    1.42
   0   3  -4   72.95    1.54
  -1   3  -4    3.95    0.37
  -1   3  -4    3.56    0.36
  -2   3  -4  200.74    6.38
  -3   3  -4  161.20    8.78
  -4   3  -4   49.06    0.97
  -5   3  -4    6.59    0.46
  -6   3  -4   58.18    1.95
  -7   3  -4    5.30    0.50
  -8   3  -4   44.11    2.10
  -9   3  -4   14.91    0.98
 -10   3  -4    0.25    0.37
 -11   3  -4    0.02    0.41
 -12   3  -4   10.02    0.89
 -13   3  -4   22.93    1.47
 -14   3  -4    0.18    0.58
 -15   3  -4    3.10    0.79
 -16   3  -4    0.50    0.60
  15   2  -4    0.24    0.49
  14   2  -4    2.04    0.57
  13   2  -4    7.50    0.80
  12   2  -4   20.75    1.17
 -12  -2   4   22.04    0.88
  11   2  -4    0.53    0.40
  11   2  -4    1.11    0.27
 -11  -2   4    0.05    0.25
  10   2  -4    0.10    0.33
  10   2  -4    0.05    0.25
 -10  -2   4    0.10    0.23
   9   2  -4    3.19    0.45
   9   2  -4    1.94    0.54
  -9  -2   4    2.77    0.39
   8   2  -4    1.85    0.24
   8   2  -4    2.39    0.37
  -8  -2   4    1.99    0.25
   7   2  -4   54.13    1.45
   7   2  -4   57.40    1.71
  -7  -2   4   54.56    1.48
   6   2  -4   66.98    1.71
   6   2  -4   66.15    1.94
  -6  -2   4   67.32    1.75
   5   2  -4    1.62    0.19
   5   2  -4    1.62    0.27
  -5  -2   4    1.98    0.21
   4   2  -4    9.74    0.57
   4   2  -4    9.66    0.45
  -4  -2   4    9.72    0.49
   3   2  -4   14.39    0.28
   3   2  -4   12.99    0.38
  -3  -2   4   14.66    0.25
  -3  -2   4   13.06    0.31
   2   2  -4  405.19   13.13
   2   2  -4  380.58   14.02
  -2  -2   4  401.19   13.07
   1   2  -4  205.99   15.19
   0   2  -4    3.24    0.52
  -1   2  -4   47.38    0.93
  -2   2  -4   12.01    0.29
  -3   2  -4   62.27    1.30
  -4   2  -4   46.89    1.19
  -5   2  -4   52.44    1.68
  -6   2  -4    1.16    0.29
  -7   2  -4   20.52    1.11
  -8   2  -4   25.35    1.07
  -9   2  -4    0.01    0.38
 -10   2  -4   15.47    0.92
 -11   2  -4    6.27    0.75
 -12   2  -4    3.28    0.61
 -13   2  -4   12.90    1.05
 -14   2  -4    2.54    0.65
 -15   2  -4    6.96    0.91
  16   1  -4    2.00    0.61
  15   1  -4    7.01    0.89
  14   1  -4    0.51    0.53
  13   1  -4    3.39    0.60
 -13  -1   4    4.24    0.42
  12   1  -4    1.42    0.50
 -12  -1   4    1.42    0.34
  11   1  -4    2.74    0.60
 -11  -1   4    3.64    0.46
  10   1  -4   14.10    0.89
 -10  -1   4   14.34    0.74
   9   1  -4   46.07    1.39
   9   1  -4   45.65    1.65
  -9  -1   4   46.81    1.45
   8   1  -4   16.12    0.82
   8   1  -4   16.55    0.64
  -8  -1   4   16.37    0.70
   7   1  -4    1.18    0.23
   7   1  -4    1.77    0.15
  -7  -1   4    1.92    0.19
   6   1  -4   19.81    1.36
   6   1  -4   20.55    1.14
  -6  -1   4   19.68    1.23
   5   1  -4  282.50    7.50
   5   1  -4  276.88    6.90
  -5  -1   4  278.79    6.88
  -5  -1   4  272.60    7.23
   4   1  -4    0.68    0.48
   4   1  -4    0.64    0.34
  -4  -1   4    0.60    0.44
  -4  -1   4    0.68    0.31
   3   1  -4   34.33    1.26
   3   1  -4   36.79    1.07
  -3  -1   4   36.54    1.20
  -3  -1   4   38.32    1.07
   2   1  -4  104.36    4.67
   2   1  -4  107.86    4.28
  -2  -1   4  111.62    4.52
   1   1  -4   94.63    2.06
  -1  -1   4   92.47    1.97
   0   1  -4   44.02    3.85
  -1   1  -4   13.84    2.38
  -2   1  -4    6.58    0.53
  -3   1  -4   40.98    2.05
  -4   1  -4    0.02    0.18
  -5   1  -4   51.08    1.60
  -6   1  -4    0.52    0.33
  -7   1  -4   55.78    1.95
  -8   1  -4    0.13    0.30
  -9   1  -4    0.87    0.38
 -10   1  -4   10.94    0.81
 -11   1  -4   16.81    0.98
 -12   1  -4    1.20    0.49
 -13   1  -4    0.67    0.58
 -14   1  -4    4.65    0.76
 -15   1  -4   12.26    1.22
  16   0  -4    1.04    0.62
  15   0  -4    0.76    0.52
  14   0  -4   18.34    1.22
 -14   0   4   19.56    1.00
  13   0  -4    0.00    0.35
 -13   0   4    0.21    0.31
  12   0  -4    4.24    0.68
 -12   0   4    4.90    0.52
  11   0  -4    0.25    0.41
 -11   0   4    0.19    0.32
  10   0  -4    4.60    0.61
 -10   0   4    5.30    0.55
   9   0  -4   61.61    2.72
  -9   0   4   64.16    2.54
   8   0  -4   31.52    1.48
  -8   0   4   30.75    1.34
   7   0  -4    7.27    0.93
  -7   0   4    8.15    0.86
   6   0  -4    1.82    0.22
  -6   0   4    2.22    0.22
  -6   0   4    2.01    0.13
   5   0  -4   20.70    0.51
  -5   0   4   22.42    0.51
  -5   0   4   21.63    0.35
   4   0  -4   33.35    0.77
  -4   0   4   34.75    0.75
  -4   0   4   34.06    0.56
   3   0  -4  136.54    1.07
  -3   0   4  139.26    1.04
   2   0  -4    1.32    0.16
   2   0  -4    1.68    0.34
  -2   0   4    1.23    0.28
   1   0  -4   12.59    0.20
   1   0  -4   12.46    0.11
  -1   0   4   12.05    0.20
   0   0  -4   32.37    3.68
   0   0  -4   32.98    3.93
   0   0   4   30.69    3.85
  -1   0  -4    1.99    0.32
  -2   0  -4    2.30    0.16
  -3   0  -4   15.96    0.58
  -4   0  -4    6.41    0.37
  -5   0  -4   81.25    2.79
  -6   0  -4    0.76    0.27
  -7   0  -4   23.73    1.20
  -8   0  -4    1.51    0.44
  -9   0  -4    9.35    0.82
   9   0   4    8.26    0.72
 -10   0  -4   14.83    1.06
  10   0   4   15.25    0.99
 -11   0  -4    7.76    0.89
  11   0   4    8.69    0.81
 -12   0  -4    0.01    0.44
 -13   0  -4    0.01    0.44
 -14   0  -4    0.03    0.49
 -15   0  -4    3.09    0.74
  16  -1  -4    0.23    0.46
  15  -1  -4    5.56    0.73
  14  -1  -4    7.72    0.80
 -14   1   4    7.91    0.66
  13  -1  -4    2.61    0.57
 -13   1   4    2.59    0.44
  12  -1  -4    1.94    0.45
 -12   1   4    1.70    0.39
  11  -1  -4    0.62    0.43
 -11   1   4    0.72    0.35
  10  -1  -4    0.36    0.33
 -10   1   4    0.00    0.28
   9  -1  -4    3.17    0.37
  -9   1   4    3.56    0.33
   8  -1  -4   38.58    1.28
  -8   1   4   38.35    1.21
   7  -1  -4    0.01    0.21
  -7   1   4    0.05    0.23
   6  -1  -4    0.09    0.19
  -6   1   4    0.07    0.11
  -6   1   4    0.19    0.21
   5  -1  -4   89.15    4.61
  -5   1   4   90.36    4.49
  -5   1   4   87.59    4.18
   4  -1  -4   27.46    1.17
  -4   1   4   28.07    1.14
   3  -1  -4    1.25    0.17
  -3   1   4    0.92    0.19
   2  -1  -4   12.81    0.09
   2  -1  -4   10.60    0.22
  -2   1   4   12.87    0.22
  -2   1   4   15.11    0.08
   1  -1  -4    0.83    0.14
   1  -1  -4    1.10    0.19
  -1   1   4    0.73    0.13
  -1   1   4    0.59    0.20
   0  -1  -4    4.89    0.15
   0   1   4    4.64    0.20
   0   1   4    4.17    0.15
  -1  -1  -4    3.23    0.25
   1   1   4    2.79    0.22
   1   1   4    2.79    0.24
  -2  -1  -4  156.36    5.72
   2   1   4  156.21    5.38
  -3  -1  -4   31.26    1.44
   3   1   4   30.83    1.38
  -4  -1  -4   41.20    1.74
   4   1   4   39.91    1.65
  -5  -1  -4    0.01    0.24
   5   1   4    0.02    0.23
  -6  -1  -4   42.08    1.76
   6   1   4   40.02    1.65
  -7  -1  -4   31.03    1.58
   7   1   4   32.31    1.49
  -8  -1  -4    3.06    0.48
   8   1   4    3.12    0.44
  -9  -1  -4   29.10    1.35
   9   1   4   29.94    1.31
 -10  -1  -4    2.91    0.54
  10   1   4    2.87    0.45
 -11  -1  -4    0.03    0.47
  11   1   4    0.57    0.44
 -12  -1  -4    4.16    0.67
  12   1   4    2.02    0.51
 -13  -1  -4    0.51    0.58
 -14  -1  -4   12.17    1.15
 -15  -1  -4    1.77    0.66
  16  -2  -4    1.70    0.53
  15  -2  -4    5.56    0.74
 -15   2   4    6.91    0.66
  14  -2  -4    0.00    0.38
 -14   2   4    0.17    0.38
  13  -2  -4    5.38    0.64
 -13   2   4    4.68    0.55
  12  -2  -4    8.17    0.83
 -12   2   4    9.88    0.79
  11  -2  -4    2.73    0.47
 -11   2   4    3.69    0.47
  10  -2  -4    0.06    0.32
 -10   2   4    0.05    0.35
   9  -2  -4    4.17    0.44
  -9   2   4    4.61    0.44
   8  -2  -4   10.27    0.79
  -8   2   4   10.82    0.79
   7  -2  -4   41.54    1.52
  -7   2   4   42.83    1.49
   6  -2  -4    0.49    0.32
  -6   2   4    0.75    0.19
  -6   2   4    0.66    0.34
  -6   2   4    0.77    0.21
   5  -2  -4   82.77    3.46
  -5   2   4   84.33    3.13
  -5   2   4   82.19    3.39
   4  -2  -4   10.02    0.26
  -4   2   4    9.81    0.28
  -4   2   4   10.19    0.13
   3  -2  -4    6.73    0.45
   3  -2  -4    6.60    0.30
  -3   2   4    6.17    0.46
  -3   2   4    6.12    0.29
   2  -2  -4  321.01    9.17
   2  -2  -4  303.68    9.85
  -2   2   4  308.47    9.63
  -2   2   4  311.33    9.17
   1  -2  -4    3.83    0.32
   1  -2  -4    4.21    0.32
  -1   2   4    3.73    0.39
  -1   2   4    3.65    0.31
   0  -2  -4    5.06    0.39
   0   2   4    5.22    0.46
   0   2   4    5.16    0.42
  -1  -2  -4   23.78    1.18
   1   2   4   24.34    1.15
   1   2   4   25.34    1.15
  -2  -2  -4   18.68    0.60
   2   2   4   19.75    0.60
  -3  -2  -4  228.47    7.99
   3   2   4  226.14    7.52
  -4  -2  -4  148.30    5.06
   4   2   4  147.70    4.77
  -5  -2  -4   44.61    1.71
   5   2   4   44.55    1.63
  -6  -2  -4    1.48    0.35
   6   2   4    1.05    0.30
  -7  -2  -4    1.80    0.46
   7   2   4    1.66    0.41
  -8  -2  -4    0.71    0.41
   8   2   4    1.71    0.38
   8   2   4    1.15    0.34
  -9  -2  -4    2.43    0.54
   9   2   4    2.42    0.48
   9   2   4    2.93    0.50
 -10  -2  -4    9.21    0.82
  10   2   4    7.64    0.69
 -11  -2  -4   11.50    1.02
  11   2   4   10.39    0.91
 -12  -2  -4    0.61    0.59
  12   2   4    0.31    0.43
 -13  -2  -4   11.75    1.11
 -14  -2  -4    2.02    0.66
  16  -3  -4    3.14    0.59
 -16   3   4    3.93    0.58
  15  -3  -4    1.81    0.49
 -15   3   4    1.20    0.45
  14  -3  -4    0.47    0.38
 -14   3   4    0.01    0.35
  13  -3  -4    0.36    0.40
 -13   3   4    0.45    0.38
  12  -3  -4   20.90    1.13
 -12   3   4   21.27    1.11
  11  -3  -4    0.54    0.31
 -11   3   4    0.59    0.38
  10  -3  -4    7.01    0.64
 -10   3   4    6.80    0.67
   9  -3  -4    2.26    0.50
  -9   3   4    2.38    0.51
   8  -3  -4   30.27    1.37
  -8   3   4   30.02    1.16
  -8   3   4   30.34    1.39
   7  -3  -4    6.67    0.37
  -7   3   4    5.98    0.39
  -7   3   4    6.05    0.25
   6  -3  -4    1.00    0.40
  -6   3   4    1.00    0.45
  -6   3   4    0.94    0.29
   5  -3  -4   34.91    1.84
  -5   3   4   32.47    1.84
  -5   3   4   35.48    1.63
   4  -3  -4   89.98    4.62
   4  -3  -4   86.73    4.27
  -4   3   4   84.63    4.24
  -4   3   4   84.55    4.56
   3  -3  -4  202.74    8.48
   3  -3  -4  209.59    7.89
  -3   3   4  203.44    8.31
  -3   3   4  195.17    7.87
   2  -3  -4   76.37    3.66
  -2   3   4   72.67    3.60
  -2   3   4   74.40    3.40
   1  -3  -4    0.24    0.13
  -1   3   4    0.09    0.16
  -1   3   4    0.22    0.18
   0  -3  -4   62.53    2.84
   0   3   4   63.65    2.80
   0   3   4   62.95    2.71
  -1  -3  -4   39.91    1.69
   1   3   4   39.41    1.63
  -2  -3  -4  154.87    4.63
   2   3   4  153.34    4.39
   2   3   4  152.15    4.46
  -3  -3  -4    2.77    0.31
   3   3   4    3.25    0.34
   3   3   4    3.05    0.23
  -4  -3  -4    6.31    0.58
   4   3   4    6.59    0.59
  -5  -3  -4   20.27    0.71
  -5  -3  -4   21.75    0.94
   5   3   4   20.50    0.91
  -6  -3  -4    3.84    0.44
  -6  -3  -4    3.92    0.21
   6   3   4    4.03    0.44
  -7  -3  -4  102.68    3.83
  -7  -3  -4  104.14    3.41
   7   3   4  106.60    3.63
  -8  -3  -4    0.02    0.42
   8   3   4    0.02    0.36
   8   3   4    0.27    0.35
  -9  -3  -4    0.12    0.44
   9   3   4    0.00    0.36
   9   3   4    0.45    0.38
 -10  -3  -4    4.49    0.67
  10   3   4    6.15    0.67
  10   3   4    5.11    0.64
 -11  -3  -4   15.56    1.12
  11   3   4   15.77    1.06
  11   3   4   17.54    1.10
 -12  -3  -4   12.22    1.02
 -13  -3  -4    5.90    0.83
 -14  -3  -4    0.50    0.58
  17  -4  -4    0.14    0.50
  16  -4  -4    2.57    0.55
 -16   4   4    2.40    0.54
  15  -4  -4    0.29    0.40
 -15   4   4    0.00    0.43
  14  -4  -4    1.59    0.50
 -14   4   4    1.11    0.47
  13  -4  -4    3.71    0.54
 -13   4   4    3.62    0.51
  12  -4  -4    0.64    0.36
 -12   4   4    0.76    0.41
  11  -4  -4    1.09    0.33
 -11   4   4    1.67    0.43
  10  -4  -4    2.76    0.42
 -10   4   4    2.58    0.30
 -10   4   4    1.99    0.43
   9  -4  -4   11.78    0.66
  -9   4   4   11.84    0.52
  -9   4   4   11.88    0.72
   8  -4  -4   98.82    3.90
  -8   4   4   97.98    3.56
  -8   4   4  102.54    3.88
   7  -4  -4   90.94    3.53
  -7   4   4   90.31    3.24
  -7   4   4   91.02    3.52
   6  -4  -4   40.05    1.47
  -6   4   4   40.34    1.53
  -6   4   4   41.46    1.32
  -5   4   4    0.79    0.23
  -5   4   4    0.64    0.36
  -4   4   4    0.72    0.30
  -4   4   4    0.77    0.17
   3  -4  -4  183.18    6.20
  -3   4   4  210.09    5.79
  -3   4   4  217.80    6.14
  -2   4   4    9.24    0.37
  -2   4   4    9.49    0.46
  -1   4   4    0.77    0.24
  -1   4   4    0.68    0.20
   0  -4  -4   73.25    2.12
   0   4   4   73.11    2.11
   0   4   4   73.48    2.06
  -1  -4  -4    1.43    0.15
   1   4   4    0.84    0.18
   1   4   4    0.70    0.04
  -2  -4  -4   28.80    1.17
   2   4   4   28.34    1.16
   2   4   4   28.45    1.09
  -3  -4  -4   65.44    2.40
   3   4   4   68.32    2.25
   3   4   4   65.81    2.32
  -4  -4  -4    1.42    0.27
   4   4   4    0.95    0.26
  -5  -4  -4    4.64    0.28
  -5  -4  -4    4.23    0.48
   5   4   4    5.98    0.52
  -6  -4  -4    0.05    0.30
   6   4   4    0.05    0.30
  -7  -4  -4   43.74    1.97
   7   4   4   46.49    1.91
  -8  -4  -4    0.16    0.40
   8   4   4    0.45    0.40
   8   4   4    1.04    0.41
  -9  -4  -4    5.49    0.69
   9   4   4    5.94    0.63
   9   4   4    5.49    0.61
 -10  -4  -4    2.36    0.57
  10   4   4    1.97    0.50
  10   4   4    2.32    0.52
 -11  -4  -4    1.08    0.58
  11   4   4    1.68    0.49
 -12  -4  -4    0.40    0.49
  12   4   4    0.80    0.46
 -13  -4  -4    0.98    0.57
  17  -5  -4    2.10    0.55
  16  -5  -4    0.24    0.39
 -16   5   4    0.57    0.49
  15  -5  -4    6.65    0.77
 -15   5   4    6.94    0.80
 -15   5   4    6.96    0.59
  14  -5  -4    9.10    0.78
 -14   5   4   10.62    0.89
 -14   5   4    8.89    0.61
  13  -5  -4    0.09    0.34
 -13   5   4    0.53    0.37
 -13   5   4    0.01    0.25
  12  -5  -4   14.19    0.90
 -12   5   4   13.31    1.00
 -12   5   4   13.70    0.70
  11  -5  -4   38.15    1.70
 -11   5   4   38.82    1.73
 -11   5   4   37.06    1.47
  10  -5  -4    5.64    0.51
 -10   5   4    5.33    0.40
 -10   5   4    5.48    0.60
   9  -5  -4   25.76    1.06
  -9   5   4   28.27    1.22
  -9   5   4   25.87    0.94
   8  -5  -4   24.51    1.04
  -8   5   4   24.63    0.93
  -8   5   4   23.30    1.13
  -7   5   4   59.65    1.72
  -7   5   4   61.96    1.98
   6  -5  -4    8.49    0.52
  -6   5   4   10.63    0.49
  -6   5   4   10.54    0.75
   5  -5  -4    3.59    0.36
  -5   5   4    3.23    0.50
  -5   5   4    3.15    0.31
   4  -5  -4   23.76    0.93
  -4   5   4   22.45    1.05
  -4   5   4   22.93    0.86
   3  -5  -4   20.67    0.60
  -3   5   4   20.51    0.67
  -3   5   4   21.17    0.54
   2  -5  -4    0.26    0.15
  -2   5   4    0.33    0.21
  -2   5   4    0.26    0.19
   1  -5  -4    3.01    0.15
  -1   5   4    2.12    0.19
  -1   5   4    2.78    0.23
   0   5   4  129.93    5.41
   0   5   4  133.54    5.24
  -1  -5  -4   84.41    2.48
   1   5   4   79.68    2.39
  -2  -5  -4    0.56    0.21
   2   5   4    0.04    0.16
   2   5   4    0.04    0.23
  -3  -5  -4   48.88    2.15
   3   5   4   51.16    2.11
   3   5   4   50.17    1.99
  -4  -5  -4    0.74    0.26
   4   5   4    0.98    0.15
   4   5   4    1.66    0.33
  -5  -5  -4    0.27    0.28
   5   5   4    0.04    0.31
  -6  -5  -4    1.28    0.38
   6   5   4    0.79    0.37
  -7  -5  -4    5.50    0.72
   7   5   4    4.74    0.68
  -8  -5  -4    9.39    0.81
   8   5   4   10.14    0.81
  -9  -5  -4   10.30    0.91
   9   5   4   10.82    0.92
 -10  -5  -4    0.84    0.48
  10   5   4    0.27    0.41
 -11  -5  -4    1.20    0.53
  11   5   4    1.58    0.54
 -12  -5  -4    1.02    0.55
  12   5   4    0.44    0.45
 -13  -5  -4    2.04    0.64
  13   5   4    2.65    0.59
  17  -6  -4    1.25    0.51
  16  -6  -4    2.86    0.53
 -16   6   4    2.78    0.62
  15  -6  -4   13.64    0.97
 -15   6   4   12.97    0.78
 -15   6   4   12.63    1.02
  14  -6  -4    3.46    0.54
 -14   6   4    4.55    0.66
 -14   6   4    3.83    0.44
  13  -6  -4    0.87    0.35
 -13   6   4    0.80    0.27
 -13   6   4    1.22    0.41
  12  -6  -4   17.19    0.94
 -12   6   4   18.22    0.82
 -12   6   4   17.15    1.04
  11  -6  -4    0.05    0.27
 -11   6   4    0.38    0.44
 -11   6   4    0.09    0.25
  10  -6  -4   15.43    0.84
 -10   6   4   15.15    0.97
 -10   6   4   15.04    0.75
   9  -6  -4    0.33    0.20
  -9   6   4    0.64    0.24
  -9   6   4    0.34    0.34
   8  -6  -4    6.75    0.64
  -8   6   4   10.04    0.65
  -8   6   4    8.94    0.86
   7  -6  -4    6.99    0.43
  -7   6   4    7.55    0.42
  -7   6   4    7.19    0.59
   6  -6  -4   37.58    1.27
  -6   6   4   37.93    1.42
  -6   6   4   38.36    1.20
   5  -6  -4   45.46    1.43
  -5   6   4   44.84    1.37
  -5   6   4   44.46    1.57
   4  -6  -4    1.01    0.14
  -4   6   4    0.54    0.24
  -4   6   4    0.89    0.17
   3  -6  -4   23.69    0.70
  -3   6   4   25.10    0.68
  -3   6   4   26.62    0.84
   2  -6  -4    8.89    0.26
  -2   6   4    8.35    0.34
  -2   6   4    8.23    0.31
   1  -6  -4    0.09    0.12
  -1   6   4    0.02    0.21
  -1   6   4    0.04    0.22
   0   6   4    2.21    0.45
   0   6   4    2.41    0.44
  -1  -6  -4   24.89    0.84
   1   6   4   23.75    0.82
   1   6   4   23.68    0.87
  -2  -6  -4    1.65    0.31
   2   6   4    1.87    0.27
   2   6   4    1.50    0.35
  -3  -6  -4   12.31    0.75
   3   6   4   11.26    0.77
   3   6   4   11.29    0.63
  -4  -6  -4   56.77    2.15
   4   6   4   54.38    2.09
   4   6   4   50.22    1.90
  -5  -6  -4    7.50    0.61
   5   6   4    7.49    0.64
  -6  -6  -4    4.00    0.50
   6   6   4    3.62    0.48
  -7  -6  -4    7.27    0.75
   7   6   4    7.81    0.78
  -8  -6  -4    0.01    0.36
   8   6   4    0.09    0.40
  -9  -6  -4    7.25    0.80
   9   6   4    7.45    0.81
 -10  -6  -4    5.91    0.78
  10   6   4    4.94    0.71
 -11  -6  -4    0.11    0.44
  11   6   4    0.56    0.52
 -12  -6  -4    0.62    0.51
  12   6   4    1.11    0.50
  16  -7  -4    0.05    0.41
 -16   7   4    0.00    0.48
  15  -7  -4    5.65    0.67
 -15   7   4    6.42    0.79
 -15   7   4    5.87    0.57
  14  -7  -4    0.74    0.38
 -14   7   4    0.09    0.49
 -14   7   4    0.79    0.34
  13  -7  -4    0.77    0.37
 -13   7   4    1.06    0.35
 -13   7   4    1.55    0.54
  12  -7  -4    8.50    0.66
 -12   7   4    8.12    0.59
 -12   7   4    8.51    0.81
  11  -7  -4    9.35    0.63
 -11   7   4    9.22    0.59
 -11   7   4    8.85    0.76
  10  -7  -4    4.62    0.45
 -10   7   4    7.33    0.72
 -10   7   4    7.68    0.55
   9  -7  -4    0.48    0.22
  -9   7   4    0.08    0.35
  -9   7   4    0.28    0.24
   8  -7  -4    4.56    0.36
  -8   7   4    3.35    0.49
  -8   7   4    3.97    0.34
   7  -7  -4    0.13    0.20
  -7   7   4    0.04    0.35
  -7   7   4    0.04    0.22
   6  -7  -4   25.99    0.74
  -6   7   4   25.38    0.75
  -6   7   4   24.78    1.00
   5  -7  -4    4.98    0.36
  -5   7   4    5.59    0.42
  -5   7   4    5.16    0.58
   4  -7  -4   42.85    1.57
  -4   7   4   39.27    1.54
  -4   7   4   39.23    1.71
   3  -7  -4   23.61    1.27
  -3   7   4   25.69    1.26
  -3   7   4   24.20    1.37
   2  -7  -4   14.47    0.56
  -2   7   4   15.29    0.75
  -2   7   4   14.14    0.63
   1  -7  -4   13.98    0.41
  -1   7   4   14.30    0.57
  -1   7   4   12.74    0.49
   0  -7  -4   79.75    2.60
   0   7   4   77.49    2.56
   0   7   4   79.38    2.60
   1   7   4   12.84    0.63
   1   7   4   12.53    0.68
  -2  -7  -4    0.61    0.22
   2   7   4    0.44    0.27
   2   7   4    0.56    0.19
  -3  -7  -4   25.73    1.11
   3   7   4   24.40    0.97
   3   7   4   23.66    1.13
  -4  -7  -4   45.37    1.93
   4   7   4   43.44    1.71
   4   7   4   44.33    1.92
  -5  -7  -4   13.94    0.93
   5   7   4   13.04    0.93
  -6  -7  -4   12.55    0.84
   6   7   4   14.29    0.92
  -7  -7  -4    0.86    0.46
   7   7   4    0.64    0.44
  -8  -7  -4   11.52    0.94
   8   7   4   11.57    0.96
  -9  -7  -4    0.01    0.39
   9   7   4    0.62    0.42
 -10  -7  -4    0.03    0.45
  10   7   4    0.00    0.47
 -11  -7  -4    2.61    0.65
  11   7   4    3.54    0.70
  16  -8  -4    0.14    0.37
 -16   8   4    0.99    0.55
  15  -8  -4    0.03    0.35
 -15   8   4    0.18    0.33
 -15   8   4    0.23    0.52
  14  -8  -4    0.01    0.34
 -14   8   4    0.38    0.52
 -14   8   4    0.19    0.32
  13  -8  -4   12.82    0.80
 -13   8   4   13.70    0.74
 -13   8   4   14.13    1.08
  12  -8  -4    1.83    0.26
 -12   8   4    3.93    0.57
 -12   8   4    3.01    0.36
  11  -8  -4    4.64    0.49
 -11   8   4    4.55    0.65
 -11   8   4    4.67    0.47
  10  -8  -4    3.08    0.34
 -10   8   4    3.05    0.35
 -10   8   4    4.09    0.55
   9  -8  -4    1.64    0.27
  -9   8   4    1.54    0.46
  -9   8   4    1.56    0.29
   8  -8  -4   53.00    1.99
  -8   8   4   52.74    1.92
  -8   8   4   49.33    2.18
   7  -8  -4    3.26    0.30
  -7   8   4    2.63    0.50
  -7   8   4    3.02    0.35
   6  -8  -4    2.27    0.21
  -6   8   4    1.81    0.27
  -6   8   4    1.91    0.45
   5  -8  -4    0.08    0.11
  -5   8   4    0.00    0.34
  -5   8   4    0.00    0.21
   4  -8  -4   58.49    1.81
  -4   8   4   53.33    1.98
  -4   8   4   53.97    1.82
   3  -8  -4   94.17    3.30
  -3   8   4  109.28    3.40
  -3   8   4  108.08    3.21
   2  -8  -4   15.34    0.54
  -2   8   4   15.99    0.76
  -2   8   4   15.18    0.68
   1  -8  -4   22.97    0.71
  -1   8   4   21.77    0.81
  -1   8   4   22.74    0.86
   0  -8  -4    6.30    0.48
   0   8   4    6.47    0.59
   0   8   4    6.00    0.58
  -1  -8  -4    1.32    0.22
   1   8   4    1.87    0.36
   1   8   4    2.78    0.31
  -2  -8  -4    6.45    0.48
   2   8   4    6.42    0.42
   2   8   4    6.15    0.55
  -3  -8  -4    4.02    0.47
   3   8   4    3.44    0.53
   3   8   4    3.95    0.37
  -4  -8  -4    0.99    0.40
   4   8   4    0.72    0.43
   4   8   4    0.57    0.23
  -5  -8  -4    0.66    0.40
   5   8   4    0.01    0.38
  -6  -8  -4    0.00    0.31
   6   8   4    0.18    0.39
  -7  -8  -4    8.37    0.82
   7   8   4    6.84    0.82
  -8  -8  -4    4.44    0.63
   8   8   4    5.32    0.68
  -9  -8  -4   25.67    1.40
   9   8   4   26.49    1.43
 -10  -8  -4    0.19    0.49
  10   8   4    0.01    0.50
 -11  -8  -4    0.28    0.48
  11   8   4    0.04    0.47
  16  -9  -4    0.27    0.37
 -16   9   4    0.00    0.54
  15  -9  -4    0.67    0.32
 -15   9   4    1.55    0.56
 -15   9   4    1.71    0.41
  14  -9  -4    1.42    0.34
 -14   9   4    2.08    0.40
 -14   9   4    1.61    0.53
  13  -9  -4    5.47    0.57
 -13   9   4    4.94    0.54
 -13   9   4    5.98    0.76
  12  -9  -4    7.55    0.57
 -12   9   4    6.81    0.77
 -12   9   4    7.18    0.54
  11  -9  -4    2.32    0.37
 -11   9   4    1.52    0.53
 -11   9   4    1.98    0.38
  10  -9  -4    0.41    0.24
 -10   9   4    0.07    0.47
 -10   9   4    0.15    0.27
   9  -9  -4   13.48    0.67
  -9   9   4   10.96    0.94
  -9   9   4   11.90    0.68
   8  -9  -4   54.18    1.76
  -8   9   4   54.47    1.75
  -8   9   4   53.70    2.03
   7  -9  -4   24.27    0.92
  -7   9   4   22.39    0.97
  -7   9   4   23.53    1.24
   6  -9  -4    4.98    0.26
  -6   9   4    4.06    0.50
  -6   9   4    4.57    0.38
   5  -9  -4    6.41    0.27
  -5   9   4    6.10    0.42
  -5   9   4    6.19    0.59
  -5   9   4    6.40    0.28
   4  -9  -4    0.57    0.16
   4  -9  -4    0.53    0.16
  -4   9   4    0.55    0.39
  -4   9   4    0.87    0.35
   3  -9  -4    8.25    0.53
  -3   9   4   11.98    0.67
  -3   9   4   12.05    0.76
   2  -9  -4   13.26    0.51
  -2   9   4   12.81    0.65
  -2   9   4   13.52    0.77
   1  -9  -4    4.57    0.43
  -1   9   4    5.25    0.59
  -1   9   4    4.70    0.56
   0  -9  -4   21.00    1.01
   0   9   4   21.83    1.14
  -1  -9  -4   20.16    0.85
   1   9   4   18.45    0.94
   1   9   4   19.27    0.88
   2   9   4    4.29    0.37
   2   9   4    3.66    0.48
  -3  -9  -4    6.12    0.60
   3   9   4    6.37    0.56
   3   9   4    4.94    0.66
  -4  -9  -4    0.18    0.32
   4   9   4    0.02    0.20
   4   9   4    0.30    0.40
  -5  -9  -4   17.16    0.93
   5   9   4   15.34    0.95
  -6  -9  -4    2.97    0.56
   6   9   4    2.81    0.58
  -7  -9  -4    7.37    0.72
   7   9   4    6.64    0.74
  -8  -9  -4    0.48    0.49
   8   9   4    0.95    0.52
  -9  -9  -4    6.85    0.81
   9   9   4    6.99    0.85
 -10  -9  -4    0.04    0.45
  10   9   4    0.30    0.48
 -16  10   4    2.05    0.71
 -15  10   4    5.32    0.57
 -15  10   4    4.98    0.74
  14 -10  -4   10.91    0.78
 -14  10   4   11.99    0.78
 -14  10   4   11.13    1.03
  13 -10  -4    0.11    0.29
 -13  10   4    0.65    0.49
 -13  10   4    0.02    0.33
  12 -10  -4    7.24    0.58
 -12  10   4    6.74    0.83
 -12  10   4    6.33    0.59
  11 -10  -4    6.31    0.50
 -11  10   4    5.44    0.72
 -11  10   4    6.31    0.52
  10 -10  -4    0.12    0.21
 -10  10   4    0.48    0.28
 -10  10   4    0.01    0.43
   9 -10  -4   15.45    0.62
  -9  10   4   14.49    0.71
  -9  10   4   13.49    0.97
   8 -10  -4    1.02    0.17
  -8  10   4    0.22    0.47
  -8  10   4    1.42    0.31
   7 -10  -4    6.69    0.30
  -7  10   4    6.08    0.66
  -7  10   4    6.14    0.27
  -7  10   4    5.53    0.43
   6 -10  -4   10.08    0.54
  -6  10   4    9.20    0.77
  -6  10   4    8.26    0.95
  -6  10   4    9.56    0.54
   5 -10  -4    2.02    0.12
   5 -10  -4    2.30    0.12
  -5  10   4    2.25    0.33
  -5  10   4    2.20    0.42
   4 -10  -4    5.82    0.31
   4 -10  -4    5.15    0.30
  -4  10   4    5.11    0.53
  -4  10   4    5.48    0.62
  -3  10   4    9.06    0.74
  -3  10   4    9.59    0.66
   2 -10  -4    0.75    0.21
  -2  10   4    1.31    0.36
  -2  10   4    1.30    0.38
   1 -10  -4    5.56    0.45
  -1  10   4    6.58    0.65
  -1  10   4    5.38    0.63
   0 -10  -4    2.85    0.35
   0  10   4    2.93    0.52
  -1 -10  -4   27.64    1.18
   1  10   4   26.25    1.21
   1  10   4   27.37    1.34
  -2 -10  -4    0.55    0.31
   2  10   4    0.45    0.44
   2  10   4    0.53    0.29
  -3 -10  -4    9.91    0.69
   3  10   4    9.01    0.78
   3  10   4    9.15    0.60
  -4 -10  -4    1.89    0.45
   4  10   4    2.24    0.58
  -5 -10  -4    2.10    0.46
   5  10   4    2.15    0.50
  -6 -10  -4    0.59    0.40
   6  10   4    0.00    0.42
  -7 -10  -4    4.20    0.60
   7  10   4    4.57    0.74
  -8 -10  -4    3.43    0.66
   8  10   4    2.92    0.67
  -9 -10  -4    1.17    0.53
   9  10   4    0.91    0.52
 -15  11   4    2.40    0.71
 -15  11   4    2.14    0.46
 -14  11   4    3.32    0.75
 -14  11   4    3.39    0.49
 -13  11   4    7.40    0.62
 -13  11   4    7.47    0.87
 -12  11   4    0.10    0.31
 -12  11   4    0.08    0.49
 -11  11   4    1.81    0.56
 -11  11   4    1.81    0.39
 -10  11   4    0.04    0.41
 -10  11   4    0.25    0.32
  -9  11   4    6.66    0.84
  -9  11   4    6.38    0.61
  -8  11   4    1.36    0.55
  -8  11   4    1.59    0.39
  -7  11   4   11.24    0.70
  -7  11   4   12.42    0.91
  -6  11   4   15.03    0.95
  -6  11   4   16.82    0.75
  -5  11   4   13.10    0.97
  -5  11   4   14.44    0.81
  -4  11   4    0.00    0.31
  -4  11   4    0.00    0.40
  -3  11   4   25.42    1.20
  -3  11   4   24.10    1.27
   2 -11  -4    0.06    0.17
  -2  11   4    0.06    0.34
  -2  11   4    0.59    0.37
   1 -11  -4    0.80    0.23
  -1  11   4    1.15    0.38
  -1  11   4    0.58    0.41
   0 -11  -4    0.56    0.27
   0  11   4    0.56    0.45
  -1 -11  -4   10.90    0.66
   1  11   4   12.51    0.84
   1  11   4   11.00    0.75
  -2 -11  -4    0.89    0.32
   2  11   4    0.35    0.40
   2  11   4    0.25    0.29
   3  11   4    4.97    0.67
  -4 -11  -4    6.14    0.61
   4  11   4    5.77    0.71
  -5 -11  -4    5.02    0.60
   5  11   4    4.86    0.73
  -6 -11  -4    4.99    0.60
   6  11   4    4.23    0.66
  -7 -11  -4    0.33    0.42
   7  11   4    0.01    0.44
  -8 -11  -4    0.01    0.41
   8  11   4    0.01    0.47
 -15  12   4    0.01    0.60
 -14  12   4    1.56    0.62
 -14  12   4    1.42    0.41
 -13  12   4    2.24    0.41
 -13  12   4    1.28    0.63
 -12  12   4    2.85    0.69
 -12  12   4    2.60    0.45
 -11  12   4   10.75    0.71
 -11  12   4   10.16    0.96
 -10  12   4    2.18    0.38
 -10  12   4    1.91    0.53
  -9  12   4    4.57    0.76
  -9  12   4    6.00    0.62
  -8  12   4    6.58    0.79
  -8  12   4    6.53    0.59
  -7  12   4    3.92    0.69
  -7  12   4    4.85    0.61
  -6  12   4    5.73    0.73
  -6  12   4    6.45    0.63
  -5  12   4   19.76    1.08
  -5  12   4   18.44    1.19
  -4  12   4    9.63    0.78
  -4  12   4    7.55    0.66
  -3  12   4   11.37    0.93
  -3  12   4   10.10    0.79
  -2  12   4   23.12    1.20
  -2  12   4   18.65    1.09
   1 -12  -4    3.60    0.36
  -1  12   4    3.46    0.52
  -1  12   4    3.98    0.59
   0 -12  -4    2.96    0.36
   0  12   4    3.36    0.57
  -1 -12  -4    0.79    0.30
   1  12   4    0.81    0.47
   1  12   4    0.67    0.36
  -2 -12  -4    0.05    0.27
   2  12   4    0.83    0.43
   2  12   4    0.05    0.27
  -3 -12  -4   20.99    1.06
   3  12   4   21.25    1.20
  -4 -12  -4    0.41    0.35
   4  12   4    0.34    0.50
  -5 -12  -4    0.19    0.36
   5  12   4    0.00    0.43
  -6 -12  -4    0.85    0.42
   6  12   4    0.16    0.54
  -7 -12  -4    0.12    0.41
   7  12   4    0.00    0.42
 -14  13   4    0.11    0.38
 -14  13   4    1.18    0.69
 -13  13   4    0.05    0.34
 -13  13   4    0.05    0.50
 -12  13   4    0.17    0.57
 -12  13   4    0.81    0.39
 -11  13   4    1.18    0.38
 -11  13   4    1.17    0.55
 -10  13   4    0.93    0.54
 -10  13   4    1.49    0.41
  -9  13   4    1.60    0.37
  -9  13   4    1.26    0.56
  -8  13   4    1.35    0.38
  -8  13   4    1.17    0.55
  -7  13   4    0.43    0.37
  -7  13   4    0.43    0.41
  -6  13   4    7.21    0.67
  -6  13   4    7.03    0.79
  -5  13   4    3.98    0.58
  -5  13   4    3.84    0.52
  -4  13   4    0.01    0.38
  -4  13   4    0.52    0.44
  -3  13   4   16.43    1.04
  -3  13   4   17.01    1.09
  -2  13   4   11.52    0.85
  -2  13   4   12.97    0.92
  -1  13   4   33.19    1.43
  -1  13   4   31.68    1.45
   0  13   4    0.36    0.35
   0  13   4    0.01    0.42
   1  13   4    0.67    0.47
   1  13   4    0.10    0.33
  -2 -13  -4    0.05    0.29
   2  13   4    0.25    0.42
  -3 -13  -4    3.05    0.47
   3  13   4    3.83    0.70
  -4 -13  -4    4.14    0.43
   4  13   4    6.61    0.75
  -5 -13  -4    1.67    0.45
   5  13   4    2.27    0.64
 -13  14   4    0.25    0.38
 -13  14   4    0.04    0.57
 -12  14   4    0.89    0.40
 -12  14   4    0.03    0.50
 -11  14   4    0.00    0.35
 -11  14   4    0.20    0.50
 -10  14   4    4.20    0.74
 -10  14   4    3.31    0.52
  -9  14   4   20.15    1.04
  -9  14   4   17.94    1.33
  -8  14   4    6.34    0.67
  -8  14   4    6.14    0.85
  -7  14   4    4.83    0.72
  -7  14   4    4.85    0.64
  -6  14   4    8.91    0.81
  -6  14   4    8.24    0.86
  -5  14   4    6.57    0.68
  -5  14   4    5.56    0.69
  -4  14   4   15.45    1.01
  -4  14   4   14.97    1.13
  -3  14   4    5.86    0.72
  -3  14   4    3.85    0.65
  -2  14   4    0.89    0.54
  -2  14   4    0.79    0.43
  -1  14   4    0.14    0.38
  -1  14   4    0.25    0.47
   0  14   4    1.54    0.45
   0  14   4    1.58    0.57
   1  14   4    7.60    0.78
   2  14   4    2.18    0.65
   3  14   4    4.76    0.81
   4  14   4    0.60    0.52
 -12  15   4    0.66    0.63
 -12  15   4    0.92    0.44
 -11  15   4    0.45    0.59
 -11  15   4    0.08    0.36
 -10  15   4    0.04    0.51
 -10  15   4    0.31    0.44
  -9  15   4    8.77    0.76
  -9  15   4   10.61    1.01
  -8  15   4    2.77    0.58
  -8  15   4    1.76    0.61
  -7  15   4   10.17    0.97
  -7  15   4    7.97    0.74
  -6  15   4    0.76    0.53
  -6  15   4    0.02    0.43
  -5  15   4    0.83    0.48
  -5  15   4    0.03    0.47
  -4  15   4    1.35    0.53
  -4  15   4    2.40    0.57
  -3  15   4   10.71    0.92
  -3  15   4    8.81    0.88
  -2  15   4    1.09    0.47
  -2  15   4    1.87    0.59
  -1  15   4    4.26    0.63
  -1  15   4    3.50    0.70
   0  15   4    0.89    0.56
   0  15   4    0.51    0.47
   1  15   4   10.77    1.05
   2  15   4    0.36    0.55
 -10  16   4    1.68    0.53
 -10  16   4    1.96    0.68
  -9  16   4    1.39    0.51
  -9  16   4    1.32    0.57
  -8  16   4    1.59    0.63
  -8  16   4    1.15    0.49
  -7  16   4    0.36    0.45
  -7  16   4    0.13    0.52
  -6  16   4    0.01    0.41
  -6  16   4    0.01    0.45
  -5  16   4    6.25    0.78
  -5  16   4    6.21    0.78
  -4  16   4    0.93    0.51
  -4  16   4    0.02    0.45
  -3  16   4    2.98    0.69
  -3  16   4    4.28    0.69
  -2  16   4    0.61    0.59
  -2  16   4    0.54    0.48
  -1  16   4    3.55    0.71
   0  16   4    0.00    0.51
   0  17  -5    2.35    0.67
  -1  17  -5    0.36    0.50
  -2  17  -5    0.04    0.53
  -3  17  -5    0.69    0.47
  -4  17  -5    0.74    0.52
  -5  17  -5    1.46    0.53
  -6  17  -5    0.05    0.40
  -7  17  -5    1.60    0.49
  -8  17  -5    0.02    0.41
  -9  17  -5    0.96    0.48
   2  16  -5    0.02    0.51
   1  16  -5    0.00    0.51
   0  16  -5    1.67    0.60
  -1  16  -5    1.49    0.56
  -2  16  -5    0.45    0.46
  -3  16  -5    3.64    0.61
  -4  16  -5    0.33    0.42
  -5  16  -5    0.45    0.46
  -6  16  -5    1.37    0.50
  -7  16  -5    0.50    0.44
  -8  16  -5    0.27    0.43
  -9  16  -5    3.20    0.55
 -10  16  -5    1.32    0.56
 -11  16  -5    0.29    0.54
   5  15  -5    0.42    0.46
   4  15  -5    0.40    0.64
   4  15  -5    0.05    0.39
   3  15  -5    0.03    0.58
   2  15  -5    0.52    0.54
   1  15  -5    0.27    0.52
   0  15  -5    5.63    0.73
  -1  15  -5    5.15    0.76
  -2  15  -5    3.74    0.53
  -3  15  -5    2.19    0.48
  -4  15  -5    0.03    0.37
  -5  15  -5    0.50    0.39
  -6  15  -5    0.02    0.36
  -7  15  -5    0.38    0.40
  -8  15  -5    7.61    0.73
  -9  15  -5    2.07    0.56
 -10  15  -5    4.59    0.65
 -11  15  -5    0.12    0.52
 -12  15  -5    7.92    0.86
   6  14  -5    2.61    0.58
   6  14  -5    4.64    0.90
   5  14  -5    0.63    0.43
   5  14  -5    0.16    0.60
   4  14  -5    3.17    0.55
   4  14  -5    3.55    0.71
   3  14  -5    0.03    0.35
   3  14  -5    0.00    0.48
   2  14  -5    0.89    0.37
   2  14  -5    0.63    0.52
   1  14  -5   13.50    0.81
   1  14  -5   12.06    0.96
   0  14  -5    1.71    0.49
   0  14  -5    1.96    0.34
  -1  14  -5    0.83    0.41
  -1  14  -5    0.45    0.27
  -2  14  -5    4.79    0.57
  -3  14  -5    0.45    0.36
  -4  14  -5   22.17    1.11
  -5  14  -5    0.79    0.37
  -6  14  -5    6.61    0.68
  -7  14  -5    0.17    0.36
  -8  14  -5    4.83    0.61
  -9  14  -5   22.32    1.15
 -10  14  -5    1.50    0.52
 -11  14  -5    2.63    0.57
 -12  14  -5    0.17    0.54
 -13  14  -5    0.29    0.58
   7  13  -5    0.06    0.44
   7  13  -5    0.06    0.60
   6  13  -5    2.61    0.73
   6  13  -5    3.34    0.63
   5  13  -5    3.17    0.70
   5  13  -5    3.98    0.58
   4  13  -5    1.67    0.43
   4  13  -5    1.43    0.58
   3  13  -5    0.49    0.37
   3  13  -5    0.28    0.50
   2  13  -5    0.30    0.46
   2  13  -5    0.28    0.33
   1  13  -5    0.01    0.27
   1  13  -5    0.10    0.42
   0  13  -5   12.71    0.88
   0  13  -5   11.93    0.71
  -1  13  -5    6.91    0.62
  -1  13  -5    7.37    0.49
  -2  13  -5   11.88    0.82
  -2  13  -5   11.79    0.66
  -3  13  -5    3.05    0.31
  -3  13  -5    2.82    0.48
  -4  13  -5   19.76    0.83
  -4  13  -5   18.77    1.02
  -5  13  -5   13.98    0.87
  -6  13  -5    0.03    0.32
  -7  13  -5    0.10    0.35
  -8  13  -5    0.00    0.35
  -9  13  -5    0.38    0.43
 -10  13  -5    7.73    0.71
 -11  13  -5    2.21    0.54
 -12  13  -5    1.09    0.48
 -13  13  -5    2.48    0.59
   8  12  -5    1.15    0.66
   8  12  -5    1.84    0.55
   7  12  -5    0.00    0.45
   7  12  -5    0.16    0.50
   6  12  -5    0.44    0.44
   6  12  -5    0.23    0.60
   5  12  -5    1.58    0.62
   5  12  -5    2.27    0.52
   4  12  -5    5.88    0.65
   4  12  -5    5.44    0.76
   3  12  -5    8.98    0.70
   3  12  -5   10.27    0.89
   2  12  -5   17.06    1.08
   2  12  -5   15.91    0.87
   1  12  -5    1.81    0.36
   1  12  -5    0.78    0.43
   0  12  -5   16.67    0.88
   0  12  -5   16.13    0.97
  -1  12  -5    0.79    0.42
  -1  12  -5    0.42    0.26
  -2  12  -5    0.12    0.20
  -2  12  -5    0.02    0.36
  -3  12  -5    2.44    0.27
  -3  12  -5    2.10    0.40
  -4  12  -5    0.07    0.34
  -4  12  -5    0.00    0.18
  -5  12  -5    1.63    0.23
  -5  12  -5    1.73    0.38
  -6  12  -5    0.13    0.37
  -6  12  -5    0.01    0.20
  -7  12  -5   21.10    0.83
  -7  12  -5   21.49    1.08
  -8  12  -5    5.74    0.41
  -8  12  -5    4.89    0.65
  -9  12  -5    2.15    0.29
  -9  12  -5    1.34    0.48
 -10  12  -5    0.02    0.43
 -10  12  -5    0.82    0.24
 -11  12  -5    0.27    0.26
 -11  12  -5    0.20    0.42
 -12  12  -5    0.43    0.34
 -12  12  -5    0.65    0.53
 -13  12  -5    7.50    0.86
 -14  12  -5    0.99    0.51
  10  11  -5    0.13    0.58
   9  11  -5    0.57    0.57
   9  11  -5    0.03    0.50
   8  11  -5    3.48    0.72
   8  11  -5    3.72    0.78
   7  11  -5    1.08    0.56
   7  11  -5    0.47    0.41
   6  11  -5    6.83    0.76
   6  11  -5    7.43    0.92
   5  11  -5    1.40    0.57
   5  11  -5    1.59    0.43
   4  11  -5    1.79    0.45
   4  11  -5    1.87    0.58
   3  11  -5    7.52    0.63
   3  11  -5    8.53    0.77
   2  11  -5    2.34    0.37
   2  11  -5    2.84    0.52
   1  11  -5    0.71    0.40
   1  11  -5    0.33    0.29
   0  11  -5    5.60    0.49
   0  11  -5    5.59    0.59
  -1  11  -5    1.01    0.30
  -1  11  -5    0.93    0.40
  -2  11  -5    4.76    0.49
  -2  11  -5    4.41    0.37
  -3  11  -5    1.57    0.36
  -3  11  -5    2.07    0.24
  -4  11  -5    0.87    0.38
  -4  11  -5    0.79    0.23
  -5  11  -5    5.55    0.57
  -5  11  -5    5.54    0.40
  -6  11  -5   11.06    0.72
  -6  11  -5   10.61    0.51
  -7  11  -5    0.14    0.19
  -7  11  -5    0.62    0.39
  -8  11  -5    0.35    0.21
  -8  11  -5    0.15    0.39
  -9  11  -5   13.73    0.85
  -9  11  -5   14.86    0.65
 -10  11  -5    0.73    0.40
 -10  11  -5    1.10    0.28
 -11  11  -5    3.16    0.55
 -11  11  -5    3.37    0.41
 -12  11  -5    8.67    0.65
 -12  11  -5    8.81    0.79
 -13  11  -5    1.14    0.38
 -13  11  -5    1.23    0.47
 -14  11  -5    0.02    0.38
 -14  11  -5    0.14    0.46
 -15  11  -5    1.65    0.50
  10  10  -5    0.01    0.41
  10  10  -5    0.32    0.51
   9  10  -5    1.34    0.61
   9  10  -5    3.12    0.69
   8  10  -5    2.92    0.62
   8  10  -5    1.69    0.54
   7  10  -5    0.87    0.48
   7  10  -5    0.00    0.42
   6  10  -5   11.54    0.81
   6  10  -5   12.12    0.97
   5  10  -5    0.00    0.46
   5  10  -5    0.45    0.39
   4  10  -5    3.34    0.59
   4  10  -5    3.91    0.51
   3  10  -5    6.61    0.68
   3  10  -5    6.15    0.59
   2  10  -5    4.85    0.51
   2  10  -5    4.13    0.55
   1  10  -5    0.22    0.29
   1  10  -5    0.09    0.35
   0  10  -5    4.22    0.41
   0  10  -5    5.25    0.50
  -1  10  -5   10.35    0.59
  -1  10  -5    9.22    0.68
  -2  10  -5    0.57    0.30
  -2  10  -5    0.48    0.20
  -3  10  -5    0.30    0.28
  -3  10  -5    0.14    0.19
  -4  10  -5    1.19    0.32
  -4  10  -5    0.96    0.21
  -5  10  -5    0.00    0.29
  -5  10  -5    0.00    0.19
  -6  10  -5    0.63    0.35
  -6  10  -5    0.90    0.19
  -7  10  -5    2.29    0.50
  -7  10  -5    2.33    0.31
  -8  10  -5    5.43    0.41
  -8  10  -5    4.61    0.59
  -9  10  -5   11.67    0.75
  -9  10  -5   11.83    0.95
 -10  10  -5   34.21    1.55
 -10  10  -5   34.47    1.44
 -11  10  -5    1.36    0.33
 -11  10  -5    1.26    0.44
 -12  10  -5    3.23    0.60
 -12  10  -5    3.55    0.53
 -13  10  -5    0.30    0.40
 -13  10  -5    0.52    0.46
 -14  10  -5    0.33    0.41
 -14  10  -5    0.05    0.43
 -15  10  -5    4.60    0.72
 -15  10  -5    4.08    0.72
  11   9  -5    0.33    0.41
  11   9  -5    0.00    0.56
  10   9  -5    0.32    0.41
  10   9  -5    0.30    0.50
   9   9  -5    1.07    0.51
   9   9  -5    0.45    0.40
   8   9  -5    2.83    0.53
   8   9  -5    3.13    0.59
   7   9  -5    0.43    0.40
   7   9  -5    0.01    0.43
   6   9  -5   14.02    0.93
   6   9  -5   13.95    0.93
   5   9  -5    0.02    0.38
   5   9  -5    0.02    0.36
   4   9  -5    2.97    0.51
   4   9  -5    2.51    0.56
   3   9  -5   19.31    0.99
   3   9  -5   20.09    1.02
   2   9  -5    6.36    0.50
   2   9  -5    5.90    0.41
   1   9  -5    9.33    0.60
   1   9  -5   10.31    0.58
   0   9  -5    2.52    0.32
   0   9  -5    2.41    0.37
  -1   9  -5    0.89    0.30
  -1   9  -5    0.98    0.23
  -2   9  -5    4.54    0.31
  -2   9  -5    4.06    0.38
  -3   9  -5    2.21    0.23
  -3   9  -5    2.22    0.31
  -4   9  -5   37.03    1.36
  -4   9  -5   35.06    1.23
  -5   9  -5    2.05    0.40
  -5   9  -5    2.29    0.25
  -6   9  -5   46.77    1.65
  -6   9  -5   45.86    1.77
  -7   9  -5    1.44    0.24
  -7   9  -5    1.43    0.35
  -8   9  -5    0.49    0.34
  -8   9  -5    0.42    0.23
  -9   9  -5   14.73    0.85
  -9   9  -5   15.58    1.00
 -10   9  -5    9.77    0.60
 -10   9  -5    9.52    0.67
 -11   9  -5   10.77    0.71
 -11   9  -5   10.92    0.81
 -12   9  -5    0.45    0.42
 -12   9  -5    0.85    0.41
 -13   9  -5    5.64    0.73
 -13   9  -5    6.39    0.68
 -14   9  -5    1.33    0.50
 -14   9  -5    1.98    0.57
 -15   9  -5    0.81    0.50
 -15   9  -5    0.13    0.45
  12   8  -5    0.00    0.56
  12   8  -5    0.95    0.41
  11   8  -5    1.07    0.43
  11   8  -5    0.66    0.57
  10   8  -5    3.87    0.71
  10   8  -5    6.83    0.80
   9   8  -5    2.52    0.61
   9   8  -5    3.14    0.52
   8   8  -5    0.72    0.45
   8   8  -5    0.11    0.41
   7   8  -5    0.58    0.44
   7   8  -5    0.32    0.44
   6   8  -5    5.34    0.64
   6   8  -5    5.58    0.62
   5   8  -5   10.10    0.77
   5   8  -5   10.28    0.79
   4   8  -5    2.45    0.51
   4   8  -5    2.79    0.56
   3   8  -5    0.05    0.28
   3   8  -5    0.05    0.28
   2   8  -5   39.33    1.29
   2   8  -5   41.05    1.25
   1   8  -5    5.51    0.59
   1   8  -5    5.48    0.60
   0   8  -5   35.18    1.12
   0   8  -5   34.75    1.12
  -1   8  -5    2.81    0.26
  -1   8  -5    2.59    0.30
  -2   8  -5   34.66    1.23
  -2   8  -5   34.57    1.20
  -3   8  -5   41.46    1.46
  -3   8  -5   43.06    1.51
  -4   8  -5    7.59    0.54
  -4   8  -5    6.48    0.36
  -5   8  -5   45.55    1.76
  -5   8  -5   43.14    1.67
  -6   8  -5   52.10    1.98
  -6   8  -5   52.18    2.03
  -7   8  -5    6.09    0.46
  -7   8  -5    5.89    0.56
  -8   8  -5   20.12    0.92
  -8   8  -5   20.39    1.00
  -9   8  -5    0.00    0.34
  -9   8  -5    0.28    0.29
 -10   8  -5    2.93    0.39
 -11   8  -5    6.82    0.60
 -12   8  -5    9.15    0.70
 -13   8  -5   36.19    1.65
 -14   8  -5    0.04    0.50
 -15   8  -5   10.89    0.99
  13   7  -5    1.11    0.62
  13   7  -5    1.48    0.48
  12   7  -5    2.65    0.68
  12   7  -5    3.78    0.63
  11   7  -5    1.60    0.48
  11   7  -5    0.59    0.53
  10   7  -5    1.05    0.38
  10   7  -5    0.86    0.47
   9   7  -5    0.01    0.44
   9   7  -5    0.00    0.32
   8   7  -5    4.23    0.60
   8   7  -5    4.87    0.68
   7   7  -5    1.39    0.45
   7   7  -5    1.16    0.45
   6   7  -5   53.31    2.02
   6   7  -5   54.52    1.94
   5   7  -5    1.63    0.40
   5   7  -5    1.84    0.44
   4   7  -5    7.54    0.66
   4   7  -5    6.70    0.61
   3   7  -5    6.09    0.39
   3   7  -5    5.92    0.39
   2   7  -5   98.65    3.72
   2   7  -5   99.21    3.50
   1   7  -5   56.05    2.10
   1   7  -5   57.83    2.21
   0   7  -5    0.03    0.21
   0   7  -5    0.40    0.21
  -1   7  -5    2.83    0.34
  -1   7  -5    2.09    0.35
  -2   7  -5   11.32    0.73
  -2   7  -5   11.41    0.70
  -3   7  -5   77.90    2.63
  -3   7  -5   77.54    2.66
  -4   7  -5   45.94    1.61
  -4   7  -5   44.56    1.56
  -5   7  -5    4.57    0.34
  -5   7  -5    4.48    0.25
  -6   7  -5   12.99    0.64
  -6   7  -5   12.74    0.71
  -7   7  -5    7.66    0.46
  -7   7  -5    7.01    0.52
  -8   7  -5    2.43    0.31
  -9   7  -5   44.16    1.65
 -10   7  -5    0.22    0.33
 -11   7  -5    0.79    0.41
 -12   7  -5    0.60    0.47
 -13   7  -5   14.69    1.04
 -14   7  -5    1.26    0.53
 -15   7  -5    7.46    0.87
 -16   7  -5    0.18    0.60
  13   6  -5    0.00    0.51
  13   6  -5    0.10    0.35
  12   6  -5    0.07    0.48
  12   6  -5    0.46    0.38
  11   6  -5    4.51    0.71
  11   6  -5    5.60    0.63
  10   6  -5   12.80    0.82
  10   6  -5   11.65    0.96
   9   6  -5    9.67    0.93
   9   6  -5   11.17    0.80
   8   6  -5   10.47    0.75
   8   6  -5    9.82    0.82
   7   6  -5    0.45    0.31
   7   6  -5    0.65    0.37
   6   6  -5   51.01    1.89
   6   6  -5   49.50    1.73
   5   6  -5   29.67    1.47
   5   6  -5   29.19    1.37
   4   6  -5    2.08    0.36
   4   6  -5    1.62    0.35
   3   6  -5    6.53    0.52
   3   6  -5    6.12    0.59
   2   6  -5    2.18    0.40
   2   6  -5    2.35    0.38
   1   6  -5  131.21    5.21
   1   6  -5  127.06    4.89
   0   6  -5   84.04    2.37
   0   6  -5   90.73    2.51
  -1   6  -5   42.57    1.57
  -1   6  -5   42.20    1.53
  -2   6  -5   12.20    0.44
  -2   6  -5   12.66    0.40
  -3   6  -5   77.92    2.76
  -3   6  -5   77.13    2.82
  -4   6  -5   45.22    1.29
  -4   6  -5   43.26    1.31
  -5   6  -5   14.62    0.71
  -5   6  -5   14.52    0.66
  -6   6  -5    3.40    0.26
  -7   6  -5   24.03    1.01
  -8   6  -5    8.04    0.64
  -9   6  -5   11.38    0.76
 -10   6  -5   11.14    0.83
 -11   6  -5    0.41    0.44
 -12   6  -5    2.44    0.56
 -13   6  -5    2.39    0.51
 -14   6  -5    0.06    0.51
 -15   6  -5    9.58    1.02
 -16   6  -5    0.01    0.52
  14   5  -5    3.84    0.87
  13   5  -5    1.28    0.41
  13   5  -5    1.43    0.69
  12   5  -5    5.31    0.78
  12   5  -5    5.13    0.61
  11   5  -5    0.09    0.32
  11   5  -5    0.02    0.40
  10   5  -5    3.45    0.50
  10   5  -5    3.29    0.62
   9   5  -5    9.55    0.88
   9   5  -5    8.64    0.74
   8   5  -5    1.17    0.39
   8   5  -5    0.77    0.44
   7   5  -5   29.08    1.22
   7   5  -5   29.59    1.41
   6   5  -5   19.41    0.99
   6   5  -5   19.01    1.10
   5   5  -5    4.85    0.33
   5   5  -5    4.77    0.28
   4   5  -5   10.11    0.65
   4   5  -5   10.53    0.59
   3   5  -5    0.09    0.21
   3   5  -5    0.02    0.19
   2   5  -5    0.16    0.25
   2   5  -5    0.02    0.20
   1   5  -5    3.85    0.31
   1   5  -5    4.11    0.34
   0   5  -5  190.62    7.43
   0   5  -5  190.45    6.98
  -1   5  -5    1.99    0.34
  -1   5  -5    1.82    0.33
  -2   5  -5    1.46    0.15
  -2   5  -5    1.46    0.17
  -3   5  -5  117.85    3.84
  -3   5  -5  120.06    4.01
  -4   5  -5    0.27    0.16
  -5   5  -5   11.15    0.46
  -6   5  -5   60.58    2.57
  -7   5  -5   20.33    0.93
  -8   5  -5    2.58    0.39
  -9   5  -5    1.99    0.46
 -10   5  -5   16.07    0.88
 -11   5  -5   32.93    1.38
 -12   5  -5    0.01    0.38
 -13   5  -5    0.63    0.54
 -14   5  -5    0.40    0.56
 -15   5  -5    6.90    0.89
 -16   5  -5    1.01    0.67
  14   4  -5    1.32    0.58
  13   4  -5    5.21    0.57
  13   4  -5    5.39    0.78
  12   4  -5    5.07    0.73
  12   4  -5    3.59    0.44
  11   4  -5    0.49    0.23
  11   4  -5    0.31    0.42
  10   4  -5    1.06    0.25
  10   4  -5    1.50    0.44
   9   4  -5    0.13    0.17
   9   4  -5    0.13    0.36
   8   4  -5    0.19    0.32
   8   4  -5    0.01    0.19
   7   4  -5    9.49    0.46
   6   4  -5    1.58    0.15
   6   4  -5    1.24    0.28
   5   4  -5    0.60    0.37
   3   4  -5   29.88    0.73
   2   4  -5   54.44    1.80
   2   4  -5   51.09    1.96
   1   4  -5   39.16    0.76
   1   4  -5   40.64    0.70
   0   4  -5    2.44    0.25
   0   4  -5    3.33    0.24
  -1   4  -5   27.20    1.03
  -1   4  -5   25.29    0.99
  -2   4  -5   17.63    0.85
  -3   4  -5   90.04    2.57
  -4   4  -5  107.64    3.49
  -5   4  -5   11.34    0.60
  -6   4  -5  181.22    5.42
  -7   4  -5    8.77    0.49
  -8   4  -5    3.25    0.42
  -9   4  -5   25.34    1.16
 -10   4  -5    0.00    0.34
 -11   4  -5    3.51    0.61
 -12   4  -5    0.38    0.45
 -13   4  -5    4.70    0.71
 -14   4  -5    3.83    0.74
 -15   4  -5    5.00    0.77
  15   3  -5    0.11    0.46
  14   3  -5    0.08    0.50
  13   3  -5    2.07    0.55
  12   3  -5    8.04    0.67
  12   3  -5    7.35    0.89
  11   3  -5    0.01    0.27
  11   3  -5    0.03    0.39
 -11  -3   5    0.06    0.25
  10   3  -5    4.07    0.64
  10   3  -5    3.81    0.46
 -10  -3   5    4.07    0.40
   9   3  -5   18.06    1.18
   9   3  -5   19.21    0.99
  -9  -3   5   20.08    0.94
   8   3  -5    0.13    0.38
   8   3  -5    0.19    0.27
  -8  -3   5    0.15    0.25
   7   3  -5    8.19    0.67
   7   3  -5    7.78    0.51
  -7  -3   5    8.31    0.51
   6   3  -5    0.01    0.30
   6   3  -5    0.07    0.22
  -6  -3   5    0.04    0.22
   5   3  -5    0.04    0.23
   5   3  -5    0.14    0.16
  -5  -3   5    0.01    0.18
   4   3  -5    1.31    0.31
   4   3  -5    1.31    0.42
   3   3  -5    6.74    0.47
   3   3  -5    6.80    0.35
   2   3  -5  194.91    6.88
   1   3  -5  109.73    2.70
   1   3  -5  110.81    2.95
   0   3  -5   22.72    0.77
   0   3  -5   24.54    0.87
  -1   3  -5    0.03    0.14
  -2   3  -5   21.06    0.67
  -3   3  -5   94.61    2.88
  -4   3  -5   40.57    1.63
  -5   3  -5    2.51    0.22
  -6   3  -5    0.43    0.34
  -7   3  -5    1.42    0.39
  -8   3  -5    0.77    0.31
  -9   3  -5    0.20    0.36
 -10   3  -5   50.72    2.07
 -11   3  -5    4.44    0.63
 -12   3  -5    0.92    0.50
 -13   3  -5   11.28    0.97
 -14   3  -5    2.07    0.71
 -15   3  -5   15.30    1.22
  15   2  -5    0.00    0.43
  14   2  -5    0.01    0.53
  13   2  -5    0.01    0.44
  12   2  -5    0.99    0.46
 -12  -2   5    1.38    0.32
  11   2  -5   11.57    0.93
 -11  -2   5   13.30    0.72
  10   2  -5    0.73    0.27
  10   2  -5    0.31    0.36
 -10  -2   5    0.69    0.28
   9   2  -5   25.07    1.07
   9   2  -5   26.77    0.85
  -9  -2   5   25.72    0.88
   8   2  -5    4.97    0.75
   8   2  -5    5.11    0.56
  -8  -2   5    5.74    0.60
   7   2  -5    3.82    0.37
   7   2  -5    4.59    0.56
  -7  -2   5    3.64    0.46
   6   2  -5   76.07    2.64
   6   2  -5   77.61    2.99
  -6  -2   5   76.00    2.77
   5   2  -5    8.01    0.19
   5   2  -5    6.89    0.29
  -5  -2   5    6.98    0.23
   4   2  -5    3.48    0.54
   4   2  -5    3.34    0.71
  -4  -2   5    3.69    0.52
  -4  -2   5    3.16    0.60
   3   2  -5   34.81    1.30
   3   2  -5   36.89    1.11
  -3  -2   5   37.77    1.11
  -3  -2   5   36.04    1.20
   2   2  -5  122.58    3.04
   2   2  -5  122.36    2.74
  -2  -2   5  121.03    2.89
   1   2  -5   64.08    1.54
   0   2  -5   43.26    2.09
  -1   2  -5   32.14    0.77
  -2   2  -5    1.94    0.12
  -3   2  -5   17.11    1.75
  -4   2  -5   48.16    1.92
  -5   2  -5    9.20    0.58
  -6   2  -5   23.61    1.46
  -7   2  -5   41.14    1.53
  -8   2  -5    1.53    0.42
  -9   2  -5   15.70    0.93
 -10   2  -5   24.98    1.38
 -11   2  -5   39.48    1.84
 -12   2  -5    1.94    0.55
 -13   2  -5    0.33    0.49
 -14   2  -5    0.00    0.49
 -15   2  -5    9.97    1.05
  16   1  -5    5.64    0.84
  15   1  -5    0.50    0.49
  14   1  -5    5.42    0.73
  13   1  -5    3.29    0.58
 -13  -1   5    3.58    0.42
  12   1  -5    4.08    0.64
 -12  -1   5    5.44    0.50
  11   1  -5    2.60    0.49
 -11  -1   5    3.66    0.39
  10   1  -5    0.00    0.33
 -10  -1   5    0.44    0.28
   9   1  -5   22.73    1.45
  -9  -1   5   20.87    1.23
   8   1  -5   15.53    0.81
   8   1  -5   16.20    0.60
  -8  -1   5   16.23    0.72
   7   1  -5  112.42    3.99
   7   1  -5  114.42    4.45
  -7  -1   5  116.08    4.22
   6   1  -5   26.39    1.06
   6   1  -5   25.21    0.81
  -6  -1   5   25.92    0.95
  -6  -1   5   27.35    0.80
   5   1  -5   89.48    3.42
   5   1  -5   88.54    3.03
  -5  -1   5   89.33    3.25
  -5  -1   5   90.75    3.01
   4   1  -5   33.06    0.78
   4   1  -5   30.65    0.99
  -4  -1   5   32.30    0.92
  -4  -1   5   34.46    0.78
   3   1  -5  132.73    2.34
   3   1  -5  124.55    2.65
  -3  -1   5  129.92    2.54
   2   1  -5    1.19    0.10
   2   1  -5    1.38    0.22
  -2  -1   5    1.09    0.21
   1   1  -5    5.40    1.07
  -1  -1   5    4.15    1.01
   0   1  -5    2.03    0.14
  -1   1  -5   28.18    1.65
  -2   1  -5   20.93    1.25
  -3   1  -5  151.04    5.02
  -4   1  -5    5.51    0.37
  -5   1  -5   13.63    0.86
  -6   1  -5    4.05    0.39
  -7   1  -5   41.83    1.70
  -8   1  -5    1.70    0.44
  -9   1  -5   35.98    1.76
 -10   1  -5    2.07    0.49
 -11   1  -5    5.31    0.77
 -12   1  -5    1.64    0.60
 -13   1  -5    0.01    0.49
 -14   1  -5    0.20    0.55
 -15   1  -5    0.00    0.54
  16   0  -5    0.01    0.51
  15   0  -5    0.87    0.51
  14   0  -5    7.73    0.86
 -14   0   5    7.56    0.66
  13   0  -5    0.46    0.41
 -13   0   5    0.17    0.31
  12   0  -5   10.34    0.84
 -12   0   5   12.86    0.78
  11   0  -5   10.45    0.75
 -11   0   5   12.88    0.71
  10   0  -5    0.72    0.41
 -10   0   5    0.78    0.35
   9   0  -5   12.31    0.74
  -9   0   5   11.98    0.70
   8   0  -5   15.21    1.02
  -8   0   5   15.08    0.93
   7   0  -5   83.08    2.15
  -7   0   5   83.30    2.01
   6   0  -5    0.42    0.29
  -6   0   5    0.21    0.27
  -6   0   5    0.45    0.13
   5   0  -5  104.09    3.41
  -5   0   5   99.53    2.98
  -5   0   5   98.29    3.26
   4   0  -5   40.96    1.54
  -4   0   5   41.02    1.46
   3   0  -5   22.64    1.32
  -3   0   5   21.95    1.25
   2   0  -5   42.01    2.56
   2   0  -5   42.01    2.88
  -2   0   5   41.68    2.77
   1   0  -5    1.13    0.35
   1   0  -5    1.37    0.44
  -1   0   5    1.15    0.46
   0   0  -5   40.33    0.68
   0   0   5   41.69    0.72
  -1   0  -5   13.60    0.86
  -2   0  -5    2.83    0.18
  -3   0  -5   69.60    2.04
  -4   0  -5   12.75    0.68
  -5   0  -5    4.09    0.49
  -6   0  -5    2.53    0.39
  -7   0  -5    0.76    0.31
  -8   0  -5    0.24    0.36
  -9   0  -5   25.36    1.26
 -10   0  -5    0.14    0.41
 -11   0  -5    0.22    0.43
 -12   0  -5    8.46    0.92
 -13   0  -5    1.13    0.56
 -14   0  -5    3.85    0.81
 -15   0  -5    1.20    0.63
  16  -1  -5    1.89    0.57
  15  -1  -5    9.37    1.01
 -15   1   5    9.04    0.78
  14  -1  -5    0.63    0.44
 -14   1   5    1.47    0.42
  13  -1  -5    1.99    0.49
 -13   1   5    3.23    0.46
  12  -1  -5    6.41    0.72
 -12   1   5    7.02    0.62
  11  -1  -5   10.45    0.83
 -11   1   5   10.14    0.78
  10  -1  -5    0.42    0.34
 -10   1   5    0.02    0.30
   9  -1  -5   10.39    0.69
  -9   1   5   11.50    0.67
   8  -1  -5    1.55    0.31
  -8   1   5    1.43    0.30
   7  -1  -5    6.43    0.87
  -7   1   5    5.40    0.81
  -7   1   5    6.45    0.62
   6  -1  -5    4.84    0.34
  -6   1   5    5.22    0.17
  -6   1   5    4.72    0.32
   5  -1  -5  157.08    4.11
  -5   1   5  152.41    3.98
   4  -1  -5   36.57    1.07
  -4   1   5   37.18    1.06
   3  -1  -5   37.22    1.09
   3  -1  -5   33.89    1.34
  -3   1   5   36.73    1.30
   2  -1  -5    4.10    0.10
   2  -1  -5    3.65    0.19
  -2   1   5    3.94    0.09
  -2   1   5    4.17    0.22
   1  -1  -5   21.46    0.36
   1  -1  -5   21.61    0.40
  -1   1   5   20.81    0.34
  -1   1   5   21.44    0.45
   0  -1  -5   26.85    0.88
   0   1   5   25.85    0.90
   0   1   5   24.69    0.83
  -1  -1  -5    0.41    0.15
   1   1   5    0.22    0.16
   1   1   5    0.74    0.16
  -2  -1  -5    9.24    0.52
   2   1   5    7.74    0.50
  -3  -1  -5   29.61    1.39
   3   1   5   32.09    1.35
  -4  -1  -5  161.88    4.61
   4   1   5  151.06    4.33
  -5  -1  -5   55.78    1.99
   5   1   5   55.25    1.89
  -6  -1  -5   26.36    1.12
   6   1   5   24.82    1.05
  -7  -1  -5    0.35    0.31
   7   1   5    0.55    0.30
  -8  -1  -5    7.21    0.63
  -9  -1  -5   10.25    0.92
 -10  -1  -5   11.46    0.90
 -11  -1  -5    0.00    0.43
 -12  -1  -5    4.57    0.70
 -13  -1  -5    0.00    0.48
 -14  -1  -5    6.16    0.85
  16  -2  -5    0.64    0.49
  15  -2  -5    0.69    0.51
 -15   2   5    1.08    0.46
  14  -2  -5    3.69    0.61
 -14   2   5    4.07    0.56
  13  -2  -5    0.10    0.35
 -13   2   5    0.16    0.37
  12  -2  -5   11.09    0.89
 -12   2   5   13.00    0.90
  11  -2  -5    0.31    0.37
 -11   2   5    0.08    0.35
  10  -2  -5    0.22    0.32
 -10   2   5    0.49    0.37
   9  -2  -5    5.58    0.50
  -9   2   5    6.15    0.51
   8  -2  -5    4.43    0.52
  -8   2   5    4.66    0.55
   7  -2  -5    7.87    0.71
  -7   2   5    7.31    0.47
  -7   2   5    7.59    0.70
  -7   2   5    7.42    0.47
   6  -2  -5    0.64    0.34
  -6   2   5    0.86    0.18
  -6   2   5    1.05    0.41
  -6   2   5    0.72    0.18
   5  -2  -5    0.09    0.17
  -5   2   5    0.31    0.20
  -5   2   5    0.13    0.05
   4  -2  -5    8.99    0.28
   4  -2  -5    9.54    0.49
  -4   2   5    8.52    0.28
  -4   2   5    8.15    0.49
   3  -2  -5   10.33    0.39
   3  -2  -5    9.71    0.57
  -3   2   5   10.07    0.57
  -3   2   5    9.50    0.39
   2  -2  -5   45.56    1.13
   2  -2  -5   44.00    0.97
  -2   2   5   42.13    0.97
  -2   2   5   43.77    1.11
   1  -2  -5   10.71    0.60
  -1   2   5   10.50    0.64
  -1   2   5   10.37    0.56
   0  -2  -5  101.90    2.89
   0   2   5  101.77    2.74
   0   2   5   99.12    2.85
  -1  -2  -5   32.59    0.71
   1   2   5   30.13    0.69
   1   2   5   32.40    0.70
  -2  -2  -5    8.69    0.40
   2   2   5    8.52    0.41
   2   2   5    6.17    0.33
  -3  -2  -5   41.70    1.47
   3   2   5   41.62    1.41
  -4  -2  -5   69.96    2.86
   4   2   5   69.13    2.72
  -5  -2  -5  166.97    5.96
   5   2   5  166.02    5.63
  -6  -2  -5    0.46    0.29
   6   2   5    0.01    0.25
  -7  -2  -5   22.68    1.20
   7   2   5   22.66    1.14
  -8  -2  -5    0.04    0.38
   8   2   5    0.02    0.30
  -9  -2  -5    1.36    0.47
   9   2   5    1.10    0.45
 -10  -2  -5   20.25    1.25
 -11  -2  -5    8.21    0.86
 -12  -2  -5    2.44    0.63
 -13  -2  -5   17.44    1.25
 -14  -2  -5    0.03    0.54
  16  -3  -5    1.90    0.54
 -16   3   5    1.13    0.48
  15  -3  -5    9.30    0.91
 -15   3   5   10.13    0.81
  14  -3  -5    0.21    0.37
 -14   3   5    0.41    0.41
  13  -3  -5    1.00    0.38
 -13   3   5    1.20    0.41
  12  -3  -5    0.98    0.43
 -12   3   5    1.36    0.46
  11  -3  -5    0.11    0.32
 -11   3   5    0.22    0.35
  10  -3  -5    7.42    0.78
 -10   3   5    7.39    0.78
   9  -3  -5    0.07    0.24
  -9   3   5    0.21    0.14
  -9   3   5    0.55    0.29
   8  -3  -5   56.07    1.76
  -8   3   5   55.07    1.49
  -8   3   5   59.10    1.76
   7  -3  -5   51.90    1.51
  -7   3   5   51.46    1.27
  -7   3   5   49.93    1.51
   6  -3  -5   42.80    1.38
  -6   3   5   41.85    1.14
  -6   3   5   41.71    1.42
   5  -3  -5   48.71    1.40
  -5   3   5   45.96    1.17
  -5   3   5   46.46    1.42
   4  -3  -5   61.79    1.68
   4  -3  -5   64.32    1.90
  -4   3   5   61.06    1.65
  -4   3   5   63.80    1.89
   3  -3  -5  176.57    6.05
   3  -3  -5  204.06    5.59
  -3   3   5  196.17    5.93
  -3   3   5  200.09    5.59
   2  -3  -5   23.08    1.11
  -2   3   5   21.88    1.00
  -2   3   5   22.63    1.12
   1  -3  -5   34.42    1.24
  -1   3   5   33.21    1.29
  -1   3   5   32.66    1.20
   0  -3  -5  190.16    6.86
   0   3   5  197.04    6.49
   0   3   5  188.47    6.73
  -1  -3  -5   10.85    0.81
   1   3   5   10.14    0.79
   1   3   5   10.65    0.81
  -2  -3  -5   22.47    1.03
   2   3   5   22.30    1.01
  -3  -3  -5   19.74    0.81
   3   3   5   18.87    0.70
   3   3   5   19.24    0.79
  -4  -3  -5   41.31    1.54
   4   3   5   43.06    1.52
  -5  -3  -5    3.08    0.50
   5   3   5    3.50    0.52
  -6  -3  -5   16.14    1.01
   6   3   5   16.65    0.99
  -7  -3  -5   45.24    1.83
   7   3   5   46.18    1.76
  -8  -3  -5    1.58    0.47
   8   3   5    1.06    0.42
  -9  -3  -5   40.45    1.88
   9   3   5   41.23    1.79
 -10  -3  -5    6.70    0.74
  10   3   5    5.11    0.62
 -11  -3  -5    6.87    0.83
 -12  -3  -5    1.74    0.59
 -13  -3  -5    3.38    0.72
  16  -4  -5    0.35    0.47
 -16   4   5    0.00    0.41
  15  -4  -5    4.43    0.65
 -15   4   5    4.50    0.67
  14  -4  -5    0.47    0.44
 -14   4   5    0.29    0.28
 -14   4   5    0.17    0.43
  13  -4  -5    0.98    0.40
 -13   4   5    0.96    0.43
 -13   4   5    1.03    0.27
  12  -4  -5   18.25    1.06
 -12   4   5   18.86    0.81
 -12   4   5   18.76    1.11
  11  -4  -5    6.99    0.64
 -11   4   5    6.48    0.44
 -11   4   5    6.39    0.63
  10  -4  -5    2.10    0.35
 -10   4   5    2.29    0.23
 -10   4   5    1.85    0.39
   9  -4  -5    0.57    0.33
  -9   4   5    0.42    0.37
  -9   4   5    0.12    0.20
   8  -4  -5   26.04    1.38
  -8   4   5   28.40    1.18
  -8   4   5   27.58    1.43
   7  -4  -5   74.76    3.29
  -7   4   5   77.84    2.96
  -7   4   5   76.50    3.28
   6  -4  -5   37.26    1.73
  -6   4   5   38.39    1.78
  -6   4   5   37.85    1.51
   5  -4  -5    9.80    0.70
  -5   4   5    8.99    0.54
  -5   4   5    9.60    0.78
   4  -4  -5    6.36    0.76
  -4   4   5    6.38    0.81
  -4   4   5    5.91    0.62
   3  -4  -5    8.29    0.93
  -3   4   5   11.11    0.82
  -3   4   5   12.08    0.98
   2  -4  -5   78.48    3.22
  -2   4   5   77.66    3.21
  -2   4   5   75.43    3.02
   1  -4  -5   83.50    2.72
  -1   4   5   80.38    2.72
  -1   4   5   80.49    2.60
   0  -4  -5   22.28    1.11
   0   4   5   23.33    1.11
   0   4   5   22.28    1.13
  -1  -4  -5   48.92    1.70
   1   4   5   50.48    1.67
   1   4   5   43.80    1.64
  -2  -4  -5    0.95    0.24
   2   4   5    0.25    0.24
   2   4   5    0.45    0.18
  -3  -4  -5  134.68    4.84
   3   4   5  139.49    4.62
   3   4   5  136.02    4.63
  -4  -4  -5   32.15    1.44
   4   4   5   33.33    1.43
  -5  -4  -5   62.72    2.79
   5   4   5   61.93    2.68
  -6  -4  -5    0.01    0.31
   6   4   5    0.01    0.29
  -7  -4  -5    4.28    0.58
  -7  -4  -5    5.18    0.28
   7   4   5    4.42    0.54
  -8  -4  -5    0.58    0.43
   8   4   5    0.33    0.41
  -9  -4  -5   18.90    1.19
   9   4   5   20.61    1.18
 -10  -4  -5    0.58    0.46
  10   4   5    1.24    0.45
 -11  -4  -5    0.13    0.48
  11   4   5    0.01    0.39
 -12  -4  -5    0.36    0.51
 -13  -4  -5    0.67    0.54
  16  -5  -5    0.75    0.47
 -16   5   5    0.96    0.51
  15  -5  -5    1.76    0.48
 -15   5   5    2.42    0.54
  14  -5  -5    0.62    0.42
 -14   5   5    0.52    0.49
 -14   5   5    0.92    0.32
  13  -5  -5    6.09    0.67
 -13   5   5    6.30    0.73
 -13   5   5    5.82    0.48
  12  -5  -5   34.83    1.62
 -12   5   5   35.63    1.70
 -12   5   5   34.77    1.38
  11  -5  -5    7.74    0.67
 -11   5   5    7.19    0.74
 -11   5   5    7.16    0.49
  10  -5  -5    0.60    0.29
 -10   5   5    0.17    0.22
 -10   5   5    0.51    0.42
   9  -5  -5    3.78    0.39
  -9   5   5    4.25    0.51
  -9   5   5    4.04    0.31
   8  -5  -5   22.13    0.86
  -8   5   5   23.38    0.72
  -8   5   5   25.32    1.04
   7  -5  -5   56.63    2.16
  -7   5   5   58.67    1.94
  -7   5   5   55.66    2.24
  -6   5   5    6.71    0.57
  -6   5   5    7.94    0.36
   5  -5  -5   14.31    0.64
  -5   5   5   16.66    0.57
  -5   5   5   15.47    0.78
   4  -5  -5    5.47    0.40
  -4   5   5    5.07    0.32
  -4   5   5    4.36    0.42
   3  -5  -5   61.19    2.44
  -3   5   5   73.51    2.27
  -3   5   5   75.35    2.47
  -2   5   5    6.16    0.40
  -2   5   5    5.93    0.48
   1  -5  -5    0.10    0.10
  -1   5   5    0.17    0.22
  -1   5   5    0.02    0.20
   0  -5  -5   37.36    1.56
   0   5   5   35.60    1.57
   0   5   5   36.37    1.54
  -1  -5  -5   35.69    1.73
   1   5   5   34.36    1.70
  -2  -5  -5   43.71    1.74
   2   5   5   42.09    1.65
   2   5   5   42.84    1.71
  -3  -5  -5   80.46    2.75
   3   5   5   81.29    2.66
   3   5   5   79.00    2.58
  -4  -5  -5    3.51    0.43
   4   5   5    3.19    0.44
  -5  -5  -5   39.32    1.72
   5   5   5   39.24    1.69
  -6  -5  -5    1.82    0.47
   6   5   5    1.50    0.44
  -7  -5  -5    6.42    0.67
   7   5   5    6.51    0.68
  -8  -5  -5    0.15    0.39
   8   5   5    0.01    0.36
  -9  -5  -5    2.19    0.53
   9   5   5    1.86    0.51
 -10  -5  -5    1.50    0.51
  10   5   5    1.93    0.53
 -11  -5  -5    0.02    0.45
  11   5   5    0.36    0.44
 -12  -5  -5    2.98    0.69
  12   5   5    3.75    0.70
  16  -6  -5    2.64    0.55
 -16   6   5    2.57    0.61
  15  -6  -5    3.73    0.59
 -15   6   5    3.71    0.64
  14  -6  -5    0.60    0.40
 -14   6   5    0.30    0.48
 -14   6   5    0.58    0.30
  13  -6  -5    9.46    0.78
 -13   6   5   10.68    0.94
 -13   6   5    9.21    0.62
  12  -6  -5    1.90    0.40
 -12   6   5    1.10    0.46
 -12   6   5    0.76    0.29
  11  -6  -5    0.13    0.29
 -11   6   5    0.32    0.24
 -11   6   5    0.00    0.38
  10  -6  -5    3.31    0.40
 -10   6   5    2.51    0.49
 -10   6   5    3.00    0.32
   9  -6  -5    2.11    0.39
  -9   6   5    1.98    0.31
  -9   6   5    1.67    0.49
  -8   6   5   27.62    0.93
  -8   6   5   26.63    1.21
   7  -6  -5    7.18    0.59
  -7   6   5    6.54    0.75
  -7   6   5    6.93    0.49
   6  -6  -5    4.64    0.51
  -6   6   5    4.96    0.69
  -6   6   5    4.65    0.45
   5  -6  -5    9.68    0.56
  -5   6   5    8.38    0.71
  -5   6   5    8.80    0.51
   4  -6  -5    7.59    0.54
  -4   6   5    7.38    0.64
  -4   6   5    6.32    0.46
   3  -6  -5  189.42    8.00
  -3   6   5  245.93    7.93
  -3   6   5  240.04    7.53
   2  -6  -5    0.41    0.18
  -2   6   5    0.34    0.27
  -2   6   5    0.17    0.24
   1  -6  -5    0.01    0.14
  -1   6   5    0.00    0.23
  -1   6   5    0.05    0.25
   0  -6  -5   10.01    0.38
   0   6   5   12.07    0.49
   0   6   5   11.85    0.51
  -1  -6  -5    5.70    0.45
   1   6   5    5.63    0.54
  -2  -6  -5    1.71    0.29
   2   6   5    1.62    0.27
   2   6   5    1.12    0.34
  -3  -6  -5    4.25    0.40
   3   6   5    3.53    0.44
   3   6   5    4.06    0.31
  -4  -6  -5   26.38    1.11
   4   6   5   27.24    1.16
   4   6   5   22.23    0.93
  -5  -6  -5    2.69    0.42
   5   6   5    2.81    0.43
  -6  -6  -5    0.08    0.33
   6   6   5    0.08    0.36
  -7  -6  -5    0.23    0.38
   7   6   5    0.01    0.36
  -8  -6  -5    3.77    0.56
   8   6   5    3.30    0.55
  -9  -6  -5    0.25    0.43
   9   6   5    0.46    0.44
 -10  -6  -5    0.05    0.45
  10   6   5    0.60    0.48
 -11  -6  -5    0.06    0.50
  11   6   5    0.53    0.44
 -12  -6  -5    0.00    0.47
  12   6   5    0.63    0.54
  16  -7  -5    0.55    0.45
 -16   7   5    0.03    0.52
  15  -7  -5    0.28    0.40
 -15   7   5    0.37    0.53
  14  -7  -5    0.44    0.39
 -14   7   5    0.44    0.54
 -14   7   5    0.75    0.33
  13  -7  -5    6.38    0.57
 -13   7   5    5.51    0.68
 -13   7   5    6.83    0.49
  12  -7  -5    0.16    0.29
 -12   7   5    0.24    0.41
 -12   7   5    0.61    0.28
  11  -7  -5    6.09    0.61
 -11   7   5    6.09    0.54
 -11   7   5    6.00    0.77
 -10   7   5   23.12    1.33
 -10   7   5   22.63    0.96
   9  -7  -5   11.69    0.66
  -9   7   5   11.60    0.88
  -9   7   5   11.83    0.58
   8  -7  -5    2.08    0.32
  -8   7   5    2.74    0.31
  -8   7   5    2.42    0.49
   7  -7  -5   18.59    0.82
  -7   7   5   19.49    1.04
  -7   7   5   19.16    0.77
   6  -7  -5    6.56    0.37
  -6   7   5    6.31    0.56
  -6   7   5    7.10    0.38
   5  -7  -5    0.08    0.15
  -5   7   5    0.02    0.29
  -5   7   5    0.16    0.20
   4  -7  -5    3.08    0.30
  -4   7   5    2.76    0.41
  -4   7   5    2.49    0.27
   3  -7  -5   19.68    0.78
  -3   7   5   26.08    0.92
  -3   7   5   25.46    0.78
   2  -7  -5    1.24    0.24
  -2   7   5    1.32    0.34
  -2   7   5    1.36    0.31
   1  -7  -5    4.88    0.28
  -1   7   5    4.59    0.34
  -1   7   5    4.16    0.34
   0   7   5   13.84    0.84
   0   7   5   14.51    0.82
  -1  -7  -5    0.47    0.22
   1   7   5    0.01    0.23
   1   7   5    0.23    0.22
  -2  -7  -5    2.78    0.42
   2   7   5    2.35    0.48
   2   7   5    3.07    0.39
  -3  -7  -5   14.66    0.88
   3   7   5   13.96    0.95
   3   7   5   14.17    0.77
  -4  -7  -5    0.19    0.32
   4   7   5    0.06    0.36
   4   7   5    0.00    0.19
  -5  -7  -5   18.88    1.06
   5   7   5   17.85    1.06
  -6  -7  -5    3.25    0.50
   6   7   5    2.09    0.47
  -7  -7  -5    5.59    0.65
   7   7   5    5.79    0.66
  -8  -7  -5    0.78    0.46
   8   7   5    1.43    0.47
  -9  -7  -5   15.77    1.08
   9   7   5   17.53    1.12
 -10  -7  -5    0.10    0.44
  10   7   5    0.10    0.42
 -11  -7  -5    0.06    0.42
  11   7   5    0.06    0.46
  16  -8  -5    0.27    0.42
 -16   8   5    0.04    0.52
  15  -8  -5    3.69    0.54
 -15   8   5    3.40    0.67
  14  -8  -5    0.04    0.31
 -14   8   5    0.04    0.28
 -14   8   5    0.56    0.46
  13  -8  -5    0.58    0.34
 -13   8   5    0.38    0.53
 -13   8   5    0.03    0.28
  12  -8  -5    0.12    0.17
 -12   8   5    0.45    0.26
 -12   8   5    0.03    0.41
  11  -8  -5    4.28    0.54
 -11   8   5    4.20    0.48
 -11   8   5    4.14    0.71
  10  -8  -5   15.45    0.73
 -10   8   5   15.03    0.98
 -10   8   5   15.04    0.66
   9  -8  -5    4.56    0.42
  -9   8   5    4.25    0.39
  -9   8   5    3.16    0.57
   8  -8  -5    9.95    0.56
  -8   8   5   10.59    0.84
  -8   8   5   11.37    0.56
   7  -8  -5    7.07    0.42
  -7   8   5    6.91    0.64
  -7   8   5    7.11    0.45
   6  -8  -5   28.75    1.11
  -6   8   5   29.85    1.12
  -6   8   5   27.27    1.35
   5  -8  -5    1.38    0.21
  -5   8   5    0.99    0.26
  -5   8   5    1.53    0.39
   4  -8  -5   12.77    0.72
  -4   8   5   12.02    0.73
  -4   8   5   12.29    0.88
   3  -8  -5   16.26    0.95
  -3   8   5   21.25    0.98
  -3   8   5   21.53    1.14
   2  -8  -5   14.68    0.75
  -2   8   5   16.46    0.95
  -2   8   5   15.90    0.84
   1  -8  -5   43.81    1.91
  -1   8   5   42.71    1.94
  -1   8   5   42.72    2.00
   0  -8  -5    2.82    0.32
   0   8   5    2.74    0.42
   0   8   5    2.43    0.37
  -1  -8  -5    0.03    0.08
   1   8   5    0.03    0.24
   1   8   5    0.00    0.31
  -2  -8  -5    1.09    0.26
   2   8   5    0.34    0.37
   2   8   5    0.34    0.23
  -3  -8  -5    1.91    0.36
   3   8   5    2.26    0.45
   3   8   5    2.48    0.32
  -4  -8  -5   18.05    0.97
   4   8   5   18.21    0.82
   4   8   5   17.45    1.02
  -5  -8  -5   10.18    0.80
   5   8   5    8.46    0.83
  -6  -8  -5    1.94    0.47
   6   8   5    2.00    0.50
  -7  -8  -5   25.19    1.29
   7   8   5   24.31    1.29
  -8  -8  -5    5.18    0.68
   8   8   5    6.13    0.73
  -9  -8  -5   17.40    1.16
   9   8   5   18.39    1.21
 -10  -8  -5    0.45    0.45
  10   8   5    0.86    0.52
  16  -9  -5    0.72    0.41
 -16   9   5    0.85    0.61
  15  -9  -5    0.72    0.29
 -15   9   5    1.32    0.60
  14  -9  -5    3.56    0.55
 -14   9   5    3.47    0.49
 -14   9   5    4.27    0.81
  13  -9  -5    1.07    0.37
 -13   9   5    0.01    0.46
 -13   9   5    0.54    0.30
  12  -9  -5    2.80    0.46
 -12   9   5    2.45    0.62
 -12   9   5    3.03    0.42
  11  -9  -5    0.76    0.27
 -11   9   5    0.07    0.24
 -11   9   5    0.38    0.43
  10  -9  -5    5.01    0.45
 -10   9   5    4.80    0.67
 -10   9   5    4.83    0.44
   9  -9  -5   12.02    0.63
  -9   9   5    9.79    0.87
  -9   9   5   11.89    0.63
   8  -9  -5    1.42    0.26
  -8   9   5    1.29    0.53
  -8   9   5    1.11    0.31
   7  -9  -5   14.26    0.64
  -7   9   5   13.68    0.70
  -7   9   5   14.44    0.98
   6  -9  -5   44.82    1.58
  -6   9   5   45.03    1.62
  -6   9   5   42.82    1.89
   5  -9  -5   17.11    0.74
  -5   9   5   15.70    1.01
  -5   9   5   17.23    0.83
   4  -9  -5    1.07    0.25
  -4   9   5    1.11    0.43
  -4   9   5    0.66    0.31
   3  -9  -5    0.22    0.23
  -3   9   5    0.32    0.34
  -3   9   5    0.52    0.34
   2  -9  -5    9.65    0.60
  -2   9   5   11.05    0.84
  -2   9   5   10.78    0.73
   1  -9  -5    2.00    0.26
  -1   9   5    2.22    0.39
  -1   9   5    3.10    0.41
   0  -9  -5   27.48    1.14
   0   9   5   27.70    1.24
   0   9   5   28.10    1.20
  -1  -9  -5   20.57    1.11
   1   9   5   22.36    1.26
   1   9   5   21.96    1.16
  -2  -9  -5    0.14    0.27
   2   9   5    0.46    0.26
   2   9   5    0.81    0.37
  -3  -9  -5   19.97    0.99
   3   9   5   22.14    1.14
   3   9   5   20.45    0.90
  -4  -9  -5    2.62    0.44
   4   9   5    2.62    0.52
   4   9   5    2.74    0.31
  -5  -9  -5   22.22    1.13
   5   9   5   22.32    1.19
  -6  -9  -5    0.01    0.38
   6   9   5    0.09    0.47
  -7  -9  -5   10.48    0.94
   7   9   5    9.87    1.02
  -8  -9  -5    0.52    0.49
   8   9   5    0.69    0.50
  -9  -9  -5    2.11    0.54
   9   9   5    2.87    0.63
 -15  10   5    0.14    0.51
 -14  10   5    5.83    0.79
 -14  10   5    4.30    0.44
  13 -10  -5   17.84    0.95
 -13  10   5   15.52    0.84
 -13  10   5   15.36    1.17
  12 -10  -5    9.25    0.64
 -12  10   5    9.05    0.59
 -12  10   5    7.97    0.86
  11 -10  -5    0.04    0.25
 -11  10   5    0.04    0.25
 -11  10   5    0.17    0.50
  10 -10  -5    1.66    0.27
 -10  10   5    2.04    0.33
 -10  10   5    1.48    0.54
   9 -10  -5   16.57    0.77
  -9  10   5   17.09    1.13
  -9  10   5   15.81    0.82
   8 -10  -5   13.71    0.63
  -8  10   5   13.81    0.73
  -8  10   5   12.94    1.09
   7 -10  -5    1.16    0.21
  -7  10   5    0.73    0.47
  -7  10   5    1.09    0.36
   6 -10  -5    4.08    0.23
  -6  10   5    3.95    0.41
  -6  10   5    3.54    0.51
   5 -10  -5    0.43    0.15
  -5  10   5    0.55    0.35
  -5  10   5    0.04    0.36
  -4  10   5    2.75    0.43
  -4  10   5    2.99    0.50
  -3  10   5   47.15    2.07
  -3  10   5   44.69    1.91
   2 -10  -5   16.88    0.73
  -2  10   5   18.29    0.98
  -2  10   5   18.46    0.93
   1 -10  -5   18.52    0.82
  -1  10   5   20.36    1.01
  -1  10   5   19.77    0.99
   0 -10  -5    2.73    0.29
   0  10   5    0.86    0.22
   0  10   5    2.79    0.46
  -1 -10  -5   15.35    0.74
   1  10   5   15.62    0.86
   1  10   5   15.10    0.81
  -2 -10  -5    0.15    0.08
   2  10   5    0.93    0.44
   2  10   5    0.85    0.28
  -3 -10  -5   15.91    0.90
   3  10   5   14.98    0.83
   3  10   5   14.51    1.00
  -4 -10  -5    0.94    0.36
   4  10   5    0.48    0.42
  -5 -10  -5    1.44    0.40
   5  10   5    0.63    0.44
  -6 -10  -5    2.38    0.49
   6  10   5    1.70    0.53
  -7 -10  -5    0.21    0.42
   7  10   5    0.45    0.47
  -8 -10  -5    0.00    0.41
   8  10   5    0.26    0.45
 -15  11   5    0.02    0.58
 -14  11   5    1.02    0.59
 -14  11   5    1.02    0.36
 -13  11   5   12.56    1.10
 -13  11   5   14.67    0.79
 -12  11   5    0.02    0.32
 -12  11   5    0.20    0.50
 -11  11   5    1.06    0.51
 -11  11   5    0.95    0.32
 -10  11   5    2.63    0.42
 -10  11   5    2.76    0.60
  -9  11   5    1.59    0.51
  -9  11   5    2.06    0.37
  -8  11   5    4.58    0.46
  -8  11   5    4.53    0.62
  -7  11   5   10.82    0.72
  -7  11   5    9.96    0.96
  -6  11   5    0.00    0.31
  -6  11   5    0.17    0.49
  -5  11   5   15.38    0.89
  -5  11   5   14.49    1.02
  -4  11   5    0.37    0.37
  -4  11   5    0.09    0.42
  -3  11   5   18.55    0.93
  -3  11   5   20.08    1.11
   2 -11  -5    0.53    0.24
  -2  11   5    0.73    0.46
  -2  11   5    0.54    0.40
   1 -11  -5   23.33    1.01
  -1  11   5   21.07    1.17
  -1  11   5   23.88    1.21
   0 -11  -5    0.03    0.25
   0  11   5    0.02    0.09
   0  11   5    0.46    0.45
  -1 -11  -5    0.42    0.28
   1  11   5    0.72    0.33
   1  11   5    0.56    0.42
  -2 -11  -5    0.41    0.29
   2  11   5    0.00    0.39
   2  11   5    0.00    0.26
  -3 -11  -5    2.73    0.39
   3  11   5    4.24    0.60
  -4 -11  -5    0.01    0.31
   4  11   5    0.01    0.37
  -5 -11  -5    0.02    0.37
   5  11   5    0.02    0.43
  -6 -11  -5    4.38    0.60
   6  11   5    4.93    0.73
  -7 -11  -5    0.03    0.39
   7  11   5    0.43    0.56
 -14  12   5    0.02    0.54
 -14  12   5    0.02    0.37
 -13  12   5    0.20    0.52
 -13  12   5    0.45    0.36
 -12  12   5    0.02    0.31
 -12  12   5    0.02    0.55
 -11  12   5    3.99    0.72
 -11  12   5    3.34    0.46
 -10  12   5    3.36    0.65
 -10  12   5    3.48    0.46
  -9  12   5   15.87    0.85
  -9  12   5   17.73    1.15
  -8  12   5    0.00    0.33
  -8  12   5    0.13    0.43
  -7  12   5    7.19    0.75
  -7  12   5    7.18    0.55
  -6  12   5    6.26    0.78
  -6  12   5    5.51    0.63
  -5  12   5    0.07    0.44
  -5  12   5    0.02    0.39
  -4  12   5    7.45    0.65
  -4  12   5    6.69    0.59
  -3  12   5    8.57    0.78
  -3  12   5    6.50    0.67
  -2  12   5   13.36    0.92
  -2  12   5   11.67    0.83
   1 -12  -5   10.79    0.62
  -1  12   5   12.91    0.93
  -1  12   5   12.76    0.93
   0 -12  -5    1.56    0.31
   0  12   5    1.68    0.48
   0  12   5    0.70    0.27
  -1 -12  -5    0.23    0.28
   1  12   5    0.00    0.33
   1  12   5    0.43    0.49
  -2 -12  -5    1.97    0.40
   2  12   5    1.64    0.41
   2  12   5    1.61    0.53
  -3 -12  -5    3.91    0.47
   3  12   5    5.26    0.69
  -4 -12  -5    1.76    0.43
   4  12   5    2.19    0.60
  -5 -12  -5    0.06    0.35
   5  12   5    0.06    0.42
  -6 -12  -5    1.53    0.49
   6  12   5    1.83    0.61
 -13  13   5    4.24    0.78
 -13  13   5    4.34    0.54
 -12  13   5    0.01    0.34
 -12  13   5    0.57    0.53
 -11  13   5    2.15    0.41
 -11  13   5    1.71    0.58
 -10  13   5    0.27    0.54
 -10  13   5    0.33    0.35
  -9  13   5   11.55    1.08
  -9  13   5   11.30    0.81
  -8  13   5    0.00    0.47
  -8  13   5    0.18    0.33
  -7  13   5    1.91    0.56
  -7  13   5    1.54    0.44
  -6  13   5    4.04    0.65
  -6  13   5    3.61    0.51
  -5  13   5    7.78    0.77
  -5  13   5   10.06    0.93
  -4  13   5    0.30    0.39
  -4  13   5    0.01    0.38
  -3  13   5    3.00    0.54
  -3  13   5    3.70    0.59
  -2  13   5    3.02    0.52
  -2  13   5    2.89    0.61
  -1  13   5   18.36    1.12
  -1  13   5   17.57    1.13
   0  13   5    4.24    0.66
   0  13   5    3.92    0.54
   1  13   5    0.02    0.33
   1  13   5    0.02    0.42
  -2 -13  -5    0.53    0.32
   2  13   5    0.98    0.51
  -3 -13  -5    2.16    0.42
   3  13   5    1.21    0.54
   4  13   5    3.15    0.70
  -5 -13  -5    2.07    0.49
   5  13   5    2.38    0.65
 -12  14   5    1.84    0.45
 -12  14   5    1.39    0.68
 -11  14   5    0.01    0.56
 -11  14   5    0.00    0.34
 -10  14   5    4.74    0.59
 -10  14   5    4.45    0.76
  -9  14   5    2.26    0.60
  -9  14   5    3.11    0.48
  -8  14   5    0.94    0.44
  -8  14   5    1.28    0.53
  -7  14   5   18.07    1.24
  -7  14   5   20.88    1.12
  -6  14   5    4.57    0.69
  -6  14   5    4.18    0.62
  -5  14   5   11.09    0.85
  -5  14   5    9.46    0.88
  -4  14   5    1.06    0.48
  -4  14   5    0.45    0.50
  -3  14   5    0.03    0.43
  -3  14   5    0.45    0.46
  -2  14   5    5.50    0.66
  -2  14   5    5.64    0.71
  -1  14   5    1.04    0.52
  -1  14   5    0.48    0.40
   0  14   5    0.00    0.37
   0  14   5    0.00    0.47
   1  14   5    5.04    0.75
   2  14   5    1.45    0.58
   3  14   5   15.87    1.15
 -11  15   5    2.86    0.67
 -11  15   5    3.04    0.52
 -10  15   5    0.19    0.53
 -10  15   5    0.02    0.41
  -9  15   5    1.36    0.59
  -9  15   5    0.22    0.43
  -8  15   5    0.46    0.53
  -8  15   5    0.57    0.45
  -7  15   5    9.24    0.97
  -7  15   5    9.16    0.85
  -6  15   5    3.22    0.62
  -6  15   5    2.55    0.56
  -5  15   5    1.18    0.51
  -5  15   5    0.11    0.48
  -4  15   5    0.00    0.46
  -4  15   5    0.17    0.45
  -3  15   5   11.84    1.06
  -3  15   5    9.93    0.94
  -2  15   5    2.66    0.64
  -2  15   5    3.03    0.60
  -1  15   5   14.53    1.04
  -1  15   5    9.46    0.82
   0  15   5    0.00    0.54
   1  15   5    6.45    0.85
  -9  16   5    5.95    0.76
  -9  16   5    6.02    0.89
  -8  16   5    1.51    0.59
  -8  16   5    2.33    0.58
  -7  16   5    1.11    0.55
  -7  16   5    1.75    0.54
  -6  16   5    2.63    0.60
  -6  16   5    2.65    0.67
  -5  16   5    8.84    0.89
  -5  16   5    7.56    0.87
  -4  16   5    1.41    0.55
  -4  16   5    1.28    0.62
  -3  16   5    6.29    0.78
  -3  16   5    6.55    0.85
  -2  16   5    0.19    0.48
  -2  16   5    0.01    0.56
   0  17  -6    3.49    0.74
  -1  17  -6    2.26    0.67
  -2  17  -6    1.39    0.49
  -3  17  -6    0.12    0.44
  -4  17  -6    0.38    0.42
  -5  17  -6    1.44    0.48
  -6  17  -6    0.15    0.44
  -7  17  -6    0.05    0.37
  -8  17  -6    0.15    0.41
   2  16  -6    0.47    0.58
   1  16  -6    1.44    0.57
   0  16  -6    0.12    0.48
  -1  16  -6    0.04    0.40
  -2  16  -6    0.01    0.48
  -3  16  -6    3.13    0.61
  -4  16  -6    2.47    0.52
  -5  16  -6    1.77    0.52
  -6  16  -6    0.01    0.37
  -7  16  -6    0.00    0.39
  -8  16  -6    0.37    0.43
  -9  16  -6    4.63    0.63
 -10  16  -6    0.03    0.45
   4  15  -6    0.03    0.52
   4  15  -6    0.17    0.40
   3  15  -6    0.79    0.59
   3  15  -6    0.88    0.45
   2  15  -6    0.01    0.52
   1  15  -6    0.00    0.52
   0  15  -6    0.01    0.48
  -1  15  -6    2.78    0.58
  -2  15  -6    8.01    0.77
  -3  15  -6    4.41    0.58
  -4  15  -6    2.07    0.47
  -5  15  -6    2.74    0.48
  -6  15  -6    1.27    0.43
  -7  15  -6    1.41    0.43
  -8  15  -6    5.38    0.65
  -9  15  -6    2.24    0.53
 -10  15  -6    0.66    0.49
 -11  15  -6    0.86    0.51
   6  14  -6    1.11    0.71
   6  14  -6    0.17    0.47
   5  14  -6    0.00    0.41
   5  14  -6    0.00    0.51
   4  14  -6    0.44    0.58
   4  14  -6    0.84    0.45
   3  14  -6    0.00    0.36
   3  14  -6    0.00    0.57
   2  14  -6    3.27    0.45
   2  14  -6    2.71    0.57
   1  14  -6    0.90    0.47
   1  14  -6    0.42    0.33
   0  14  -6    0.01    0.27
   0  14  -6    0.01    0.45
  -1  14  -6    0.03    0.24
  -1  14  -6    0.14    0.38
  -2  14  -6    0.74    0.39
  -3  14  -6    0.02    0.37
  -4  14  -6    2.57    0.47
  -5  14  -6    8.85    0.75
  -6  14  -6   12.66    0.85
  -7  14  -6    2.12    0.53
  -8  14  -6    4.48    0.64
  -9  14  -6    9.04    0.90
 -10  14  -6    0.22    0.44
 -11  14  -6   12.94    1.11
 -12  14  -6    0.26    0.51
   7  13  -6    0.26    0.48
   7  13  -6    0.06    0.60
   6  13  -6    0.34    0.46
   6  13  -6    0.03    0.51
   5  13  -6    2.13    0.55
   5  13  -6    2.17    0.75
   4  13  -6    0.65    0.58
   4  13  -6    1.42    0.45
   3  13  -6    0.68    0.39
   3  13  -6    0.24    0.49
   2  13  -6    3.50    0.51
   2  13  -6    3.13    0.62
   1  13  -6    6.76    0.62
   1  13  -6    7.55    0.75
   0  13  -6   25.50    1.28
   0  13  -6   26.80    1.18
  -1  13  -6    0.30    0.42
  -1  13  -6    0.24    0.27
  -2  13  -6   16.94    1.03
  -2  13  -6   17.66    0.91
  -3  13  -6    7.87    0.53
  -3  13  -6    7.11    0.66
  -4  13  -6    3.53    0.51
  -4  13  -6    3.47    0.34
  -5  13  -6   14.55    0.66
  -5  13  -6   13.79    0.85
  -6  13  -6    1.54    0.28
  -6  13  -6    1.10    0.43
  -7  13  -6    0.92    0.42
  -8  13  -6    5.58    0.68
  -9  13  -6    0.08    0.37
 -10  13  -6    4.41    0.62
 -11  13  -6    0.12    0.46
 -12  13  -6   11.29    1.05
 -13  13  -6    3.30    0.68
   8  12  -6    0.09    0.50
   8  12  -6    0.01    0.47
   7  12  -6    0.62    0.48
   7  12  -6    0.92    0.65
   6  12  -6    3.78    0.62
   6  12  -6    4.40    0.77
   5  12  -6    0.02    0.40
   5  12  -6    0.01    0.52
   4  12  -6    7.08    0.83
   4  12  -6    5.81    0.64
   3  12  -6    0.94    0.47
   3  12  -6    0.91    0.37
   2  12  -6    9.40    0.76
   2  12  -6    9.41    0.84
   1  12  -6   12.04    0.84
   1  12  -6   11.48    0.76
   0  12  -6    3.35    0.50
   0  12  -6    3.49    0.42
  -1  12  -6    6.85    0.56
  -1  12  -6    6.38    0.65
  -2  12  -6    3.48    0.42
  -2  12  -6    3.67    0.54
  -3  12  -6    3.27    0.44
  -3  12  -6    3.81    0.34
  -4  12  -6    7.00    0.46
  -4  12  -6    6.67    0.59
  -5  12  -6    0.20    0.36
  -5  12  -6    0.44    0.23
  -6  12  -6    2.55    0.29
  -6  12  -6    2.11    0.44
  -7  12  -6    0.75    0.24
  -7  12  -6    0.58    0.36
  -8  12  -6    1.34    0.46
  -8  12  -6    0.61    0.23
  -9  12  -6   23.54    0.98
  -9  12  -6   24.39    1.24
 -10  12  -6    3.59    0.58
 -10  12  -6    4.12    0.39
 -11  12  -6   11.32    0.91
 -11  12  -6   11.64    0.66
 -12  12  -6    1.63    0.38
 -12  12  -6    2.46    0.62
 -13  12  -6    2.78    0.58
 -14  12  -6    1.09    0.56
   9  11  -6    0.00    0.42
   9  11  -6    0.72    0.57
   8  11  -6    0.04    0.45
   8  11  -6    1.09    0.54
   7  11  -6    3.33    0.71
   7  11  -6    3.77    0.64
   6  11  -6   16.38    1.15
   6  11  -6   13.66    1.04
   5  11  -6    3.78    0.70
   5  11  -6    4.02    0.58
   4  11  -6    0.00    0.41
   4  11  -6    0.41    0.37
   3  11  -6    0.56    0.36
   3  11  -6    0.54    0.45
   2  11  -6    0.05    0.31
   2  11  -6    0.00    0.44
   1  11  -6    5.49    0.58
   1  11  -6    5.24    0.51
   0  11  -6    0.08    0.28
   0  11  -6    0.10    0.33
  -1  11  -6    2.86    0.36
  -1  11  -6    2.74    0.44
  -2  11  -6    1.09    0.28
  -2  11  -6    1.35    0.37
  -3  11  -6    4.41    0.56
  -3  11  -6    4.60    0.45
  -4  11  -6    6.99    0.68
  -4  11  -6    7.16    0.55
  -5  11  -6   15.27    0.82
  -5  11  -6   15.03    0.97
  -6  11  -6    0.04    0.24
  -6  11  -6    0.12    0.38
  -7  11  -6    2.04    0.52
  -7  11  -6    2.40    0.34
  -8  11  -6    1.96    0.42
  -8  11  -6    1.60    0.24
  -9  11  -6    8.92    0.79
  -9  11  -6   11.63    0.61
 -10  11  -6    2.97    0.55
 -10  11  -6    3.21    0.39
 -11  11  -6    5.94    0.58
 -11  11  -6    5.33    0.75
 -12  11  -6    0.35    0.45
 -12  11  -6    0.25    0.35
 -13  11  -6    0.01    0.44
 -13  11  -6    0.53    0.36
 -14  11  -6    0.86    0.43
 -14  11  -6    1.45    0.61
  10  10  -6    3.08    0.73
  10  10  -6    0.73    0.49
   9  10  -6    0.58    0.43
   9  10  -6    1.10    0.59
   8  10  -6    0.39    0.43
   8  10  -6    0.16    0.44
   7  10  -6    1.43    0.53
   7  10  -6    0.47    0.49
   6  10  -6    3.24    0.60
   6  10  -6    2.52    0.54
   5  10  -6    0.79    0.36
   5  10  -6    1.08    0.44
   4  10  -6    1.37    0.57
   4  10  -6    2.20    0.51
   3  10  -6   17.53    1.01
   3  10  -6   14.92    1.00
   2  10  -6    0.84    0.39
   2  10  -6    0.74    0.34
   1  10  -6    3.55    0.47
   1  10  -6    4.80    0.56
   0  10  -6    7.12    0.64
   0  10  -6    5.74    0.56
  -1  10  -6    1.03    0.30
  -1  10  -6    0.48    0.33
  -2  10  -6    0.13    0.30
  -2  10  -6    0.02    0.23
  -3  10  -6   28.15    1.23
  -3  10  -6   28.78    1.16
  -4  10  -6    0.24    0.24
  -4  10  -6    0.42    0.34
  -5  10  -6    0.14    0.33
  -5  10  -6    0.29    0.22
  -6  10  -6   13.63    0.81
  -6  10  -6   13.47    0.62
  -7  10  -6    0.52    0.22
  -7  10  -6    0.35    0.35
  -8  10  -6    0.04    0.36
  -8  10  -6    0.01    0.22
  -9  10  -6    0.23    0.39
  -9  10  -6    0.02    0.28
 -10  10  -6    1.03    0.33
 -10  10  -6    1.94    0.45
 -11  10  -6   11.82    0.84
 -11  10  -6   12.47    0.74
 -12  10  -6    0.01    0.39
 -12  10  -6    0.01    0.32
 -13  10  -6    4.13    0.70
 -13  10  -6    4.86    0.64
 -14  10  -6    1.04    0.46
 -14  10  -6    1.86    0.57
 -15  10  -6    0.24    0.48
  11   9  -6    0.94    0.64
  11   9  -6    0.26    0.40
  10   9  -6    0.20    0.36
  10   9  -6    1.45    0.55
   9   9  -6    0.10    0.42
   9   9  -6    0.84    0.51
   8   9  -6    0.47    0.45
   8   9  -6    0.00    0.34
   7   9  -6    0.01    0.36
   7   9  -6    0.31    0.40
   6   9  -6    0.06    0.42
   6   9  -6    0.06    0.43
   5   9  -6    2.55    0.53
   5   9  -6    1.44    0.44
   4   9  -6    5.79    0.59
   4   9  -6    5.77    0.60
   3   9  -6   11.08    0.82
   3   9  -6   11.81    0.80
   2   9  -6    0.03    0.36
   2   9  -6    0.12    0.32
   1   9  -6    2.35    0.39
   1   9  -6    2.23    0.34
   0   9  -6    0.13    0.26
   0   9  -6    0.43    0.30
  -1   9  -6    1.88    0.36
  -1   9  -6    2.44    0.44
  -2   9  -6   10.19    0.67
  -2   9  -6   10.58    0.72
  -3   9  -6    4.36    0.48
  -3   9  -6    4.30    0.39
  -4   9  -6    1.30    0.32
  -4   9  -6    1.06    0.23
  -5   9  -6    0.02    0.28
  -5   9  -6    0.17    0.18
  -6   9  -6   71.03    2.55
  -6   9  -6   73.76    2.61
  -7   9  -6   11.01    0.58
  -7   9  -6   11.12    0.72
  -8   9  -6    1.28    0.46
  -8   9  -6    1.83    0.38
  -9   9  -6    0.97    0.30
  -9   9  -6    1.11    0.41
 -10   9  -6    0.06    0.34
 -10   9  -6    0.01    0.30
 -11   9  -6   15.34    0.97
 -11   9  -6   13.96    0.88
 -12   9  -6    1.97    0.46
 -12   9  -6    1.65    0.40
 -13   9  -6    4.63    0.57
 -14   9  -6    0.04    0.45
 -15   9  -6    8.58    0.81
  12   8  -6    0.17    0.64
  12   8  -6    0.34    0.40
  11   8  -6    0.56    0.42
  11   8  -6    0.01    0.56
  10   8  -6    1.93    0.62
  10   8  -6    1.95    0.52
   9   8  -6    0.46    0.39
   9   8  -6    0.84    0.49
   8   8  -6    0.43    0.37
   8   8  -6    0.72    0.44
   7   8  -6    0.06    0.33
   7   8  -6    0.28    0.44
   6   8  -6    0.46    0.48
   6   8  -6    0.43    0.48
   5   8  -6    0.25    0.41
   5   8  -6    0.13    0.38
   4   8  -6    3.62    0.51
   4   8  -6    3.70    0.50
   3   8  -6   20.56    1.04
   3   8  -6   19.47    1.03
   2   8  -6    5.57    0.66
   2   8  -6    5.06    0.61
   1   8  -6   19.73    0.83
   1   8  -6   20.60    0.86
   0   8  -6   17.10    1.02
   0   8  -6   17.72    1.00
  -1   8  -6    0.09    0.21
  -1   8  -6    0.42    0.27
  -2   8  -6   21.39    0.91
  -2   8  -6   20.82    0.94
  -3   8  -6   26.53    1.08
  -3   8  -6   25.04    1.01
  -4   8  -6    0.59    0.17
  -4   8  -6    0.03    0.25
  -5   8  -6   26.40    1.26
  -5   8  -6   26.06    1.16
  -6   8  -6    8.17    0.41
  -6   8  -6    6.53    0.49
  -7   8  -6   20.47    0.89
  -7   8  -6   19.78    0.78
  -8   8  -6    0.15    0.26
  -8   8  -6    0.15    0.32
  -9   8  -6   10.53    0.66
 -10   8  -6   17.23    1.00
 -11   8  -6    0.00    0.33
 -12   8  -6    4.48    0.68
 -13   8  -6    8.74    0.82
 -14   8  -6    0.05    0.48
 -15   8  -6   22.73    1.41
  13   7  -6    1.55    0.54
  13   7  -6    0.85    0.62
  12   7  -6    0.98    0.61
  12   7  -6    1.92    0.51
  11   7  -6    3.39    0.54
  11   7  -6    3.14    0.66
  10   7  -6    0.63    0.37
  10   7  -6    0.05    0.44
   9   7  -6    0.22    0.44
   9   7  -6    0.90    0.40
   8   7  -6    0.70    0.35
   8   7  -6    0.15    0.45
   7   7  -6    0.00    0.43
   7   7  -6    0.19    0.36
   6   7  -6   31.88    1.55
   6   7  -6   31.69    1.47
   5   7  -6    0.30    0.30
   5   7  -6    0.62    0.33
   4   7  -6   18.77    0.97
   4   7  -6   18.05    1.03
   3   7  -6    1.81    0.31
   3   7  -6    2.28    0.31
   2   7  -6    5.51    0.37
   2   7  -6    5.36    0.37
   1   7  -6  202.02    6.24
   1   7  -6  200.56    6.64
   0   7  -6   34.90    1.18
   0   7  -6   35.54    1.14
  -1   7  -6   46.01    1.81
  -1   7  -6   47.08    1.76
  -2   7  -6   26.02    0.98
  -2   7  -6   25.68    0.99
  -3   7  -6    0.11    0.21
  -3   7  -6    0.28    0.20
  -4   7  -6   30.98    1.40
  -4   7  -6   30.91    1.36
  -5   7  -6    0.00    0.23
  -5   7  -6    0.23    0.19
  -6   7  -6   39.51    1.36
  -6   7  -6   40.39    1.33
  -7   7  -6   17.34    0.86
  -8   7  -6    4.67    0.41
  -9   7  -6   53.55    2.23
 -10   7  -6    2.91    0.41
 -11   7  -6   47.06    1.99
 -12   7  -6    0.49    0.37
 -13   7  -6    0.02    0.39
 -14   7  -6    0.47    0.55
 -15   7  -6    4.32    0.74
  13   6  -6    0.90    0.59
  13   6  -6    0.28    0.26
  12   6  -6    0.33    0.14
  12   6  -6    0.13    0.49
  11   6  -6    1.65    0.58
  10   6  -6   12.45    0.98
   9   6  -6    1.60    0.30
   9   6  -6    1.15    0.44
   8   6  -6    1.04    0.48
   8   6  -6    1.65    0.39
   7   6  -6   20.00    1.26
   7   6  -6   16.86    1.06
   6   6  -6   21.55    1.05
   6   6  -6   22.40    1.16
   5   6  -6    8.81    0.57
   5   6  -6    8.87    0.52
   4   6  -6    5.45    0.47
   4   6  -6    5.85    0.40
   3   6  -6   30.92    1.22
   3   6  -6   34.21    1.14
   2   6  -6    0.17    0.20
   2   6  -6    0.36    0.27
   1   6  -6    3.86    0.59
   1   6  -6    4.35    0.56
   0   6  -6    4.71    0.58
   0   6  -6    4.69    0.54
  -1   6  -6    1.57    0.26
  -1   6  -6    2.36    0.28
  -2   6  -6    0.04    0.25
  -2   6  -6    0.08    0.29
  -3   6  -6  143.10    4.69
  -3   6  -6  144.85    4.90
  -4   6  -6    5.16    0.41
  -4   6  -6    5.77    0.47
  -5   6  -6   62.45    2.13
  -6   6  -6   96.16    3.10
  -7   6  -6   32.84    1.46
  -8   6  -6   28.16    1.25
  -9   6  -6    0.22    0.32
 -10   6  -6    0.01    0.34
 -11   6  -6    7.84    0.73
 -12   6  -6    4.56    0.54
 -13   6  -6    0.37    0.49
 -14   6  -6    0.47    0.56
 -15   6  -6    0.00    0.53
  14   5  -6    0.15    0.56
  13   5  -6    1.28    0.37
  13   5  -6    0.87    0.58
  12   5  -6    8.21    0.94
  12   5  -6   11.02    0.79
  11   5  -6    6.28    0.56
  11   5  -6    4.62    0.68
  10   5  -6    4.88    0.70
  10   5  -6    5.37    0.56
   9   5  -6    0.04    0.42
   9   5  -6    0.23    0.31
   8   5  -6    4.04    0.42
   8   5  -6    4.67    0.59
   7   5  -6   14.91    0.78
   6   5  -6    3.91    0.49
   5   5  -6    2.25    0.45
   4   5  -6    7.01    0.46
   4   5  -6    4.64    0.32
   3   5  -6   25.97    1.01
   3   5  -6   23.05    1.11
   2   5  -6   36.90    1.16
   2   5  -6   38.02    1.31
   1   5  -6  130.06    4.27
   1   5  -6  127.18    3.97
   0   5  -6    3.51    0.32
   0   5  -6    3.80    0.30
  -1   5  -6   42.86    1.82
  -1   5  -6   42.09    1.72
  -2   5  -6   24.67    1.02
  -2   5  -6   24.02    1.03
  -3   5  -6  184.37    6.38
  -4   5  -6    5.42    0.37
  -5   5  -6    0.58    0.22
  -6   5  -6   43.68    1.63
  -7   5  -6    9.55    0.64
  -8   5  -6    0.93    0.31
  -9   5  -6    1.27    0.43
 -10   5  -6    0.46    0.42
 -11   5  -6    6.87    0.73
 -12   5  -6   13.88    1.01
 -13   5  -6    0.44    0.50
 -14   5  -6    0.13    0.46
 -15   5  -6    1.88    0.59
  14   4  -6    0.39    0.60
  13   4  -6    0.79    0.55
  13   4  -6    1.21    0.39
  12   4  -6    1.46    0.57
  12   4  -6    1.90    0.40
  11   4  -6    3.67    0.68
  11   4  -6    5.36    0.57
  10   4  -6    1.69    0.50
  10   4  -6    2.08    0.36
   9   4  -6   10.59    0.85
   9   4  -6   11.40    0.68
   8   4  -6    0.02    0.26
   8   4  -6    0.16    0.39
   7   4  -6    0.03    0.35
   7   4  -6    0.22    0.25
   6   4  -6    1.03    0.26
   6   4  -6    0.54    0.33
   5   4  -6    6.96    0.42
   5   4  -6    9.40    0.61
   4   4  -6    0.06    0.17
   4   4  -6    0.14    0.25
   3   4  -6    8.97    0.58
   1   4  -6   68.87    3.71
   1   4  -6   67.34    3.43
   0   4  -6   57.82    2.01
   0   4  -6   59.52    2.17
  -1   4  -6    3.90    0.21
  -1   4  -6    3.93    0.21
  -2   4  -6    0.77    0.17
  -3   4  -6    7.13    0.36
  -4   4  -6   20.52    1.11
  -5   4  -6    4.86    0.52
  -6   4  -6    6.23    0.52
  -7   4  -6    4.34    0.46
  -8   4  -6   17.93    0.95
  -9   4  -6    6.97    0.73
 -10   4  -6   19.45    1.12
 -11   4  -6    3.18    0.62
 -12   4  -6    0.04    0.45
 -13   4  -6    1.69    0.52
 -14   4  -6    6.30    0.86
 -15   4  -6    9.12    1.01
  15   3  -6    0.09    0.54
  14   3  -6    0.42    0.54
  13   3  -6    0.06    0.50
  12   3  -6    1.17    0.35
  12   3  -6    1.01    0.56
 -12  -3   6    0.86    0.31
  11   3  -6    3.49    0.60
  11   3  -6    3.67    0.42
 -11  -3   6    3.16    0.38
  10   3  -6    9.53    0.82
  10   3  -6   10.33    0.59
 -10  -3   6   10.13    0.59
   9   3  -6   12.66    0.71
   9   3  -6   12.96    0.96
  -9  -3   6   13.41    0.71
   8   3  -6    3.61    0.38
   8   3  -6    2.63    0.51
  -8  -3   6    3.47    0.38
   7   3  -6   29.92    1.42
   7   3  -6   30.78    1.16
  -7  -3   6   31.97    1.20
   6   3  -6   17.19    1.04
   6   3  -6   17.41    1.28
  -6  -3   6   16.97    1.09
   5   3  -6   16.65    0.94
   5   3  -6   16.11    1.16
  -5  -3   6   16.86    0.99
   4   3  -6    2.51    0.43
   4   3  -6    2.00    0.29
   3   3  -6    2.21    0.39
   3   3  -6    1.69    0.51
   2   3  -6    1.49    0.21
   2   3  -6    1.40    0.14
   1   3  -6   11.31    0.23
   0   3  -6   86.95    2.88
   0   3  -6   80.45    2.65
  -1   3  -6   23.38    0.83
  -2   3  -6    6.52    0.41
  -3   3  -6    0.66    0.14
  -4   3  -6   18.36    0.54
  -5   3  -6  111.98    4.07
  -6   3  -6    6.99    0.54
  -7   3  -6    3.48    0.49
  -8   3  -6    0.06    0.32
  -9   3  -6    4.29    0.59
 -10   3  -6   38.91    1.72
 -11   3  -6   14.74    0.97
 -12   3  -6    0.38    0.45
 -13   3  -6    0.12    0.52
 -14   3  -6    0.03    0.58
 -15   3  -6   12.20    1.12
  15   2  -6    0.13    0.51
  14   2  -6    0.52    0.49
  13   2  -6    0.00    0.46
 -13  -2   6    0.27    0.32
  12   2  -6    0.07    0.35
 -12  -2   6    0.48    0.30
  11   2  -6    5.12    0.70
 -11  -2   6    5.34    0.50
  10   2  -6    3.03    0.60
  10   2  -6    2.62    0.34
 -10  -2   6    2.88    0.39
   9   2  -6    0.38    0.37
   9   2  -6    1.12    0.23
  -9  -2   6    0.99    0.29
   8   2  -6    0.42    0.37
   8   2  -6    0.38    0.22
  -8  -2   6    0.23    0.28
   7   2  -6   14.09    0.95
   7   2  -6   14.50    0.71
  -7  -2   6   16.34    0.85
   6   2  -6    6.22    0.41
   6   2  -6    6.21    0.24
  -6  -2   6    5.08    0.30
   5   2  -6    1.70    0.25
   5   2  -6    1.43    0.39
  -5  -2   6    1.60    0.23
  -5  -2   6    1.23    0.30
   4   2  -6  111.36    3.74
   4   2  -6  115.63    3.35
  -4  -2   6  116.81    3.56
  -4  -2   6  119.31    3.34
   3   2  -6   31.29    1.55
   3   2  -6   34.96    1.32
  -3  -2   6   34.06    1.44
   2   2  -6    1.06    0.12
   2   2  -6    1.32    0.24
  -2  -2   6    1.20    0.18
   1   2  -6   37.13    1.28
   0   2  -6    5.85    0.17
  -1   2  -6   36.39    0.87
  -2   2  -6    9.71    0.41
  -3   2  -6    0.81    0.16
  -4   2  -6    2.28    0.22
  -5   2  -6    0.06    0.21
  -6   2  -6   54.77    1.73
  -7   2  -6   13.97    0.91
  -8   2  -6    4.83    0.47
  -9   2  -6   52.80    1.97
 -10   2  -6    5.23    0.68
 -11   2  -6   20.26    1.25
 -12   2  -6    0.00    0.42
 -13   2  -6    4.47    0.75
 -14   2  -6    0.72    0.56
 -15   2  -6    0.49    0.65
  15   1  -6    0.65    0.58
  14   1  -6    0.90    0.51
  13   1  -6    0.74    0.47
 -13  -1   6    0.73    0.35
  12   1  -6    9.95    0.89
 -12  -1   6   11.58    0.77
  11   1  -6    1.98    0.58
 -11  -1   6    1.86    0.41
  10   1  -6    0.02    0.36
 -10  -1   6    0.16    0.31
   9   1  -6    0.50    0.45
  -9  -1   6    0.44    0.35
   8   1  -6    8.95    0.66
  -8  -1   6    9.70    0.61
   7   1  -6  198.43    6.81
   7   1  -6  210.80    7.54
  -7  -1   6  200.97    7.20
   6   1  -6   66.31    3.39
   6   1  -6   64.52    2.95
  -6  -1   6   66.46    2.94
  -6  -1   6   70.24    3.22
   5   1  -6    2.93    0.33
   5   1  -6    3.03    0.15
  -5  -1   6    2.64    0.28
  -5  -1   6    2.98    0.15
   4   1  -6   94.77    3.35
   4   1  -6   99.16    2.95
  -4  -1   6  101.80    3.21
   3   1  -6   41.60    2.16
   3   1  -6   43.16    1.85
  -3  -1   6   43.99    2.04
   2   1  -6   21.12    0.95
   2   1  -6   18.13    0.70
  -2  -1   6   18.28    0.84
   1   1  -6    5.11    0.30
  -1  -1   6    5.67    0.29
   0   1  -6   46.04    2.66
  -1   1  -6    2.37    0.24
  -2   1  -6   26.51    1.25
  -3   1  -6  178.71    6.67
  -4   1  -6   30.98    1.16
  -5   1  -6   91.11    2.74
  -6   1  -6    0.05    0.32
  -7   1  -6   14.36    0.83
  -8   1  -6    0.13    0.38
  -9   1  -6   37.81    1.71
 -10   1  -6   13.96    0.95
 -11   1  -6    0.92    0.50
 -12   1  -6    5.40    0.74
 -13   1  -6    3.37    0.68
 -14   1  -6    1.99    0.67
  16   0  -6    2.57    0.64
  15   0  -6    0.00    0.49
  14   0  -6    0.57    0.51
 -14   0   6    0.01    0.36
  13   0  -6    4.99    0.75
 -13   0   6    6.32    0.61
  12   0  -6   27.06    1.41
 -12   0   6   29.76    1.27
  11   0  -6   22.72    1.32
 -11   0   6   25.61    1.22
  10   0  -6    4.05    0.60
 -10   0   6    4.58    0.52
   9   0  -6    0.03    0.35
  -9   0   6    0.01    0.31
   8   0  -6    1.52    0.32
  -8   0   6    1.80    0.32
   7   0  -6   15.97    0.81
  -7   0   6   15.04    0.72
  -7   0   6   14.83    0.48
   6   0  -6   10.79    0.69
  -6   0   6   10.61    0.66
   5   0  -6    5.36    0.46
  -5   0   6    5.58    0.44
   4   0  -6   14.53    0.80
  -4   0   6   16.38    0.75
   3   0  -6   87.61    2.91
   3   0  -6   85.40    3.31
   3   0  -6   88.07    2.90
  -3   0   6   88.73    3.18
   2   0  -6   18.06    1.00
   2   0  -6   17.62    0.78
  -2   0   6   17.16    0.92
   1   0  -6   19.30    1.09
  -1   0   6   18.31    1.07
   0   0  -6   99.88    2.58
   0   0   6   98.80    2.55
  -1   0  -6   44.18    1.17
  -2   0  -6    7.13    0.33
  -3   0  -6   25.45    1.00
  -4   0  -6    9.79    0.46
  -5   0  -6   94.43    4.13
  -6   0  -6    6.22    0.63
  -7   0  -6    0.68    0.33
  -8   0  -6    3.11    0.49
  -9   0  -6    3.78    0.63
 -10   0  -6   13.89    0.99
 -11   0  -6    0.50    0.43
 -12   0  -6   19.16    1.23
 -13   0  -6    0.48    0.50
 -14   0  -6    0.54    0.54
  16  -1  -6    4.00    0.67
  15  -1  -6    1.78    0.59
 -15   1   6    1.58    0.43
  14  -1  -6    0.27    0.47
 -14   1   6    0.00    0.36
  13  -1  -6    6.06    0.72
 -13   1   6    6.87    0.62
  12  -1  -6    2.59    0.51
 -12   1   6    2.58    0.43
  11  -1  -6    2.45    0.47
 -11   1   6    2.78    0.44
  10  -1  -6    1.22    0.42
 -10   1   6    1.08    0.39
   9  -1  -6    0.20    0.28
  -9   1   6    0.57    0.31
   8  -1  -6    8.01    0.63
  -8   1   6    8.50    0.36
  -8   1   6    7.85    0.61
   7  -1  -6   52.11    2.55
  -7   1   6   52.78    2.11
  -7   1   6   51.43    2.43
  -7   1   6   50.84    2.12
   6  -1  -6    4.23    0.40
  -6   1   6    4.13    0.38
   5  -1  -6   18.51    1.15
  -5   1   6   17.55    1.11
   4  -1  -6   14.60    1.17
  -4   1   6   15.36    1.11
   3  -1  -6  107.90    3.15
   3  -1  -6  115.51    2.78
  -3   1   6  110.44    3.04
   2  -1  -6    9.08    0.24
   2  -1  -6   10.06    0.14
  -2   1   6    9.81    0.24
   1  -1  -6   38.12    1.10
  -1   1   6   36.21    1.10
  -1   1   6   36.10    0.99
   0  -1  -6   30.66    1.68
   0   1   6   30.61    1.59
   0   1   6   32.72    1.69
  -1  -1  -6   92.15    4.19
   1   1   6   93.28    3.97
   1   1   6   95.17    4.11
  -2  -1  -6   13.30    0.71
   2   1   6   11.97    0.68
  -3  -1  -6    0.62    0.18
   3   1   6    1.18    0.19
  -4  -1  -6   52.20    1.89
   4   1   6   51.72    1.80
  -5  -1  -6   54.64    1.73
   5   1   6   51.58    1.64
  -6  -1  -6    8.50    0.67
  -7  -1  -6    0.83    0.37
  -8  -1  -6   15.12    0.94
  -9  -1  -6    1.83    0.53
 -10  -1  -6    6.41    0.65
 -11  -1  -6    0.00    0.41
 -12  -1  -6    0.00    0.44
 -13  -1  -6    0.44    0.51
 -14  -1  -6    0.07    0.59
  16  -2  -6    0.42    0.45
 -16   2   6    0.75    0.46
  15  -2  -6    3.13    0.61
 -15   2   6    2.41    0.53
  14  -2  -6    0.05    0.38
 -14   2   6    0.00    0.40
  13  -2  -6    1.61    0.45
 -13   2   6    1.11    0.42
  12  -2  -6    5.93    0.63
 -12   2   6    6.58    0.59
  11  -2  -6    0.14    0.31
 -11   2   6    0.14    0.36
  10  -2  -6    5.74    0.55
 -10   2   6    6.48    0.55
   9  -2  -6    0.58    0.34
  -9   2   6    0.66    0.16
  -9   2   6    0.41    0.33
   8  -2  -6   14.25    0.75
  -8   2   6   13.42    0.74
  -8   2   6   14.10    0.47
  -8   2   6   13.69    0.47
   7  -2  -6   52.49    1.71
  -7   2   6   52.13    1.67
  -7   2   6   50.57    1.35
  -7   2   6   50.81    1.35
   6  -2  -6    0.17    0.34
  -6   2   6    0.05    0.33
   5  -2  -6   22.64    1.55
  -5   2   6   22.81    1.51
   4  -2  -6    4.87    0.59
   4  -2  -6    5.25    0.38
  -4   2   6    5.79    0.61
  -4   2   6    4.97    0.36
   3  -2  -6    8.11    0.57
   3  -2  -6    7.23    0.77
  -3   2   6    7.87    0.75
  -3   2   6    7.41    0.56
   2  -2  -6   14.20    0.62
  -2   2   6   12.94    0.60
  -2   2   6   12.62    0.47
   1  -2  -6   63.07    2.23
  -1   2   6   59.38    2.21
  -1   2   6   59.88    2.08
   0  -2  -6   73.07    2.14
   0   2   6   73.53    2.13
   0   2   6   71.00    2.03
  -1  -2  -6   31.71    1.20
   1   2   6   30.34    1.15
   1   2   6   31.13    1.18
  -2  -2  -6   37.95    1.35
   2   2   6   35.88    1.30
   2   2   6   35.98    1.30
  -3  -2  -6    1.08    0.21
   3   2   6    1.04    0.25
  -4  -2  -6    3.80    0.48
   4   2   6    2.99    0.47
  -5  -2  -6   44.98    2.02
   5   2   6   44.68    1.92
  -6  -2  -6    7.31    0.59
   6   2   6    6.15    0.56
  -7  -2  -6    0.00    0.34
   7   2   6    0.00    0.33
  -8  -2  -6    0.06    0.37
   8   2   6    0.06    0.32
  -9  -2  -6   29.88    1.44
 -10  -2  -6    8.76    0.87
 -11  -2  -6    5.12    0.68
 -12  -2  -6    4.11    0.69
 -13  -2  -6   13.40    1.19
  16  -3  -6    0.34    0.44
 -16   3   6    0.45    0.46
  15  -3  -6    6.31    0.73
 -15   3   6    6.64    0.69
  14  -3  -6    4.86    0.62
 -14   3   6    5.57    0.62
  13  -3  -6    3.25    0.58
 -13   3   6    3.41    0.55
  12  -3  -6   16.33    1.00
 -12   3   6   14.39    0.67
 -12   3   6   15.70    0.94
  11  -3  -6    3.76    0.51
 -11   3   6    4.50    0.34
 -11   3   6    3.87    0.52
  10  -3  -6    0.11    0.30
 -10   3   6    0.05    0.16
 -10   3   6    0.02    0.37
   9  -3  -6    7.23    0.65
  -9   3   6    7.15    0.38
  -9   3   6    6.20    0.62
   8  -3  -6    4.64    0.55
  -8   3   6    4.69    0.55
  -8   3   6    4.50    0.29
  -8   3   6    4.27    0.28
   7  -3  -6   22.52    1.25
  -7   3   6   21.90    0.95
  -7   3   6   23.94    1.30
   6  -3  -6    9.76    0.51
  -6   3   6    8.66    0.51
  -6   3   6    9.84    0.27
   5  -3  -6    0.38    0.20
   5  -3  -6    0.37    0.09
  -5   3   6    0.22    0.25
  -5   3   6    0.18    0.10
   4  -3  -6  162.09    3.90
   4  -3  -6  148.57    4.31
  -4   3   6  154.23    3.88
  -4   3   6  156.96    4.22
   3  -3  -6   13.57    0.66
  -3   3   6   12.29    0.47
  -3   3   6   14.19    0.65
   2  -3  -6    4.52    0.33
  -2   3   6    4.08    0.26
  -2   3   6    4.61    0.35
   1  -3  -6   25.97    0.92
  -1   3   6   23.34    0.97
  -1   3   6   23.87    0.88
   0  -3  -6   10.30    0.70
   0   3   6    9.81    0.74
   0   3   6    9.72    0.70
  -1  -3  -6    0.06    0.17
   1   3   6    0.24    0.18
   1   3   6    0.08    0.20
  -2  -3  -6    9.63    0.49
   2   3   6    7.36    0.43
   2   3   6   10.50    0.53
  -3  -3  -6   14.49    0.77
   3   3   6   16.08    0.79
  -4  -3  -6   87.78    3.47
   4   3   6   92.20    3.33
  -5  -3  -6   79.42    2.98
   5   3   6   72.64    2.82
  -6  -3  -6   26.69    1.23
   6   3   6   27.42    1.22
  -7  -3  -6    1.66    0.49
   7   3   6    2.31    0.52
  -8  -3  -6    2.79    0.54
   8   3   6    2.48    0.51
  -9  -3  -6   26.79    1.44
   9   3   6   27.46    1.39
 -10  -3  -6    1.97    0.53
  10   3   6    1.23    0.44
 -11  -3  -6   13.31    1.09
 -12  -3  -6    0.05    0.49
 -13  -3  -6    3.28    0.66
  16  -4  -6    0.10    0.47
 -16   4   6    0.00    0.44
  15  -4  -6    0.00    0.41
 -15   4   6    0.00    0.44
  14  -4  -6    3.94    0.63
 -14   4   6    3.59    0.62
  13  -4  -6    0.34    0.32
 -13   4   6    0.10    0.20
 -13   4   6    0.98    0.44
  12  -4  -6   13.00    0.86
 -12   4   6   12.14    0.58
 -12   4   6   11.41    0.85
  11  -4  -6    3.87    0.50
 -11   4   6    3.25    0.51
 -11   4   6    4.39    0.33
  10  -4  -6    9.04    0.63
 -10   4   6   10.57    0.75
 -10   4   6   10.14    0.45
   9  -4  -6    1.35    0.32
  -9   4   6    1.13    0.39
  -9   4   6    1.49    0.19
   8  -4  -6    0.07    0.38
  -8   4   6    0.01    0.40
  -8   4   6    0.03    0.18
   7  -4  -6   16.45    0.64
  -7   4   6   14.64    0.77
  -7   4   6   16.84    0.45
   6  -4  -6   23.00    0.81
  -6   4   6   21.39    0.87
  -6   4   6   21.51    0.60
   5  -4  -6  123.36    3.68
  -5   4   6  116.41    3.29
  -5   4   6  114.47    3.61
   4  -4  -6    3.03    0.32
  -4   4   6    2.08    0.17
  -4   4   6    2.30    0.30
   3  -4  -6   14.01    1.00
  -3   4   6   16.75    0.86
  -3   4   6   16.83    1.02
   2  -4  -6    0.30    0.20
  -2   4   6    0.26    0.20
  -2   4   6    0.26    0.25
   1  -4  -6    7.85    0.52
  -1   4   6    7.68    0.52
  -1   4   6    7.89    0.63
   0  -4  -6  149.67    5.26
   0   4   6  145.92    5.17
   0   4   6  151.18    5.00
  -1  -4  -6    6.03    0.40
   1   4   6    5.93    0.40
   1   4   6    4.44    0.40
  -2  -4  -6   18.60    0.96
   2   4   6   18.35    0.97
  -3  -4  -6  140.38    4.99
   3   4   6  141.67    4.76
   3   4   6  141.78    4.80
  -4  -4  -6   28.47    1.12
   4   4   6   29.86    1.14
  -5  -4  -6  174.49    5.80
   5   4   6  176.35    5.52
  -6  -4  -6    3.18    0.56
   6   4   6    3.43    0.59
  -7  -4  -6    3.34    0.47
   7   4   6    2.21    0.45
  -8  -4  -6    0.00    0.35
   8   4   6    0.71    0.41
  -9  -4  -6    7.48    0.73
   9   4   6    7.32    0.71
 -10  -4  -6    4.40    0.68
  10   4   6    3.85    0.65
 -11  -4  -6    0.66    0.54
  11   4   6    0.48    0.44
 -12  -4  -6    0.00    0.47
  16  -5  -6    2.85    0.60
 -16   5   6    2.75    0.59
  15  -5  -6    0.87    0.45
 -15   5   6    0.42    0.49
  14  -5  -6    4.97    0.63
 -14   5   6    4.77    0.68
  13  -5  -6   10.68    0.85
 -13   5   6    9.52    0.60
 -13   5   6    9.72    0.90
  12  -5  -6    3.40    0.47
 -12   5   6    4.14    0.59
 -12   5   6    3.75    0.33
  11  -5  -6    4.27    0.55
 -11   5   6    3.95    0.36
 -11   5   6    5.08    0.66
  10  -5  -6   26.60    1.25
 -10   5   6   27.11    0.99
 -10   5   6   26.98    1.33
   9  -5  -6    8.14    0.63
  -9   5   6    8.27    0.43
  -9   5   6    9.72    0.86
   8  -5  -6    9.13    0.53
  -8   5   6    9.00    0.62
  -8   5   6    9.27    0.35
   7  -5  -6    1.30    0.39
  -7   5   6    0.99    0.46
  -7   5   6    1.30    0.26
   6  -5  -6    7.04    0.47
  -6   5   6    6.04    0.33
  -6   5   6    6.07    0.55
  -5   5   6   80.13    3.22
  -5   5   6   80.64    2.92
  -4   5   6    1.20    0.19
  -4   5   6    1.11    0.32
  -3   5   6  163.93    4.86
  -3   5   6  164.38    5.16
   2  -5  -6    5.60    0.38
  -2   5   6    4.32    0.37
  -2   5   6    3.84    0.41
   1  -5  -6   25.68    0.90
  -1   5   6   24.06    0.95
  -1   5   6   23.68    0.89
   0  -5  -6   24.87    0.98
   0   5   6   24.90    1.03
   0   5   6   24.35    1.00
  -1  -5  -6   47.87    1.57
   1   5   6   46.26    1.53
   1   5   6   45.83    1.55
  -2  -5  -6    8.07    0.53
   2   5   6    7.19    0.55
   2   5   6    8.36    0.52
  -3  -5  -6   41.72    1.59
   3   5   6   40.32    1.48
   3   5   6   40.53    1.58
  -4  -5  -6   19.83    0.87
   4   5   6   18.87    0.88
  -5  -5  -6   42.92    1.80
   5   5   6   43.96    1.79
  -6  -5  -6    3.60    0.47
   6   5   6    3.26    0.52
  -7  -5  -6    6.39    0.65
   7   5   6    4.69    0.60
  -8  -5  -6    0.00    0.35
   8   5   6    0.41    0.37
  -9  -5  -6    7.96    0.77
   9   5   6    8.21    0.83
 -10  -5  -6    1.99    0.59
  10   5   6    1.19    0.49
 -11  -5  -6    0.34    0.51
  11   5   6    0.00    0.41
 -12  -5  -6    0.08    0.47
  12   5   6    0.07    0.45
  16  -6  -6    2.69    0.56
 -16   6   6    3.29    0.64
  15  -6  -6    0.93    0.40
 -15   6   6    0.00    0.46
  14  -6  -6    2.50    0.52
 -14   6   6    2.56    0.62
  13  -6  -6   12.02    0.80
 -13   6   6   11.19    0.87
 -13   6   6   11.38    0.59
  12  -6  -6    3.22    0.44
 -12   6   6    2.99    0.31
 -12   6   6    3.24    0.57
  11  -6  -6    5.63    0.59
 -11   6   6    5.39    0.69
 -11   6   6    6.21    0.44
  10  -6  -6    6.79    0.62
 -10   6   6    6.56    0.46
 -10   6   6    6.81    0.78
   9  -6  -6    2.55    0.34
  -9   6   6    2.66    0.24
  -9   6   6    2.28    0.46
  -8   6   6    2.33    0.24
  -8   6   6    2.29    0.47
  -7   6   6   43.98    1.35
  -7   6   6   42.19    1.65
   6  -6  -6    9.50    0.60
  -6   6   6    7.86    0.72
  -6   6   6    8.30    0.49
   5  -6  -6   63.57    2.15
  -5   6   6   61.55    2.22
  -5   6   6   58.39    1.94
   4  -6  -6    0.54    0.23
  -4   6   6    0.13    0.19
  -4   6   6    0.20    0.27
   3  -6  -6   73.43    3.14
  -3   6   6   84.59    2.94
  -3   6   6   88.20    3.16
   2  -6  -6    0.26    0.13
  -2   6   6    1.50    0.33
  -2   6   6    0.64    0.25
  -1   6   6   75.57    2.47
  -1   6   6   74.94    2.56
   0  -6  -6    0.32    0.18
   0   6   6    0.18    0.24
   0   6   6    0.55    0.24
  -1  -6  -6    2.68    0.33
   1   6   6    2.92    0.41
  -2  -6  -6    0.03    0.24
   2   6   6    0.01    0.29
   2   6   6    0.07    0.21
  -3  -6  -6    0.21    0.30
   3   6   6    0.12    0.32
   3   6   6    0.12    0.23
  -4  -6  -6    6.18    0.56
   4   6   6    7.22    0.65
   4   6   6    6.16    0.44
  -5  -6  -6    2.65    0.41
   5   6   6    2.96    0.47
  -6  -6  -6    5.56    0.60
   6   6   6    6.07    0.64
  -7  -6  -6    0.72    0.38
   7   6   6    0.25    0.40
  -8  -6  -6    2.61    0.53
   8   6   6    2.60    0.54
  -9  -6  -6    8.76    0.85
   9   6   6   10.17    0.91
 -10  -6  -6    0.79    0.54
  10   6   6    0.42    0.46
 -11  -6  -6    0.02    0.50
  11   6   6    0.17    0.45
  16  -7  -6    0.07    0.38
 -16   7   6    0.00    0.52
  15  -7  -6    0.00    0.36
 -15   7   6    0.08    0.47
  14  -7  -6    0.84    0.37
 -14   7   6    0.02    0.50
  13  -7  -6    0.83    0.34
 -13   7   6    0.04    0.43
 -13   7   6    0.52    0.26
  12  -7  -6    2.79    0.42
 -12   7   6    2.24    0.30
 -12   7   6    1.95    0.50
  11  -7  -6    2.80    0.44
 -11   7   6    2.58    0.32
 -11   7   6    2.23    0.54
 -10   7   6    4.43    0.36
 -10   7   6    4.38    0.62
   9  -7  -6   19.35    0.93
  -9   7   6   20.01    1.13
  -9   7   6   20.38    0.79
   8  -7  -6    8.50    0.54
  -8   7   6    9.13    0.45
  -8   7   6    8.28    0.70
   7  -7  -6   46.66    2.13
  -7   7   6   47.99    2.31
  -7   7   6   47.81    1.96
   6  -7  -6   10.38    0.47
  -6   7   6    9.00    0.41
  -6   7   6    8.21    0.59
   5  -7  -6   13.97    0.74
  -5   7   6   12.68    0.67
  -5   7   6   13.17    0.89
   4  -7  -6    8.37    0.68
  -4   7   6    8.63    0.61
  -4   7   6    9.43    0.79
   3  -7  -6    2.07    0.34
  -3   7   6    2.48    0.32
  -3   7   6    2.30    0.39
   2  -7  -6    2.63    0.29
  -2   7   6    2.04    0.31
  -2   7   6    2.47    0.39
   1  -7  -6   20.86    0.96
  -1   7   6   23.93    1.04
  -1   7   6   23.98    1.11
   0  -7  -6    1.26    0.29
   0   7   6    1.43    0.38
   0   7   6    1.47    0.35
  -1  -7  -6    0.10    0.21
   1   7   6    0.10    0.10
   1   7   6    0.47    0.30
  -2  -7  -6   21.94    0.93
   2   7   6   20.01    0.88
   2   7   6   20.84    0.97
  -3  -7  -6    3.37    0.38
   3   7   6    3.54    0.46
   3   7   6    4.04    0.34
  -4  -7  -6    6.81    0.67
   4   7   6    6.45    0.71
   4   7   6    5.37    0.48
  -5  -7  -6    0.35    0.34
   5   7   6    0.57    0.41
  -6  -7  -6   12.59    0.90
   6   7   6   11.54    0.90
  -7  -7  -6    3.22    0.56
   7   7   6    3.26    0.61
  -8  -7  -6    0.45    0.45
   8   7   6    0.18    0.43
  -9  -7  -6   12.07    1.00
   9   7   6   12.23    1.00
 -10  -7  -6    0.10    0.44
  10   7   6    0.37    0.47
  16  -8  -6    0.33    0.39
 -16   8   6    0.04    0.53
  15  -8  -6    0.22    0.40
 -15   8   6    0.02    0.54
  14  -8  -6    0.54    0.39
 -14   8   6    0.30    0.49
  13  -8  -6   11.68    0.84
 -13   8   6   10.97    0.65
 -13   8   6   10.49    1.05
  12  -8  -6    0.02    0.11
 -12   8   6    0.77    0.51
 -12   8   6    0.37    0.24
  11  -8  -6    2.15    0.29
 -11   8   6    2.13    0.25
 -11   8   6    1.41    0.45
  10  -8  -6    1.12    0.28
 -10   8   6    0.49    0.45
 -10   8   6    0.40    0.23
   9  -8  -6    6.72    0.55
  -9   8   6    5.90    0.77
  -9   8   6    5.93    0.47
   8  -8  -6    3.89    0.44
  -8   8   6    3.88    0.43
  -8   8   6    3.28    0.63
   7  -8  -6    1.76    0.23
  -7   8   6    1.28    0.26
  -7   8   6    1.17    0.41
   6  -8  -6   43.94    1.82
  -6   8   6   42.05    1.74
  -6   8   6   41.83    2.00
   5  -8  -6   17.43    0.81
  -5   8   6   16.26    0.80
  -5   8   6   15.66    0.99
   4  -8  -6   14.13    0.76
  -4   8   6   16.64    0.91
  -4   8   6   16.07    0.73
   3  -8  -6    4.52    0.45
  -3   8   6    5.97    0.57
  -3   8   6    6.05    0.51
   2  -8  -6    1.99    0.26
  -2   8   6    1.99    0.34
  -2   8   6    2.01    0.38
   1  -8  -6    9.17    0.45
  -1   8   6    8.56    0.51
  -1   8   6    8.58    0.55
   0   8   6    4.26    0.44
   0   8   6    4.49    0.48
  -1  -8  -6    3.10    0.38
   1   8   6    2.98    0.40
   1   8   6    2.66    0.46
  -2  -8  -6    0.59    0.31
   2   8   6    0.35    0.38
   2   8   6    0.61    0.30
  -3  -8  -6    0.16    0.28
   3   8   6    0.02    0.24
   3   8   6    0.04    0.36
  -4  -8  -6    4.03    0.43
   4   8   6    3.73    0.34
   4   8   6    4.03    0.51
  -5  -8  -6   24.18    1.15
   5   8   6   22.70    1.17
  -6  -8  -6   10.44    0.77
   6   8   6   10.13    0.87
  -7  -8  -6   16.18    1.01
   7   8   6   15.08    1.00
  -8  -8  -6    0.56    0.41
   8   8   6    0.01    0.40
  -9  -8  -6    6.32    0.84
   9   8   6    7.10    0.90
 -10  -8  -6    0.05    0.45
  10   8   6    0.80    0.56
  16  -9  -6    1.72    0.47
  15  -9  -6    0.67    0.28
 -15   9   6    1.57    0.61
  14  -9  -6    0.34    0.30
 -14   9   6    0.08    0.49
  13  -9  -6   21.42    1.11
 -13   9   6   21.90    0.93
 -13   9   6   20.69    1.32
  12  -9  -6    8.51    0.59
 -12   9   6    8.27    0.49
 -12   9   6    7.70    0.76
  11  -9  -6    0.22    0.27
 -11   9   6    0.25    0.25
 -11   9   6    0.00    0.45
  10  -9  -6   21.74    1.01
 -10   9   6   21.84    1.29
 -10   9   6   22.27    0.93
   9  -9  -6    3.31    0.32
  -9   9   6    3.03    0.31
  -9   9   6    2.69    0.52
   8  -9  -6    2.34    0.28
  -8   9   6    1.86    0.31
  -8   9   6    1.22    0.47
   7  -9  -6    8.92    0.55
  -7   9   6    9.14    0.60
  -7   9   6    9.86    0.90
   6  -9  -6   16.63    0.76
  -6   9   6   15.38    1.05
  -6   9   6   15.76    0.82
   5  -9  -6   21.52    0.90
  -5   9   6   20.06    1.12
  -5   9   6   20.01    0.92
   4  -9  -6    0.05    0.24
  -4   9   6    0.01    0.30
  -4   9   6    0.36    0.37
   3  -9  -6    5.46    0.41
  -3   9   6    6.09    0.47
  -3   9   6    7.19    0.55
   2  -9  -6   19.82    0.89
  -2   9   6   21.30    1.09
  -2   9   6   19.41    0.96
   1  -9  -6   10.82    0.63
  -1   9   6   12.35    0.76
  -1   9   6   11.13    0.80
   0  -9  -6   13.53    0.70
   0   9   6   12.21    0.79
   0   9   6   12.93    0.79
   1   9   6    7.97    0.60
   1   9   6    8.46    0.52
  -2  -9  -6    0.63    0.30
   2   9   6    0.51    0.29
   2   9   6    1.23    0.46
  -3  -9  -6   41.63    1.64
   3   9   6   37.47    1.65
   3   9   6   42.31    1.52
  -4  -9  -6    0.88    0.35
   4   9   6    0.74    0.41
  -5  -9  -6    8.46    0.77
   5   9   6    9.02    0.88
  -6  -9  -6    0.20    0.34
   6   9   6    0.01    0.43
  -7  -9  -6   11.68    0.85
   7   9   6    9.22    0.89
  -8  -9  -6    4.05    0.66
   8   9   6    3.46    0.72
  -9  -9  -6    0.16    0.47
   9   9   6    0.08    0.47
 -15  10   6    0.86    0.64
 -14  10   6    3.29    0.71
 -13  10   6    7.61    0.87
 -13  10   6    8.44    0.57
  12 -10  -6    0.14    0.28
 -12  10   6    0.02    0.54
 -12  10   6    0.09    0.29
  11 -10  -6    6.34    0.56
 -11  10   6    5.96    0.80
 -11  10   6    5.64    0.52
  10 -10  -6    2.41    0.34
 -10  10   6    2.26    0.58
 -10  10   6    2.03    0.35
   9 -10  -6    2.06    0.30
  -9  10   6    2.48    0.37
  -9  10   6    2.73    0.59
   8 -10  -6    0.80    0.21
  -8  10   6    0.45    0.46
  -8  10   6    0.54    0.31
   7 -10  -6    0.09    0.17
  -7  10   6    0.01    0.29
  -7  10   6    0.01    0.40
   6 -10  -6   23.77    0.92
  -6  10   6   23.23    1.01
  -6  10   6   22.75    1.25
   5 -10  -6    1.58    0.25
  -5  10   6    1.72    0.42
  -5  10   6    1.59    0.48
   4 -10  -6    1.85    0.28
  -4  10   6    2.02    0.39
  -4  10   6    2.27    0.46
   3 -10  -6    8.88    0.62
  -3  10   6   11.93    0.78
  -3  10   6   12.07    0.84
   2 -10  -6    5.08    0.47
  -2  10   6    6.73    0.67
  -2  10   6    6.69    0.64
   1 -10  -6   67.90    2.27
  -1  10   6   65.03    2.34
  -1  10   6   64.02    2.36
   0 -10  -6    0.53    0.26
   0  10   6    0.92    0.39
   0  10   6    0.25    0.29
  -1 -10  -6   13.21    0.85
   1  10   6   14.22    0.99
   1  10   6   14.00    0.94
  -2 -10  -6    0.01    0.23
   2  10   6    0.24    0.29
   2  10   6    0.01    0.35
  -3 -10  -6    4.30    0.55
   3  10   6    5.17    0.49
   3  10   6    5.05    0.67
  -4 -10  -6   21.91    1.21
   4  10   6   20.87    1.29
  -5 -10  -6    1.18    0.41
   5  10   6    0.13    0.43
  -6 -10  -6    0.46    0.43
   6  10   6    1.01    0.56
  -7 -10  -6    0.08    0.42
   7  10   6    0.00    0.45
  -8 -10  -6    0.02    0.44
   8  10   6    0.05    0.46
 -15  11   6    0.69    0.65
 -14  11   6    0.19    0.61
 -13  11   6    3.22    0.44
 -13  11   6    2.87    0.75
 -12  11   6    1.64    0.61
 -12  11   6    1.20    0.37
 -11  11   6    6.70    0.82
 -11  11   6    5.96    0.52
 -10  11   6    1.66    0.57
 -10  11   6    1.93    0.39
  -9  11   6   11.97    0.71
  -9  11   6   12.45    1.03
  -8  11   6    0.54    0.45
  -8  11   6    0.02    0.28
  -7  11   6   14.06    0.81
  -7  11   6   12.28    1.02
  -6  11   6    8.99    0.69
  -6  11   6    7.42    0.82
   5 -11  -6    6.84    0.39
  -5  11   6    6.41    0.72
  -5  11   6    4.76    0.56
   4 -11  -6    7.69    0.48
  -4  11   6    6.78    0.73
  -4  11   6    7.27    0.65
  -3  11   6   23.51    1.21
  -3  11   6   24.51    1.34
   2 -11  -6    0.00    0.22
  -2  11   6    0.13    0.39
  -2  11   6    0.00    0.36
   1 -11  -6   21.03    0.99
  -1  11   6   22.36    1.18
  -1  11   6   20.52    1.15
   0 -11  -6    0.48    0.29
   0  11   6    0.63    0.44
  -1 -11  -6    0.53    0.29
   1  11   6    0.39    0.32
   1  11   6    0.35    0.40
  -2 -11  -6    0.00    0.22
   2  11   6    0.00    0.28
   2  11   6    0.14    0.41
  -3 -11  -6    0.21    0.31
   3  11   6    0.99    0.48
  -4 -11  -6    0.88    0.38
   4  11   6    0.73    0.49
  -5 -11  -6    1.35    0.41
   5  11   6    0.04    0.42
  -6 -11  -6    0.95    0.45
   6  11   6    0.63    0.51
  -7 -11  -6    0.81    0.44
   7  11   6    0.32    0.47
 -14  12   6    0.11    0.58
 -13  12   6    8.46    1.01
 -13  12   6    9.55    0.72
 -12  12   6    3.67    0.45
 -12  12   6    3.07    0.69
 -11  12   6    0.00    0.29
 -11  12   6    0.81    0.53
 -10  12   6   12.36    1.00
 -10  12   6   12.91    0.71
  -9  12   6   14.37    1.12
  -9  12   6   14.02    0.83
  -8  12   6    0.23    0.36
  -8  12   6    0.45    0.47
  -7  12   6    5.28    0.60
  -7  12   6    5.74    0.75
  -6  12   6    1.82    0.42
  -6  12   6    2.27    0.57
  -5  12   6   22.00    1.15
  -5  12   6   22.19    1.34
  -4  12   6    0.46    0.34
  -4  12   6    0.71    0.43
  -3  12   6    0.80    0.43
  -3  12   6    0.78    0.40
  -2  12   6    2.16    0.52
  -2  12   6    1.79    0.47
   1 -12  -6    1.66    0.30
  -1  12   6    2.25    0.47
  -1  12   6    1.66    0.42
   0 -12  -6    1.58    0.32
   0  12   6    1.09    0.45
  -1 -12  -6    0.23    0.29
   1  12   6    0.03    0.41
   1  12   6    0.11    0.33
  -2 -12  -6    6.66    0.63
   2  12   6    6.20    0.78
   3  12   6    3.34    0.62
  -4 -12  -6    0.00    0.34
   4  12   6    0.01    0.46
  -5 -12  -6    1.11    0.39
   5  12   6    0.08    0.44
  -6 -12  -6    0.02    0.39
 -13  13   6    8.30    0.93
 -12  13   6    0.06    0.35
 -12  13   6    0.26    0.55
 -11  13   6    2.81    0.65
 -11  13   6    2.58    0.43
 -10  13   6    0.61    0.38
 -10  13   6    0.70    0.55
  -9  13   6    2.66    0.47
  -9  13   6    2.86    0.62
  -8  13   6    0.00    0.45
  -8  13   6    0.00    0.36
  -7  13   6    9.67    0.88
  -7  13   6   10.42    0.71
  -6  13   6    1.69    0.53
  -6  13   6    1.62    0.48
  -5  13   6    2.88    0.55
  -5  13   6    3.90    0.60
  -4  13   6    9.71    0.82
  -4  13   6    9.49    0.83
  -3  13   6    0.32    0.43
  -3  13   6    0.00    0.45
  -2  13   6    0.57    0.42
  -2  13   6    0.01    0.47
  -1  13   6    0.39    0.49
  -1  13   6    0.05    0.37
   0  13   6    5.59    0.68
   0  13   6    6.12    0.61
   1  13   6    0.13    0.44
   1  13   6    0.41    0.36
   2  13   6    0.00    0.45
  -3 -13  -6    6.25    0.60
   3  13   6    5.17    0.72
  -4 -13  -6    0.01    0.15
   4  13   6    0.16    0.50
 -12  14   6    2.72    0.48
 -12  14   6    2.12    0.66
 -11  14   6    3.81    0.55
 -11  14   6    4.29    0.78
 -10  14   6    1.07    0.59
 -10  14   6    2.41    0.48
  -9  14   6    0.27    0.41
  -9  14   6    0.07    0.49
  -8  14   6    3.03    0.61
  -8  14   6    4.47    0.56
  -7  14   6    6.92    0.72
  -7  14   6    8.44    0.91
  -6  14   6    0.06    0.49
  -6  14   6    0.81    0.47
  -5  14   6    2.28    0.52
  -5  14   6    2.16    0.54
  -4  14   6    9.39    0.92
  -4  14   6   10.01    0.92
  -3  14   6    1.32    0.48
  -3  14   6    0.30    0.44
  -2  14   6    2.31    0.57
  -2  14   6    2.48    0.53
  -1  14   6    7.28    0.73
  -1  14   6    6.77    0.83
   0  14   6    0.72    0.50
   0  14   6    0.54    0.41
   1  14   6    0.80    0.51
   2  14   6    0.16    0.52
 -10  15   6    1.19    0.46
 -10  15   6    0.00    0.50
  -9  15   6    0.02    0.42
  -9  15   6    0.02    0.51
  -8  15   6    0.01    0.47
  -8  15   6    0.15    0.45
  -7  15   6    0.25    0.47
  -7  15   6    1.23    0.54
  -6  15   6    7.21    0.83
  -6  15   6    8.49    0.83
  -5  15   6    2.49    0.63
  -5  15   6    3.91    0.70
  -4  15   6    0.45    0.47
  -4  15   6    0.01    0.46
  -3  15   6    5.42    0.71
  -3  15   6    4.86    0.71
  -2  15   6    0.03    0.45
  -2  15   6    0.57    0.58
  -1  15   6   11.80    1.05
   0  15   6    0.04    0.51
  -7  16   6    8.31    0.97
  -7  16   6    8.90    0.89
  -6  16   6    1.26    0.60
  -6  16   6    1.64    0.57
  -5  16   6    6.18    0.81
  -5  16   6    6.75    0.79
  -4  16   6    0.60    0.55
  -4  16   6    0.02    0.48
  -3  16   6    5.80    0.78
  -3  16   6    5.98    0.81
  -1  17  -7    2.41    0.58
  -2  17  -7    1.59    0.53
  -3  17  -7    1.32    0.55
  -4  17  -7    1.03    0.46
  -5  17  -7    0.04    0.43
  -6  17  -7    2.28    0.55
  -7  17  -7    0.01    0.41
   2  16  -7    0.00    0.51
   1  16  -7    1.06    0.53
   0  16  -7    1.63    0.61
  -1  16  -7    0.00    0.41
  -2  16  -7    0.22    0.42
  -3  16  -7    0.55    0.42
  -4  16  -7    2.95    0.53
  -5  16  -7    5.60    0.65
  -6  16  -7    1.08    0.48
  -7  16  -7    0.88    0.49
  -8  16  -7    2.66    0.60
  -9  16  -7    2.79    0.62
   4  15  -7    0.52    0.54
   4  15  -7    0.02    0.37
   3  15  -7    1.23    0.43
   3  15  -7    0.07    0.59
   2  15  -7    0.05    0.48
   1  15  -7    1.81    0.55
   0  15  -7    3.32    0.55
  -1  15  -7    3.69    0.59
  -2  15  -7    0.48    0.41
  -3  15  -7    3.60    0.58
  -4  15  -7    0.46    0.40
  -5  15  -7    9.56    0.79
  -6  15  -7    6.78    0.68
  -7  15  -7    0.12    0.44
  -8  15  -7    2.17    0.49
  -9  15  -7    0.20    0.47
 -10  15  -7    1.76    0.58
 -11  15  -7    0.69    0.54
   6  14  -7    0.33    0.48
   6  14  -7    0.20    0.67
   5  14  -7    0.00    0.58
   5  14  -7    0.00    0.43
   4  14  -7    0.06    0.50
   4  14  -7    0.10    0.39
   3  14  -7    0.03    0.38
   3  14  -7    0.03    0.46
   2  14  -7    1.83    0.57
   2  14  -7    1.88    0.46
   1  14  -7    4.96    0.68
   1  14  -7    4.59    0.56
   0  14  -7    0.00    0.28
   0  14  -7    0.24    0.45
  -1  14  -7    0.28    0.28
  -1  14  -7    0.55    0.39
  -2  14  -7    2.44    0.45
  -2  14  -7    2.28    0.34
  -3  14  -7    1.12    0.39
  -4  14  -7    0.37    0.36
  -5  14  -7    1.19    0.40
  -6  14  -7    6.65    0.67
  -7  14  -7   15.80    0.94
  -8  14  -7    4.53    0.64
  -9  14  -7    0.25    0.46
 -10  14  -7    1.54    0.57
 -11  14  -7    0.87    0.56
 -12  14  -7    5.56    0.76
   7  13  -7    1.43    0.56
   7  13  -7    1.86    0.65
   6  13  -7    0.00    0.43
   6  13  -7    0.00    0.58
   5  13  -7    1.04    0.48
   5  13  -7    0.42    0.53
   4  13  -7    0.27    0.49
   4  13  -7    0.37    0.42
   3  13  -7    0.01    0.46
   3  13  -7    0.32    0.37
   2  13  -7    4.86    0.56
   2  13  -7    4.65    0.63
   1  13  -7    8.65    0.70
   1  13  -7    8.33    0.77
   0  13  -7   10.50    0.76
   0  13  -7   10.09    0.82
  -1  13  -7    1.09    0.33
  -1  13  -7    0.47    0.37
  -2  13  -7   28.34    1.26
  -2  13  -7   29.28    1.19
  -3  13  -7    4.29    0.48
  -3  13  -7    3.75    0.57
  -4  13  -7    1.00    0.27
  -4  13  -7    0.92    0.39
  -5  13  -7    1.26    0.43
  -5  13  -7    1.63    0.31
  -6  13  -7    0.84    0.29
  -6  13  -7    0.29    0.41
  -7  13  -7    6.06    0.51
  -7  13  -7    4.94    0.66
  -8  13  -7    3.96    0.57
  -8  13  -7    3.91    0.41
  -9  13  -7    0.44    0.42
 -10  13  -7   18.77    1.19
 -11  13  -7    0.49    0.49
 -12  13  -7    4.33    0.72
 -13  13  -7    2.98    0.65
   8  12  -7    0.07    0.49
   8  12  -7    0.64    0.47
   7  12  -7    0.66    0.61
   7  12  -7    0.97    0.53
   6  12  -7    3.11    0.67
   6  12  -7    2.92    0.59
   5  12  -7    2.34    0.54
   5  12  -7    1.89    0.60
   4  12  -7    8.10    0.83
   4  12  -7    7.88    0.74
   3  12  -7    0.00    0.46
   3  12  -7    0.00    0.34
   2  12  -7    3.39    0.60
   2  12  -7    3.50    0.51
   1  12  -7   11.04    0.80
   1  12  -7    9.40    0.73
   0  12  -7    0.26    0.39
   0  12  -7    0.00    0.29
  -1  12  -7   15.31    0.88
  -1  12  -7   14.58    0.81
  -2  12  -7    0.00    0.25
  -2  12  -7    0.22    0.34
  -3  12  -7    4.87    0.56
  -3  12  -7    5.09    0.46
  -4  12  -7    5.48    0.53
  -4  12  -7    6.51    0.43
  -5  12  -7    2.19    0.46
  -5  12  -7    1.93    0.32
  -6  12  -7   15.95    0.99
  -6  12  -7   13.63    0.78
  -7  12  -7    2.85    0.37
  -7  12  -7    2.91    0.53
  -8  12  -7    0.86    0.25
  -8  12  -7    1.09    0.40
  -9  12  -7    6.78    0.81
  -9  12  -7    7.83    0.58
 -10  12  -7    1.50    0.51
 -10  12  -7    1.43    0.33
 -11  12  -7   25.02    1.42
 -11  12  -7   25.15    1.19
 -12  12  -7    0.96    0.34
 -12  12  -7    1.63    0.54
 -13  12  -7    1.55    0.42
 -13  12  -7    0.85    0.53
   9  11  -7    0.01    0.42
   9  11  -7    0.01    0.52
   8  11  -7    1.02    0.57
   8  11  -7    0.38    0.45
   7  11  -7    0.68    0.49
   7  11  -7    0.48    0.50
   6  11  -7    2.88    0.70
   6  11  -7    3.33    0.64
   5  11  -7    6.36    0.73
   5  11  -7    7.54    0.86
   4  11  -7    1.52    0.52
   4  11  -7    1.74    0.47
   3  11  -7    0.42    0.37
   3  11  -7    0.49    0.38
   2  11  -7    0.73    0.40
   2  11  -7    0.55    0.36
   1  11  -7    0.55    0.33
   1  11  -7    0.01    0.34
   0  11  -7   13.42    0.76
   0  11  -7   13.99    0.73
  -1  11  -7    0.14    0.33
  -1  11  -7    0.27    0.29
  -2  11  -7   12.75    0.64
  -2  11  -7   12.81    0.70
  -3  11  -7    9.38    0.69
  -3  11  -7    9.39    0.60
  -4  11  -7    2.25    0.32
  -4  11  -7    2.57    0.41
  -5  11  -7   12.08    0.60
  -5  11  -7   12.02    0.74
  -6  11  -7    5.60    0.61
  -6  11  -7    6.82    0.47
  -7  11  -7   19.00    0.97
  -7  11  -7   20.12    0.78
  -8  11  -7    2.91    0.55
  -8  11  -7    3.55    0.39
  -9  11  -7    2.75    0.34
  -9  11  -7    2.55    0.49
 -10  11  -7    3.99    0.63
 -10  11  -7    3.72    0.39
 -11  11  -7   17.13    0.84
 -11  11  -7   16.96    1.00
 -12  11  -7    3.48    0.49
 -12  11  -7    3.90    0.64
 -13  11  -7    0.89    0.42
 -13  11  -7    1.34    0.53
 -14  11  -7    3.23    0.70
 -14  11  -7    2.18    0.51
  10  10  -7    2.98    0.77
   9  10  -7    0.00    0.35
   9  10  -7    0.00    0.45
   8  10  -7    0.36    0.48
   8  10  -7    0.00    0.39
   7  10  -7    0.97    0.47
   7  10  -7    2.08    0.61
   6  10  -7    0.98    0.52
   6  10  -7    1.79    0.54
   5  10  -7    0.03    0.46
   5  10  -7    0.42    0.43
   4  10  -7    0.85    0.43
   4  10  -7    1.07    0.44
   3  10  -7    1.56    0.44
   3  10  -7    2.68    0.43
   2  10  -7    3.59    0.49
   2  10  -7    3.24    0.49
   1  10  -7   18.10    0.97
   1  10  -7   18.12    0.99
   0  10  -7    4.90    0.49
   0  10  -7    4.77    0.43
  -1  10  -7   10.83    0.75
  -1  10  -7   10.41    0.70
  -2  10  -7    8.30    0.60
  -2  10  -7    7.83    0.55
  -3  10  -7   31.09    1.39
  -3  10  -7   31.60    1.33
  -4  10  -7    4.78    0.52
  -4  10  -7    5.42    0.44
  -5  10  -7    3.24    0.55
  -5  10  -7    3.11    0.41
  -6  10  -7   11.25    0.67
  -6  10  -7   12.12    0.87
  -7  10  -7   11.13    0.66
  -7  10  -7    9.95    0.84
  -8  10  -7    0.07    0.24
  -8  10  -7    0.07    0.36
  -9  10  -7    0.48    0.37
  -9  10  -7    0.52    0.28
 -10  10  -7    0.09    0.29
 -10  10  -7    0.09    0.36
 -11  10  -7    1.17    0.42
 -11  10  -7    1.76    0.54
 -12  10  -7    0.11    0.48
 -12  10  -7    0.28    0.35
 -13  10  -7    0.24    0.38
 -13  10  -7    0.02    0.44
 -14  10  -7    0.68    0.56
 -14  10  -7    0.91    0.47
  11   9  -7    2.49    0.65
  11   9  -7    1.97    0.46
  10   9  -7    0.47    0.37
  10   9  -7    0.00    0.48
   9   9  -7    0.04    0.44
   9   9  -7    0.04    0.36
   8   9  -7    0.00    0.28
   8   9  -7    0.00    0.39
   7   9  -7    0.03    0.43
   7   9  -7    0.03    0.38
   6   9  -7    2.61    0.58
   6   9  -7    3.03    0.56
   5   9  -7   13.45    0.96
   5   9  -7   12.16    0.90
   4   9  -7    0.06    0.35
   4   9  -7    0.06    0.32
   3   9  -7    0.02    0.34
   3   9  -7    0.02    0.32
   2   9  -7    7.67    0.67
   2   9  -7    8.01    0.68
   1   9  -7   62.92    2.43
   1   9  -7   60.76    2.55
   0   9  -7    0.35    0.28
   0   9  -7    0.68    0.32
  -1   9  -7    4.01    0.45
  -1   9  -7    3.98    0.48
  -2   9  -7    2.64    0.39
  -2   9  -7    1.99    0.34
  -3   9  -7    4.16    0.48
  -3   9  -7    3.42    0.49
  -4   9  -7    0.30    0.29
  -4   9  -7    0.43    0.24
  -5   9  -7    0.45    0.31
  -5   9  -7    0.37    0.22
  -6   9  -7    4.55    0.48
  -6   9  -7    3.67    0.32
  -7   9  -7    9.85    0.60
  -7   9  -7   10.47    0.76
  -8   9  -7   21.31    0.91
  -8   9  -7   22.10    1.03
  -9   9  -7    0.95    0.34
  -9   9  -7    1.10    0.45
 -10   9  -7    0.39    0.34
 -10   9  -7    0.25    0.40
 -11   9  -7    0.17    0.41
 -11   9  -7    0.21    0.36
 -12   9  -7    0.37    0.39
 -13   9  -7    0.02    0.43
 -14   9  -7    1.57    0.54
  12   8  -7    0.02    0.57
  11   8  -7    0.04    0.52
  11   8  -7    0.81    0.37
  10   8  -7    0.00    0.55
  10   8  -7    0.25    0.37
   9   8  -7    0.12    0.51
   9   8  -7    0.12    0.29
   8   8  -7    7.87    0.76
   8   8  -7    5.93    0.63
   7   8  -7    4.04    0.64
   7   8  -7    5.29    0.72
   6   8  -7    1.41    0.42
   6   8  -7    2.28    0.46
   5   8  -7    1.54    0.47
   5   8  -7    1.52    0.44
   4   8  -7    0.48    0.36
   4   8  -7    0.01    0.36
   3   8  -7    8.58    0.71
   3   8  -7    8.90    0.75
   2   8  -7    0.99    0.36
   2   8  -7    1.15    0.32
   1   8  -7    5.87    0.60
   1   8  -7    5.01    0.60
   0   8  -7    7.99    0.55
   0   8  -7    8.58    0.55
  -1   8  -7   18.83    0.77
  -1   8  -7   20.30    0.79
  -2   8  -7   13.55    0.73
  -2   8  -7   13.15    0.70
  -3   8  -7    0.10    0.21
  -3   8  -7    0.22    0.26
  -4   8  -7    5.50    0.45
  -4   8  -7    5.63    0.56
  -5   8  -7    2.42    0.24
  -5   8  -7    3.17    0.33
  -6   8  -7   28.27    1.15
  -6   8  -7   30.22    1.07
  -7   8  -7    1.49    0.34
  -7   8  -7    1.16    0.41
  -8   8  -7    0.00    0.29
  -8   8  -7    0.03    0.35
  -9   8  -7    0.00    0.30
 -10   8  -7    4.91    0.51
 -11   8  -7   29.56    1.32
 -12   8  -7    9.21    0.73
 -13   8  -7    1.07    0.47
 -14   8  -7    1.46    0.55
 -15   8  -7    6.12    0.80
  12   7  -7    1.03    0.41
  12   7  -7    0.68    0.60
  11   7  -7    0.18    0.21
  11   7  -7    0.00    0.55
  10   7  -7    1.97    0.63
   9   7  -7    0.21    0.47
   9   7  -7    0.01    0.15
   8   7  -7    0.17    0.26
   8   7  -7    0.01    0.40
   7   7  -7    0.14    0.44
   7   7  -7    0.69    0.36
   6   7  -7    2.01    0.49
   6   7  -7    2.17    0.57
   5   7  -7    1.05    0.45
   5   7  -7    0.71    0.48
   4   7  -7   33.76    1.58
   4   7  -7   32.99    1.71
   3   7  -7    6.11    0.45
   3   7  -7    5.36    0.48
   2   7  -7   22.97    1.01
   2   7  -7   23.64    1.11
   1   7  -7    1.73    0.25
   1   7  -7    1.64    0.29
   0   7  -7    5.92    0.48
   0   7  -7    5.46    0.52
  -1   7  -7   83.75    2.42
  -1   7  -7   83.78    2.54
  -2   7  -7    1.74    0.33
  -2   7  -7    2.06    0.36
  -3   7  -7    3.59    0.30
  -3   7  -7    3.29    0.35
  -4   7  -7    1.35    0.26
  -4   7  -7    0.78    0.19
  -5   7  -7   23.60    1.02
  -5   7  -7   23.10    0.96
  -6   7  -7  146.07    5.49
  -7   7  -7   41.49    1.46
  -8   7  -7    0.00    0.27
  -9   7  -7   21.74    1.09
 -10   7  -7    4.37    0.61
 -11   7  -7   36.31    1.57
 -12   7  -7    0.07    0.34
 -13   7  -7    7.91    0.82
 -14   7  -7    0.05    0.48
 -15   7  -7    0.49    0.57
  13   6  -7    0.00    0.60
  12   6  -7    0.64    0.56
  12   6  -7    1.47    0.42
  11   6  -7    0.15    0.49
  11   6  -7    1.41    0.39
  10   6  -7    9.47    1.05
  10   6  -7   10.08    0.81
   9   6  -7    1.20    0.48
   9   6  -7    0.83    0.34
   8   6  -7   11.86    0.85
   8   6  -7   11.16    1.04
   7   6  -7    9.15    0.62
   6   6  -7    0.33    0.09
   6   6  -7    0.52    0.36
   5   6  -7    7.63    0.64
   4   6  -7   16.08    1.03
   4   6  -7   18.21    0.94
   3   6  -7   15.18    0.75
   3   6  -7   14.14    0.84
   2   6  -7   15.10    0.82
   2   6  -7   14.19    0.71
   1   6  -7   32.41    0.94
   1   6  -7   31.02    1.01
   0   6  -7   39.34    1.83
   0   6  -7   42.03    1.97
  -1   6  -7    2.53    0.32
  -1   6  -7    2.50    0.34
  -2   6  -7    7.44    0.62
  -2   6  -7    7.44    0.62
  -3   6  -7   88.72    2.76
  -3   6  -7   87.37    2.85
  -4   6  -7    1.21    0.30
  -4   6  -7    1.43    0.35
  -5   6  -7   88.61    3.32
  -6   6  -7   12.61    0.71
  -7   6  -7   72.47    2.61
  -8   6  -7    1.02    0.37
  -9   6  -7    1.39    0.39
 -10   6  -7   29.50    1.54
 -11   6  -7    2.63    0.53
 -12   6  -7    0.30    0.49
 -13   6  -7    2.95    0.62
 -14   6  -7    0.64    0.58
 -15   6  -7    3.57    0.73
  14   5  -7    0.69    0.61
  13   5  -7    1.09    0.58
  12   5  -7    4.37    0.51
  12   5  -7    3.82    0.71
  11   5  -7   11.13    0.79
  11   5  -7    9.80    1.09
  10   5  -7    3.59    0.42
  10   5  -7    2.14    0.53
   9   5  -7    0.27    0.44
   9   5  -7    0.39    0.30
   8   5  -7    6.74    0.71
   8   5  -7    8.31    0.60
   7   5  -7    1.53    0.30
   7   5  -7    1.68    0.50
   6   5  -7    6.27    0.47
   6   5  -7    5.87    0.58
   5   5  -7    1.24    0.27
   5   5  -7    1.22    0.34
   4   5  -7    7.86    0.55
   4   5  -7    9.90    0.71
   3   5  -7    5.08    0.51
   2   5  -7    1.24    0.24
   2   5  -7    1.52    0.32
   1   5  -7   84.31    3.25
   1   5  -7   85.75    3.01
   0   5  -7    4.46    0.50
   0   5  -7    5.04    0.47
  -1   5  -7   49.35    2.32
  -1   5  -7   48.07    2.19
  -2   5  -7    0.41    0.23
  -2   5  -7    0.22    0.21
  -3   5  -7   35.31    1.72
  -4   5  -7   17.30    0.98
  -5   5  -7   92.88    2.96
  -6   5  -7   13.29    0.72
  -7   5  -7    3.26    0.41
  -8   5  -7    6.88    0.58
  -9   5  -7    4.51    0.53
 -10   5  -7    1.02    0.45
 -11   5  -7   15.16    1.05
 -12   5  -7    3.78    0.66
 -13   5  -7    5.55    0.68
 -14   5  -7    0.06    0.46
 -15   5  -7    4.36    0.83
  14   4  -7    0.01    0.48
  13   4  -7    0.86    0.49
  12   4  -7    0.77    0.34
  12   4  -7    0.40    0.50
  11   4  -7    5.64    0.47
  11   4  -7    6.17    0.69
  10   4  -7    1.27    0.50
  10   4  -7    0.54    0.26
   9   4  -7    1.34    0.47
   9   4  -7    1.43    0.31
   8   4  -7    1.69    0.41
   8   4  -7    1.33    0.25
   7   4  -7   25.30    1.39
   7   4  -7   28.72    1.17
   6   4  -7    5.65    0.31
   6   4  -7    4.45    0.42
   5   4  -7    0.59    0.25
   5   4  -7    0.68    0.36
   4   4  -7   12.18    0.73
   4   4  -7   10.94    0.88
   3   4  -7   50.70    1.85
   3   4  -7   51.02    1.62
   2   4  -7   44.81    2.21
   1   4  -7    9.49    0.68
   1   4  -7    9.25    0.57
   0   4  -7   19.90    0.48
   0   4  -7   19.21    0.58
  -1   4  -7   52.31    1.31
  -1   4  -7   53.86    1.39
  -2   4  -7    0.00    0.17
  -3   4  -7    5.31    0.37
  -4   4  -7   11.24    0.69
  -5   4  -7   41.38    1.40
  -6   4  -7    5.68    0.53
  -7   4  -7    0.54    0.33
  -8   4  -7   16.41    1.03
  -9   4  -7    0.06    0.33
 -10   4  -7   12.87    0.87
 -11   4  -7    1.47    0.48
 -12   4  -7    0.00    0.41
 -13   4  -7    0.40    0.48
 -14   4  -7    0.87    0.63
 -15   4  -7    2.21    0.63
  15   3  -7    0.31    0.57
  14   3  -7    0.01    0.56
  13   3  -7    0.50    0.57
  12   3  -7    2.24    0.55
 -12  -3   7    2.93    0.38
  11   3  -7    0.47    0.23
  11   3  -7    0.08    0.44
 -11  -3   7    1.15    0.30
  10   3  -7    0.43    0.47
  10   3  -7    1.69    0.32
 -10  -3   7    1.68    0.35
   9   3  -7    0.82    0.25
   9   3  -7    0.34    0.40
  -9  -3   7    0.77    0.32
   8   3  -7    2.25    0.47
   8   3  -7    1.92    0.27
  -8  -3   7    2.49    0.34
   7   3  -7   63.95    2.49
   7   3  -7   66.84    2.12
  -7  -3   7   66.76    2.23
   6   3  -7    0.12    0.29
   6   3  -7    0.12    0.17
  -6  -3   7    0.08    0.21
   5   3  -7    1.20    0.43
   5   3  -7    1.11    0.27
  -5  -3   7    1.16    0.34
   4   3  -7   47.98    1.87
   4   3  -7   53.27    1.62
   3   3  -7    9.94    0.38
   3   3  -7    9.82    0.24
   2   3  -7   28.74    0.86
   2   3  -7   29.47    0.70
   1   3  -7    0.87    0.34
   0   3  -7   10.00    1.38
  -1   3  -7   39.34    2.48
  -2   3  -7    1.20    0.18
  -3   3  -7    8.62    0.39
  -4   3  -7   18.04    1.15
  -5   3  -7    0.60    0.28
  -6   3  -7    8.19    0.56
  -7   3  -7    0.25    0.33
  -8   3  -7    7.87    0.62
  -9   3  -7   12.44    0.87
 -10   3  -7    1.55    0.46
 -11   3  -7   12.34    0.99
 -12   3  -7    4.72    0.70
 -13   3  -7   12.86    1.17
 -14   3  -7    0.81    0.55
 -15   3  -7    0.01    0.58
  15   2  -7    0.27    0.58
  14   2  -7    2.65    0.69
  13   2  -7    1.30    0.56
 -13  -2   7    2.40    0.41
  12   2  -7    1.44    0.57
 -12  -2   7    2.11    0.42
  11   2  -7    2.32    0.54
 -11  -2   7    2.31    0.40
  10   2  -7    0.35    0.44
 -10  -2   7    1.10    0.36
   9   2  -7   20.43    0.67
   9   2  -7   19.86    0.99
  -9  -2   7   20.59    0.85
   8   2  -7    5.27    0.30
   8   2  -7    4.67    0.52
  -8  -2   7    5.27    0.42
   7   2  -7   30.33    1.19
   7   2  -7   30.62    0.87
  -7  -2   7   31.17    1.04
   6   2  -7    0.33    0.26
   6   2  -7    0.06    0.13
  -6  -2   7    0.06    0.25
   5   2  -7    1.22    0.16
   5   2  -7    1.03    0.31
  -5  -2   7    1.27    0.14
  -5  -2   7    1.00    0.25
   4   2  -7  133.53    5.21
   4   2  -7  122.15    5.75
  -4  -2   7  133.46    5.52
   3   2  -7   12.18    0.65
   3   2  -7   13.12    0.89
  -3  -2   7   12.50    0.78
   2   2  -7    8.78    0.27
   2   2  -7    8.66    0.43
   1   2  -7    5.93    0.46
   0   2  -7   59.95    1.65
  -1   2  -7   36.36    1.43
  -2   2  -7    0.04    0.17
  -3   2  -7    1.51    0.18
  -4   2  -7   30.72    1.78
  -5   2  -7   47.40    2.03
  -6   2  -7    9.90    0.70
  -7   2  -7    4.59    0.47
  -8   2  -7   16.88    1.06
  -9   2  -7   41.27    1.91
 -10   2  -7    4.96    0.64
 -11   2  -7   12.48    0.93
 -12   2  -7    2.91    0.60
 -13   2  -7   15.27    1.15
 -14   2  -7    2.43    0.71
  15   1  -7    0.34    0.51
  14   1  -7    1.51    0.57
 -14  -1   7    1.44    0.43
  13   1  -7    0.99    0.56
 -13  -1   7    0.71    0.38
  12   1  -7   10.54    0.90
 -12  -1   7   11.94    0.76
  11   1  -7    9.47    0.88
 -11  -1   7    9.83    0.70
  10   1  -7    8.58    0.75
 -10  -1   7    8.01    0.57
   9   1  -7    1.79    0.40
  -9  -1   7    2.04    0.35
   8   1  -7   34.12    1.50
  -8  -1   7   33.69    1.31
   7   1  -7    7.77    0.73
  -7  -1   7    6.97    0.61
  -7  -1   7    7.09    0.39
   6   1  -7    8.25    0.56
   6   1  -7    9.25    0.26
  -6  -1   7    9.28    0.26
  -6  -1   7   10.91    0.56
   5   1  -7   26.98    1.12
   5   1  -7   27.77    0.78
  -5  -1   7   28.49    1.04
   4   1  -7   36.93    1.43
   4   1  -7   37.13    1.11
  -4  -1   7   39.48    1.33
   3   1  -7    0.86    0.25
   3   1  -7    1.49    0.12
  -3  -1   7    1.60    0.23
   2   1  -7    1.73    0.24
  -2  -1   7    1.46    0.18
   1   1  -7    0.10    0.18
  -1  -1   7    0.78    0.19
   0   1  -7  148.46    5.85
  -1   1  -7   48.78    2.32
  -2   1  -7   38.04    1.17
  -3   1  -7   15.29    0.97
  -4   1  -7   17.45    0.66
  -5   1  -7  184.55    6.61
  -6   1  -7    1.34    0.42
  -7   1  -7   18.02    1.03
  -8   1  -7    0.45    0.35
  -9   1  -7   10.82    0.80
 -10   1  -7   28.30    1.49
 -11   1  -7    0.24    0.44
 -12   1  -7    2.16    0.61
 -13   1  -7    0.10    0.49
 -14   1  -7    0.29    0.57
  16   0  -7    4.31    0.80
  15   0  -7    0.01    0.40
  14   0  -7    6.31    0.86
 -14   0   7    8.06    0.68
  13   0  -7    0.90    0.45
 -13   0   7    0.41    0.36
  12   0  -7    4.38    0.71
 -12   0   7    4.83    0.60
  11   0  -7   20.65    1.18
 -11   0   7   20.57    1.01
  10   0  -7   14.71    0.99
 -10   0   7   15.69    0.91
   9   0  -7   17.39    1.14
  -9   0   7   17.39    0.73
  -9   0   7   17.93    1.05
   8   0  -7    0.71    0.34
  -8   0   7    0.49    0.08
  -8   0   7    0.67    0.32
   7   0  -7   10.21    0.66
  -7   0   7   12.21    0.66
   6   0  -7   38.03    1.63
  -6   0   7   39.00    1.50
   5   0  -7   25.19    1.10
  -5   0   7   26.65    1.03
   4   0  -7   37.02    1.84
  -4   0   7   40.64    1.75
   3   0  -7   47.20    1.69
   3   0  -7   47.03    2.03
  -3   0   7   48.87    1.93
   2   0  -7    0.30    0.22
   2   0  -7    0.19    0.12
  -2   0   7    0.47    0.20
   1   0  -7  114.03    4.26
  -1   0   7  114.02    4.16
   0   0  -7   61.68    2.41
   0   0   7   64.17    2.39
  -1   0  -7  166.63    4.92
  -2   0  -7    6.81    0.36
  -3   0  -7   36.71    1.55
  -4   0  -7   22.30    0.93
  -5   0  -7   34.08    1.21
  -6   0  -7   24.72    1.00
  -7   0  -7    5.31    0.50
  -8   0  -7    2.83    0.59
  -9   0  -7   11.78    0.86
 -10   0  -7    0.58    0.44
 -11   0  -7    7.11    0.82
 -12   0  -7    0.44    0.49
 -13   0  -7    0.89    0.54
 -14   0  -7    4.20    0.83
  16  -1  -7    1.67    0.58
  15  -1  -7    0.46    0.46
 -15   1   7    0.00    0.43
  14  -1  -7    6.11    0.84
 -14   1   7    7.32    0.70
  13  -1  -7    2.71    0.59
 -13   1   7    2.95    0.53
  12  -1  -7    9.18    0.89
 -12   1   7    8.54    0.79
  11  -1  -7    0.88    0.44
 -11   1   7    1.05    0.41
  10  -1  -7    0.00    0.38
 -10   1   7    0.19    0.36
   9  -1  -7   14.47    0.87
  -9   1   7   13.25    0.48
  -9   1   7   14.52    0.47
  -9   1   7   13.32    0.80
   8  -1  -7   17.08    1.02
  -8   1   7   17.48    0.98
   7  -1  -7   48.32    1.62
  -7   1   7   50.56    1.54
   6  -1  -7    1.50    0.33
  -6   1   7    1.10    0.29
   5  -1  -7   49.04    2.30
  -5   1   7   51.68    2.21
   4  -1  -7    9.93    0.81
  -4   1   7    9.72    0.76
   3  -1  -7   75.05    1.98
   3  -1  -7   71.34    2.31
  -3   1   7   70.09    2.20
   2  -1  -7   26.47    1.15
  -2   1   7   23.64    1.09
   1  -1  -7   89.18    3.58
  -1   1   7   84.64    3.51
   0  -1  -7    5.88    0.32
   0   1   7    5.40    0.35
   0   1   7    5.26    0.31
  -1  -1  -7   65.09    2.36
   1   1   7   69.35    2.34
   1   1   7   66.95    2.25
  -2  -1  -7    5.98    0.46
   2   1   7    6.37    0.47
  -3  -1  -7    0.24    0.23
   3   1   7    0.14    0.20
  -4  -1  -7    0.33    0.23
   4   1   7    0.83    0.24
  -5  -1  -7    4.26    0.38
  -6  -1  -7    2.29    0.40
  -7  -1  -7    1.80    0.47
  -8  -1  -7    1.61    0.44
  -9  -1  -7   14.65    0.94
 -10  -1  -7    4.28    0.61
 -11  -1  -7    0.05    0.44
 -12  -1  -7    2.89    0.73
 -13  -1  -7    3.94    0.86
  16  -2  -7    2.08    0.59
 -16   2   7    1.52    0.50
  15  -2  -7    0.89    0.48
 -15   2   7    0.11    0.43
  14  -2  -7    2.62    0.55
 -14   2   7    2.90    0.53
  13  -2  -7    3.04    0.57
 -13   2   7    2.69    0.52
  12  -2  -7   17.45    1.08
 -12   2   7   16.83    1.01
  11  -2  -7    4.49    0.63
 -11   2   7    3.85    0.57
 -11   2   7    4.06    0.31
  10  -2  -7    5.72    0.60
 -10   2   7    7.10    0.31
 -10   2   7    7.35    0.62
 -10   2   7    7.69    0.32
   9  -2  -7    1.21    0.32
  -9   2   7    0.18    0.32
   8  -2  -7    0.02    0.25
  -8   2   7    0.16    0.35
   7  -2  -7   26.61    1.39
  -7   2   7   26.25    1.38
   6  -2  -7    3.14    0.46
  -6   2   7    3.68    0.47
   5  -2  -7   17.57    1.28
  -5   2   7   20.00    1.24
   4  -2  -7    9.17    0.65
   4  -2  -7   10.31    0.40
  -4   2   7    9.95    0.64
  -4   2   7   10.01    0.39
   3  -2  -7    5.96    0.23
   3  -2  -7    5.20    0.38
  -3   2   7    4.79    0.20
  -3   2   7    5.35    0.35
   2  -2  -7    6.52    0.33
  -2   2   7    5.75    0.22
  -2   2   7    5.60    0.32
   1  -2  -7    3.00    0.22
  -1   2   7    3.13    0.20
  -1   2   7    3.49    0.28
   0  -2  -7   61.50    1.84
   0   2   7   59.75    1.74
   0   2   7   61.67    1.85
  -1  -2  -7    0.40    0.18
   1   2   7    0.40    0.20
   1   2   7    0.40    0.20
  -2  -2  -7   51.62    2.27
   2   2   7   54.26    2.19
   2   2   7   54.24    2.22
  -3  -2  -7    2.60    0.30
   3   2   7    1.84    0.29
  -4  -2  -7    0.04    0.25
   4   2   7    0.12    0.26
  -5  -2  -7   27.95    1.47
   5   2   7   26.27    1.42
  -6  -2  -7    2.03    0.43
   6   2   7    2.01    0.44
  -7  -2  -7    8.22    0.67
   7   2   7    9.10    0.68
  -8  -2  -7    1.34    0.42
  -9  -2  -7    7.40    0.82
 -10  -2  -7    1.19    0.48
 -11  -2  -7   13.50    1.11
 -12  -2  -7    4.33    0.72
 -13  -2  -7    7.08    0.95
  16  -3  -7    2.26    0.58
 -16   3   7    2.65    0.57
  15  -3  -7    0.02    0.39
 -15   3   7    0.04    0.43
  14  -3  -7    1.09    0.49
 -14   3   7    0.51    0.44
  13  -3  -7    5.55    0.72
 -13   3   7    6.29    0.67
  12  -3  -7    1.39    0.42
 -12   3   7    1.96    0.44
  11  -3  -7    7.07    0.63
 -11   3   7    6.71    0.34
 -11   3   7    7.03    0.65
  10  -3  -7   14.53    0.90
 -10   3   7   16.06    0.58
 -10   3   7   14.80    0.56
 -10   3   7   17.41    1.01
   9  -3  -7   10.75    0.69
  -9   3   7   11.11    0.35
  -9   3   7   11.25    0.37
  -9   3   7   11.24    0.75
   8  -3  -7    0.70    0.39
  -8   3   7    0.94    0.45
   7  -3  -7    0.08    0.29
  -7   3   7    0.02    0.35
   6  -3  -7    2.18    0.43
  -6   3   7    2.01    0.16
  -6   3   7    2.42    0.46
   5  -3  -7   47.50    1.40
   5  -3  -7   48.90    1.74
  -5   3   7   46.35    1.67
  -5   3   7   44.74    1.38
   4  -3  -7   37.87    1.47
   4  -3  -7   31.97    1.74
  -4   3   7   38.11    1.72
  -4   3   7   36.25    1.45
   3  -3  -7    4.73    0.56
  -3   3   7    5.62    0.38
  -3   3   7    5.70    0.56
   2  -3  -7   12.58    0.84
  -2   3   7   13.14    0.91
  -2   3   7   12.13    0.74
   1  -3  -7   10.26    0.62
  -1   3   7   10.10    0.70
  -1   3   7    9.46    0.58
   0  -3  -7   84.81    2.80
   0   3   7   81.25    2.77
   0   3   7   79.70    2.66
  -1  -3  -7    1.36    0.20
   1   3   7    1.31    0.25
   1   3   7    1.44    0.25
  -2  -3  -7   15.89    0.66
   2   3   7   16.40    0.67
   2   3   7   16.56    0.69
  -3  -3  -7    6.16    0.51
   3   3   7    7.92    0.57
  -4  -3  -7   30.69    1.24
   4   3   7   31.58    1.23
  -5  -3  -7  120.14    4.09
   5   3   7  122.19    3.92
  -6  -3  -7    0.52    0.36
   6   3   7    0.52    0.42
  -7  -3  -7   17.85    1.01
   7   3   7   18.24    1.00
  -8  -3  -7    1.55    0.44
   8   3   7    2.51    0.45
  -9  -3  -7    7.90    0.77
   9   3   7    8.56    0.75
 -10  -3  -7    0.58    0.46
 -11  -3  -7    7.97    0.88
 -12  -3  -7    2.83    0.61
  16  -4  -7    0.69    0.51
 -16   4   7    0.85    0.49
  15  -4  -7    2.41    0.56
 -15   4   7    1.79    0.54
  14  -4  -7    0.02    0.39
 -14   4   7    0.02    0.42
  13  -4  -7    3.73    0.59
 -13   4   7    5.01    0.64
  12  -4  -7    0.84    0.32
 -12   4   7    0.33    0.41
  11  -4  -7    6.91    0.71
 -11   4   7    6.83    0.71
 -11   4   7    6.41    0.37
  10  -4  -7   18.61    1.04
 -10   4   7   17.84    0.67
 -10   4   7   18.85    1.07
   9  -4  -7   15.59    0.87
  -9   4   7   14.81    0.55
  -9   4   7   15.43    0.58
  -9   4   7   16.91    1.02
   8  -4  -7    1.31    0.33
  -8   4   7    1.49    0.42
  -8   4   7    1.27    0.15
   7  -4  -7    0.73    0.30
  -7   4   7    0.53    0.35
  -7   4   7    0.61    0.13
   6  -4  -7    1.81    0.23
   6  -4  -7    2.04    0.46
  -6   4   7    2.11    0.51
  -6   4   7    1.37    0.24
   5  -4  -7  123.22    5.09
  -5   4   7  121.51    4.58
  -5   4   7  120.42    4.97
   4  -4  -7    7.68    0.68
  -4   4   7    9.39    0.49
  -4   4   7    9.06    0.69
   3  -4  -7    3.65    0.34
  -3   4   7    4.84    0.38
  -3   4   7    3.85    0.24
   2  -4  -7   13.06    0.50
  -2   4   7   12.36    0.45
  -2   4   7   12.73    0.62
   1  -4  -7   19.32    0.99
  -1   4   7   19.88    0.98
  -1   4   7   17.72    1.04
   0  -4  -7   27.09    1.10
   0   4   7   26.24    1.08
   0   4   7   25.70    1.11
  -1  -4  -7   41.97    1.60
   1   4   7   40.37    1.56
   1   4   7   40.40    1.57
  -2  -4  -7   12.10    0.68
   2   4   7   12.58    0.71
   2   4   7    9.22    0.60
  -3  -4  -7   28.94    1.22
   3   4   7   27.34    1.14
   3   4   7   30.38    1.26
  -4  -4  -7   11.23    0.70
   4   4   7   11.64    0.74
  -5  -4  -7  130.91    4.86
   5   4   7  140.26    4.68
  -6  -4  -7    0.05    0.33
   6   4   7    0.05    0.35
  -7  -4  -7   42.49    1.93
   7   4   7   43.92    1.90
  -8  -4  -7    0.88    0.48
   8   4   7    0.80    0.52
  -9  -4  -7    1.75    0.47
   9   4   7    1.57    0.45
 -10  -4  -7    2.78    0.57
  10   4   7    2.09    0.53
 -11  -4  -7    0.44    0.47
 -12  -4  -7    2.22    0.64
  16  -5  -7    1.09    0.52
 -16   5   7    0.67    0.47
  15  -5  -7    0.06    0.38
 -15   5   7    0.00    0.46
  14  -5  -7   17.58    1.06
 -14   5   7   17.18    1.07
  13  -5  -7    3.93    0.55
 -13   5   7    3.78    0.61
  12  -5  -7    0.91    0.41
 -12   5   7    1.34    0.52
  11  -5  -7    9.42    0.66
 -11   5   7    9.66    0.38
 -11   5   7    9.54    0.73
  10  -5  -7    2.98    0.43
 -10   5   7    2.87    0.21
 -10   5   7    2.32    0.48
   9  -5  -7    8.44    0.64
  -9   5   7    8.19    0.71
  -9   5   7    7.49    0.37
   8  -5  -7    1.72    0.29
  -8   5   7    1.33    0.15
  -8   5   7    0.76    0.37
   7  -5  -7    0.16    0.25
  -7   5   7    0.03    0.34
  -7   5   7    0.14    0.15
   6  -5  -7   28.88    1.58
  -6   5   7   28.39    1.61
  -6   5   7   27.90    1.32
   5  -5  -7    0.55    0.36
  -5   5   7    0.31    0.22
  -5   5   7    0.45    0.40
   4  -5  -7    6.52    0.68
  -4   5   7    7.72    0.53
  -4   5   7    7.89    0.73
   3  -5  -7   42.54    1.93
  -3   5   7   45.29    1.92
  -3   5   7   44.43    1.74
   2  -5  -7    2.01    0.28
  -2   5   7    1.82    0.33
  -2   5   7    1.67    0.28
   1  -5  -7  141.81    5.03
  -1   5   7  139.12    4.98
  -1   5   7  138.19    4.78
   0  -5  -7    1.06    0.24
   0   5   7    0.81    0.28
   0   5   7    1.04    0.29
  -1  -5  -7   61.49    2.23
   1   5   7   60.72    2.19
   1   5   7   60.09    2.18
  -2  -5  -7    1.83    0.31
   2   5   7    2.31    0.37
  -3  -5  -7   42.61    1.69
   3   5   7   39.75    1.65
   3   5   7   40.14    1.57
  -4  -5  -7   49.87    1.94
   4   5   7   47.10    1.89
  -5  -5  -7    0.05    0.30
   5   5   7    0.05    0.39
  -6  -5  -7    1.92    0.43
   6   5   7    1.17    0.40
  -7  -5  -7    0.01    0.38
   7   5   7    0.01    0.36
  -8  -5  -7    5.45    0.74
   8   5   7    5.88    0.80
  -9  -5  -7    6.16    0.80
   9   5   7    6.73    0.85
 -10  -5  -7    1.85    0.54
  10   5   7    2.10    0.61
 -11  -5  -7    1.28    0.59
  11   5   7    0.87    0.48
  16  -6  -7    1.89    0.52
 -16   6   7    1.44    0.57
  15  -6  -7    4.07    0.64
 -15   6   7    3.75    0.71
  14  -6  -7    0.81    0.41
 -14   6   7    0.53    0.47
  13  -6  -7    2.66    0.50
 -13   6   7    2.41    0.55
  12  -6  -7    1.72    0.44
 -12   6   7    1.87    0.52
  11  -6  -7    8.66    0.70
 -11   6   7    8.97    0.46
 -11   6   7    8.45    0.84
  10  -6  -7    3.72    0.51
 -10   6   7    3.29    0.60
 -10   6   7    4.03    0.33
   9  -6  -7    5.67    0.54
  -9   6   7    5.63    0.65
  -9   6   7    5.73    0.35
   8  -6  -7    7.11    0.57
  -8   6   7    5.63    0.38
  -8   6   7    5.81    0.70
  -7   6   7   52.77    2.08
  -7   6   7   54.62    1.73
  -6   6   7   67.75    2.14
  -6   6   7   68.93    2.45
  -5   6   7  213.57    6.58
  -5   6   7  211.34    7.02
   4  -6  -7    0.01    0.09
  -4   6   7    0.21    0.22
  -4   6   7    0.32    0.33
  -3   6   7   14.56    0.75
  -3   6   7   13.72    0.61
   2  -6  -7    0.15    0.19
  -2   6   7    0.42    0.29
  -2   6   7    0.15    0.19
   1  -6  -7   64.81    2.26
  -1   6   7   64.01    2.29
  -1   6   7   63.41    2.20
   0  -6  -7   13.87    0.65
   0   6   7   13.14    0.73
   0   6   7   13.67    0.74
  -1  -6  -7    1.72    0.31
   1   6   7    1.92    0.32
   1   6   7    1.56    0.36
  -2  -6  -7    3.18    0.35
   2   6   7    1.90    0.30
   2   6   7    2.22    0.42
  -3  -6  -7    4.35    0.44
   3   6   7    3.83    0.49
   3   6   7    4.07    0.39
  -4  -6  -7   26.19    1.26
   4   6   7   24.65    1.25
  -5  -6  -7   25.67    1.38
   5   6   7   25.27    1.42
  -6  -6  -7    0.02    0.31
   6   6   7    0.06    0.37
  -7  -6  -7    1.21    0.42
   7   6   7    1.24    0.50
  -8  -6  -7    0.61    0.43
   8   6   7    0.22    0.43
  -9  -6  -7    6.41    0.77
   9   6   7    6.65    0.77
 -10  -6  -7    2.41    0.59
  10   6   7    1.83    0.58
 -11  -6  -7    0.24    0.50
  11   6   7    0.83    0.56
  16  -7  -7    0.02    0.39
 -16   7   7    0.02    0.51
  15  -7  -7    5.14    0.68
 -15   7   7    5.61    0.79
  14  -7  -7    1.21    0.42
 -14   7   7    1.72    0.53
  13  -7  -7   19.92    1.10
 -13   7   7   20.08    1.23
  12  -7  -7    3.31    0.49
 -12   7   7    3.03    0.59
  11  -7  -7    0.56    0.30
 -11   7   7    0.67    0.20
 -11   7   7    0.43    0.44
  10  -7  -7    8.00    0.61
 -10   7   7   10.40    0.86
 -10   7   7   10.54    0.49
  -9   7   7   22.73    1.29
  -9   7   7   24.63    0.92
   8  -7  -7   15.91    0.84
  -8   7   7   15.01    1.04
  -8   7   7   15.46    0.69
   7  -7  -7   23.61    0.95
  -7   7   7   22.50    0.82
  -7   7   7   21.56    1.12
   6  -7  -7    0.53    0.27
  -6   7   7    0.32    0.24
  -6   7   7    0.58    0.46
   5  -7  -7   87.06    2.84
  -5   7   7   87.92    2.87
  -5   7   7   85.59    2.59
   4  -7  -7    3.58    0.35
  -4   7   7    2.84    0.28
  -4   7   7    2.67    0.36
   3  -7  -7    2.87    0.39
  -3   7   7    2.29    0.35
  -3   7   7    2.26    0.44
   2  -7  -7    0.68    0.19
  -2   7   7    0.86    0.34
  -2   7   7    1.08    0.30
   1  -7  -7    0.33    0.16
  -1   7   7    0.04    0.26
  -1   7   7    0.14    0.30
   0  -7  -7    4.68    0.41
   0   7   7    4.57    0.45
   0   7   7    4.89    0.48
  -1  -7  -7    3.67    0.47
   1   7   7    3.72    0.55
  -2  -7  -7    5.59    0.58
   2   7   7    5.70    0.53
   2   7   7    5.16    0.62
  -3  -7  -7    2.35    0.42
   3   7   7    1.60    0.35
   3   7   7    1.56    0.46
  -4  -7  -7   10.62    0.77
   4   7   7   10.35    0.81
   4   7   7    6.74    0.60
  -5  -7  -7    1.33    0.38
   5   7   7    1.40    0.50
  -6  -7  -7    0.14    0.33
   6   7   7    0.00    0.37
  -7  -7  -7    6.08    0.65
   7   7   7    7.30    0.74
  -8  -7  -7    4.06    0.60
   8   7   7    4.63    0.66
  -9  -7  -7    2.55    0.57
   9   7   7    2.55    0.61
 -10  -7  -7    0.01    0.43
  10   7   7    0.05    0.52
  16  -8  -7    0.01    0.38
  15  -8  -7    0.12    0.38
 -15   8   7    0.10    0.48
  14  -8  -7    0.47    0.35
 -14   8   7    0.13    0.55
  13  -8  -7   27.11    1.28
 -13   8   7   27.90    1.54
  12  -8  -7    0.01    0.11
 -12   8   7    0.07    0.45
  11  -8  -7    6.47    0.53
 -11   8   7    5.77    0.39
 -11   8   7    5.40    0.66
  10  -8  -7   11.95    0.69
 -10   8   7   13.03    0.58
 -10   8   7   11.72    0.93
   9  -8  -7    2.48    0.33
  -9   8   7    2.26    0.28
  -9   8   7    1.68    0.48
   8  -8  -7    4.15    0.36
  -8   8   7    3.14    0.52
  -8   8   7    4.05    0.33
   7  -8  -7    0.09    0.22
  -7   8   7    0.10    0.25
  -7   8   7    0.04    0.40
   6  -8  -7    0.18    0.22
  -6   8   7    0.06    0.43
  -6   8   7    0.00    0.25
   5  -8  -7    9.01    0.66
  -5   8   7    7.58    0.60
  -5   8   7    7.27    0.76
   4  -8  -7    4.81    0.47
  -4   8   7    6.14    0.54
  -4   8   7    5.93    0.45
   3  -8  -7    4.72    0.51
  -3   8   7    6.58    0.63
  -3   8   7    5.34    0.50
   2  -8  -7    0.00    0.22
  -2   8   7    0.04    0.29
  -2   8   7    0.15    0.28
   1  -8  -7   14.18    0.64
  -1   8   7   14.97    0.74
  -1   8   7   15.40    0.82
   0  -8  -7    0.01    0.19
   0   8   7    0.01    0.30
   0   8   7    0.24    0.38
  -1  -8  -7    0.00    0.25
   1   8   7    0.00    0.33
   1   8   7    0.00    0.11
  -2  -8  -7    0.24    0.28
   2   8   7    0.21    0.28
   2   8   7    0.16    0.42
  -3  -8  -7    7.17    0.56
   3   8   7    8.47    0.54
   3   8   7    6.24    0.64
  -4  -8  -7    0.51    0.36
   4   8   7    0.03    0.24
   4   8   7    0.77    0.42
  -5  -8  -7    1.42    0.39
   5   8   7    1.72    0.47
  -6  -8  -7    5.90    0.68
   6   8   7    4.97    0.68
  -7  -8  -7   15.98    1.10
   7   8   7   14.50    1.09
  -8  -8  -7    1.49    0.50
   8   8   7    1.27    0.52
  -9  -8  -7    0.40    0.52
   9   8   7    1.05    0.51
  15  -9  -7    0.00    0.26
 -15   9   7    0.69    0.56
  14  -9  -7    0.07    0.22
 -14   9   7    0.00    0.53
  13  -9  -7    5.38    0.58
 -13   9   7    4.22    0.73
  12  -9  -7    0.26    0.28
 -12   9   7    0.00    0.46
 -12   9   7    0.59    0.26
  11  -9  -7    5.46    0.55
 -11   9   7    4.34    0.71
 -11   9   7    4.89    0.43
  10  -9  -7    2.12    0.40
 -10   9   7    2.06    0.35
 -10   9   7    2.00    0.60
   9  -9  -7    1.29    0.36
  -9   9   7    0.74    0.58
  -9   9   7    1.05    0.34
   8  -9  -7   11.30    0.57
  -8   9   7   10.62    0.80
  -8   9   7   10.65    0.55
   7  -9  -7    0.28    0.22
  -7   9   7    0.15    0.43
  -7   9   7    0.22    0.31
   6  -9  -7   11.90    0.69
  -6   9   7   11.10    0.71
  -6   9   7   12.47    1.05
   5  -9  -7   25.52    1.06
  -5   9   7   24.54    1.24
  -5   9   7   24.88    1.04
   4  -9  -7    4.52    0.46
  -4   9   7    5.81    0.52
  -4   9   7    6.68    0.61
   3  -9  -7    0.02    0.27
  -3   9   7    0.30    0.40
  -3   9   7    0.41    0.35
   2  -9  -7    1.84    0.31
  -2   9   7    2.17    0.39
  -2   9   7    2.85    0.47
   1  -9  -7   52.48    1.99
  -1   9   7   48.26    2.05
  -1   9   7   48.09    1.99
   0  -9  -7    0.01    0.22
   0   9   7    0.01    0.30
   0   9   7    0.01    0.36
  -1  -9  -7   20.53    0.96
   1   9   7   18.27    0.99
   1   9   7   19.23    1.06
  -2  -9  -7   11.62    0.73
   2   9   7   10.99    0.73
   2   9   7   10.57    0.81
  -3  -9  -7   12.41    0.85
   3   9   7   13.28    0.83
   3   9   7   13.64    0.96
  -4  -9  -7   13.54    0.90
   4   9   7   13.90    0.97
  -5  -9  -7   12.94    0.86
   5   9   7   12.74    0.93
  -6  -9  -7    0.40    0.43
   6   9   7    0.05    0.42
  -7  -9  -7    8.74    0.82
   7   9   7    8.23    0.87
  -8  -9  -7    0.04    0.36
   8   9   7    0.04    0.42
 -15  10   7    0.99    0.67
 -14  10   7    0.70    0.61
 -13  10   7    0.00    0.49
  12 -10  -7    5.75    0.58
 -12  10   7    3.77    0.46
 -12  10   7    5.03    0.82
  11 -10  -7   17.98    0.88
 -11  10   7   17.53    0.81
 -11  10   7   14.46    1.21
  10 -10  -7    1.49    0.32
 -10  10   7    0.71    0.52
 -10  10   7    1.64    0.34
   9 -10  -7    0.68    0.26
  -9  10   7    0.22    0.47
  -9  10   7    0.44    0.30
   8 -10  -7    0.76    0.24
  -8  10   7    0.53    0.47
  -8  10   7    0.52    0.31
   7 -10  -7    0.17    0.19
  -7  10   7    0.14    0.30
  -7  10   7    0.18    0.48
   6 -10  -7   10.70    0.56
  -6  10   7    7.70    0.79
  -6  10   7    8.32    0.65
   5 -10  -7    6.85    0.53
  -5  10   7    5.78    0.76
  -5  10   7    5.62    0.60
   4 -10  -7    0.04    0.22
  -4  10   7    0.04    0.36
  -4  10   7    1.12    0.41
   3 -10  -7    6.18    0.53
  -3  10   7    7.10    0.63
  -3  10   7    7.02    0.59
   2 -10  -7    0.00    0.25
  -2  10   7    0.24    0.38
  -2  10   7    0.00    0.33
   1 -10  -7   37.78    1.57
  -1  10   7   36.45    1.67
  -1  10   7   37.04    1.69
   0 -10  -7    1.71    0.35
   0  10   7    1.79    0.47
   0  10   7    1.27    0.41
   1  10   7   24.21    1.08
   1  10   7   22.48    1.13
  -2 -10  -7    0.77    0.34
   2  10   7    0.45    0.30
   2  10   7    0.24    0.44
  -3 -10  -7    0.60    0.33
   3  10   7    1.89    0.35
   3  10   7    0.74    0.44
  -4 -10  -7    3.33    0.50
   4  10   7    2.81    0.61
  -5 -10  -7    0.24    0.38
   5  10   7    0.73    0.48
  -6 -10  -7    2.05    0.51
   6  10   7    1.61    0.56
  -7 -10  -7    0.67    0.40
   7  10   7    0.46    0.53
 -14  11   7    0.42    0.54
 -13  11   7    0.26    0.54
 -12  11   7    0.10    0.30
 -12  11   7    0.23    0.50
 -11  11   7    0.03    0.49
 -11  11   7    0.48    0.30
 -10  11   7   15.54    0.76
 -10  11   7   15.33    1.09
  -9  11   7    4.84    0.67
  -9  11   7    5.36    0.47
  -8  11   7    0.05    0.49
  -8  11   7    0.02    0.30
  -7  11   7   20.73    0.97
  -7  11   7   21.66    1.29
  -6  11   7    0.90    0.47
  -6  11   7    0.63    0.34
   5 -11  -7   63.89    2.24
  -5  11   7   58.98    2.26
  -5  11   7   57.47    2.45
  -4  11   7    2.98    0.55
  -4  11   7    3.26    0.58
   3 -11  -7    6.94    0.56
  -3  11   7    7.31    0.64
  -3  11   7    9.11    0.73
   2 -11  -7    6.34    0.55
  -2  11   7    6.87    0.68
  -2  11   7    7.88    0.74
   1 -11  -7    0.90    0.26
  -1  11   7    0.58    0.36
  -1  11   7    0.44    0.37
   0 -11  -7    0.07    0.24
   0  11   7    0.07    0.23
   0  11   7    1.10    0.41
  -1 -11  -7    1.99    0.35
   1  11   7    3.18    0.43
   1  11   7    2.19    0.48
  -2 -11  -7    0.00    0.09
   2  11   7    0.20    0.42
   2  11   7    0.00    0.28
  -3 -11  -7   13.20    0.81
   3  11   7   14.08    0.96
  -4 -11  -7    0.43    0.38
   4  11   7    0.11    0.44
  -5 -11  -7    2.73    0.53
   5  11   7    2.48    0.62
  -6 -11  -7    0.09    0.37
   6  11   7    0.09    0.43
 -13  12   7    8.37    0.93
 -12  12   7    2.25    0.62
 -11  12   7   10.36    0.69
 -11  12   7    9.91    1.01
 -10  12   7    5.61    0.56
 -10  12   7    5.50    0.78
  -9  12   7    6.95    0.59
  -9  12   7    7.24    0.81
  -8  12   7    0.06    0.46
  -8  12   7    0.02    0.34
  -7  12   7   11.59    0.78
  -7  12   7    9.62    0.91
  -6  12   7    6.67    0.76
  -6  12   7    5.56    0.61
  -5  12   7    2.71    0.59
  -5  12   7    2.53    0.50
  -4  12   7    0.03    0.35
  -4  12   7    0.03    0.38
  -3  12   7    0.98    0.46
  -3  12   7    0.69    0.39
  -2  12   7    1.80    0.47
  -2  12   7    2.32    0.50
   1 -12  -7    5.00    0.44
  -1  12   7    5.36    0.61
  -1  12   7    6.48    0.61
   0 -12  -7    0.53    0.31
   0  12   7    0.45    0.49
  -1 -12  -7    0.41    0.31
   1  12   7    0.26    0.43
   1  12   7    0.02    0.34
  -2 -12  -7    0.98    0.33
   2  12   7    0.53    0.42
   3  12   7    4.14    0.70
  -4 -12  -7    6.18    0.64
   4  12   7    6.05    0.82
  -5 -12  -7    3.00    0.54
   5  12   7    1.59    0.58
 -12  13   7    0.10    0.60
 -11  13   7   17.31    0.97
 -11  13   7   16.83    1.31
 -10  13   7    0.10    0.36
 -10  13   7    0.42    0.54
  -9  13   7    0.27    0.51
  -9  13   7    1.02    0.42
  -8  13   7    1.12    0.43
  -8  13   7    0.50    0.51
  -7  13   7    0.41    0.46
  -7  13   7    0.49    0.39
  -6  13   7    3.38    0.62
  -6  13   7    3.33    0.56
  -5  13   7    0.80    0.40
  -5  13   7    0.17    0.42
  -4  13   7    9.43    0.84
  -4  13   7   10.24    0.90
  -3  13   7    0.29    0.42
  -3  13   7    0.09    0.43
  -2  13   7    4.30    0.60
  -2  13   7    3.40    0.55
  -1  13   7    7.95    0.81
  -1  13   7    8.09    0.76
   0  13   7    1.77    0.48
   0  13   7    1.06    0.51
   1  13   7    0.12    0.46
   2  13   7    0.24    0.52
   3  13   7    2.64    0.64
 -11  14   7    3.12    0.51
 -11  14   7    3.56    0.71
 -10  14   7    0.21    0.38
 -10  14   7    0.08    0.52
  -9  14   7    0.19    0.55
  -9  14   7    0.32    0.40
  -8  14   7    2.25    0.65
  -8  14   7    2.47    0.53
  -7  14   7    0.22    0.43
  -7  14   7    0.24    0.46
  -6  14   7    0.29    0.46
  -6  14   7    0.21    0.47
  -5  14   7    0.87    0.54
  -5  14   7    1.32    0.48
  -4  14   7    1.89    0.51
  -4  14   7    1.49    0.49
  -3  14   7    0.00    0.46
  -3  14   7    0.11    0.43
  -2  14   7    1.90    0.52
  -2  14   7    2.79    0.58
  -1  14   7    5.27    0.64
  -1  14   7    4.19    0.66
   0  14   7    0.03    0.46
   1  14   7    3.85    0.76
  -9  15   7    0.02    0.49
  -9  15   7    0.47    0.46
  -8  15   7    0.36    0.45
  -8  15   7    0.33    0.50
  -7  15   7    3.11    0.59
  -7  15   7    3.19    0.71
  -6  15   7    1.26    0.55
  -6  15   7    2.21    0.53
  -5  15   7    2.05    0.62
  -5  15   7    3.23    0.61
  -4  15   7    0.01    0.45
  -4  15   7    1.34    0.53
  -3  15   7    6.35    0.78
  -3  15   7    5.92    0.77
  -2  15   7    0.88    0.52
  -2  15   7    0.90    0.51
  -1  15   7    4.15    0.68
  -2  17  -8    0.10    0.44
  -3  17  -8    3.23    0.56
  -4  17  -8    0.32    0.44
  -5  17  -8    0.05    0.43
  -6  17  -8    3.16    0.63
   1  16  -8    0.47    0.50
   0  16  -8    2.27    0.57
  -1  16  -8    0.00    0.40
  -2  16  -8    1.83    0.48
  -3  16  -8    0.91    0.46
  -4  16  -8    0.72    0.44
  -5  16  -8    9.08    0.83
  -6  16  -8    4.18    0.55
  -7  16  -8    6.25    0.72
  -8  16  -8    0.35    0.50
  -9  16  -8    2.75    0.59
   4  15  -8    2.47    0.68
   4  15  -8    1.59    0.52
   3  15  -8    0.02    0.40
   3  15  -8    0.00    0.49
   2  15  -8    2.48    0.62
   2  15  -8    2.33    0.52
   1  15  -8    2.74    0.59
   0  15  -8    0.78    0.46
  -1  15  -8    8.13    0.78
  -2  15  -8    2.45    0.55
  -3  15  -8    7.96    0.74
  -4  15  -8    0.01    0.36
  -5  15  -8    0.21    0.39
  -6  15  -8    0.00    0.37
  -7  15  -8   10.02    0.81
  -8  15  -8    0.73    0.51
  -9  15  -8    2.11    0.59
 -10  15  -8    0.65    0.54
   5  14  -8    0.02    0.61
   5  14  -8    1.06    0.47
   4  14  -8    0.01    0.40
   4  14  -8    0.34    0.58
   3  14  -8    0.25    0.41
   3  14  -8    0.01    0.49
   2  14  -8    0.02    0.48
   2  14  -8    0.32    0.37
   1  14  -8   10.87    0.91
   1  14  -8   11.97    0.83
   0  14  -8    0.62    0.44
   0  14  -8    0.83    0.38
  -1  14  -8    2.02    0.41
  -1  14  -8    1.65    0.50
  -2  14  -8    3.39    0.55
  -2  14  -8    3.87    0.47
  -3  14  -8    0.78    0.30
  -3  14  -8    0.94    0.38
  -4  14  -8    0.00    0.40
  -5  14  -8    0.52    0.38
  -6  14  -8    1.65    0.45
  -7  14  -8    2.81    0.55
  -8  14  -8    0.22    0.43
  -9  14  -8    0.00    0.42
 -10  14  -8    0.24    0.51
 -11  14  -8    0.46    0.51
   7  13  -8    1.02    0.69
   7  13  -8    1.31    0.58
   6  13  -8    0.02    0.46
   6  13  -8    0.11    0.60
   5  13  -8    4.58    0.70
   5  13  -8    4.98    0.79
   4  13  -8    3.56    0.70
   4  13  -8    3.31    0.59
   3  13  -8    0.01    0.51
   3  13  -8    0.31    0.39
   2  13  -8    9.00    0.80
   2  13  -8    9.00    0.75
   1  13  -8    0.00    0.32
   1  13  -8    0.00    0.41
   0  13  -8    0.31    0.32
   0  13  -8    0.02    0.34
  -1  13  -8    2.80    0.47
  -1  13  -8    2.61    0.41
  -2  13  -8    8.76    0.68
  -2  13  -8   10.40    0.67
  -3  13  -8    2.72    0.35
  -3  13  -8    2.52    0.43
  -4  13  -8    4.84    0.42
  -4  13  -8    4.17    0.52
  -5  13  -8    0.17    0.25
  -5  13  -8    0.01    0.34
  -6  13  -8    6.44    0.66
  -6  13  -8    6.43    0.51
  -7  13  -8    0.16    0.37
  -7  13  -8    0.12    0.30
  -8  13  -8    3.23    0.61
  -8  13  -8    4.37    0.47
  -9  13  -8    4.29    0.45
  -9  13  -8    3.88    0.66
 -10  13  -8    1.96    0.53
 -11  13  -8    8.14    0.87
 -12  13  -8    0.04    0.57
   8  12  -8    0.25    0.54
   8  12  -8    0.05    0.47
   7  12  -8    0.00    0.47
   7  12  -8    0.11    0.49
   6  12  -8    0.40    0.58
   6  12  -8    0.07    0.47
   5  12  -8    1.34    0.58
   5  12  -8    1.39    0.49
   4  12  -8    5.12    0.72
   4  12  -8    5.97    0.71
   3  12  -8    3.90    0.66
   3  12  -8    3.91    0.59
   2  12  -8    3.11    0.49
   2  12  -8    2.84    0.49
   1  12  -8    2.90    0.47
   1  12  -8    3.63    0.51
   0  12  -8    0.09    0.31
   0  12  -8    0.16    0.33
  -1  12  -8   10.01    0.68
  -1  12  -8    9.69    0.69
  -2  12  -8    3.37    0.48
  -2  12  -8    3.35    0.54
  -3  12  -8    4.41    0.46
  -3  12  -8    4.32    0.54
  -4  12  -8    1.62    0.42
  -4  12  -8    1.18    0.32
  -5  12  -8    0.87    0.38
  -5  12  -8    0.33    0.27
  -6  12  -8    8.66    0.62
  -6  12  -8    8.94    0.77
  -7  12  -8   17.53    1.02
  -7  12  -8   19.07    0.85
  -8  12  -8    0.15    0.28
  -8  12  -8    0.20    0.41
  -9  12  -8   10.80    0.59
  -9  12  -8    9.62    0.81
 -10  12  -8    0.13    0.31
 -10  12  -8    0.42    0.54
 -11  12  -8   31.12    1.52
 -11  12  -8   32.43    1.32
 -12  12  -8    3.92    0.47
 -12  12  -8    3.71    0.63
 -13  12  -8    1.70    0.57
 -13  12  -8    1.88    0.43
   9  11  -8    0.09    0.45
   9  11  -8    0.02    0.59
   8  11  -8    2.27    0.63
   8  11  -8    2.66    0.70
   7  11  -8    1.10    0.56
   7  11  -8    0.74    0.51
   6  11  -8    0.30    0.48
   6  11  -8    0.93    0.50
   5  11  -8    1.62    0.53
   5  11  -8    1.37    0.52
   4  11  -8    0.04    0.38
   4  11  -8    0.00    0.39
   3  11  -8   11.03    0.84
   3  11  -8    9.69    0.86
   2  11  -8    0.00    0.36
   2  11  -8    0.47    0.36
   1  11  -8    0.49    0.38
   1  11  -8    0.94    0.35
   0  11  -8    9.91    0.70
   0  11  -8   10.55    0.73
  -1  11  -8    1.08    0.34
  -1  11  -8    1.57    0.35
  -2  11  -8   22.75    1.13
  -2  11  -8   23.52    1.11
  -3  11  -8   13.36    0.82
  -3  11  -8   13.17    0.76
  -4  11  -8    0.55    0.30
  -4  11  -8    0.77    0.37
  -5  11  -8   12.60    0.69
  -5  11  -8   13.77    0.89
  -6  11  -8    0.54    0.27
  -6  11  -8    0.09    0.37
  -7  11  -8   37.04    1.67
  -7  11  -8   35.33    1.50
  -8  11  -8    0.03    0.26
  -8  11  -8    0.03    0.37
  -9  11  -8    5.82    0.49
  -9  11  -8    5.75    0.67
 -10  11  -8    8.15    0.64
 -10  11  -8    6.48    0.78
 -11  11  -8    2.18    0.41
 -11  11  -8    2.15    0.56
 -12  11  -8    4.89    0.69
 -12  11  -8    4.16    0.53
 -13  11  -8    0.27    0.39
 -13  11  -8    0.41    0.49
  10  10  -8    0.00    0.29
  10  10  -8    0.16    0.60
   9  10  -8    2.07    0.70
   9  10  -8    0.19    0.43
   8  10  -8    2.27    0.59
   8  10  -8    3.57    0.71
   7  10  -8    3.81    0.63
   7  10  -8    3.19    0.63
   6  10  -8    2.38    0.53
   6  10  -8    1.53    0.56
   5  10  -8    0.50    0.50
   5  10  -8    1.16    0.50
   4  10  -8    6.83    0.67
   4  10  -8    7.64    0.72
   3  10  -8    0.39    0.42
   3  10  -8    0.35    0.42
   2  10  -8    0.99    0.40
   2  10  -8    1.21    0.44
   1  10  -8   37.85    1.40
   1  10  -8   36.97    1.47
   0  10  -8    8.15    0.57
   0  10  -8    6.41    0.53
  -1  10  -8   50.69    1.92
  -1  10  -8   51.08    1.98
  -2  10  -8    5.91    0.54
  -2  10  -8    5.34    0.49
  -3  10  -8   26.73    1.04
  -3  10  -8   25.42    1.07
  -4  10  -8    0.99    0.43
  -4  10  -8    0.49    0.33
  -5  10  -8    3.20    0.36
  -5  10  -8    2.53    0.43
  -6  10  -8    2.82    0.50
  -6  10  -8    2.80    0.38
  -7  10  -8    2.38    0.29
  -7  10  -8    1.21    0.38
  -8  10  -8    0.62    0.38
  -8  10  -8    0.17    0.27
  -9  10  -8    0.00    0.26
  -9  10  -8    0.00    0.37
 -10  10  -8    0.39    0.45
 -10  10  -8    0.33    0.33
 -11  10  -8   14.72    0.88
 -11  10  -8   14.09    1.00
 -12  10  -8    0.27    0.46
 -12  10  -8    0.01    0.35
 -13  10  -8    0.37    0.41
 -13  10  -8    0.04    0.45
 -14  10  -8    1.41    0.55
 -14  10  -8    1.34    0.49
  11   9  -8    1.50    0.71
  10   9  -8    1.29    0.45
  10   9  -8    3.32    0.72
   9   9  -8    1.20    0.59
   9   9  -8    0.27    0.31
   8   9  -8    0.03    0.31
   8   9  -8    0.14    0.48
   7   9  -8    1.51    0.50
   7   9  -8    1.26    0.47
   6   9  -8    4.67    0.66
   6   9  -8    4.60    0.68
   5   9  -8    9.50    0.84
   5   9  -8    9.86    0.85
   4   9  -8    0.14    0.39
   4   9  -8    0.82    0.38
   3   9  -8    8.88    0.75
   3   9  -8   10.45    0.80
   2   9  -8    1.64    0.41
   2   9  -8    2.01    0.40
   1   9  -8   10.12    0.66
   1   9  -8    9.39    0.67
   0   9  -8    2.02    0.42
   0   9  -8    1.86    0.42
  -1   9  -8   30.82    1.45
  -1   9  -8   30.11    1.40
  -2   9  -8    6.53    0.54
  -2   9  -8    5.38    0.53
  -3   9  -8    0.37    0.31
  -3   9  -8    0.10    0.28
  -4   9  -8    2.45    0.32
  -4   9  -8    2.97    0.39
  -5   9  -8    0.73    0.34
  -5   9  -8    0.69    0.24
  -6   9  -8   10.17    0.51
  -6   9  -8   10.31    0.66
  -7   9  -8    2.08    0.44
  -7   9  -8    3.10    0.35
  -8   9  -8    5.87    0.51
  -8   9  -8    5.14    0.64
  -9   9  -8    0.04    0.36
  -9   9  -8    0.25    0.33
 -10   9  -8    0.00    0.32
 -10   9  -8    0.50    0.42
 -11   9  -8   15.41    0.88
 -12   9  -8    0.09    0.39
 -13   9  -8    0.77    0.43
 -14   9  -8    2.13    0.55
  12   8  -8    0.06    0.55
  11   8  -8    1.73    0.50
  11   8  -8    1.31    0.72
  10   8  -8    1.73    0.31
  10   8  -8    2.76    0.68
   9   8  -8    0.51    0.14
   9   8  -8    1.14    0.53
   8   8  -8    0.21    0.45
   8   8  -8    0.21    0.21
   7   8  -8    6.01    0.72
   7   8  -8    2.84    0.54
   6   8  -8    2.08    0.49
   6   8  -8    1.26    0.44
   5   8  -8    7.07    0.65
   5   8  -8    7.15    0.64
   4   8  -8    6.10    0.53
   4   8  -8    7.13    0.64
   3   8  -8    0.67    0.35
   3   8  -8    0.08    0.27
   2   8  -8    0.11    0.32
   2   8  -8    0.02    0.24
   1   8  -8   16.10    0.80
   1   8  -8   16.81    0.75
   0   8  -8    3.92    0.41
   0   8  -8    4.82    0.47
  -1   8  -8   19.87    1.13
  -1   8  -8   20.15    1.11
  -2   8  -8    0.91    0.32
  -2   8  -8    0.86    0.32
  -3   8  -8    1.64    0.33
  -3   8  -8    1.28    0.27
  -4   8  -8    7.84    0.46
  -4   8  -8    6.60    0.52
  -5   8  -8    1.97    0.27
  -5   8  -8    1.10    0.32
  -6   8  -8   21.58    1.00
  -6   8  -8   18.89    1.06
  -7   8  -8    3.90    0.51
  -7   8  -8    3.76    0.59
  -8   8  -8    1.86    0.39
  -9   8  -8    0.73    0.31
 -10   8  -8    1.77    0.40
 -11   8  -8   11.66    0.88
 -12   8  -8    3.02    0.58
 -13   8  -8   12.92    1.02
 -14   8  -8    0.15    0.44
  12   7  -8    0.07    0.59
  11   7  -8    5.18    0.84
  11   7  -8    5.95    0.64
  10   7  -8    2.43    0.42
  10   7  -8    1.95    0.60
   9   7  -8    0.10    0.53
   9   7  -8    0.37    0.33
   8   7  -8    2.31    0.59
   8   7  -8    1.07    0.38
   7   7  -8    2.57    0.63
   6   7  -8    0.03    0.35
   6   7  -8    0.02    0.10
   5   7  -8    0.07    0.33
   5   7  -8    0.01    0.36
   4   7  -8   10.53    0.61
   4   7  -8   10.54    0.70
   3   7  -8   24.43    1.15
   3   7  -8   21.98    1.02
   2   7  -8   10.44    0.67
   2   7  -8   10.40    0.76
   1   7  -8    0.07    0.23
   1   7  -8    0.05    0.30
   0   7  -8    2.51    0.38
   0   7  -8    3.13    0.43
  -1   7  -8    3.14    0.50
  -1   7  -8    3.26    0.51
  -2   7  -8    0.88    0.29
  -2   7  -8    1.34    0.32
  -3   7  -8    0.07    0.24
  -3   7  -8    0.21    0.23
  -4   7  -8    0.29    0.26
  -4   7  -8    0.56    0.22
  -5   7  -8   51.86    1.96
  -5   7  -8   48.83    1.94
  -6   7  -8    9.28    0.52
  -7   7  -8   84.32    3.22
  -8   7  -8   32.25    1.24
  -9   7  -8    8.12    0.61
 -10   7  -8    0.02    0.36
 -11   7  -8    3.66    0.47
 -12   7  -8    0.18    0.44
 -13   7  -8   12.68    0.96
 -14   7  -8    4.31    0.75
  13   6  -8    2.08    0.68
  12   6  -8    0.17    0.52
  11   6  -8    3.61    0.52
  11   6  -8    2.78    0.68
  10   6  -8    1.02    0.34
  10   6  -8    0.54    0.52
   9   6  -8    1.99    0.60
   9   6  -8    2.29    0.42
   8   6  -8   16.47    1.07
   8   6  -8   14.68    0.78
   7   6  -8    0.75    0.45
   7   6  -8    1.03    0.36
   6   6  -8    0.13    0.39
   6   6  -8    0.00    0.28
   5   6  -8    6.64    0.68
   5   6  -8    5.97    0.57
   4   6  -8    0.30    0.06
   4   6  -8    0.30    0.34
   3   6  -8   10.48    0.70
   3   6  -8    8.79    0.53
   2   6  -8    1.70    0.34
   2   6  -8    2.18    0.30
   1   6  -8    0.73    0.26
   1   6  -8    0.42    0.22
   0   6  -8   34.91    1.23
   0   6  -8   35.91    1.14
  -1   6  -8   44.38    1.96
  -1   6  -8   45.09    1.85
  -2   6  -8   23.39    0.92
  -2   6  -8   21.82    0.90
  -3   6  -8   17.85    0.83
  -3   6  -8   16.20    0.79
  -4   6  -8    0.04    0.20
  -5   6  -8  161.77    5.72
  -6   6  -8   11.11    0.64
  -7   6  -8   26.35    1.05
  -8   6  -8    2.69    0.40
  -9   6  -8    5.86    0.60
 -10   6  -8   21.53    0.97
 -11   6  -8    4.81    0.58
 -12   6  -8    3.64    0.55
 -13   6  -8    2.70    0.57
 -14   6  -8    0.65    0.54
  13   5  -8    0.01    0.54
  12   5  -8    0.68    0.57
  11   5  -8    5.09    0.50
  11   5  -8    4.14    0.73
  10   5  -8    0.99    0.32
  10   5  -8    1.02    0.57
   9   5  -8   13.52    0.71
   9   5  -8   10.37    0.92
   8   5  -8    0.01    0.44
   8   5  -8    0.20    0.29
   7   5  -8    0.03    0.38
   7   5  -8    0.03    0.23
   6   5  -8    0.34    0.22
   6   5  -8    0.34    0.35
   5   5  -8    0.15    0.33
   5   5  -8    0.15    0.23
   4   5  -8   59.28    2.30
   4   5  -8   63.96    2.05
   3   5  -8   52.46    2.04
   3   5  -8   37.77    1.74
   2   5  -8    8.43    0.56
   2   5  -8    5.42    0.37
   1   5  -8   47.06    1.50
   1   5  -8   45.89    1.33
   0   5  -8    4.39    0.43
   0   5  -8    4.67    0.38
  -1   5  -8  178.60    5.26
  -1   5  -8  181.53    5.62
  -2   5  -8    3.37    0.25
  -2   5  -8    3.16    0.25
  -3   5  -8   17.98    0.53
  -4   5  -8    3.11    0.39
  -5   5  -8   38.21    1.62
  -6   5  -8   61.28    2.10
  -7   5  -8    0.02    0.28
  -8   5  -8    2.83    0.34
  -9   5  -8    1.53    0.44
 -10   5  -8    0.06    0.36
 -11   5  -8   16.66    1.05
 -12   5  -8    5.85    0.63
 -13   5  -8    2.81    0.60
 -14   5  -8    0.04    0.53
  14   4  -8    2.69    0.77
  13   4  -8    4.00    0.84
  12   4  -8    1.55    0.56
  11   4  -8    0.00    0.42
  11   4  -8    0.16    0.25
  10   4  -8    1.12    0.27
  10   4  -8    0.03    0.43
   9   4  -8    7.42    0.56
   9   4  -8    6.49    0.82
   8   4  -8    1.04    0.27
   8   4  -8    0.28    0.43
   7   4  -8   38.43    1.92
   7   4  -8   40.13    1.57
   6   4  -8    0.96    0.27
   6   4  -8    1.09    0.42
   5   4  -8   23.02    0.86
   5   4  -8   21.39    1.07
   4   4  -8   60.77    2.41
   4   4  -8   63.97    2.11
   3   4  -8  105.84    3.93
   3   4  -8  104.99    4.33
   2   4  -8   27.83    1.05
   2   4  -8   31.63    1.26
   1   4  -8    8.02    0.33
   1   4  -8    7.47    0.45
   0   4  -8   11.15    0.59
   0   4  -8   10.06    0.49
  -1   4  -8   45.55    1.86
  -2   4  -8    2.68    0.20
  -3   4  -8    6.17    0.28
  -4   4  -8    7.34    0.35
  -5   4  -8    7.52    0.51
  -6   4  -8    0.20    0.31
  -7   4  -8    2.02    0.42
  -8   4  -8    0.00    0.32
  -9   4  -8    2.67    0.49
 -10   4  -8   10.18    0.86
 -11   4  -8    2.24    0.55
 -12   4  -8    0.11    0.44
 -13   4  -8    5.59    0.85
 -14   4  -8    1.76    0.63
  14   3  -8    0.87    0.56
  13   3  -8    0.82    0.54
  12   3  -8    5.67    0.84
 -12  -3   8    8.48    0.68
  11   3  -8   10.71    1.04
 -11  -3   8   11.86    0.78
  10   3  -8    2.12    0.58
  10   3  -8    2.77    0.33
 -10  -3   8    3.18    0.43
   9   3  -8    0.70    0.49
   9   3  -8    1.46    0.24
  -9  -3   8    1.25    0.34
   8   3  -8    1.46    0.21
   8   3  -8    0.49    0.39
  -8  -3   8    1.12    0.31
   7   3  -8   12.14    0.99
   7   3  -8   13.70    0.70
  -7  -3   8   12.11    0.82
   6   3  -8    6.25    0.34
   6   3  -8    5.01    0.52
  -6  -3   8    5.91    0.42
   5   3  -8   40.85    1.66
   5   3  -8   42.34    1.38
  -5  -3   8   48.01    1.52
   4   3  -8   24.35    1.05
   4   3  -8   25.01    0.81
   3   3  -8   21.61    1.21
   3   3  -8   23.22    0.98
   2   3  -8    1.23    0.29
   2   3  -8    1.16    0.17
   1   3  -8   13.13    0.60
   0   3  -8   17.22    1.73
  -1   3  -8    2.19    0.41
  -2   3  -8    0.38    0.18
  -3   3  -8    1.36    0.19
  -4   3  -8    3.16    0.34
  -5   3  -8   64.82    2.45
  -6   3  -8    9.00    0.60
  -7   3  -8    0.45    0.31
  -8   3  -8    8.91    0.76
  -9   3  -8   13.68    0.93
 -10   3  -8    5.85    0.66
 -11   3  -8    2.72    0.50
 -12   3  -8    3.34    0.64
 -13   3  -8   17.68    1.16
 -14   3  -8    0.43    0.58
  15   2  -8    0.14    0.54
  14   2  -8    0.31    0.53
  13   2  -8    4.05    0.73
 -13  -2   8    5.55    0.55
  12   2  -8    1.57    0.52
 -12  -2   8    1.26    0.36
  11   2  -8    5.12    0.73
 -11  -2   8    4.91    0.49
  10   2  -8    0.02    0.39
 -10  -2   8    0.02    0.32
   9   2  -8    2.88    0.56
   9   2  -8    4.24    0.32
  -9  -2   8    4.27    0.47
   8   2  -8    0.17    0.13
   8   2  -8    0.03    0.37
  -8  -2   8    0.01    0.31
   7   2  -8    1.42    0.19
   7   2  -8    0.46    0.44
  -7  -2   8    1.07    0.36
  -7  -2   8    1.37    0.19
   6   2  -8    6.86    0.59
   6   2  -8    9.36    0.34
  -6  -2   8    8.22    0.31
  -6  -2   8    9.42    0.58
   5   2  -8   29.18    1.67
   5   2  -8   29.74    1.32
  -5  -2   8   33.12    1.53
   4   2  -8    6.47    0.47
   4   2  -8    6.51    0.27
  -4  -2   8    7.24    0.42
   3   2  -8    2.76    0.34
   3   2  -8    3.17    0.19
  -3  -2   8    2.15    0.26
   2   2  -8   41.32    1.45
   2   2  -8   37.99    1.17
   1   2  -8    0.00    0.24
   0   2  -8   15.33    0.36
  -1   2  -8   19.26    0.71
  -2   2  -8    0.05    0.19
  -3   2  -8   11.27    0.74
  -4   2  -8    1.57    0.24
  -5   2  -8   34.54    1.34
  -6   2  -8    0.11    0.29
  -7   2  -8   12.79    0.79
  -8   2  -8    6.97    0.65
  -9   2  -8   10.63    0.84
 -10   2  -8    2.68    0.53
 -11   2  -8    1.14    0.51
 -12   2  -8    0.67    0.50
 -13   2  -8    1.63    0.60
 -14   2  -8    0.01    0.52
  15   1  -8    0.17    0.57
  14   1  -8    3.02    0.68
 -14  -1   8    3.16    0.52
  13   1  -8    0.08    0.44
 -13  -1   8    0.02    0.36
  12   1  -8    0.69    0.48
 -12  -1   8    0.99    0.39
  11   1  -8    7.92    0.88
 -11  -1   8   10.00    0.76
  10   1  -8    8.73    0.88
 -10  -1   8    8.50    0.76
   9   1  -8   25.51    1.32
  -9  -1   8   25.21    0.83
  -9  -1   8   24.47    1.14
   8   1  -8   19.68    1.16
  -8  -1   8   19.68    0.71
  -8  -1   8   20.52    1.00
   7   1  -8    9.84    0.84
  -7  -1   8   11.46    0.75
   6   1  -8    2.53    0.44
  -6  -1   8    2.99    0.39
   5   1  -8    9.64    0.68
  -5  -1   8   10.51    0.62
   4   1  -8    9.89    0.22
   4   1  -8    9.76    0.47
  -4  -1   8   10.41    0.43
   3   1  -8    6.09    0.56
   3   1  -8    5.77    0.29
  -3  -1   8    4.58    0.44
   2   1  -8    2.94    0.38
  -2  -1   8    3.24    0.35
   1   1  -8   13.05    0.46
  -1  -1   8   12.65    0.47
   0   1  -8   59.52    2.12
  -1   1  -8   91.47    3.40
  -2   1  -8   58.65    2.27
  -3   1  -8    1.82    0.22
  -4   1  -8    0.02    0.23
  -5   1  -8   10.29    0.64
  -6   1  -8    7.11    0.53
  -7   1  -8   43.45    1.82
  -8   1  -8    1.93    0.43
  -9   1  -8    0.19    0.45
 -10   1  -8    0.63    0.42
 -11   1  -8    6.88    0.82
 -12   1  -8    9.24    0.93
 -13   1  -8    2.51    0.67
 -14   1  -8    2.30    0.71
  15   0  -8    1.12    0.53
 -15   0   8    0.11    0.43
  14   0  -8    8.33    0.90
 -14   0   8   10.41    0.78
  13   0  -8    2.06    0.57
 -13   0   8    1.83    0.46
  12   0  -8    0.28    0.41
 -12   0   8    0.06    0.35
  11   0  -8    0.41    0.42
 -11   0   8    0.15    0.36
  10   0  -8    0.16    0.48
 -10   0   8    0.08    0.39
   9   0  -8   35.97    1.60
  -9   0   8   38.49    1.47
   8   0  -8    3.52    0.50
  -8   0   8    4.13    0.43
   7   0  -8    0.17    0.33
  -7   0   8    0.17    0.29
   6   0  -8    0.84    0.33
  -6   0   8    1.04    0.31
   5   0  -8    8.70    0.44
  -5   0   8    8.54    0.37
   4   0  -8   71.46    2.03
   4   0  -8   70.98    2.03
   4   0  -8   66.16    2.46
  -4   0   8   69.87    2.33
   3   0  -8   24.02    1.39
   3   0  -8   22.88    1.08
  -3   0   8   24.61    1.30
   2   0  -8   30.89    1.46
  -2   0   8   29.82    1.38
   1   0  -8   56.60    1.92
  -1   0   8   57.90    1.90
   0   0  -8   14.58    0.93
   0   0   8   14.47    0.97
  -1   0  -8   78.19    2.90
  -2   0  -8    0.06    0.18
  -3   0  -8   77.56    2.87
  -4   0  -8   22.26    1.20
  -5   0  -8    2.61    0.34
  -6   0  -8    1.88    0.46
  -7   0  -8    1.18    0.44
  -8   0  -8   12.48    0.93
  -9   0  -8   21.07    1.16
 -10   0  -8   15.87    1.11
 -11   0  -8    6.15    0.72
 -12   0  -8    1.05    0.55
 -13   0  -8    7.23    0.84
  15  -1  -8    4.69    0.74
 -15   1   8    3.90    0.60
  14  -1  -8    6.22    0.76
 -14   1   8    7.14    0.66
  13  -1  -8    1.75    0.48
 -13   1   8    2.15    0.47
  12  -1  -8    3.95    0.61
 -12   1   8    4.81    0.56
  11  -1  -8    1.64    0.50
 -11   1   8    1.68    0.46
  10  -1  -8   20.02    1.13
 -10   1   8   22.24    1.05
   9  -1  -8    0.00    0.36
  -9   1   8    0.07    0.38
   8  -1  -8    5.10    0.55
  -8   1   8    5.71    0.54
   7  -1  -8   19.66    1.05
  -7   1   8   19.68    0.98
   6  -1  -8    3.50    0.55
  -6   1   8    4.48    0.53
   5  -1  -8  139.02    4.83
  -5   1   8  143.46    4.64
   4  -1  -8    2.46    0.11
   4  -1  -8    1.74    0.33
  -4   1   8    2.53    0.31
   3  -1  -8   55.00    2.56
   3  -1  -8   54.44    2.19
  -3   1   8   54.12    2.44
   2  -1  -8    0.80    0.37
  -2   1   8    0.70    0.35
   1  -1  -8   25.05    1.16
  -1   1   8   26.21    1.18
   0  -1  -8  161.46    6.00
   0   1   8  163.09    5.90
  -1  -1  -8    6.60    0.50
   1   1   8    5.96    0.54
  -2  -1  -8    9.11    0.47
  -3  -1  -8    3.84    0.33
  -4  -1  -8    0.40    0.29
  -5  -1  -8   73.82    2.66
  -6  -1  -8   17.05    0.96
  -7  -1  -8    0.06    0.33
  -8  -1  -8    2.28    0.50
  -9  -1  -8    5.57    0.66
 -10  -1  -8   22.64    1.31
 -11  -1  -8    0.89    0.51
 -12  -1  -8    0.49    0.51
 -13  -1  -8    2.05    0.63
  16  -2  -8    2.77    0.64
 -16   2   8    1.86    0.54
  15  -2  -8    1.89    0.59
 -15   2   8    2.48    0.54
  14  -2  -8    1.01    0.45
 -14   2   8    0.60    0.42
  13  -2  -8    2.99    0.51
 -13   2   8    2.54    0.48
  12  -2  -8    0.33    0.38
 -12   2   8    0.04    0.36
  11  -2  -8   11.21    0.82
 -11   2   8   10.13    0.78
  10  -2  -8   21.81    1.34
 -10   2   8   21.82    1.26
   9  -2  -8   43.32    1.88
  -9   2   8   43.17    1.78
   8  -2  -8    2.32    0.40
  -8   2   8    2.17    0.38
   7  -2  -8    2.33    0.42
  -7   2   8    2.31    0.41
   6  -2  -8    7.31    0.62
  -6   2   8    7.71    0.60
   5  -2  -8   74.23    2.66
  -5   2   8   78.90    2.56
   4  -2  -8    5.54    0.27
   4  -2  -8    5.32    0.53
  -4   2   8    5.33    0.48
   3  -2  -8    0.30    0.30
  -3   2   8    0.30    0.28
  -3   2   8    0.18    0.14
   2  -2  -8    8.30    0.55
  -2   2   8    8.08    0.39
  -2   2   8    7.82    0.55
   1  -2  -8    1.82    0.23
  -1   2   8    1.41    0.26
  -1   2   8    1.25    0.19
   0  -2  -8    1.75    0.22
   0   2   8    1.88    0.22
   0   2   8    1.83    0.26
  -1  -2  -8   25.08    0.82
   1   2   8   24.41    0.86
   1   2   8   24.93    0.81
  -2  -2  -8   18.77    0.80
   2   2   8   19.43    0.81
   2   2   8   19.42    0.82
  -3  -2  -8    1.39    0.31
   3   2   8    1.56    0.34
  -4  -2  -8   11.80    0.66
   4   2   8   11.83    0.68
  -5  -2  -8   24.13    1.15
   5   2   8   25.32    1.14
  -6  -2  -8   19.15    1.06
   6   2   8   18.40    1.04
  -7  -2  -8   14.13    0.87
  -8  -2  -8    0.33    0.46
  -9  -2  -8    0.12    0.41
 -10  -2  -8    1.25    0.54
 -11  -2  -8    3.43    0.68
 -12  -2  -8    0.56    0.53
  16  -3  -8    2.98    0.64
 -16   3   8    2.11    0.55
  15  -3  -8    0.24    0.48
 -15   3   8    0.06    0.45
  14  -3  -8    2.16    0.59
 -14   3   8    2.57    0.57
  13  -3  -8   10.03    0.89
 -13   3   8   10.72    0.95
  12  -3  -8    7.35    0.78
 -12   3   8    6.47    0.71
  11  -3  -8   10.20    0.86
 -11   3   8   11.02    0.97
  10  -3  -8    6.33    0.66
 -10   3   8    4.31    0.59
   9  -3  -8   33.53    1.65
  -9   3   8   34.03    1.65
   8  -3  -8    0.82    0.35
  -8   3   8    1.25    0.38
   7  -3  -8    1.61    0.33
  -7   3   8    0.75    0.32
   6  -3  -8    0.74    0.30
  -6   3   8    0.60    0.31
   5  -3  -8    9.00    0.64
   5  -3  -8    8.64    0.34
  -5   3   8    9.08    0.31
  -5   3   8    8.45    0.57
   4  -3  -8    2.80    0.40
  -4   3   8    3.35    0.37
  -4   3   8    3.89    0.21
   3  -3  -8    0.01    0.30
  -3   3   8    0.00    0.27
  -3   3   8    0.00    0.15
   2  -3  -8   38.43    1.39
  -2   3   8   38.21    1.38
  -2   3   8   37.56    1.23
   1  -3  -8   11.32    0.58
  -1   3   8   11.19    0.67
  -1   3   8   11.12    0.54
   0  -3  -8    3.66    0.30
   0   3   8    2.75    0.29
   0   3   8    2.85    0.34
  -1  -3  -8   16.37    1.04
   1   3   8   14.81    1.02
   1   3   8   17.53    1.08
  -2  -3  -8    0.88    0.23
   2   3   8    0.32    0.23
   2   3   8    0.32    0.24
  -3  -3  -8    0.06    0.26
   3   3   8    0.15    0.28
  -4  -3  -8    4.57    0.48
   4   3   8    4.46    0.51
  -5  -3  -8   48.71    2.16
   5   3   8   51.36    2.14
  -6  -3  -8   11.48    0.77
   6   3   8   12.31    0.80
  -7  -3  -8   31.56    1.54
   7   3   8   33.60    1.54
  -8  -3  -8    2.72    0.51
   8   3   8    4.12    0.55
  -9  -3  -8    0.22    0.41
 -10  -3  -8    1.33    0.51
 -11  -3  -8    3.43    0.71
 -12  -3  -8    3.42    0.69
  16  -4  -8    0.01    0.40
 -16   4   8    0.40    0.51
  15  -4  -8    1.58    0.55
 -15   4   8    0.51    0.51
  14  -4  -8    2.69    0.57
 -14   4   8    3.24    0.58
  13  -4  -8    1.76    0.44
 -13   4   8    2.03    0.52
  12  -4  -8    4.48    0.59
 -12   4   8    4.87    0.61
  11  -4  -8    3.64    0.55
 -11   4   8    3.24    0.53
  10  -4  -8    1.17    0.39
 -10   4   8    1.21    0.48
   9  -4  -8    9.04    0.64
  -9   4   8   10.66    0.72
   8  -4  -8    7.73    0.65
  -8   4   8    6.53    0.67
   7  -4  -8    1.10    0.37
  -7   4   8    0.71    0.13
  -7   4   8    0.56    0.38
   6  -4  -8    3.59    0.24
   6  -4  -8    4.87    0.50
  -6   4   8    4.25    0.24
  -6   4   8    3.79    0.47
   5  -4  -8    2.40    0.40
  -5   4   8    3.01    0.22
  -5   4   8    2.83    0.41
   4  -4  -8    0.00    0.30
  -4   4   8    0.00    0.16
  -4   4   8    0.00    0.29
   3  -4  -8    0.28    0.37
  -3   4   8    0.06    0.21
  -3   4   8    0.34    0.36
   2  -4  -8    2.20    0.28
  -2   4   8    2.26    0.24
  -2   4   8    2.69    0.34
   1  -4  -8   41.05    1.47
  -1   4   8   36.13    1.47
  -1   4   8   37.08    1.39
   0  -4  -8    0.71    0.26
   0   4   8    0.47    0.28
   0   4   8    0.55    0.28
  -1  -4  -8   30.78    1.17
   1   4   8   30.73    1.18
   1   4   8   31.06    1.20
  -2  -4  -8   38.91    1.68
   2   4   8   39.55    1.64
   2   4   8   39.63    1.66
  -3  -4  -8   29.68    1.23
   3   4   8   30.84    1.26
  -4  -4  -8   11.50    0.77
   4   4   8   12.61    0.82
  -5  -4  -8    3.74    0.45
   5   4   8    3.45    0.47
  -6  -4  -8    2.50    0.51
   6   4   8    2.17    0.58
  -7  -4  -8    6.98    0.71
   7   4   8    4.30    0.62
  -8  -4  -8    0.62    0.42
   8   4   8    0.17    0.41
  -9  -4  -8    0.56    0.44
   9   4   8    0.42    0.43
 -10  -4  -8    2.14    0.61
 -11  -4  -8    1.41    0.55
  16  -5  -8    0.06    0.47
 -16   5   8    0.49    0.54
  15  -5  -8    2.47    0.54
 -15   5   8    2.90    0.65
  14  -5  -8    3.15    0.53
 -14   5   8    4.00    0.64
  13  -5  -8    0.41    0.38
 -13   5   8    0.00    0.38
  12  -5  -8    1.11    0.45
 -12   5   8    0.65    0.50
  11  -5  -8    0.82    0.39
 -11   5   8    0.85    0.50
  10  -5  -8    9.27    0.68
 -10   5   8    8.65    0.32
 -10   5   8    7.62    0.68
   9  -5  -8    0.20    0.34
  -9   5   8    0.30    0.42
  -9   5   8    0.23    0.15
   8  -5  -8   12.54    0.74
  -8   5   8   11.34    0.47
  -8   5   8   11.63    0.87
   7  -5  -8    0.94    0.32
  -7   5   8    0.77    0.39
  -7   5   8    1.01    0.18
   6  -5  -8   31.49    1.24
  -6   5   8   30.02    0.94
  -6   5   8   30.39    1.25
   5  -5  -8  116.29    4.31
  -5   5   8  123.64    4.22
  -5   5   8  119.82    3.85
   4  -5  -8    4.16    0.40
  -4   5   8    4.92    0.28
  -4   5   8    5.16    0.44
   3  -5  -8    2.31    0.32
  -3   5   8    2.33    0.25
  -3   5   8    2.18    0.32
   2  -5  -8   16.17    0.90
  -2   5   8   15.99    0.99
  -2   5   8   16.90    0.86
   1  -5  -8   71.66    2.38
  -1   5   8   68.99    2.40
  -1   5   8   67.98    2.29
   0  -5  -8    0.12    0.22
   0   5   8    0.09    0.29
   0   5   8    0.44    0.28
  -1  -5  -8   36.08    1.47
   1   5   8   34.94    1.46
   1   5   8   34.45    1.46
  -2  -5  -8    9.60    0.67
   2   5   8   10.53    0.78
   2   5   8    6.41    0.61
  -3  -5  -8   26.68    1.27
   3   5   8   26.96    1.31
   3   5   8   26.36    1.23
  -4  -5  -8   11.11    0.78
   4   5   8   10.11    0.87
  -5  -5  -8   23.73    1.14
   5   5   8   20.57    1.14
  -6  -5  -8    9.55    0.73
   6   5   8    8.93    0.77
  -7  -5  -8    0.38    0.44
   7   5   8    0.88    0.46
  -8  -5  -8    0.00    0.40
   8   5   8    0.03    0.44
  -9  -5  -8    2.95    0.56
   9   5   8    3.80    0.62
 -10  -5  -8    1.19    0.53
  10   5   8    2.13    0.56
 -11  -5  -8    1.76    0.61
  16  -6  -8    0.19    0.41
 -16   6   8    0.00    0.50
  15  -6  -8   12.25    0.94
 -15   6   8   12.51    1.02
  14  -6  -8    0.03    0.35
 -14   6   8    0.00    0.48
  13  -6  -8    1.19    0.41
 -13   6   8    1.96    0.59
  12  -6  -8    0.17    0.32
 -12   6   8    0.00    0.40
  11  -6  -8    0.27    0.31
 -11   6   8    0.30    0.44
  10  -6  -8   19.72    1.13
 -10   6   8   19.90    0.82
 -10   6   8   20.46    1.32
   9  -6  -8   12.56    0.87
  -9   6   8   11.51    0.60
  -9   6   8   13.40    1.02
   8  -6  -8    0.57    0.30
  -8   6   8    0.51    0.42
  -8   6   8    0.89    0.20
   7  -6  -8   27.52    1.19
  -7   6   8   23.72    0.93
  -7   6   8   23.41    1.25
   6  -6  -8   14.86    1.03
  -6   6   8   12.97    1.06
  -6   6   8   12.84    0.78
   5  -6  -8  189.83    7.00
  -5   6   8  197.80    6.85
  -5   6   8  200.13    6.41
   4  -6  -8    0.41    0.34
  -4   6   8    0.94    0.40
  -4   6   8    0.74    0.26
   3  -6  -8   21.20    1.12
  -3   6   8   22.40    1.00
  -3   6   8   23.10    1.19
   2  -6  -8    1.39    0.36
  -2   6   8    0.97    0.40
  -2   6   8    1.23    0.37
   1  -6  -8    0.04    0.22
  -1   6   8    0.05    0.26
  -1   6   8    0.01    0.31
   0  -6  -8   12.87    0.74
   0   6   8   13.28    0.82
   0   6   8   10.92    0.80
  -1  -6  -8    1.45    0.30
   1   6   8    1.61    0.35
   1   6   8    1.55    0.39
  -2  -6  -8    7.72    0.59
   2   6   8    6.28    0.66
  -3  -6  -8    3.63    0.53
   3   6   8    2.26    0.42
   3   6   8    3.02    0.57
  -4  -6  -8    0.01    0.35
   4   6   8    0.54    0.39
  -5  -6  -8    1.13    0.42
   5   6   8    0.34    0.40
  -6  -6  -8    0.00    0.31
   6   6   8    0.35    0.40
  -7  -6  -8    5.63    0.63
   7   6   8    6.60    0.71
  -8  -6  -8    7.23    0.76
   8   6   8    7.33    0.78
  -9  -6  -8    0.42    0.43
   9   6   8    0.43    0.46
 -10  -6  -8    0.22    0.44
  10   6   8    1.69    0.51
  15  -7  -8    0.71    0.42
 -15   7   8    0.62    0.58
  14  -7  -8    5.67    0.67
 -14   7   8    6.23    0.83
  13  -7  -8    9.79    0.79
 -13   7   8    9.30    0.96
  12  -7  -8    0.27    0.33
 -12   7   8    0.06    0.46
  11  -7  -8   15.16    0.87
 -11   7   8   14.09    1.03
  10  -7  -8    8.84    0.68
 -10   7   8   10.44    0.92
 -10   7   8    9.33    0.48
  -9   7   8   20.12    0.74
  -9   7   8   18.55    1.11
   8  -7  -8    0.03    0.09
  -8   7   8    0.11    0.21
  -8   7   8    0.01    0.40
   7  -7  -8   16.05    0.86
  -7   7   8   17.63    0.73
  -7   7   8   17.33    1.12
   6  -7  -8   64.52    2.35
  -6   7   8   63.16    2.43
  -6   7   8   62.20    2.09
   5  -7  -8   37.60    1.76
  -5   7   8   39.51    1.53
  -5   7   8   40.90    1.79
   4  -7  -8    6.18    0.68
  -4   7   8   10.33    0.82
  -4   7   8    8.52    0.61
  -3   7   8    7.38    0.58
  -3   7   8    8.01    0.71
   2  -7  -8    0.60    0.29
  -2   7   8    0.42    0.35
  -2   7   8    0.50    0.31
   1  -7  -8   25.24    1.15
  -1   7   8   23.68    1.22
  -1   7   8   21.71    1.16
   0  -7  -8    0.38    0.26
   0   7   8    0.59    0.32
   0   7   8    0.64    0.37
  -1  -7  -8    1.87    0.33
   1   7   8    0.76    0.35
   1   7   8    1.81    0.34
  -2  -7  -8    0.20    0.31
   2   7   8    0.03    0.37
   2   7   8    0.29    0.30
  -3  -7  -8    0.93    0.35
   3   7   8    0.43    0.39
   3   7   8    0.40    0.28
  -4  -7  -8   46.79    1.76
   4   7   8   45.83    1.79
   4   7   8   36.75    1.59
  -5  -7  -8    0.17    0.31
   5   7   8    0.45    0.41
  -6  -7  -8    1.55    0.43
   6   7   8    2.36    0.54
  -7  -7  -8    9.59    0.85
   7   7   8    9.67    0.96
  -8  -7  -8    4.15    0.67
   8   7   8    3.43    0.68
  -9  -7  -8    0.04    0.42
   9   7   8    0.01    0.50
  15  -8  -8    3.90    0.62
 -15   8   8    4.36    0.76
  14  -8  -8    0.16    0.35
 -14   8   8    0.02    0.50
  13  -8  -8    8.11    0.71
 -13   8   8    7.60    0.84
  12  -8  -8    2.84    0.38
 -12   8   8    3.11    0.59
 -11   8   8   16.76    1.12
  10  -8  -8    0.21    0.27
 -10   8   8    0.24    0.22
 -10   8   8    0.02    0.47
   9  -8  -8    3.87    0.41
  -9   8   8    3.76    0.34
  -9   8   8    3.43    0.57
   8  -8  -8    4.83    0.50
  -8   8   8    3.89    0.64
  -8   8   8    3.69    0.40
   7  -8  -8    1.10    0.28
  -7   8   8    1.16    0.49
  -7   8   8    0.37    0.26
   6  -8  -8   21.19    1.01
  -6   8   8   19.75    0.91
  -6   8   8   17.86    1.21
   5  -8  -8    0.44    0.34
  -5   8   8    0.58    0.43
  -5   8   8    0.68    0.33
   4  -8  -8    3.77    0.55
  -4   8   8    4.98    0.50
  -4   8   8    5.50    0.61
   3  -8  -8    0.09    0.31
  -3   8   8    0.04    0.34
  -3   8   8    0.09    0.25
   2  -8  -8    2.64    0.37
  -2   8   8    2.86    0.44
  -2   8   8    2.25    0.40
  -1   8   8   35.32    1.44
  -1   8   8   34.43    1.49
   0  -8  -8    9.37    0.60
   0   8   8    9.10    0.70
   0   8   8    8.33    0.65
  -1  -8  -8    4.89    0.50
   1   8   8    3.89    0.57
  -2  -8  -8    1.13    0.36
   2   8   8    0.96    0.34
   2   8   8    0.84    0.42
  -3  -8  -8    2.02    0.40
   3   8   8    2.51    0.40
   3   8   8    3.25    0.58
  -4  -8  -8    0.01    0.29
   4   8   8    0.01    0.25
   4   8   8    0.01    0.35
  -5  -8  -8    0.01    0.31
   5   8   8    0.01    0.37
  -6  -8  -8    0.21    0.42
   6   8   8    0.25    0.49
  -7  -8  -8    8.40    0.78
   7   8   8    8.74    0.83
  -8  -8  -8    0.54    0.45
   8   8   8    0.36    0.47
  -9  -8  -8    0.02    0.47
  15  -9  -8    9.47    0.76
 -15   9   8   11.35    0.97
  14  -9  -8    0.03    0.15
 -14   9   8    0.00    0.50
  13  -9  -8    0.87    0.38
 -13   9   8    0.02    0.57
  12  -9  -8    3.34    0.46
 -12   9   8    3.44    0.66
  11  -9  -8    5.95    0.54
 -11   9   8    6.70    0.81
  10  -9  -8    3.21    0.46
 -10   9   8    2.86    0.38
 -10   9   8    1.71    0.60
   9  -9  -8    0.11    0.25
  -9   9   8    0.48    0.27
  -9   9   8    0.16    0.45
   8  -9  -8    7.00    0.51
  -8   9   8    5.72    0.70
  -8   9   8    6.28    0.49
   7  -9  -8    0.68    0.24
  -7   9   8    0.01    0.40
  -7   9   8    0.01    0.28
   6  -9  -8    9.39    0.66
  -6   9   8    7.01    0.80
  -6   9   8    7.21    0.62
   5  -9  -8   15.99    0.83
  -5   9   8   17.65    1.01
  -5   9   8   16.87    0.79
   4  -9  -8    0.19    0.33
  -4   9   8    0.00    0.33
  -4   9   8    0.57    0.45
   3  -9  -8    0.02    0.31
  -3   9   8    0.49    0.38
  -3   9   8    0.36    0.37
   2  -9  -8    0.49    0.31
  -2   9   8    0.38    0.38
  -2   9   8    0.51    0.39
   1  -9  -8   18.20    0.80
  -1   9   8   18.56    0.96
  -1   9   8   16.04    0.96
   0  -9  -8    0.02    0.15
   0   9   8    0.00    0.35
   0   9   8    0.35    0.34
  -1  -9  -8   30.87    1.35
   1   9   8   28.09    1.39
  -2  -9  -8    3.33    0.45
   2   9   8    3.04    0.43
   2   9   8    3.63    0.55
  -3  -9  -8    5.93    0.55
   3   9   8    6.15    0.52
   3   9   8    7.37    0.69
  -4  -9  -8    2.98    0.50
   4   9   8    2.10    0.55
  -5  -9  -8    5.62    0.65
   5   9   8    4.23    0.67
  -6  -9  -8    1.29    0.45
   6   9   8    1.53    0.54
  -7  -9  -8    1.87    0.48
   7   9   8    1.99    0.57
  -8  -9  -8    0.95    0.44
   8   9   8    1.14    0.52
 -14  10   8    0.01    0.49
 -13  10   8    0.22    0.54
 -12  10   8    0.94    0.52
  11 -10  -8    0.52    0.28
 -11  10   8    0.00    0.54
  10 -10  -8    9.26    0.57
 -10  10   8    8.46    0.83
 -10  10   8    8.92    0.55
   9 -10  -8    0.14    0.23
  -9  10   8    0.03    0.46
  -9  10   8    0.17    0.29
  -8  10   8    0.75    0.31
  -8  10   8    0.39    0.44
   7 -10  -8    5.06    0.44
  -7  10   8    3.62    0.44
  -7  10   8    3.73    0.63
   6 -10  -8    0.40    0.23
  -6  10   8    0.17    0.43
  -6  10   8    0.45    0.34
   5 -10  -8   13.95    0.76
  -5  10   8   16.75    1.08
  -5  10   8   16.77    0.84
  -4  10   8    6.16    0.68
  -4  10   8    5.04    0.58
   3 -10  -8    9.01    0.77
  -3  10   8   14.05    1.02
  -3  10   8   13.05    0.82
   2 -10  -8    1.30    0.32
  -2  10   8    1.31    0.42
  -2  10   8    1.17    0.37
   1 -10  -8    4.44    0.42
  -1  10   8    4.84    0.56
  -1  10   8    4.15    0.56
   0 -10  -8    0.00    0.26
   0  10   8    0.00    0.33
   0  10   8    0.00    0.30
   1  10   8   22.25    1.25
   1  10   8   24.16    1.16
  -2 -10  -8    3.44    0.45
   2  10   8    4.32    0.59
   2  10   8    3.45    0.44
  -3 -10  -8    0.05    0.34
   3  10   8    0.16    0.43
  -4 -10  -8    0.90    0.39
   4  10   8    0.82    0.48
  -5 -10  -8    0.11    0.38
   5  10   8    0.16    0.45
  -6 -10  -8    1.48    0.41
   6  10   8    0.87    0.50
  -7 -10  -8    3.47    0.62
 -14  11   8    0.92    0.60
 -13  11   8    0.25    0.53
 -12  11   8    0.12    0.50
 -11  11   8   12.05    1.09
 -11  11   8   15.31    0.81
 -10  11   8    3.99    0.48
 -10  11   8    3.72    0.73
  -9  11   8    8.55    0.67
  -9  11   8    8.79    0.97
  -8  11   8    6.69    0.78
  -8  11   8    7.11    0.57
  -7  11   8   10.97    0.98
  -7  11   8   11.48    0.77
  -6  11   8    3.58    0.49
  -6  11   8    2.83    0.61
   5 -11  -8   13.45    0.74
  -5  11   8   14.49    0.86
  -5  11   8   13.61    1.06
   4 -11  -8    0.02    0.20
  -4  11   8    0.39    0.39
  -4  11   8    0.65    0.36
   3 -11  -8   23.40    1.25
  -3  11   8   27.00    1.30
  -3  11   8   28.82    1.43
   2 -11  -8    0.65    0.31
  -2  11   8    1.29    0.41
  -2  11   8    0.89    0.42
   1 -11  -8    2.58    0.38
  -1  11   8    1.81    0.45
  -1  11   8    3.26    0.56
   0 -11  -8    1.34    0.36
   0  11   8    1.75    0.44
   0  11   8    1.38    0.48
  -1 -11  -8    0.00    0.26
   1  11   8    0.00    0.32
   1  11   8    0.73    0.44
  -2 -11  -8    1.89    0.39
   2  11   8    2.88    0.42
   2  11   8    2.63    0.54
  -3 -11  -8    5.44    0.57
   3  11   8    3.76    0.66
  -4 -11  -8    5.24    0.58
   4  11   8    4.29    0.67
  -5 -11  -8    5.27    0.63
   5  11   8    5.99    0.81
 -13  12   8    0.00    0.62
 -12  12   8    0.23    0.54
 -11  12   8   17.68    1.30
 -10  12   8    0.00    0.34
 -10  12   8    0.46    0.52
  -9  12   8    7.89    0.87
  -9  12   8    8.65    0.66
  -8  12   8    0.12    0.37
  -8  12   8    0.01    0.52
  -7  12   8    4.24    0.54
  -7  12   8    3.47    0.65
  -6  12   8   14.82    0.92
  -6  12   8   14.12    1.08
  -5  12   8    1.28    0.52
  -5  12   8    1.51    0.49
  -4  12   8    5.04    0.67
  -4  12   8    4.44    0.56
  -3  12   8    2.91    0.51
  -3  12   8    3.51    0.55
  -2  12   8    0.00    0.37
  -2  12   8    0.00    0.38
  -1  12   8    3.39    0.57
  -1  12   8    3.97    0.61
   0 -12  -8    0.76    0.31
   0  12   8    0.59    0.43
   0  12   8    0.05    0.12
  -1 -12  -8    2.39    0.42
   1  12   8    2.97    0.62
   1  12   8    2.86    0.46
  -2 -12  -8    2.06    0.40
   2  12   8    3.01    0.66
  -3 -12  -8    3.88    0.53
   3  12   8    5.36    0.75
  -4 -12  -8    1.95    0.46
   4  12   8    1.83    0.57
 -12  13   8    1.20    0.64
 -11  13   8    9.00    0.96
 -10  13   8    1.06    0.58
 -10  13   8    1.82    0.43
  -9  13   8    2.61    0.70
  -9  13   8    2.87    0.50
  -8  13   8    0.19    0.55
  -8  13   8    0.16    0.38
  -7  13   8    0.76    0.51
  -7  13   8    0.85    0.44
  -6  13   8    1.07    0.51
  -6  13   8    0.76    0.44
  -5  13   8    4.11    0.66
  -5  13   8    4.79    0.66
  -4  13   8    1.60    0.52
  -4  13   8    1.79    0.57
  -3  13   8    2.53    0.53
  -3  13   8    2.47    0.56
  -2  13   8    9.87    0.87
  -2  13   8   10.69    0.86
  -1  13   8    6.97    0.68
  -1  13   8    7.01    0.74
   0  13   8    2.41    0.57
   0  13   8    1.95    0.45
   1  13   8    3.71    0.64
   2  13   8    0.46    0.49
 -10  14   8    0.02    0.49
 -10  14   8    0.39    0.40
  -9  14   8    0.05    0.55
  -9  14   8    0.15    0.41
  -8  14   8    1.98    0.50
  -8  14   8    1.22    0.64
  -7  14   8    4.00    0.74
  -7  14   8    3.47    0.61
  -6  14   8    2.46    0.66
  -6  14   8    4.06    0.62
  -5  14   8    2.91    0.65
  -5  14   8    2.72    0.55
  -4  14   8    0.37    0.50
  -4  14   8    0.66    0.46
  -3  14   8    1.82    0.55
  -3  14   8    2.00    0.59
  -2  14   8    2.81    0.56
  -2  14   8    2.71    0.61
  -1  14   8    0.46    0.56
  -1  14   8    0.91    0.48
   0  14   8    0.16    0.55
  -8  15   8    0.76    0.63
  -8  15   8    0.71    0.49
  -7  15   8    5.98    0.74
  -7  15   8    6.30    0.83
  -6  15   8    1.14    0.58
  -6  15   8    0.83    0.46
  -5  15   8    3.19    0.68
  -5  15   8    4.21    0.75
  -4  15   8    1.24    0.51
  -4  15   8    1.24    0.57
  -3  15   8    4.27    0.65
  -3  15   8    3.35    0.62
   1  16  -9    0.13    0.45
   0  16  -9    0.25    0.44
  -1  16  -9    0.25    0.47
  -2  16  -9    3.77    0.63
  -3  16  -9    3.86    0.60
  -4  16  -9    1.57    0.47
  -5  16  -9    2.60    0.53
  -6  16  -9    0.69    0.47
  -7  16  -9   12.91    0.96
  -8  16  -9    0.15    0.46
   3  15  -9    0.17    0.43
   3  15  -9    0.10    0.50
   2  15  -9    4.77    0.74
   2  15  -9    3.93    0.58
   1  15  -9    4.86    0.58
   1  15  -9    3.77    0.61
   0  15  -9    0.91    0.47
  -1  15  -9    5.28    0.60
  -2  15  -9    0.18    0.38
  -3  15  -9    8.41    0.73
  -4  15  -9    0.34    0.40
  -5  15  -9    0.03    0.35
  -6  15  -9    0.75    0.48
  -7  15  -9    0.89    0.47
  -8  15  -9    2.88    0.61
  -9  15  -9    0.32    0.47
 -10  15  -9    0.00    0.54
   5  14  -9    2.76    0.61
   5  14  -9    1.58    0.62
   4  14  -9    0.00    0.43
   4  14  -9    0.00    0.55
   3  14  -9    4.27    0.62
   3  14  -9    4.24    0.72
   2  14  -9    1.33    0.51
   2  14  -9    0.68    0.42
   1  14  -9    5.46    0.67
   1  14  -9    6.24    0.65
   0  14  -9    2.44    0.43
   0  14  -9    1.96    0.49
  -1  14  -9    2.55    0.47
  -1  14  -9    2.79    0.44
  -2  14  -9    0.04    0.30
  -2  14  -9    0.04    0.35
  -3  14  -9    0.59    0.44
  -3  14  -9    0.62    0.31
  -4  14  -9    0.99    0.44
  -4  14  -9    1.34    0.36
  -5  14  -9    3.04    0.51
  -6  14  -9    0.01    0.40
  -7  14  -9    5.49    0.63
  -8  14  -9    0.01    0.44
  -9  14  -9    0.45    0.47
 -10  14  -9    1.47    0.60
 -11  14  -9    1.41    0.59
   6  13  -9    0.07    0.51
   6  13  -9    0.02    0.47
   5  13  -9    1.64    0.55
   5  13  -9    0.90    0.56
   4  13  -9    2.56    0.55
   4  13  -9    2.93    0.60
   3  13  -9    3.46    0.58
   3  13  -9    3.69    0.57
   2  13  -9    1.76    0.47
   2  13  -9    1.50    0.50
   1  13  -9    0.19    0.36
   1  13  -9    0.11    0.37
   0  13  -9    2.08    0.50
   0  13  -9    2.02    0.44
  -1  13  -9    0.20    0.32
  -1  13  -9    0.61    0.35
  -2  13  -9    0.28    0.29
  -2  13  -9    0.00    0.32
  -3  13  -9    0.02    0.33
  -3  13  -9    0.02    0.27
  -4  13  -9    3.24    0.49
  -4  13  -9    4.27    0.43
  -5  13  -9    0.08    0.28
  -5  13  -9    0.08    0.35
  -6  13  -9    0.52    0.42
  -6  13  -9    0.36    0.30
  -7  13  -9    5.36    0.50
  -7  13  -9    6.18    0.65
  -8  13  -9    0.08    0.33
  -8  13  -9    0.10    0.49
  -9  13  -9    0.74    0.49
  -9  13  -9    0.00    0.31
 -10  13  -9    0.88    0.53
 -11  13  -9    5.86    0.76
 -12  13  -9    0.00    0.45
   8  12  -9    0.42    0.58
   7  12  -9    1.10    0.61
   7  12  -9    0.19    0.54
   6  12  -9    0.00    0.44
   6  12  -9    0.35    0.44
   5  12  -9    0.01    0.41
   5  12  -9    0.01    0.48
   4  12  -9    0.44    0.52
   4  12  -9    0.01    0.40
   3  12  -9   14.28    0.94
   3  12  -9   13.60    0.95
   2  12  -9    3.93    0.59
   2  12  -9    5.46    0.64
   1  12  -9    0.01    0.31
   1  12  -9    0.01    0.35
   0  12  -9    2.96    0.51
   0  12  -9    3.05    0.49
  -1  12  -9    0.14    0.31
  -1  12  -9    0.04    0.31
  -2  12  -9    3.02    0.36
  -2  12  -9    2.94    0.40
  -3  12  -9    0.77    0.36
  -3  12  -9    0.09    0.29
  -4  12  -9    2.56    0.47
  -4  12  -9    2.46    0.39
  -5  12  -9    0.17    0.40
  -5  12  -9    0.18    0.31
  -6  12  -9    0.11    0.31
  -6  12  -9    0.07    0.38
  -7  12  -9   17.54    0.91
  -7  12  -9   17.47    1.07
  -8  12  -9    2.03    0.36
  -8  12  -9    1.38    0.46
  -9  12  -9   17.34    0.89
  -9  12  -9   16.19    1.08
 -10  12  -9    0.01    0.32
 -10  12  -9    0.57    0.54
 -11  12  -9    6.56    0.84
 -11  12  -9    5.43    0.56
 -12  12  -9    2.29    0.42
 -12  12  -9    1.38    0.56
   9  11  -9    0.00    0.43
   9  11  -9    1.38    0.65
   8  11  -9    4.45    0.78
   8  11  -9    4.30    0.80
   7  11  -9    1.24    0.58
   7  11  -9    1.47    0.60
   6  11  -9    0.49    0.47
   6  11  -9    1.96    0.57
   5  11  -9    0.53    0.47
   5  11  -9    0.01    0.48
   4  11  -9    0.69    0.45
   4  11  -9    0.38    0.43
   3  11  -9    0.44    0.42
   3  11  -9    1.21    0.44
   2  11  -9    1.86    0.44
   2  11  -9    2.08    0.43
   1  11  -9    0.02    0.32
   1  11  -9    0.02    0.33
   0  11  -9    3.31    0.53
   0  11  -9    2.50    0.51
  -1  11  -9   12.62    0.76
  -1  11  -9   12.88    0.72
  -2  11  -9    7.84    0.64
  -2  11  -9    8.24    0.68
  -3  11  -9   15.39    0.82
  -3  11  -9   13.89    0.89
  -4  11  -9    5.13    0.60
  -4  11  -9    4.17    0.66
  -5  11  -9   12.96    0.69
  -5  11  -9   13.95    0.87
  -6  11  -9    2.67    0.38
  -6  11  -9    2.33    0.46
  -7  11  -9    5.04    0.58
  -7  11  -9    4.81    0.43
  -8  11  -9    0.97    0.30
  -8  11  -9    1.14    0.41
  -9  11  -9   13.99    0.77
  -9  11  -9   13.71    0.93
 -10  11  -9    5.51    0.65
 -10  11  -9    4.87    0.48
 -11  11  -9    4.85    0.54
 -11  11  -9    6.08    0.79
 -12  11  -9    0.58    0.38
 -12  11  -9    0.94    0.52
 -13  11  -9    0.24    0.48
 -13  11  -9    0.00    0.40
  10  10  -9    0.01    0.61
   9  10  -9    1.21    0.64
   9  10  -9    0.00    0.36
   8  10  -9    0.01    0.46
   8  10  -9    0.01    0.37
   7  10  -9    3.72    0.65
   7  10  -9    6.47    0.80
   6  10  -9    0.02    0.41
   6  10  -9    0.33    0.47
   5  10  -9    1.82    0.53
   5  10  -9    1.04    0.44
   4  10  -9    7.31    0.77
   4  10  -9    7.50    0.79
   3  10  -9    6.52    0.59
   3  10  -9    6.46    0.62
   2  10  -9   15.83    0.90
   2  10  -9   14.07    0.94
   1  10  -9    2.59    0.49
   1  10  -9    3.03    0.47
   0  10  -9    1.59    0.42
   0  10  -9    1.51    0.41
  -1  10  -9   55.99    2.05
  -1  10  -9   54.38    1.96
  -2  10  -9    1.93    0.40
  -2  10  -9    2.78    0.44
  -3  10  -9   20.14    0.99
  -3  10  -9   18.62    1.00
  -4  10  -9    0.01    0.40
  -4  10  -9    0.40    0.34
  -5  10  -9    1.30    0.45
  -5  10  -9    1.84    0.40
  -6  10  -9   13.64    0.96
  -6  10  -9   13.87    0.81
  -7  10  -9    0.66    0.28
  -7  10  -9    0.03    0.40
  -8  10  -9    0.24    0.28
  -8  10  -9    0.00    0.37
  -9  10  -9    0.44    0.43
  -9  10  -9    0.47    0.31
 -10  10  -9    1.99    0.43
 -10  10  -9    1.69    0.56
 -11  10  -9   16.21    1.06
 -11  10  -9   16.34    0.93
 -12  10  -9    3.85    0.65
 -12  10  -9    4.02    0.51
 -13  10  -9    3.24    0.59
 -13  10  -9    3.42    0.67
  11   9  -9    0.00    0.56
  10   9  -9    2.29    0.65
  10   9  -9    0.66    0.34
   9   9  -9    0.04    0.54
   9   9  -9    0.29    0.20
   8   9  -9    9.10    1.02
   7   9  -9    0.82    0.46
   7   9  -9    0.22    0.40
   6   9  -9    0.02    0.37
   6   9  -9    0.53    0.43
   5   9  -9   13.79    1.01
   5   9  -9   14.00    1.01
   4   9  -9    7.50    0.77
   4   9  -9    8.43    0.79
   3   9  -9   13.27    0.82
   3   9  -9   13.55    0.75
   2   9  -9    0.03    0.36
   2   9  -9    0.11    0.34
   1   9  -9    0.84    0.34
   1   9  -9    1.08    0.33
   0   9  -9   16.48    0.86
   0   9  -9   16.76    0.85
  -1   9  -9   21.49    0.88
  -1   9  -9   23.02    0.89
  -2   9  -9   20.71    1.18
  -2   9  -9   22.00    1.18
  -3   9  -9    0.51    0.38
  -3   9  -9    0.22    0.32
  -4   9  -9    1.71    0.37
  -4   9  -9    1.47    0.40
  -5   9  -9    1.64    0.50
  -5   9  -9    1.45    0.36
  -6   9  -9    0.28    0.27
  -6   9  -9    0.49    0.35
  -7   9  -9   24.82    1.20
  -7   9  -9   26.87    1.34
  -8   9  -9    0.31    0.30
  -8   9  -9    0.00    0.34
  -9   9  -9    0.11    0.33
  -9   9  -9    0.01    0.38
 -10   9  -9    4.15    0.62
 -10   9  -9    3.85    0.51
 -11   9  -9    4.52    0.55
 -12   9  -9    0.42    0.43
 -13   9  -9    7.32    0.77
  11   8  -9    3.73    0.75
  10   8  -9    0.10    0.62
  10   8  -9    0.58    0.38
   9   8  -9    4.69    0.83
   8   8  -9    5.65    0.78
   7   8  -9    7.20    0.80
   6   8  -9    1.68    0.53
   5   8  -9    1.21    0.42
   5   8  -9    1.21    0.48
   4   8  -9    0.26    0.34
   4   8  -9    0.73    0.38
   3   8  -9    7.95    0.60
   3   8  -9    8.71    0.73
   2   8  -9    5.59    0.57
   2   8  -9    5.14    0.64
   1   8  -9    0.01    0.30
   1   8  -9    0.06    0.30
   0   8  -9    0.13    0.29
   0   8  -9    0.25    0.28
  -1   8  -9   17.20    0.87
  -1   8  -9   17.92    0.93
  -2   8  -9    0.76    0.34
  -2   8  -9    0.87    0.33
  -3   8  -9    0.44    0.31
  -3   8  -9    0.23    0.33
  -4   8  -9    7.15    0.49
  -4   8  -9    7.66    0.59
  -5   8  -9   17.85    0.78
  -5   8  -9   18.28    0.88
  -6   8  -9    5.62    0.49
  -6   8  -9    5.28    0.56
  -7   8  -9    5.91    0.53
  -7   8  -9    5.66    0.42
  -8   8  -9    1.18    0.34
  -9   8  -9    2.24    0.39
 -10   8  -9    1.83    0.43
 -11   8  -9    2.34    0.47
 -12   8  -9    0.70    0.45
 -13   8  -9    7.98    0.76
 -14   8  -9    1.03    0.47
  12   7  -9    0.01    0.59
  11   7  -9    2.78    0.71
  10   7  -9    0.29    0.61
  10   7  -9    0.92    0.39
   9   7  -9    7.05    0.98
   9   7  -9    5.86    0.70
   8   7  -9    0.65    0.28
   8   7  -9    1.66    0.50
   7   7  -9    0.00    0.25
   7   7  -9    0.00    0.40
   6   7  -9    0.24    0.36
   6   7  -9    0.85    0.46
   5   7  -9    1.62    0.45
   5   7  -9    0.99    0.29
   4   7  -9    0.91    0.39
   4   7  -9    0.56    0.24
   3   7  -9    2.87    0.50
   3   7  -9    2.30    0.40
   2   7  -9   16.22    0.79
   2   7  -9   15.46    0.89
   1   7  -9    1.30    0.34
   1   7  -9    1.50    0.31
   0   7  -9    8.65    0.57
   0   7  -9    7.74    0.47
  -1   7  -9   20.27    0.92
  -1   7  -9   19.60    0.84
  -2   7  -9    0.05    0.29
  -2   7  -9    0.10    0.25
  -3   7  -9    0.35    0.27
  -3   7  -9    0.19    0.23
  -4   7  -9    7.50    0.59
  -4   7  -9    6.40    0.50
  -5   7  -9   70.97    2.38
  -5   7  -9   68.63    2.40
  -6   7  -9    0.10    0.27
  -7   7  -9   16.91    0.94
  -8   7  -9   24.17    1.23
  -9   7  -9    2.73    0.49
 -10   7  -9    0.01    0.37
 -11   7  -9    0.00    0.42
 -12   7  -9    0.94    0.42
 -13   7  -9    4.38    0.71
 -14   7  -9    2.01    0.58
  13   6  -9    0.02    0.53
  12   6  -9    0.00    0.54
  11   6  -9    0.31    0.49
  10   6  -9    0.49    0.30
  10   6  -9    0.01    0.52
   9   6  -9    5.63    0.75
   9   6  -9    8.29    0.60
   8   6  -9    1.24    0.50
   8   6  -9    1.26    0.30
   7   6  -9    0.01    0.26
   7   6  -9    0.55    0.45
   6   6  -9    5.91    0.77
   6   6  -9    4.57    0.59
   5   6  -9    0.00    0.35
   5   6  -9    0.02    0.29
   4   6  -9   20.73    1.22
   4   6  -9   19.55    1.02
   3   6  -9    6.74    0.49
   2   6  -9    0.01    0.29
   2   6  -9    0.04    0.21
   1   6  -9    5.64    0.40
   1   6  -9    5.54    0.48
   0   6  -9    9.83    0.65
   0   6  -9   10.71    0.60
  -1   6  -9   31.23    1.18
  -1   6  -9   34.30    1.14
  -2   6  -9    8.21    0.48
  -2   6  -9    8.87    0.49
  -3   6  -9   17.66    0.87
  -3   6  -9   16.84    0.85
  -4   6  -9   20.08    0.89
  -5   6  -9   29.10    1.09
  -6   6  -9   23.73    1.13
  -7   6  -9    8.26    0.61
  -8   6  -9   19.92    1.03
  -9   6  -9   11.94    0.79
 -10   6  -9    0.68    0.43
 -11   6  -9    1.15    0.51
 -12   6  -9    0.12    0.46
 -13   6  -9    6.20    0.79
 -14   6  -9    0.07    0.49
  13   5  -9    1.04    0.63
  12   5  -9    0.29    0.59
  11   5  -9    1.09    0.52
  10   5  -9    0.18    0.26
  10   5  -9    0.05    0.52
   9   5  -9   11.95    0.99
   9   5  -9   12.91    0.71
   8   5  -9    0.25    0.45
   8   5  -9    1.34    0.30
   7   5  -9    0.96    0.46
   7   5  -9    1.60    0.29
   6   5  -9    0.51    0.39
   6   5  -9    0.03    0.23
   5   5  -9    6.12    0.76
   5   5  -9    6.04    0.60
   4   5  -9   38.30    1.36
   4   5  -9   40.91    1.62
   3   5  -9  113.52    3.94
   3   5  -9  116.11    3.57
   2   5  -9    2.56    0.35
   1   5  -9   31.04    1.71
   1   5  -9   29.66    1.51
   0   5  -9    0.90    0.33
   0   5  -9    1.45    0.26
  -1   5  -9  101.13    3.85
  -1   5  -9  100.20    3.59
  -2   5  -9    0.41    0.28
  -3   5  -9   10.96    0.67
  -4   5  -9    0.02    0.23
  -5   5  -9    0.11    0.25
  -6   5  -9    1.94    0.37
  -7   5  -9    3.69    0.49
  -8   5  -9    2.78    0.37
  -9   5  -9   12.25    0.78
 -10   5  -9   11.70    0.96
 -11   5  -9   13.02    0.95
 -12   5  -9    1.25    0.51
 -13   5  -9   14.14    1.06
 -14   5  -9    6.52    0.88
  14   4  -9    1.25    0.72
  13   4  -9    0.62    0.58
  12   4  -9    2.66    0.69
  11   4  -9    0.82    0.56
  10   4  -9    0.98    0.51
   9   4  -9    2.01    0.63
   9   4  -9    2.62    0.38
   8   4  -9   11.38    0.95
   8   4  -9   12.94    0.64
   7   4  -9    2.71    0.28
   7   4  -9    1.70    0.46
   6   4  -9    0.11    0.19
   6   4  -9    0.39    0.38
   5   4  -9   69.50    2.69
   5   4  -9   67.01    2.32
   4   4  -9    4.22    0.58
   4   4  -9    3.85    0.38
   3   4  -9   79.38    2.76
   3   4  -9   81.90    2.43
   2   4  -9    0.04    0.19
   2   4  -9    0.17    0.30
   1   4  -9    9.83    0.44
   0   4  -9   15.16    0.57
   0   4  -9   15.42    0.67
  -1   4  -9    2.73    0.44
  -2   4  -9   10.04    0.60
  -3   4  -9   14.36    0.63
  -4   4  -9    1.70    0.34
  -5   4  -9   47.30    1.92
  -6   4  -9   33.28    1.40
  -7   4  -9    9.46    0.60
  -8   4  -9    0.09    0.36
  -9   4  -9    8.15    0.69
 -10   4  -9   24.31    1.15
 -11   4  -9    0.04    0.41
 -12   4  -9    0.34    0.51
 -13   4  -9    5.99    0.75
 -14   4  -9    1.08    0.56
  14   3  -9    4.40    0.80
  13   3  -9    2.01    0.69
 -13  -3   9    1.38    0.41
  12   3  -9    2.71    0.66
 -12  -3   9    1.76    0.40
  11   3  -9    5.51    0.88
 -11  -3   9    8.23    0.71
  10   3  -9    5.49    0.73
 -10  -3   9    6.00    0.54
   9   3  -9   20.49    1.23
   9   3  -9   22.49    0.82
  -9  -3   9   23.84    1.03
   8   3  -9    0.03    0.40
   8   3  -9    0.12    0.17
  -8  -3   9    0.03    0.32
   7   3  -9    1.11    0.22
   7   3  -9    0.50    0.46
  -7  -3   9    0.78    0.35
   6   3  -9    3.18    0.25
   6   3  -9    2.44    0.46
  -6  -3   9    3.19    0.36
   5   3  -9   55.20    1.93
   5   3  -9   59.33    2.33
   4   3  -9   14.99    0.83
   4   3  -9   13.08    0.56
   3   3  -9    7.93    0.63
   3   3  -9    7.32    0.42
   2   3  -9    9.05    0.57
   2   3  -9    9.92    0.78
   1   3  -9   11.80    0.65
   0   3  -9    2.43    0.36
  -1   3  -9   85.60    2.66
  -2   3  -9    4.10    0.36
  -3   3  -9    2.40    0.34
  -4   3  -9    0.05    0.23
  -5   3  -9    8.96    0.60
  -6   3  -9   37.53    1.46
  -7   3  -9    3.37    0.50
  -8   3  -9    0.14    0.37
  -9   3  -9    4.08    0.62
 -10   3  -9    0.02    0.37
 -11   3  -9    0.19    0.42
 -12   3  -9    0.73    0.49
 -13   3  -9    0.66    0.55
 -14   3  -9    0.41    0.54
  14   2  -9    4.52    0.75
  13   2  -9    3.57    0.71
 -13  -2   9    4.37    0.54
  12   2  -9    2.16    0.59
 -12  -2   9    2.63    0.45
  11   2  -9    3.63    0.63
 -11  -2   9    4.11    0.49
  10   2  -9    2.34    0.56
 -10  -2   9    2.86    0.45
   9   2  -9   27.41    1.62
  -9  -2   9   29.78    1.40
   8   2  -9    3.58    0.67
   8   2  -9    2.22    0.22
  -8  -2   9    2.55    0.46
  -8  -2   9    1.92    0.20
   7   2  -9    0.14    0.38
   7   2  -9    0.51    0.11
  -7  -2   9    0.31    0.30
   6   2  -9    0.37    0.36
   6   2  -9    0.77    0.13
  -6  -2   9    0.63    0.34
   5   2  -9    0.05    0.34
   5   2  -9    0.04    0.11
  -5  -2   9    0.01    0.27
   4   2  -9   19.33    1.19
   4   2  -9   18.25    0.87
  -4  -2   9   20.47    1.07
   3   2  -9    0.39    0.30
   3   2  -9    0.38    0.14
  -3  -2   9    0.40    0.26
   2   2  -9   19.55    0.97
   2   2  -9   17.48    0.70
   1   2  -9    0.00    0.24
   0   2  -9   31.73    0.93
  -1   2  -9   42.85    1.59
  -2   2  -9    4.90    0.49
  -3   2  -9    0.41    0.35
  -4   2  -9    4.65    0.37
  -5   2  -9    7.17    0.55
  -6   2  -9    0.06    0.28
  -7   2  -9   19.01    0.91
  -8   2  -9    1.73    0.43
  -9   2  -9    0.13    0.43
 -10   2  -9    6.22    0.77
 -11   2  -9    0.72    0.46
 -12   2  -9    9.00    0.88
 -13   2  -9    1.31    0.58
  15   1  -9    2.17    0.72
  14   1  -9    0.16    0.49
 -14  -1   9    1.17    0.45
  13   1  -9    5.52    0.82
 -13  -1   9    4.72    0.58
  12   1  -9    0.16    0.46
 -12  -1   9    0.22    0.39
  11   1  -9    0.70    0.47
 -11  -1   9    0.62    0.38
  10   1  -9    0.02    0.42
 -10  -1   9    0.15    0.35
   9   1  -9    7.03    0.74
  -9  -1   9    6.87    0.60
   8   1  -9    2.40    0.49
  -8  -1   9    3.94    0.47
   7   1  -9    0.19    0.35
  -7  -1   9    0.02    0.30
   6   1  -9   13.84    1.08
  -6  -1   9   16.54    0.95
   5   1  -9   22.00    1.34
  -5  -1   9   25.40    1.23
   4   1  -9    2.61    0.52
   4   1  -9    2.27    0.23
   4   1  -9    2.38    0.24
  -4  -1   9    2.39    0.43
   3   1  -9    1.02    0.29
   3   1  -9    0.98    0.11
  -3  -1   9    1.00    0.28
   2   1  -9   29.20    1.36
  -2  -1   9   27.85    1.27
   1   1  -9    4.86    0.32
   0   1  -9    1.20    0.23
  -1   1  -9    0.00    0.19
  -2   1  -9   15.85    0.53
  -3   1  -9   49.07    1.63
  -4   1  -9    0.05    0.24
  -5   1  -9    4.98    0.53
  -6   1  -9    4.06    0.47
  -7   1  -9   17.55    1.00
  -8   1  -9   22.50    1.20
  -9   1  -9    0.01    0.38
 -10   1  -9    7.04    0.73
 -11   1  -9    1.98    0.56
 -12   1  -9    3.07    0.65
 -13   1  -9    9.82    1.00
  15   0  -9    2.10    0.61
 -15   0   9    2.51    0.50
  14   0  -9    1.57    0.63
 -14   0   9    1.53    0.47
  13   0  -9    2.63    0.66
 -13   0   9    2.43    0.51
  12   0  -9    3.60    0.64
 -12   0   9    3.35    0.52
  11   0  -9    2.21    0.55
 -11   0   9    3.38    0.50
  10   0  -9    6.17    0.69
 -10   0   9    5.68    0.56
   9   0  -9    0.29    0.40
  -9   0   9    0.67    0.40
   8   0  -9    4.44    0.61
  -8   0   9    4.92    0.55
   7   0  -9    9.06    0.88
  -7   0   9    8.89    0.75
   6   0  -9    0.25    0.35
  -6   0   9    0.84    0.34
   5   0  -9   37.93    2.06
  -5   0   9   41.30    1.93
   4   0  -9    0.32    0.11
   4   0  -9    0.23    0.34
   4   0  -9    0.38    0.12
  -4   0   9    0.41    0.34
   3   0  -9    8.50    0.64
  -3   0   9    8.59    0.59
   2   0  -9   54.21    1.53
  -2   0   9   53.41    1.45
   1   0  -9   32.69    1.19
  -1   0   9   32.96    1.19
   0   0  -9   46.13    1.27
   0   0   9   45.85    1.29
  -1   0  -9   41.99    1.54
  -2   0  -9    0.05    0.24
  -3   0  -9   71.00    2.92
  -4   0  -9    1.34    0.32
  -5   0  -9    5.50    0.58
  -6   0  -9    6.30    0.64
  -7   0  -9    3.30    0.47
  -8   0  -9    5.01    0.62
  -9   0  -9   18.30    1.13
 -10   0  -9    4.52    0.64
 -11   0  -9    3.55    0.66
 -12   0  -9    2.86    0.65
 -13   0  -9    3.77    0.73
  15  -1  -9    1.65    0.59
 -15   1   9    0.70    0.49
  14  -1  -9    0.49    0.47
 -14   1   9    1.02    0.47
  13  -1  -9    1.09    0.47
 -13   1   9    1.43    0.45
  12  -1  -9    3.92    0.67
 -12   1   9    3.35    0.54
  11  -1  -9    1.34    0.44
 -11   1   9    1.49    0.43
  10  -1  -9   19.11    1.22
 -10   1   9   22.11    1.18
   9  -1  -9   34.92    1.79
  -9   1   9   33.86    1.64
   8  -1  -9   17.53    1.24
  -8   1   9   19.11    1.20
   7  -1  -9    3.06    0.55
  -7   1   9    3.43    0.51
   6  -1  -9    7.00    0.51
  -6   1   9    7.98    0.48
   5  -1  -9   58.52    2.39
  -5   1   9   65.31    2.26
   4  -1  -9   26.69    0.94
   4  -1  -9   26.63    1.32
  -4   1   9   25.28    1.20
   3  -1  -9   50.89    1.82
  -3   1   9   50.85    1.73
   2  -1  -9    0.75    0.27
  -2   1   9    1.11    0.27
   1  -1  -9   42.60    1.84
  -1   1   9   43.83    1.83
   0  -1  -9    2.38    0.42
   0   1   9    2.96    0.50
  -1  -1  -9   13.95    0.82
   1   1   9   14.70    0.87
  -2  -1  -9    8.08    0.60
  -3  -1  -9    1.39    0.31
  -4  -1  -9    5.07    0.42
  -5  -1  -9   27.75    1.36
  -6  -1  -9   30.53    1.31
  -7  -1  -9   43.83    1.90
  -8  -1  -9    4.29    0.60
  -9  -1  -9    0.10    0.44
 -10  -1  -9    5.10    0.69
 -11  -1  -9    1.87    0.57
 -12  -1  -9    8.01    0.87
  15  -2  -9    0.01    0.48
 -15   2   9    0.21    0.45
  14  -2  -9   10.75    1.02
 -14   2   9    9.48    0.83
  13  -2  -9    2.81    0.58
 -13   2   9    2.72    0.52
  12  -2  -9    2.25    0.50
 -12   2   9    2.18    0.49
  11  -2  -9    9.25    0.88
 -11   2   9    7.17    0.69
  10  -2  -9    4.75    0.59
 -10   2   9    4.14    0.55
   9  -2  -9   53.68    2.21
  -9   2   9   54.82    2.12
   8  -2  -9    1.15    0.41
  -8   2   9    1.00    0.43
   7  -2  -9   13.23    0.84
  -7   2   9   14.15    0.83
   6  -2  -9    2.47    0.44
  -6   2   9    2.34    0.41
   5  -2  -9    4.46    0.66
  -5   2   9    4.41    0.57
   4  -2  -9   15.50    0.96
   4  -2  -9   15.68    0.65
  -4   2   9   15.99    0.90
   3  -2  -9    5.87    0.51
  -3   2   9    5.07    0.42
   2  -2  -9    4.54    0.52
  -2   2   9    3.73    0.50
   1  -2  -9   41.16    1.51
  -1   2   9   36.93    1.36
  -1   2   9   39.62    1.51
   0  -2  -9   25.01    1.07
   0   2   9   21.25    1.00
   0   2   9   24.86    1.10
  -1  -2  -9   26.29    1.08
   1   2   9   27.20    1.07
   1   2   9   27.33    1.11
  -2  -2  -9    5.24    0.47
   2   2   9    5.78    0.50
  -3  -2  -9    9.87    0.69
   3   2   9    9.52    0.69
  -4  -2  -9   32.21    1.62
   4   2   9   35.29    1.61
  -5  -2  -9    5.25    0.53
  -6  -2  -9    0.49    0.35
  -7  -2  -9    4.92    0.62
  -8  -2  -9    1.90    0.50
  -9  -2  -9    0.46    0.49
 -10  -2  -9    8.42    0.85
 -11  -2  -9    0.23    0.51
 -12  -2  -9    1.43    0.56
  15  -3  -9    2.77    0.64
 -15   3   9    3.86    0.66
  14  -3  -9    2.87    0.57
 -14   3   9    2.87    0.54
  13  -3  -9    5.52    0.73
 -13   3   9    4.74    0.61
  12  -3  -9    1.82    0.48
 -12   3   9    2.15    0.53
  11  -3  -9    5.43    0.61
 -11   3   9    5.10    0.54
  10  -3  -9    5.87    0.64
 -10   3   9    5.53    0.66
   9  -3  -9   17.58    1.03
  -9   3   9   15.60    0.98
   8  -3  -9    0.91    0.38
  -8   3   9    0.53    0.45
   7  -3  -9    0.00    0.34
  -7   3   9    0.03    0.35
   6  -3  -9    0.97    0.41
  -6   3   9    1.51    0.45
   5  -3  -9   17.10    1.05
  -5   3   9   21.32    1.04
   4  -3  -9    0.78    0.38
  -4   3   9    0.63    0.32
  -4   3   9    0.89    0.17
   3  -3  -9    0.46    0.35
  -3   3   9    0.25    0.31
  -3   3   9    0.09    0.18
   2  -3  -9    2.87    0.36
  -2   3   9    3.06    0.37
  -2   3   9    2.58    0.26
   1  -3  -9   24.94    1.08
  -1   3   9   24.59    1.12
  -1   3   9   22.39    1.00
   0  -3  -9   30.89    1.28
   0   3   9   28.71    1.23
   0   3   9   32.12    1.35
  -1  -3  -9   12.25    0.51
   1   3   9   12.48    0.57
   1   3   9   13.48    0.63
  -2  -3  -9    3.24    0.43
   2   3   9    4.08    0.51
   2   3   9    3.87    0.47
  -3  -3  -9   12.25    0.67
   3   3   9   12.73    0.71
  -4  -3  -9    2.38    0.37
   4   3   9    2.62    0.45
  -5  -3  -9    2.62    0.46
   5   3   9    3.06    0.52
  -6  -3  -9    0.66    0.44
   6   3   9    0.69    0.42
  -7  -3  -9    7.60    0.74
   7   3   9    7.00    0.71
  -8  -3  -9    5.51    0.70
  -9  -3  -9    3.65    0.58
 -10  -3  -9    4.57    0.67
 -11  -3  -9    0.02    0.43
  15  -4  -9    9.24    0.91
 -15   4   9    9.73    0.86
  14  -4  -9    0.28    0.46
 -14   4   9    0.03    0.49
  13  -4  -9    0.26    0.37
 -13   4   9    0.00    0.39
  12  -4  -9    0.62    0.37
 -12   4   9    0.00    0.44
  11  -4  -9    0.43    0.34
 -11   4   9    0.44    0.44
  10  -4  -9   15.93    1.00
 -10   4   9   14.48    1.09
   9  -4  -9    0.16    0.34
  -9   4   9    0.74    0.47
   8  -4  -9    1.39    0.41
  -8   4   9    0.72    0.47
   7  -4  -9    6.38    0.71
  -7   4   9    4.85    0.25
  -7   4   9    5.10    0.65
   6  -4  -9    0.17    0.31
   6  -4  -9    0.04    0.13
  -6   4   9    0.38    0.37
  -6   4   9    0.21    0.13
   5  -4  -9   40.60    1.84
  -5   4   9   45.88    1.48
  -5   4   9   46.91    1.80
   4  -4  -9    5.62    0.55
  -4   4   9    5.55    0.35
  -4   4   9    6.85    0.56
   3  -4  -9    2.33    0.45
  -3   4   9    2.52    0.30
  -3   4   9    2.68    0.43
   2  -4  -9    5.18    0.41
  -2   4   9    4.84    0.35
  -2   4   9    5.21    0.48
   1  -4  -9    9.09    0.52
  -1   4   9    8.57    0.61
  -1   4   9    7.48    0.51
   0  -4  -9    3.24    0.41
   0   4   9    3.29    0.44
   0   4   9    3.29    0.45
  -1  -4  -9    2.59    0.39
   1   4   9    3.20    0.46
   1   4   9    2.33    0.44
  -2  -4  -9    5.24    0.47
   2   4   9    5.01    0.49
   2   4   9    5.94    0.48
  -3  -4  -9   35.90    1.72
   3   4   9   38.96    1.73
  -4  -4  -9    0.49    0.36
   4   4   9    0.96    0.39
  -5  -4  -9    0.65    0.36
   5   4   9    0.14    0.36
  -6  -4  -9    4.21    0.60
   6   4   9    3.52    0.62
  -7  -4  -9    1.12    0.44
   7   4   9    0.19    0.44
  -8  -4  -9    1.31    0.46
   8   4   9    0.51    0.42
  -9  -4  -9    1.30    0.50
 -10  -4  -9    0.03    0.48
 -11  -4  -9    1.51    0.59
  15  -5  -9    4.21    0.66
 -15   5   9    3.32    0.68
  14  -5  -9    0.00    0.33
 -14   5   9    0.65    0.53
  13  -5  -9    0.56    0.42
 -13   5   9    0.00    0.48
  12  -5  -9    5.59    0.57
 -12   5   9    5.75    0.63
  11  -5  -9    1.61    0.45
 -11   5   9    1.42    0.52
  10  -5  -9    7.39    0.75
 -10   5   9    6.92    0.74
   9  -5  -9    3.85    0.55
  -9   5   9    2.75    0.56
   8  -5  -9    4.76    0.53
  -8   5   9    5.02    0.58
  -8   5   9    3.96    0.23
   7  -5  -9    0.03    0.32
  -7   5   9    0.19    0.38
  -7   5   9    0.03    0.15
   6  -5  -9    0.19    0.32
  -6   5   9    0.74    0.17
  -6   5   9    0.19    0.36
   5  -5  -9   56.18    2.52
  -5   5   9   67.09    2.16
  -5   5   9   69.69    2.48
   4  -5  -9    0.43    0.36
  -4   5   9    0.51    0.36
  -4   5   9    0.19    0.22
   3  -5  -9   24.38    1.21
  -3   5   9   22.67    1.17
  -3   5   9   22.21    0.99
   2  -5  -9   26.70    1.13
  -2   5   9   27.02    1.07
  -2   5   9   28.26    1.23
   1  -5  -9    3.48    0.43
  -1   5   9    2.79    0.47
  -1   5   9    2.93    0.46
   0  -5  -9    3.42    0.37
   0   5   9    3.99    0.43
   0   5   9    2.81    0.38
  -1  -5  -9   33.81    1.36
   1   5   9   35.79    1.39
   1   5   9   34.90    1.37
  -2  -5  -9    0.37    0.27
   2   5   9    0.06    0.35
   2   5   9    0.06    0.27
  -3  -5  -9    0.79    0.34
   3   5   9    1.05    0.26
   3   5   9    1.64    0.39
  -4  -5  -9    0.67    0.35
   4   5   9    0.56    0.41
  -5  -5  -9    0.03    0.31
   5   5   9    0.42    0.38
  -6  -5  -9    2.68    0.52
   6   5   9    3.36    0.58
  -7  -5  -9    4.88    0.62
   7   5   9    5.87    0.71
  -8  -5  -9    0.28    0.40
   8   5   9    0.67    0.49
  -9  -5  -9    1.02    0.48
   9   5   9    0.58    0.47
 -10  -5  -9    0.44    0.46
  10   5   9    0.42    0.47
  15  -6  -9    0.90    0.46
 -15   6   9    0.54    0.56
  14  -6  -9    1.09    0.40
 -14   6   9    1.70    0.60
  13  -6  -9    1.03    0.41
 -13   6   9    0.89    0.50
  12  -6  -9    1.05    0.44
 -12   6   9    1.63    0.60
  11  -6  -9    2.30    0.47
 -11   6   9    2.09    0.56
  10  -6  -9    0.90    0.32
 -10   6   9    0.84    0.45
   9  -6  -9   17.60    0.97
  -9   6   9   16.49    1.06
  -9   6   9   16.23    0.63
   8  -6  -9   20.56    1.00
  -8   6   9   19.53    1.09
  -8   6   9   18.88    0.69
   7  -6  -9   16.45    0.89
  -7   6   9   13.97    0.59
  -7   6   9   14.03    0.94
   6  -6  -9   11.84    0.85
  -6   6   9   12.06    0.60
  -6   6   9   12.04    0.97
   5  -6  -9   37.04    1.93
  -5   6   9   45.01    1.65
  -5   6   9   45.45    1.96
   4  -6  -9    0.67    0.44
  -4   6   9    0.65    0.29
  -4   6   9    0.99    0.42
   3  -6  -9   76.86    2.87
  -3   6   9   77.94    2.81
  -3   6   9   76.39    2.61
   2  -6  -9    0.19    0.27
  -2   6   9    0.02    0.32
  -2   6   9    0.07    0.30
   1  -6  -9    0.73    0.29
  -1   6   9    0.50    0.33
  -1   6   9    0.74    0.33
   0  -6  -9    1.25    0.31
   0   6   9    1.40    0.39
   0   6   9    1.87    0.41
  -1  -6  -9    0.68    0.32
   1   6   9    0.71    0.35
   1   6   9    0.95    0.42
  -2  -6  -9   55.17    2.01
   2   6   9   55.68    2.04
  -3  -6  -9    0.67    0.31
   3   6   9    0.02    0.27
   3   6   9    0.66    0.39
  -4  -6  -9    9.93    0.80
   4   6   9    9.48    0.82
  -5  -6  -9    1.43    0.43
   5   6   9    0.78    0.46
  -6  -6  -9    4.69    0.56
   6   6   9    3.31    0.55
  -7  -6  -9   13.41    0.99
   7   6   9   11.67    0.96
  -8  -6  -9    7.64    0.79
   8   6   9    9.24    0.92
  -9  -6  -9    0.00    0.42
   9   6   9    1.00    0.58
  15  -7  -9    4.29    0.65
 -15   7   9    4.17    0.77
  14  -7  -9    1.58    0.45
 -14   7   9    1.46    0.61
  13  -7  -9    0.43    0.38
 -13   7   9    0.29    0.49
  12  -7  -9    0.24    0.32
 -12   7   9    0.19    0.45
  11  -7  -9   22.91    1.17
 -11   7   9   19.85    1.28
  10  -7  -9    0.09    0.28
 -10   7   9    0.10    0.43
   9  -7  -9    9.42    0.80
  -9   7   9    7.49    0.89
  -9   7   9    7.99    0.55
   8  -7  -9    2.60    0.44
  -8   7   9    2.80    0.56
  -8   7   9    2.29    0.31
  -7   7   9   43.90    1.56
  -7   7   9   43.52    1.94
  -6   7   9   20.51    1.17
  -6   7   9   18.44    0.86
  -5   7   9    0.86    0.30
  -5   7   9    1.20    0.44
   4  -7  -9    3.94    0.54
  -4   7   9    6.50    0.48
  -4   7   9    6.96    0.66
   3  -7  -9   15.02    0.91
  -3   7   9   13.07    0.89
  -3   7   9   13.59    0.76
   2  -7  -9    1.40    0.31
  -2   7   9    1.37    0.36
  -2   7   9    1.18    0.33
   1  -7  -9   16.80    0.84
  -1   7   9   15.85    0.87
  -1   7   9   15.71    0.95
   0  -7  -9    4.60    0.47
   0   7   9    4.23    0.51
   0   7   9    4.64    0.54
  -1  -7  -9    5.75    0.48
   1   7   9    4.86    0.53
   1   7   9    5.89    0.50
  -2  -7  -9    8.62    0.57
   2   7   9    6.25    0.61
  -3  -7  -9   15.19    0.92
   3   7   9   14.56    1.00
   3   7   9   14.96    0.91
  -4  -7  -9    2.89    0.47
   4   7   9    3.60    0.54
  -5  -7  -9    0.23    0.37
   5   7   9    0.31    0.41
  -6  -7  -9    7.64    0.79
   6   7   9    7.07    0.85
  -7  -7  -9    3.17    0.58
   7   7   9    2.92    0.60
  -8  -7  -9    1.57    0.48
   8   7   9    1.45    0.54
  -9  -7  -9    0.01    0.42
   9   7   9    0.01    0.40
  15  -8  -9   19.38    1.21
 -15   8   9   21.40    1.37
  14  -8  -9    0.01    0.33
 -14   8   9    0.01    0.50
  13  -8  -9    4.58    0.59
 -13   8   9    4.48    0.77
  12  -8  -9    0.22    0.31
 -12   8   9    0.00    0.54
 -11   8   9    7.79    0.83
  10  -8  -9    6.76    0.50
   9  -8  -9    2.01    0.40
  -9   8   9    1.70    0.55
  -9   8   9    1.98    0.31
   8  -8  -9    0.06    0.26
  -8   8   9    0.07    0.25
  -8   8   9    0.04    0.43
   7  -8  -9    0.28    0.30
  -7   8   9    0.00    0.26
  -7   8   9    0.06    0.44
   6  -8  -9    5.05    0.54
  -6   8   9    4.99    0.45
  -6   8   9    4.98    0.62
   5  -8  -9   46.00    2.26
  -5   8   9   61.63    2.06
  -5   8   9   60.05    2.31
   4  -8  -9    1.43    0.45
  -4   8   9    1.57    0.37
  -4   8   9    2.48    0.51
   3  -8  -9    0.72    0.24
  -3   8   9    0.17    0.36
  -3   8   9    1.05    0.35
   2  -8  -9    2.21    0.34
  -2   8   9    4.06    0.49
  -2   8   9    4.31    0.54
   1  -8  -9    4.69    0.48
  -1   8   9    5.04    0.59
  -1   8   9    5.07    0.58
   0  -8  -9   14.87    0.75
   0   8   9   12.27    0.83
   0   8   9   13.73    0.86
  -1  -8  -9   19.33    0.99
   1   8   9   17.98    1.10
   1   8   9   16.99    1.00
  -2  -8  -9    1.23    0.40
   2   8   9    1.12    0.40
   2   8   9    0.64    0.44
  -3  -8  -9    0.14    0.33
   3   8   9    0.01    0.27
   3   8   9    0.01    0.37
  -4  -8  -9    7.55    0.65
   4   8   9    7.89    0.74
  -5  -8  -9    0.35    0.39
   5   8   9    0.42    0.45
  -6  -8  -9    0.10    0.41
   6   8   9    0.27    0.43
  -7  -8  -9    0.02    0.43
   7   8   9    0.20    0.47
  -8  -8  -9    1.57    0.53
   8   8   9    1.31    0.54
  14  -9  -9    0.27    0.15
 -14   9   9    0.90    0.57
  13  -9  -9    0.20    0.30
 -13   9   9    0.01    0.52
  12  -9  -9    0.21    0.33
 -12   9   9    0.22    0.52
  11  -9  -9    1.98    0.39
 -11   9   9    1.64    0.63
  10  -9  -9    3.41    0.45
 -10   9   9    4.34    0.72
   9  -9  -9    0.94    0.30
  -9   9   9    0.14    0.45
  -9   9   9    0.63    0.29
  -8   9   9    0.28    0.47
  -8   9   9    0.25    0.28
   7  -9  -9    9.07    0.63
  -7   9   9    8.39    0.58
  -7   9   9    6.92    0.76
   6  -9  -9    5.29    0.55
  -6   9   9    5.40    0.72
  -6   9   9    6.12    0.53
   5  -9  -9    0.94    0.40
  -5   9   9    2.24    0.58
  -5   9   9    1.55    0.40
   4  -9  -9    0.05    0.32
  -4   9   9    1.05    0.41
  -4   9   9    0.05    0.31
   3  -9  -9   11.22    0.84
  -3   9   9   12.44    0.96
  -3   9   9   13.50    0.83
   2  -9  -9    1.90    0.40
  -2   9   9    2.04    0.46
  -2   9   9    1.23    0.45
  -1   9   9    1.09    0.41
  -1   9   9    0.55    0.43
   0  -9  -9    1.57    0.35
   0   9   9    1.96    0.48
   0   9   9    1.58    0.38
  -1  -9  -9    7.78    0.57
   1   9   9    6.38    0.67
  -2  -9  -9    3.01    0.43
   2   9   9    2.60    0.52
   2   9   9    3.02    0.43
  -3  -9  -9    5.29    0.61
   3   9   9    5.30    0.59
   3   9   9    4.79    0.70
  -4  -9  -9   20.11    1.11
   4   9   9   20.28    1.23
  -5  -9  -9    3.50    0.50
   5   9   9    3.89    0.62
  -6  -9  -9    0.02    0.37
   6   9   9    0.02    0.42
  -7  -9  -9    0.17    0.43
   7   9   9    0.09    0.46
 -14  10   9    0.01    0.52
 -13  10   9    0.65    0.55
 -12  10   9    1.73    0.63
 -11  10   9   10.31    1.11
  10 -10  -9    0.28    0.26
 -10  10   9    0.33    0.54
   9 -10  -9    5.39    0.47
  -9  10   9    5.71    0.49
  -9  10   9    5.35    0.71
   8 -10  -9    5.38    0.50
  -8  10   9    3.86    0.47
  -8  10   9    3.90    0.68
   7 -10  -9    0.52    0.23
  -7  10   9    0.06    0.30
  -7  10   9    0.06    0.48
   6 -10  -9    3.09    0.40
  -6  10   9    3.33    0.48
  -6  10   9    3.17    0.61
   5 -10  -9    0.00    0.20
  -5  10   9    0.51    0.43
  -5  10   9    0.25    0.31
   4 -10  -9    0.02    0.31
  -4  10   9    0.91    0.36
  -4  10   9    1.41    0.48
   3 -10  -9   32.02    1.49
  -3  10   9   35.89    1.46
  -3  10   9   38.25    1.57
   2 -10  -9    0.39    0.31
  -2  10   9    0.01    0.36
  -2  10   9    0.10    0.40
   1 -10  -9    0.23    0.27
  -1  10   9    0.23    0.36
  -1  10   9    0.01    0.40
   0 -10  -9    0.00    0.08
   0  10   9    0.00    0.41
   0  10   9    0.00    0.31
  -1 -10  -9   11.29    0.73
   1  10   9    8.21    0.67
   1  10   9   11.80    0.85
  -2 -10  -9    2.10    0.41
   2  10   9    1.51    0.40
   2  10   9    2.19    0.52
  -3 -10  -9    0.02    0.34
   3  10   9    0.17    0.41
  -4 -10  -9    1.26    0.43
   4  10   9    1.17    0.55
  -5 -10  -9    0.40    0.34
   5  10   9    0.30    0.46
  -6 -10  -9    0.03    0.39
   6  10   9    0.03    0.45
 -13  11   9    0.81    0.60
 -12  11   9    0.04    0.51
 -11  11   9   12.23    1.09
 -10  11   9    0.02    0.48
  -9  11   9   11.07    1.03
  -9  11   9   10.99    0.74
  -8  11   9    0.62    0.50
  -8  11   9    0.58    0.34
  -7  11   9    9.64    0.67
  -7  11   9    8.05    0.87
  -6  11   9    0.00    0.41
  -6  11   9    0.00    0.34
  -5  11   9    0.00    0.46
  -5  11   9    0.66    0.37
  -4  11   9    2.49    0.56
  -4  11   9    1.94    0.44
   3 -11  -9   15.35    0.95
  -3  11   9   15.63    0.93
  -3  11   9   16.34    1.04
   2 -11  -9    0.02    0.29
  -2  11   9    0.12    0.40
  -2  11   9    0.05    0.37
   1 -11  -9    0.23    0.31
  -1  11   9    0.52    0.39
  -1  11   9    0.30    0.41
   0 -11  -9    0.04    0.29
   0  11   9    0.04    0.33
   0  11   9    0.01    0.39
   1  11   9    3.28    0.46
   1  11   9    2.97    0.56
  -2 -11  -9    0.01    0.31
   2  11   9    0.01    0.47
  -3 -11  -9    3.87    0.52
   3  11   9    3.29    0.63
  -4 -11  -9    0.01    0.34
   4  11   9    0.01    0.43
  -5 -11  -9    6.38    0.70
 -12  12   9    0.02    0.52
 -11  12   9    5.51    0.80
 -10  12   9    1.13    0.58
  -9  12   9   15.31    1.17
  -9  12   9   16.91    0.89
  -8  12   9    0.67    0.40
  -8  12   9    0.86    0.52
  -7  12   9    0.75    0.39
  -7  12   9    0.50    0.49
  -6  12   9    4.03    0.66
  -6  12   9    3.70    0.54
  -5  12   9    0.04    0.42
  -5  12   9    0.28    0.35
  -4  12   9    3.86    0.60
  -4  12   9    3.86    0.61
  -3  12   9    0.22    0.41
  -3  12   9    0.32    0.43
  -2  12   9    1.15    0.47
  -2  12   9    1.54    0.52
  -1  12   9    1.71    0.50
  -1  12   9    1.77    0.48
   0 -12  -9    1.84    0.39
   0  12   9    0.45    0.27
   0  12   9    1.96    0.53
  -1 -12  -9    9.59    0.74
   1  12   9   11.75    0.97
   1  12   9   10.74    0.98
   2  12   9    2.39    0.64
  -3 -12  -9    1.86    0.43
   3  12   9    1.38    0.55
 -11  13   9    0.06    0.58
 -10  13   9    0.93    0.60
  -9  13   9    2.12    0.69
  -9  13   9    1.63    0.48
  -8  13   9    1.52    0.57
  -8  13   9    1.62    0.47
  -7  13   9    2.23    0.67
  -7  13   9    2.15    0.50
  -6  13   9    3.46    0.67
  -6  13   9    5.75    0.67
  -5  13   9    7.67    0.74
  -5  13   9    6.73    0.77
  -4  13   9    0.00    0.37
  -4  13   9    0.85    0.49
  -3  13   9   10.87    0.93
  -3  13   9   10.67    0.93
  -2  13   9    3.09    0.56
  -2  13   9    4.24    0.62
  -1  13   9    2.83    0.58
  -1  13   9    2.73    0.59
   0  13   9    3.12    0.67
   1  13   9    2.49    0.58
  -9  14   9    0.86    0.44
  -9  14   9    1.00    0.64
  -8  14   9    1.41    0.49
  -8  14   9    1.62    0.58
  -7  14   9    6.25    0.71
  -7  14   9    7.15    0.88
  -6  14   9    6.38    0.87
  -6  14   9    7.32    0.77
  -5  14   9    2.32    0.62
  -5  14   9    2.40    0.52
  -4  14   9    1.60    0.58
  -4  14   9    2.13    0.58
  -3  14   9    3.08    0.58
  -3  14   9    3.10    0.61
  -2  14   9    1.21    0.57
  -2  14   9    0.90    0.47
  -1  14   9    0.12    0.40
   0  16 -10    0.01    0.45
  -1  16 -10    0.22    0.41
  -2  16 -10    0.23    0.46
  -3  16 -10    4.57    0.59
  -4  16 -10    1.56    0.45
  -5  16 -10    2.81    0.51
  -6  16 -10    0.41    0.50
   3  15 -10    0.73    0.48
   2  15 -10    2.16    0.55
   2  15 -10    2.45    0.55
   1  15 -10    3.82    0.62
   1  15 -10    3.78    0.59
   0  15 -10    1.08    0.43
   0  15 -10    1.20    0.47
  -1  15 -10    5.05    0.63
  -2  15 -10    0.01    0.43
  -3  15 -10    3.91    0.57
  -4  15 -10    0.48    0.44
  -5  15 -10    1.44    0.47
  -6  15 -10    1.54    0.50
  -7  15 -10    1.16    0.51
  -8  15 -10    1.21    0.57
  -9  15 -10    1.46    0.57
   5  14 -10    3.04    0.65
   4  14 -10    0.12    0.45
   4  14 -10    0.01    0.48
   3  14 -10   12.90    0.98
   3  14 -10   12.85    1.01
   2  14 -10    0.05    0.42
   2  14 -10    0.15    0.39
   1  14 -10    5.19    0.60
   1  14 -10    5.14    0.60
   0  14 -10    0.03    0.33
   0  14 -10    0.09    0.37
  -1  14 -10    0.07    0.33
  -1  14 -10    0.51    0.37
  -2  14 -10    1.80    0.48
  -2  14 -10    1.95    0.43
  -3  14 -10    0.89    0.34
  -3  14 -10    1.00    0.46
  -4  14 -10    0.12    0.30
  -4  14 -10    0.12    0.42
  -5  14 -10    2.88    0.41
  -5  14 -10    2.97    0.53
  -6  14 -10    0.07    0.42
  -7  14 -10   15.99    1.10
  -8  14 -10    0.29    0.47
  -9  14 -10    2.18    0.59
 -10  14 -10    0.19    0.51
   6  13 -10    0.03    0.53
   6  13 -10    0.02    0.55
   5  13 -10    0.11    0.42
   5  13 -10    0.21    0.53
   4  13 -10    0.23    0.51
   4  13 -10    0.42    0.45
   3  13 -10    1.69    0.51
   3  13 -10    2.59    0.55
   2  13 -10    0.18    0.38
   2  13 -10    0.03    0.41
   1  13 -10    1.31    0.45
   1  13 -10    1.68    0.42
   0  13 -10    1.67    0.45
   0  13 -10    2.25    0.44
  -1  13 -10    6.34    0.60
  -1  13 -10    5.56    0.64
  -2  13 -10    0.00    0.33
  -2  13 -10    0.00    0.31
  -3  13 -10    2.58    0.40
  -3  13 -10    2.34    0.45
  -4  13 -10    0.16    0.36
  -4  13 -10    0.09    0.33
  -5  13 -10    0.03    0.43
  -5  13 -10    0.09    0.31
  -6  13 -10    2.67    0.61
  -6  13 -10    3.92    0.51
  -7  13 -10    0.73    0.37
  -7  13 -10    0.78    0.46
  -8  13 -10    0.35    0.37
  -8  13 -10    0.24    0.48
  -9  13 -10    3.42    0.65
  -9  13 -10    4.30    0.50
 -10  13 -10    1.02    0.38
 -10  13 -10    1.33    0.53
 -11  13 -10    0.00    0.47
   7  12 -10    0.66    0.56
   7  12 -10    0.00    0.49
   6  12 -10    0.00    0.45
   6  12 -10    0.00    0.50
   5  12 -10    0.00    0.49
   5  12 -10    0.30    0.42
   4  12 -10    0.50    0.47
   4  12 -10    0.25    0.49
   3  12 -10    1.20    0.46
   3  12 -10    0.39    0.44
   2  12 -10    0.91    0.42
   2  12 -10    0.91    0.43
   1  12 -10    1.03    0.38
   1  12 -10    0.89    0.42
   0  12 -10    3.74    0.51
   0  12 -10    3.76    0.52
  -1  12 -10    3.13    0.48
  -1  12 -10    2.03    0.43
  -2  12 -10    0.96    0.32
  -2  12 -10    0.50    0.33
  -3  12 -10    0.35    0.31
  -3  12 -10    0.00    0.32
  -4  12 -10    6.85    0.58
  -4  12 -10    5.73    0.63
  -5  12 -10    2.13    0.55
  -5  12 -10    2.13    0.43
  -6  12 -10    0.96    0.36
  -6  12 -10    1.23    0.43
  -7  12 -10    0.03    0.43
  -7  12 -10    0.18    0.35
  -8  12 -10    0.24    0.42
  -8  12 -10    0.41    0.34
  -9  12 -10   16.16    1.09
  -9  12 -10   15.74    0.90
 -10  12 -10    0.18    0.46
 -10  12 -10    0.67    0.36
 -11  12 -10    0.23    0.35
 -11  12 -10    0.06    0.49
 -12  12 -10    0.00    0.36
   8  11 -10    0.01    0.45
   8  11 -10    0.01    0.39
   7  11 -10    0.45    0.55
   7  11 -10    0.37    0.53
   6  11 -10    2.91    0.64
   6  11 -10    3.03    0.60
   5  11 -10    0.00    0.38
   5  11 -10    0.17    0.47
   4  11 -10    1.18    0.42
   4  11 -10    0.06    0.41
   3  11 -10    5.57    0.68
   3  11 -10    4.19    0.58
   2  11 -10    5.42    0.56
   2  11 -10    4.87    0.59
   1  11 -10    5.74    0.62
   1  11 -10    5.13    0.58
   0  11 -10    0.02    0.31
   0  11 -10    0.22    0.31
  -1  11 -10    7.40    0.69
  -1  11 -10    7.33    0.71
  -2  11 -10    0.23    0.35
  -2  11 -10    0.14    0.34
  -3  11 -10   15.28    0.99
  -3  11 -10   16.59    0.96
  -4  11 -10    5.36    0.52
  -4  11 -10    5.98    0.48
  -5  11 -10   16.46    0.96
  -5  11 -10   19.86    1.10
  -6  11 -10    0.01    0.38
  -6  11 -10    0.11    0.31
  -7  11 -10    0.71    0.49
  -7  11 -10    0.85    0.35
  -8  11 -10    0.73    0.35
  -8  11 -10    0.19    0.43
  -9  11 -10    4.43    0.67
  -9  11 -10    5.36    0.53
 -10  11 -10    5.29    0.70
 -10  11 -10    6.21    0.56
 -11  11 -10    1.29    0.41
 -11  11 -10    1.43    0.56
 -12  11 -10    0.49    0.40
 -12  11 -10    0.62    0.53
   9  10 -10    0.01    0.23
   9  10 -10    0.56    0.54
   8  10 -10    1.08    0.59
   8  10 -10    0.19    0.29
   7  10 -10    0.50    0.52
   7  10 -10    0.83    0.58
   6  10 -10    0.85    0.49
   6  10 -10    0.01    0.42
   5  10 -10    0.02    0.43
   5  10 -10    0.02    0.42
   4  10 -10    1.65    0.44
   4  10 -10    0.87    0.41
   3  10 -10   12.63    0.89
   3  10 -10   12.44    0.94
   2  10 -10    1.70    0.45
   2  10 -10    2.09    0.45
   1  10 -10    4.81    0.58
   1  10 -10    5.23    0.52
   0  10 -10    2.45    0.43
   0  10 -10    2.00    0.43
  -1  10 -10   20.61    1.01
  -1  10 -10   19.10    1.05
  -2  10 -10    6.89    0.54
  -2  10 -10    6.06    0.49
  -3  10 -10   15.52    0.83
  -3  10 -10   15.86    0.82
  -4  10 -10    0.74    0.35
  -4  10 -10    1.13    0.39
  -5  10 -10    7.65    0.55
  -5  10 -10    6.96    0.60
  -6  10 -10    1.88    0.56
  -6  10 -10    2.19    0.45
  -7  10 -10    4.05    0.57
  -7  10 -10    3.52    0.43
  -8  10 -10    3.83    0.42
  -8  10 -10    5.02    0.60
  -9  10 -10    1.48    0.48
  -9  10 -10    1.39    0.37
 -10  10 -10    0.12    0.36
 -10  10 -10    0.16    0.46
 -11  10 -10    3.91    0.63
 -11  10 -10    3.50    0.50
 -12  10 -10    1.33    0.59
 -12  10 -10    1.11    0.40
 -13  10 -10    6.81    0.69
  10   9 -10    0.23    0.56
   9   9 -10    1.67    0.59
   9   9 -10    0.08    0.30
   8   9 -10   10.25    1.10
   7   9 -10    1.55    0.57
   6   9 -10    1.44    0.47
   6   9 -10    2.86    0.61
   5   9 -10    3.53    0.54
   5   9 -10    3.67    0.58
   4   9 -10    0.00    0.36
   4   9 -10    0.00    0.35
   3   9 -10   19.86    0.98
   3   9 -10   18.36    1.05
   2   9 -10    1.16    0.36
   2   9 -10    1.15    0.35
   1   9 -10   17.24    1.02
   1   9 -10   19.20    0.97
   0   9 -10    2.72    0.38
   0   9 -10    2.38    0.41
  -1   9 -10    0.18    0.36
  -1   9 -10    0.01    0.29
  -2   9 -10   20.08    0.93
  -2   9 -10   21.50    0.95
  -3   9 -10    0.00    0.32
  -3   9 -10    0.06    0.33
  -4   9 -10    0.45    0.33
  -4   9 -10    0.00    0.32
  -5   9 -10   18.43    0.93
  -5   9 -10   19.67    0.86
  -6   9 -10    3.20    0.42
  -6   9 -10    4.76    0.56
  -7   9 -10    6.38    0.48
  -7   9 -10    6.76    0.62
  -8   9 -10    0.07    0.35
  -8   9 -10    0.68    0.32
  -9   9 -10   11.56    0.73
  -9   9 -10   12.28    0.85
 -10   9 -10    0.82    0.34
 -11   9 -10    1.97    0.47
 -12   9 -10    0.51    0.43
 -13   9 -10    1.96    0.54
  11   8 -10    1.26    0.65
  10   8 -10    0.01    0.57
   9   8 -10    7.61    0.60
   8   8 -10    1.40    0.58
   8   8 -10    0.00    0.22
   7   8 -10   13.63    1.03
   7   8 -10    8.35    0.78
   6   8 -10    0.06    0.32
   6   8 -10    0.06    0.40
   5   8 -10    1.20    0.49
   4   8 -10    6.70    0.55
   4   8 -10    6.88    0.64
   3   8 -10    2.32    0.38
   3   8 -10    2.46    0.50
   2   8 -10    0.30    0.29
   2   8 -10    0.32    0.34
   1   8 -10    0.48    0.27
   1   8 -10    0.48    0.37
   0   8 -10    0.58    0.28
   0   8 -10    0.87    0.37
  -1   8 -10   35.57    1.67
  -1   8 -10   35.78    1.60
  -2   8 -10    2.87    0.35
  -2   8 -10    3.69    0.42
  -3   8 -10    3.00    0.50
  -3   8 -10    3.03    0.47
  -4   8 -10    1.01    0.37
  -4   8 -10    1.18    0.35
  -5   8 -10   12.76    0.93
  -5   8 -10   14.35    1.02
  -6   8 -10   22.75    1.16
  -6   8 -10   22.23    1.05
  -7   8 -10    3.47    0.56
  -7   8 -10    4.25    0.50
  -8   8 -10    0.88    0.36
  -9   8 -10    0.16    0.31
 -10   8 -10    0.59    0.40
 -11   8 -10    0.42    0.42
 -12   8 -10    1.01    0.41
 -13   8 -10    0.08    0.42
  12   7 -10    0.16    0.64
  11   7 -10    0.00    0.52
  10   7 -10    1.88    0.62
   9   7 -10    9.74    0.95
   9   7 -10   10.53    0.69
   8   7 -10    4.37    0.67
   8   7 -10    0.82    0.29
   7   7 -10    0.01    0.24
   7   7 -10    0.61    0.48
   6   7 -10    0.19    0.44
   6   7 -10    0.19    0.33
   5   7 -10    1.08    0.39
   5   7 -10    0.50    0.44
   4   7 -10    0.04    0.38
   4   7 -10    0.81    0.28
   3   7 -10   11.87    0.81
   3   7 -10   16.87    1.08
   2   7 -10    4.81    0.47
   2   7 -10    4.98    0.37
   1   7 -10    0.00    0.29
   1   7 -10    0.00    0.25
   0   7 -10    8.64    0.67
   0   7 -10    8.66    0.58
  -1   7 -10   11.33    0.82
  -1   7 -10   11.63    0.78
  -2   7 -10    1.44    0.33
  -2   7 -10    1.72    0.32
  -3   7 -10    1.50    0.29
  -3   7 -10    1.67    0.35
  -4   7 -10   17.72    0.82
  -4   7 -10   21.43    0.89
  -5   7 -10    8.76    0.52
  -6   7 -10    3.77    0.43
  -7   7 -10    0.29    0.34
  -8   7 -10    0.00    0.33
  -9   7 -10    4.26    0.46
 -10   7 -10   13.71    0.95
 -11   7 -10    1.58    0.48
 -12   7 -10    0.08    0.41
 -13   7 -10    1.12    0.56
  12   6 -10    0.06    0.53
  11   6 -10    0.51    0.56
  10   6 -10    0.07    0.49
   9   6 -10    0.54    0.29
   9   6 -10    0.12    0.53
   8   6 -10    0.75    0.26
   8   6 -10    1.07    0.52
   7   6 -10    0.01    0.19
   7   6 -10    0.01    0.38
   6   6 -10    0.63    0.33
   6   6 -10    1.44    0.48
   5   6 -10    1.46    0.33
   5   6 -10    2.18    0.45
   4   6 -10    3.00    0.36
   4   6 -10    3.25    0.53
   3   6 -10   19.61    1.03
   3   6 -10   22.29    1.25
   2   6 -10    2.93    0.35
   2   6 -10    4.31    0.55
   1   6 -10    0.56    0.41
   1   6 -10    0.40    0.32
   0   6 -10    4.29    0.39
   0   6 -10    5.20    0.51
  -1   6 -10    0.00    0.28
  -1   6 -10    0.34    0.26
  -2   6 -10    9.46    0.77
  -2   6 -10   10.69    0.76
  -3   6 -10   20.30    0.94
  -3   6 -10   22.04    0.96
  -4   6 -10    0.15    0.26
  -5   6 -10    2.25    0.41
  -6   6 -10    0.74    0.29
  -7   6 -10   11.69    0.76
  -8   6 -10    8.92    0.68
  -9   6 -10    1.83    0.44
 -10   6 -10    0.66    0.43
 -11   6 -10    0.25    0.45
 -12   6 -10    1.01    0.49
 -13   6 -10   12.30    1.03
  13   5 -10    0.32    0.56
  12   5 -10    0.00    0.59
  11   5 -10    0.65    0.55
  10   5 -10    0.02    0.45
   9   5 -10    0.04    0.50
   8   5 -10    3.01    0.36
   8   5 -10    2.37    0.59
   7   5 -10    1.13    0.47
   7   5 -10    1.20    0.26
   6   5 -10    0.30    0.26
   6   5 -10    1.32    0.50
   5   5 -10   22.10    0.91
   5   5 -10   23.13    1.13
   4   5 -10    0.52    0.38
   4   5 -10    0.07    0.23
   3   5 -10   47.79    1.53
   3   5 -10   46.37    1.80
   2   5 -10   12.25    0.71
   2   5 -10   17.32    0.96
   1   5 -10   37.96    1.23
   1   5 -10   38.37    1.42
   0   5 -10   15.40    0.87
   0   5 -10   15.98    0.76
  -1   5 -10    8.40    0.60
  -1   5 -10    9.63    0.54
  -2   5 -10    0.96    0.30
  -3   5 -10   37.72    1.40
  -4   5 -10    7.58    0.57
  -5   5 -10    0.57    0.28
  -6   5 -10    9.01    0.55
  -7   5 -10   13.28    0.88
  -8   5 -10    5.91    0.61
  -9   5 -10   21.92    1.18
 -10   5 -10    1.29    0.42
 -11   5 -10    3.07    0.61
 -12   5 -10    1.35    0.48
 -13   5 -10    7.54    0.82
  13   4 -10    0.78    0.58
  12   4 -10    0.36    0.60
  11   4 -10    0.19    0.50
  10   4 -10    3.11    0.61
   9   4 -10    7.66    0.90
   8   4 -10    0.22    0.46
   8   4 -10    0.86    0.22
   7   4 -10    2.72    0.58
   7   4 -10    4.44    0.33
   6   4 -10    5.19    0.39
   5   4 -10   50.40    1.94
   5   4 -10   54.15    2.32
   4   4 -10   19.47    0.92
   4   4 -10   20.20    1.19
   3   4 -10   25.41    1.19
   3   4 -10   23.65    1.44
   2   4 -10    1.90    0.33
   2   4 -10    2.47    0.22
   1   4 -10   21.26    1.12
   0   4 -10    5.18    0.49
   0   4 -10    4.67    0.36
  -1   4 -10    9.92    0.57
  -2   4 -10    1.26    0.29
  -3   4 -10    0.03    0.26
  -4   4 -10    2.62    0.34
  -5   4 -10    4.04    0.44
  -6   4 -10   26.24    1.32
  -7   4 -10   12.98    0.81
  -8   4 -10    9.93    0.87
  -9   4 -10   16.21    0.98
 -10   4 -10    1.47    0.48
 -11   4 -10    0.03    0.38
 -12   4 -10    6.25    0.80
 -13   4 -10    0.22    0.56
  14   3 -10    5.33    0.90
  13   3 -10    3.79    0.75
 -13  -3  10    5.64    0.57
  12   3 -10    0.06    0.46
 -12  -3  10    0.45    0.38
  11   3 -10    0.58    0.49
 -11  -3  10    1.00    0.38
  10   3 -10    3.50    0.67
 -10  -3  10    4.79    0.53
   9   3 -10   19.66    1.25
  -9  -3  10   22.60    1.04
   8   3 -10    5.51    0.71
   8   3 -10    5.29    0.31
  -8  -3  10    5.03    0.53
   7   3 -10   17.63    1.16
   7   3 -10   18.93    0.75
  -7  -3  10   19.16    1.00
   6   3 -10    1.85    0.46
   6   3 -10    2.45    0.19
  -6  -3  10    1.71    0.32
   5   3 -10    4.38    0.58
   5   3 -10    3.38    0.30
   4   3 -10   21.26    1.04
   4   3 -10   19.50    0.74
   3   3 -10    1.00    0.46
   3   3 -10    1.26    0.26
   2   3 -10    4.11    0.51
   2   3 -10    4.94    0.35
   1   3 -10    0.34    0.33
   1   3 -10    0.24    0.17
   0   3 -10    2.83    0.48
  -1   3 -10   65.18    2.87
  -2   3 -10    2.17    0.34
  -3   3 -10   26.26    1.01
  -4   3 -10    4.27    0.45
  -5   3 -10    0.55    0.32
  -6   3 -10    4.25    0.44
  -7   3 -10    6.74    0.64
  -8   3 -10   18.52    1.03
  -9   3 -10    0.21    0.36
 -10   3 -10    4.17    0.66
 -11   3 -10    4.12    0.63
 -12   3 -10    2.30    0.62
 -13   3 -10    3.20    0.65
  14   2 -10    0.70    0.60
 -14  -2  10    0.44    0.42
  13   2 -10    7.77    0.98
 -13  -2  10    9.41    0.76
  12   2 -10    0.88    0.53
 -12  -2  10    0.75    0.40
  11   2 -10    4.68    0.71
 -11  -2  10    4.81    0.54
  10   2 -10    3.29    0.69
 -10  -2  10    4.52    0.57
   9   2 -10    5.61    0.83
  -9  -2  10    6.71    0.64
   8   2 -10    2.20    0.52
  -8  -2  10    3.77    0.46
   7   2 -10    3.30    0.54
  -7  -2  10    4.57    0.48
   6   2 -10    0.59    0.40
   6   2 -10    1.40    0.13
  -6  -2  10    0.84    0.37
   5   2 -10   21.80    0.64
   5   2 -10   24.82    1.03
  -5  -2  10   27.24    0.92
   4   2 -10    0.99    0.50
   4   2 -10    1.21    0.26
  -4  -2  10    1.18    0.44
   3   2 -10    5.68    0.40
   3   2 -10    6.47    0.72
  -3  -2  10    5.29    0.59
   2   2 -10    1.91    0.19
   2   2 -10    2.15    0.38
   1   2 -10    4.70    0.33
   0   2 -10   70.36    2.86
  -1   2 -10    0.30    0.22
  -2   2 -10    4.10    0.33
  -3   2 -10   74.90    2.65
  -4   2 -10    4.93    0.52
  -5   2 -10    8.69    0.63
  -6   2 -10   12.16    0.85
  -7   2 -10    7.60    0.69
  -8   2 -10    7.67    0.70
  -9   2 -10    0.38    0.40
 -10   2 -10    9.02    0.77
 -11   2 -10    2.19    0.55
 -12   2 -10    0.30    0.50
 -13   2 -10    3.95    0.73
  14   1 -10    0.69    0.56
 -14  -1  10    1.39    0.46
  13   1 -10    5.02    0.82
 -13  -1  10    4.50    0.59
  12   1 -10    1.05    0.53
 -12  -1  10    1.46    0.45
  11   1 -10    0.93    0.50
 -11  -1  10    0.28    0.39
  10   1 -10    0.71    0.50
 -10  -1  10    0.28    0.38
   9   1 -10   15.84    1.09
  -9  -1  10   18.42    1.00
   8   1 -10    1.17    0.54
  -8  -1  10    1.80    0.45
   7   1 -10    0.00    0.38
  -7  -1  10    0.57    0.39
   6   1 -10    3.01    0.52
  -6  -1  10    3.36    0.42
   5   1 -10   27.29    0.77
   5   1 -10   25.15    1.21
  -5  -1  10   28.06    1.10
   4   1 -10   30.36    0.93
   4   1 -10   29.80    0.92
   4   1 -10   31.01    1.32
  -4  -1  10   31.24    1.18
   3   1 -10    2.43    0.61
   3   1 -10    2.34    0.32
  -3  -1  10    1.80    0.50
   2   1 -10   15.56    1.17
  -2  -1  10   14.94    1.12
   1   1 -10    2.57    0.46
   0   1 -10    0.09    0.25
  -1   1 -10    6.52    0.43
  -2   1 -10    0.49    0.24
  -3   1 -10   26.86    1.22
  -4   1 -10    0.68    0.32
  -5   1 -10    2.42    0.45
  -6   1 -10   22.54    1.09
  -7   1 -10    0.19    0.35
  -8   1 -10    2.07    0.50
  -9   1 -10    1.38    0.50
 -10   1 -10    1.72    0.47
 -11   1 -10    1.26    0.51
 -12   1 -10    0.73    0.56
  15   0 -10    0.36    0.59
 -15   0  10    0.23    0.44
  14   0 -10    1.38    0.67
 -14   0  10    1.48    0.51
  13   0 -10    0.39    0.54
 -13   0  10    0.05    0.41
  12   0 -10    6.63    0.86
 -12   0  10    6.38    0.67
  11   0 -10    0.00    0.48
 -11   0  10    0.25    0.41
  10   0 -10    0.33    0.44
 -10   0  10    0.00    0.34
   9   0 -10   12.03    0.94
  -9   0  10   13.78    0.91
   8   0 -10    2.01    0.47
  -8   0  10    2.99    0.46
   7   0 -10    0.32    0.39
  -7   0  10    0.87    0.41
   6   0 -10    2.42    0.56
  -6   0  10    3.26    0.49
   5   0 -10    0.15    0.36
  -5   0  10    0.00    0.31
   4   0 -10   29.39    1.24
   4   0 -10   29.30    1.26
   4   0 -10   31.10    1.71
  -4   0  10   30.78    1.55
   3   0 -10   14.60    0.80
  -3   0  10   14.43    0.72
   2   0 -10    6.81    0.63
  -2   0  10    7.74    0.63
   1   0 -10   54.24    1.79
  -1   0  10   53.89    1.78
   0   0 -10   15.11    0.72
  -1   0 -10    7.86    0.51
  -2   0 -10   26.05    1.24
  -3   0 -10   14.64    0.64
  -4   0 -10    2.03    0.36
  -5   0 -10    0.23    0.31
  -6   0 -10    1.50    0.41
  -7   0 -10   27.21    1.34
  -8   0 -10    2.10    0.49
  -9   0 -10    4.91    0.61
 -10   0 -10    0.09    0.48
 -11   0 -10    6.52    0.80
 -12   0 -10    8.33    0.93
  15  -1 -10    0.41    0.57
 -15   1  10    0.41    0.48
  14  -1 -10    3.11    0.66
 -14   1  10    4.02    0.58
  13  -1 -10    0.56    0.47
 -13   1  10    0.00    0.40
  12  -1 -10    1.31    0.52
 -12   1  10    0.65    0.44
  11  -1 -10    0.93    0.49
 -11   1  10    0.29    0.37
  10  -1 -10    1.07    0.50
 -10   1  10    0.89    0.40
   9  -1 -10   29.50    1.56
  -9   1  10   28.77    1.39
   8  -1 -10    7.36    0.75
  -8   1  10    7.79    0.66
   7  -1 -10   11.79    0.86
  -7   1  10   13.63    0.81
   6  -1 -10    2.73    0.57
  -6   1  10    3.31    0.56
   5  -1 -10    0.75    0.36
  -5   1  10    1.11    0.34
   4  -1 -10    4.51    0.47
   4  -1 -10    5.61    0.24
  -4   1  10    3.78    0.38
   3  -1 -10   41.17    1.89
  -3   1  10   37.38    1.75
   2  -1 -10    8.80    0.58
  -2   1  10    9.88    0.61
   1  -1 -10    0.76    0.28
  -1   1  10    1.64    0.37
   0  -1 -10    0.18    0.25
   0   1  10    0.16    0.29
  -1  -1 -10    6.37    0.50
  -2  -1 -10    9.22    0.49
  -3  -1 -10   31.69    1.22
  -4  -1 -10    0.98    0.41
  -5  -1 -10    1.92    0.39
  -6  -1 -10    0.03    0.35
  -7  -1 -10   15.82    0.96
  -8  -1 -10   25.38    1.40
  -9  -1 -10    8.67    0.88
 -10  -1 -10    0.32    0.46
 -11  -1 -10    1.10    0.57
 -12  -1 -10    7.42    0.97
  15  -2 -10    2.35    0.63
 -15   2  10    2.06    0.53
  14  -2 -10    2.33    0.66
 -14   2  10    1.64    0.54
  13  -2 -10    2.58    0.61
 -13   2  10    2.56    0.57
  12  -2 -10    2.61    0.62
 -12   2  10    3.06    0.58
  11  -2 -10    2.47    0.59
 -11   2  10    2.98    0.59
  10  -2 -10    2.04    0.52
 -10   2  10    2.18    0.53
   9  -2 -10   20.75    1.23
  -9   2  10   18.78    1.08
   8  -2 -10    0.53    0.40
  -8   2  10    0.84    0.41
   7  -2 -10   33.79    1.62
  -7   2  10   36.02    1.56
   6  -2 -10    0.86    0.43
  -6   2  10    0.09    0.35
   5  -2 -10   16.08    0.52
   5  -2 -10   17.00    0.93
  -5   2  10   18.26    0.87
   4  -2 -10    0.06    0.37
  -4   2  10    0.04    0.33
   3  -2 -10    4.39    0.53
  -3   2  10    3.67    0.46
   2  -2 -10    9.52    0.78
  -2   2  10   10.04    0.77
   1  -2 -10   58.83    2.17
  -1   2  10   61.12    2.17
   0  -2 -10   19.68    0.79
   0   2  10   18.83    0.83
  -1  -2 -10   37.92    1.59
   1   2  10   40.82    1.64
  -2  -2 -10    7.35    0.47
  -3  -2 -10   55.44    2.07
  -4  -2 -10   13.26    0.72
  -5  -2 -10    2.84    0.48
  -6  -2 -10   14.45    0.82
  -7  -2 -10    3.18    0.50
  -8  -2 -10    0.01    0.36
  -9  -2 -10    0.20    0.46
 -10  -2 -10    0.90    0.55
 -11  -2 -10    0.37    0.48
  15  -3 -10    7.53    0.89
 -15   3  10    8.18    0.84
  14  -3 -10    0.32    0.51
 -14   3  10    0.20    0.49
  13  -3 -10    3.99    0.63
 -13   3  10    2.74    0.58
  12  -3 -10    2.66    0.63
 -12   3  10    2.25    0.59
  11  -3 -10    1.71    0.49
 -11   3  10    1.29    0.46
  10  -3 -10   13.06    0.94
 -10   3  10   13.62    0.92
   9  -3 -10    0.01    0.36
  -9   3  10    0.01    0.40
   8  -3 -10    3.29    0.62
  -8   3  10    3.22    0.56
   7  -3 -10    1.42    0.45
  -7   3  10    1.42    0.43
   6  -3 -10    0.39    0.42
  -6   3  10    0.42    0.38
   5  -3 -10   27.96    1.46
  -5   3  10   31.63    1.40
   4  -3 -10   17.06    1.06
  -4   3  10   15.31    0.95
   3  -3 -10    7.37    0.70
  -3   3  10    6.53    0.68
  -3   3  10    6.61    0.47
   2  -3 -10    1.08    0.32
  -2   3  10    1.38    0.26
  -2   3  10    1.59    0.39
   1  -3 -10   19.85    0.98
  -1   3  10   19.08    0.91
  -1   3  10   20.81    1.04
   0  -3 -10   13.35    0.75
   0   3  10   12.27    0.73
   0   3  10   13.87    0.81
  -1  -3 -10    2.75    0.44
   1   3  10    3.52    0.51
   1   3  10    3.54    0.52
  -2  -3 -10    9.58    0.68
   2   3  10    8.88    0.75
   2   3  10    9.74    0.71
  -3  -3 -10   15.25    0.88
   3   3  10   14.49    0.90
  -4  -3 -10    0.20    0.34
   4   3  10    0.28    0.36
  -5  -3 -10    1.47    0.43
   5   3  10    2.13    0.50
  -6  -3 -10    1.74    0.45
  -7  -3 -10    0.11    0.35
  -8  -3 -10    6.58    0.73
  -9  -3 -10    5.17    0.71
 -10  -3 -10    0.76    0.48
 -11  -3 -10    0.83    0.51
  15  -4 -10    3.89    0.65
 -15   4  10    2.70    0.61
  14  -4 -10    3.02    0.65
 -14   4  10    2.79    0.63
  13  -4 -10    2.24    0.58
 -13   4  10    2.33    0.60
  12  -4 -10    0.83    0.42
 -12   4  10    0.95    0.52
  11  -4 -10    2.69    0.55
 -11   4  10    2.64    0.56
  10  -4 -10    4.39    0.65
 -10   4  10    5.36    0.67
   9  -4 -10    9.35    0.89
  -9   4  10    8.85    0.87
   8  -4 -10    0.04    0.33
  -8   4  10    0.54    0.46
   7  -4 -10    0.13    0.40
  -7   4  10    0.32    0.42
   6  -4 -10   19.88    1.11
  -6   4  10   24.11    1.18
  -6   4  10   22.69    0.72
   5  -4 -10   10.96    0.92
  -5   4  10   16.55    0.95
  -5   4  10   14.73    0.61
   4  -4 -10   18.25    1.24
  -4   4  10   17.51    0.88
  -4   4  10   19.03    1.16
   3  -4 -10   15.94    0.88
  -3   4  10   15.85    0.68
  -3   4  10   16.76    0.95
   2  -4 -10    0.06    0.31
  -2   4  10    0.06    0.33
  -2   4  10    0.06    0.22
   1  -4 -10    0.11    0.27
  -1   4  10    0.04    0.31
  -1   4  10    0.04    0.26
   0  -4 -10    4.28    0.41
   0   4  10    3.91    0.46
   0   4  10    4.45    0.43
  -1  -4 -10    4.35    0.42
   1   4  10    4.29    0.47
   1   4  10    4.23    0.45
  -2  -4 -10    0.32    0.29
   2   4  10    0.38    0.37
   2   4  10    0.82    0.33
  -3  -4 -10    1.78    0.33
   3   4  10    0.59    0.35
  -4  -4 -10   13.21    0.81
   4   4  10   13.41    0.87
  -5  -4 -10    3.32    0.43
   5   4  10    4.00    0.55
  -6  -4 -10    0.02    0.34
   6   4  10    0.09    0.40
  -7  -4 -10    1.08    0.42
   7   4  10    0.80    0.43
  -8  -4 -10    1.19    0.48
  -9  -4 -10    0.28    0.43
 -10  -4 -10    0.24    0.46
  15  -5 -10    0.00    0.42
 -15   5  10    0.59    0.50
  14  -5 -10    2.18    0.56
 -14   5  10    1.40    0.56
  13  -5 -10    3.03    0.56
 -13   5  10    2.66    0.61
  12  -5 -10    3.35    0.56
 -12   5  10    2.48    0.61
  11  -5 -10    2.18    0.50
 -11   5  10    2.00    0.53
  10  -5 -10    9.68    0.81
 -10   5  10    7.46    0.77
   9  -5 -10   12.68    0.88
  -9   5  10   11.05    0.89
   8  -5 -10    0.55    0.39
  -8   5  10    0.18    0.48
   7  -5 -10   11.39    0.84
  -7   5  10    9.54    0.77
  -7   5  10    9.74    0.41
   6  -5 -10    6.27    0.68
  -6   5  10    6.23    0.38
  -6   5  10    6.44    0.71
   5  -5 -10    2.09    0.47
  -5   5  10    1.99    0.43
  -5   5  10    1.91    0.24
   4  -5 -10    0.04    0.33
  -4   5  10    0.04    0.21
  -4   5  10    0.04    0.40
   3  -5 -10   47.18    2.03
  -3   5  10   43.73    1.74
  -3   5  10   44.98    1.98
   2  -5 -10    4.48    0.50
  -2   5  10    4.57    0.46
  -2   5  10    5.15    0.56
   1  -5 -10    2.28    0.36
  -1   5  10    2.59    0.37
  -1   5  10    2.51    0.40
   0  -5 -10   48.36    1.91
   0   5  10   48.71    1.88
   0   5  10   47.26    1.91
  -1  -5 -10    0.31    0.29
   1   5  10    0.27    0.33
   1   5  10    0.22    0.33
  -2  -5 -10    8.23    0.58
   2   5  10    7.93    0.57
   2   5  10    8.12    0.62
  -3  -5 -10    4.29    0.47
   3   5  10    4.70    0.51
  -4  -5 -10    1.11    0.36
   4   5  10    1.25    0.43
  -5  -5 -10    0.67    0.40
   5   5  10    0.58    0.43
  -6  -5 -10    1.53    0.44
   6   5  10    0.99    0.47
  -7  -5 -10    8.04    0.72
   7   5  10    9.33    0.81
  -8  -5 -10    0.23    0.46
   8   5  10    1.08    0.56
  -9  -5 -10    3.86    0.59
   9   5  10    4.02    0.64
 -10  -5 -10    0.27    0.53
  15  -6 -10    4.81    0.69
 -15   6  10    5.08    0.77
  14  -6 -10    0.33    0.43
 -14   6  10    0.02    0.51
  13  -6 -10    1.42    0.47
 -13   6  10    0.92    0.51
  12  -6 -10    0.00    0.36
 -12   6  10    0.29    0.48
  11  -6 -10    7.35    0.69
 -11   6  10    6.36    0.76
  10  -6 -10    1.14    0.40
 -10   6  10    1.18    0.54
   9  -6 -10    0.18    0.35
  -9   6  10    0.24    0.45
   8  -6 -10    3.88    0.61
  -8   6  10    3.22    0.63
  -8   6  10    4.08    0.34
   7  -6 -10   49.77    2.28
  -7   6  10   47.05    1.83
  -7   6  10   47.96    2.23
   6  -6 -10    1.75    0.47
  -6   6  10    1.43    0.27
  -6   6  10    2.52    0.52
   5  -6 -10    1.97    0.54
  -5   6  10    4.45    0.40
  -5   6  10    3.44    0.56
   4  -6 -10    0.00    0.39
  -4   6  10    0.36    0.38
  -4   6  10    0.05    0.24
   3  -6 -10   30.82    1.39
  -3   6  10   28.75    1.34
  -3   6  10   30.20    1.19
   2  -6 -10    4.23    0.48
  -2   6  10    4.17    0.54
  -2   6  10    3.98    0.45
   1  -6 -10    0.18    0.26
  -1   6  10    0.02    0.34
  -1   6  10    0.02    0.27
   0  -6 -10    0.24    0.30
   0   6  10    0.00    0.33
   0   6  10    0.00    0.33
  -1  -6 -10    0.31    0.31
   1   6  10    0.00    0.32
   1   6  10    0.19    0.35
  -2  -6 -10    1.68    0.42
   2   6  10    2.34    0.50
   2   6  10    1.85    0.43
  -3  -6 -10    6.36    0.59
   3   6  10    6.79    0.59
   3   6  10    6.45    0.67
  -4  -6 -10    0.00    0.34
   4   6  10    0.54    0.46
  -5  -6 -10    0.44    0.41
   5   6  10    0.75    0.47
  -6  -6 -10   10.83    0.79
   6   6  10    9.06    0.84
  -7  -6 -10    4.65    0.66
   7   6  10    5.09    0.70
  -8  -6 -10   10.76    0.89
   8   6  10   11.32    1.05
  -9  -6 -10    2.89    0.61
   9   6  10    3.64    0.68
  15  -7 -10    8.87    0.85
  14  -7 -10    0.17    0.37
 -14   7  10    0.01    0.56
  13  -7 -10    4.46    0.62
 -13   7  10    4.76    0.72
  12  -7 -10   10.72    0.86
 -12   7  10   11.44    0.99
  11  -7 -10    7.45    0.70
 -11   7  10    6.53    0.78
  10  -7 -10    2.28    0.49
 -10   7  10    2.31    0.60
   9  -7 -10    5.92    0.63
  -9   7  10    6.68    0.78
   8  -7 -10    1.78    0.37
  -8   7  10    0.19    0.48
  -8   7  10    0.06    0.20
   7  -7 -10    9.58    0.80
  -7   7  10    8.96    0.53
  -7   7  10    8.79    0.81
   6  -7 -10    0.02    0.37
  -6   7  10    0.56    0.50
  -6   7  10    0.07    0.26
   5  -7 -10    6.71    0.77
  -5   7  10    9.34    0.80
  -5   7  10    9.46    0.59
   4  -7 -10    6.09    0.75
  -4   7  10    7.83    0.59
  -4   7  10    8.85    0.81
   3  -7 -10    1.05    0.45
  -3   7  10    0.70    0.33
  -3   7  10    1.08    0.45
   2  -7 -10    1.11    0.37
  -2   7  10    0.82    0.34
  -2   7  10    1.67    0.42
   1  -7 -10    0.15    0.29
  -1   7  10    0.36    0.38
  -1   7  10    0.56    0.34
   0  -7 -10    8.68    0.65
   0   7  10   10.06    0.77
   0   7  10    8.06    0.69
  -1  -7 -10   24.91    1.20
   1   7  10   24.00    1.22
   1   7  10   22.15    1.24
  -2  -7 -10   30.93    1.40
   2   7  10   28.45    1.46
  -3  -7 -10    6.09    0.57
   3   7  10    6.06    0.70
   3   7  10    6.10    0.56
  -4  -7 -10    0.19    0.31
   4   7  10    0.48    0.41
  -5  -7 -10    3.96    0.52
   5   7  10    4.91    0.63
  -6  -7 -10    6.73    0.75
   6   7  10    6.55    0.79
  -7  -7 -10    1.64    0.54
   7   7  10    1.75    0.60
  -8  -7 -10    2.13    0.51
   8   7  10    2.40    0.60
  14  -8 -10    0.53    0.37
 -14   8  10    0.01    0.50
  13  -8 -10    7.79    0.76
 -13   8  10    6.98    0.86
  12  -8 -10    0.01    0.31
 -12   8  10    0.47    0.50
  11  -8 -10    0.91    0.40
 -11   8  10    0.27    0.52
  10  -8 -10    0.13    0.16
 -10   8  10    0.18    0.47
   9  -8 -10    0.08    0.10
  -9   8  10    0.02    0.47
  -8   8  10    8.54    0.48
  -8   8  10    7.84    0.77
   7  -8 -10    4.62    0.49
  -7   8  10    5.36    0.41
  -7   8  10    4.52    0.60
   6  -8 -10    0.54    0.28
  -6   8  10    0.75    0.45
  -6   8  10    1.15    0.30
  -5   8  10    0.65    0.44
  -5   8  10    1.04    0.34
  -4   8  10    3.67    0.66
  -4   8  10    2.93    0.48
   3  -8 -10   37.73    1.73
  -3   8  10   39.46    1.58
  -3   8  10   40.33    1.77
   2  -8 -10   12.57    0.75
  -2   8  10   11.05    0.81
  -2   8  10   10.93    0.72
   1  -8 -10    2.33    0.41
  -1   8  10    2.04    0.47
  -1   8  10    3.22    0.49
   0  -8 -10    5.41    0.58
   0   8  10    5.64    0.62
   0   8  10    5.63    0.68
  -1  -8 -10    0.36    0.32
   1   8  10    0.64    0.33
   1   8  10    0.02    0.38
  -2  -8 -10   30.53    1.28
   2   8  10   24.71    1.19
   2   8  10   31.05    1.39
  -3  -8 -10    0.20    0.35
   3   8  10    0.19    0.32
   3   8  10    0.29    0.41
  -4  -8 -10    6.31    0.66
   4   8  10    5.61    0.73
  -5  -8 -10    0.91    0.44
   5   8  10    1.27    0.52
  -6  -8 -10    0.13    0.41
   6   8  10    0.06    0.46
  -7  -8 -10    3.04    0.60
   7   8  10    1.63    0.60
 -14   9  10    2.77    0.69
 -13   9  10    3.01    0.68
  12  -9 -10    0.62    0.35
 -12   9  10    0.67    0.60
  11  -9 -10    9.04    0.70
 -11   9  10    7.41    0.83
  10  -9 -10    1.29    0.37
 -10   9  10    0.71    0.58
   9  -9 -10    8.36    0.65
  -9   9  10    6.62    0.77
   8  -9 -10    1.11    0.32
  -8   9  10    0.55    0.46
  -8   9  10    0.31    0.26
   7  -9 -10    0.99    0.31
  -7   9  10    0.84    0.30
  -7   9  10    1.72    0.52
  -6   9  10    8.06    0.82
  -6   9  10    9.03    0.60
  -5   9  10    2.63    0.42
  -5   9  10    1.77    0.53
   4  -9 -10    5.57    0.68
  -4   9  10    7.12    0.74
  -4   9  10    6.20    0.58
   3  -9 -10   16.14    0.98
  -3   9  10   18.94    0.97
  -3   9  10   18.30    1.06
  -2   9  10    2.91    0.52
  -2   9  10    3.32    0.51
   1  -9 -10    0.41    0.32
  -1   9  10    0.00    0.36
  -1   9  10    0.00    0.34
   0  -9 -10    0.00    0.29
   0   9  10    0.03    0.33
   0   9  10    0.00    0.35
  -1  -9 -10    1.41    0.39
   1   9  10    0.70    0.37
   1   9  10    1.02    0.47
  -2  -9 -10    0.53    0.34
   2   9  10    0.73    0.48
   2   9  10    0.76    0.37
  -3  -9 -10    0.42    0.36
   3   9  10    0.01    0.38
   3   9  10    0.01    0.31
  -4  -9 -10    4.12    0.55
   4   9  10    3.38    0.62
  -5  -9 -10    0.41    0.34
   5   9  10    0.10    0.45
  -6  -9 -10    2.83    0.55
   6   9  10    2.43    0.60
 -13  10  10    0.25    0.52
 -12  10  10    0.12    0.59
 -11  10  10    5.94    0.78
 -10  10  10    8.89    0.98
   9 -10 -10   10.36    0.75
  -9  10  10    8.02    0.94
   8 -10 -10    2.48    0.37
  -8  10  10    1.86    0.37
  -8  10  10    1.07    0.58
   7 -10 -10    0.88    0.31
  -7  10  10    0.01    0.44
  -7  10  10    0.30    0.31
   6 -10 -10    0.26    0.24
  -6  10  10    0.18    0.49
  -6  10  10    0.00    0.30
  -5  10  10    0.21    0.32
  -5  10  10    0.71    0.44
   4 -10 -10    0.03    0.32
  -4  10  10    0.70    0.36
  -4  10  10    0.83    0.45
   3 -10 -10    5.77    0.65
  -3  10  10    4.99    0.67
  -3  10  10    5.99    0.64
   2 -10 -10    0.54    0.33
  -2  10  10    1.36    0.41
  -2  10  10    0.63    0.42
  -1  10  10    4.95    0.62
  -1  10  10    4.91    0.59
   0 -10 -10    5.53    0.54
   0  10  10    4.82    0.56
   0  10  10    5.34    0.68
  -1 -10 -10    0.76    0.35
   1  10  10    0.62    0.43
  -2 -10 -10    0.69    0.36
   2  10  10    0.76    0.39
   2  10  10    0.30    0.44
  -3 -10 -10    0.29    0.35
   3  10  10    0.00    0.46
  -4 -10 -10    0.14    0.36
   4  10  10    0.24    0.45
  -5 -10 -10    2.71    0.52
   5  10  10    2.88    0.60
 -12  11  10    0.00    0.51
 -11  11  10    0.79    0.65
 -10  11  10    1.56    0.61
  -9  11  10   11.72    1.03
  -8  11  10    0.01    0.48
  -8  11  10    0.01    0.33
  -7  11  10    2.00    0.55
  -7  11  10    2.32    0.40
  -6  11  10    5.99    0.62
  -6  11  10    6.72    0.82
  -5  11  10    2.63    0.48
  -5  11  10    1.70    0.57
   4 -11 -10    0.10    0.36
  -4  11  10    0.97    0.43
  -4  11  10    1.11    0.51
   3 -11 -10    0.00    0.36
  -3  11  10    0.34    0.44
  -3  11  10    0.73    0.43
   2 -11 -10    1.01    0.38
  -2  11  10    0.75    0.43
  -2  11  10    0.53    0.39
   1 -11 -10    0.77    0.34
  -1  11  10    1.08    0.48
  -1  11  10    0.43    0.39
   0 -11 -10    0.35    0.26
   0  11  10    0.01    0.35
   0  11  10    0.34    0.41
  -1 -11 -10    6.53    0.62
   1  11  10    7.16    0.67
   1  11  10    7.46    0.78
  -2 -11 -10    2.78    0.47
   2  11  10    2.73    0.64
  -3 -11 -10    3.92    0.56
   3  11  10    4.20    0.70
  -4 -11 -10    0.33    0.39
 -11  12  10    0.05    0.61
 -10  12  10    0.10    0.53
  -9  12  10    4.40    0.75
  -8  12  10    3.03    0.49
  -8  12  10    2.20    0.63
  -7  12  10    1.36    0.44
  -7  12  10    0.74    0.51
  -6  12  10    1.93    0.60
  -6  12  10    2.62    0.47
  -5  12  10    0.02    0.37
  -5  12  10    0.19    0.45
  -4  12  10    0.41    0.47
  -4  12  10    0.83    0.43
  -3  12  10    4.77    0.65
  -3  12  10    4.59    0.67
  -2  12  10    1.16    0.48
  -2  12  10    0.54    0.44
  -1  12  10    2.59    0.54
  -1  12  10    1.54    0.46
   0  12  10    1.87    0.60
   0  12  10    1.35    0.44
  -1 -12 -10    5.14    0.58
   1  12  10    6.33    0.79
   2  12  10    1.76    0.58
 -10  13  10    0.07    0.61
  -9  13  10    0.01    0.54
  -8  13  10    0.78    0.53
  -8  13  10    0.60    0.39
  -7  13  10    2.75    0.52
  -7  13  10    2.62    0.63
  -6  13  10    2.37    0.51
  -6  13  10    2.21    0.63
  -5  13  10    5.24    0.62
  -5  13  10    4.60    0.73
  -4  13  10    3.10    0.61
  -4  13  10    3.84    0.56
  -3  13  10    9.42    0.89
  -3  13  10   10.17    0.90
  -2  13  10    1.58    0.57
  -2  13  10    1.25    0.49
  -1  13  10    1.60    0.51
  -1  13  10    1.95    0.61
  -6  14  10    3.77    0.61
  -6  14  10    2.45    0.67
  -5  14  10    3.18    0.60
  -5  14  10    2.75    0.62
  -4  14  10    4.30    0.66
  -3  16 -11    1.27    0.51
   2  15 -11    1.47    0.51
   1  15 -11    0.70    0.49
   1  15 -11    1.86    0.50
   0  15 -11    1.78    0.47
   0  15 -11    1.37    0.48
  -1  15 -11    3.21    0.55
  -2  15 -11    0.00    0.38
  -3  15 -11    0.73    0.40
  -4  15 -11    0.71    0.42
  -5  15 -11    1.26    0.44
  -6  15 -11    1.12    0.51
  -7  15 -11    1.77    0.58
   4  14 -11    1.13    0.54
   4  14 -11    0.75    0.58
   3  14 -11    5.02    0.67
   3  14 -11    4.41    0.67
   2  14 -11    0.10    0.45
   2  14 -11    0.64    0.43
   1  14 -11    1.65    0.49
   1  14 -11    1.86    0.48
   0  14 -11    0.32    0.37
   0  14 -11    0.05    0.39
  -1  14 -11    0.26    0.37
  -1  14 -11    0.30    0.40
  -2  14 -11    1.01    0.44
  -2  14 -11    0.80    0.37
  -3  14 -11    4.33    0.59
  -3  14 -11    4.10    0.52
  -4  14 -11    1.36    0.46
  -4  14 -11    1.95    0.41
  -5  14 -11    6.81    0.61
  -5  14 -11    5.07    0.67
  -6  14 -11    0.17    0.45
  -6  14 -11    0.44    0.37
  -7  14 -11    3.60    0.65
  -8  14 -11    0.94    0.52
  -9  14 -11    5.14    0.73
   5  13 -11    0.20    0.48
   5  13 -11    0.20    0.44
   4  13 -11    0.55    0.52
   4  13 -11    0.00    0.44
   3  13 -11    0.86    0.50
   3  13 -11    0.62    0.49
   2  13 -11    4.80    0.63
   2  13 -11    4.32    0.60
   1  13 -11    0.00    0.37
   1  13 -11    0.54    0.41
   0  13 -11    0.04    0.38
   0  13 -11    0.23    0.38
  -1  13 -11    4.57    0.53
  -1  13 -11    4.83    0.56
  -2  13 -11    1.19    0.43
  -2  13 -11    1.55    0.40
  -3  13 -11    3.82    0.55
  -3  13 -11    5.43    0.56
  -4  13 -11    0.25    0.38
  -4  13 -11    0.28    0.36
  -5  13 -11    1.20    0.46
  -5  13 -11    1.72    0.42
  -6  13 -11    7.46    0.73
  -6  13 -11    6.30    0.58
  -7  13 -11    0.74    0.38
  -7  13 -11    0.74    0.49
  -8  13 -11    0.21    0.45
  -8  13 -11    0.43    0.40
  -9  13 -11    2.28    0.44
  -9  13 -11    1.52    0.55
 -10  13 -11    0.11    0.38
 -10  13 -11    0.11    0.51
   7  12 -11    0.01    0.42
   7  12 -11    0.01    0.47
   6  12 -11    0.07    0.50
   6  12 -11    0.10    0.52
   5  12 -11    0.00    0.47
   5  12 -11    0.27    0.49
   4  12 -11    0.06    0.47
   4  12 -11    0.36    0.48
   3  12 -11    5.31    0.68
   3  12 -11    6.71    0.74
   2  12 -11    0.00    0.39
   2  12 -11    0.00    0.34
   1  12 -11    0.48    0.38
   1  12 -11    0.00    0.29
   0  12 -11    0.26    0.35
   0  12 -11    0.20    0.32
  -1  12 -11    1.14    0.36
  -1  12 -11    1.45    0.39
  -2  12 -11    7.17    0.67
  -2  12 -11    6.92    0.65
  -3  12 -11    0.24    0.35
  -3  12 -11    0.96    0.36
  -4  12 -11    0.71    0.38
  -4  12 -11    0.61    0.40
  -5  12 -11    8.62    0.73
  -5  12 -11   10.18    0.69
  -6  12 -11    3.07    0.45
  -6  12 -11    2.54    0.55
  -7  12 -11    1.23    0.42
  -7  12 -11    1.14    0.50
  -8  12 -11    0.49    0.36
  -8  12 -11    0.01    0.41
  -9  12 -11    3.42    0.62
  -9  12 -11    4.06    0.49
 -10  12 -11    0.86    0.38
 -10  12 -11    0.49    0.47
 -11  12 -11    0.93    0.40
 -11  12 -11    1.27    0.56
   8  11 -11    0.00    0.48
   7  11 -11    0.86    0.53
   7  11 -11    1.31    0.55
   6  11 -11    0.05    0.47
   6  11 -11    0.00    0.44
   5  11 -11    0.02    0.46
   5  11 -11    0.02    0.44
   4  11 -11    0.84    0.49
   4  11 -11    0.58    0.43
   3  11 -11    4.41    0.52
   3  11 -11    5.58    0.58
   2  11 -11    0.61    0.37
   2  11 -11    1.26    0.41
   1  11 -11    3.66    0.53
   1  11 -11    3.00    0.47
   0  11 -11    3.29    0.53
   0  11 -11    3.99    0.50
  -1  11 -11    0.14    0.31
  -1  11 -11    0.14    0.29
  -2  11 -11    0.39    0.35
  -2  11 -11    1.06    0.36
  -3  11 -11   13.06    0.87
  -3  11 -11   13.01    0.86
  -4  11 -11    0.57    0.40
  -4  11 -11    0.53    0.47
  -5  11 -11   14.43    0.88
  -5  11 -11   12.67    0.78
  -6  11 -11    9.49    0.73
  -6  11 -11    9.82    0.82
  -7  11 -11    3.90    0.50
  -7  11 -11    3.09    0.58
  -8  11 -11    0.07    0.37
  -8  11 -11    0.35    0.50
  -9  11 -11    0.01    0.43
  -9  11 -11    0.01    0.33
 -10  11 -11    1.15    0.40
 -10  11 -11    1.02    0.51
 -11  11 -11    0.00    0.36
 -11  11 -11    0.00    0.46
   9  10 -11    0.13    0.55
   8  10 -11    0.00    0.36
   8  10 -11    0.00    0.56
   7  10 -11    0.26    0.23
   7  10 -11    0.20    0.55
   6  10 -11    0.63    0.44
   6  10 -11    0.22    0.45
   5  10 -11    0.45    0.44
   5  10 -11    0.00    0.38
   4  10 -11    0.00    0.36
   4  10 -11    0.61    0.46
   3  10 -11    4.61    0.65
   3  10 -11    4.37    0.54
   2  10 -11    0.79    0.35
   2  10 -11    0.19    0.31
   1  10 -11   19.97    0.99
   1  10 -11   18.40    1.03
   0  10 -11    2.92    0.44
   0  10 -11    2.66    0.40
  -1  10 -11    5.28    0.56
  -1  10 -11    5.08    0.59
  -2  10 -11    0.52    0.40
  -2  10 -11    1.10    0.44
  -3  10 -11    7.94    0.81
  -3  10 -11    8.44    0.81
  -4  10 -11    4.35    0.61
  -4  10 -11    3.75    0.65
  -5  10 -11    0.19    0.39
  -5  10 -11    0.16    0.36
  -6  10 -11    2.59    0.44
  -6  10 -11    2.44    0.37
  -7  10 -11    0.47    0.35
  -7  10 -11    0.54    0.41
  -8  10 -11    1.05    0.47
  -8  10 -11    1.57    0.39
  -9  10 -11    9.11    0.65
  -9  10 -11    8.44    0.79
 -10  10 -11    0.47    0.38
 -10  10 -11    0.54    0.47
 -11  10 -11    0.29    0.40
 -11  10 -11    0.80    0.49
 -12  10 -11    1.17    0.56
 -12  10 -11    0.23    0.42
  10   9 -11    0.01    0.53
   9   9 -11    0.36    0.58
   8   9 -11    0.06    0.48
   8   9 -11    0.06    0.33
   7   9 -11    8.77    0.88
   7   9 -11    7.06    0.75
   6   9 -11    5.94    0.75
   6   9 -11    4.73    0.62
   5   9 -11    1.87    0.58
   4   9 -11    0.02    0.35
   4   9 -11    0.02    0.42
   3   9 -11    1.48    0.43
   3   9 -11    1.16    0.35
   2   9 -11    0.27    0.32
   2   9 -11    0.65    0.37
   1   9 -11   18.55    1.05
   1   9 -11   18.20    0.93
   0   9 -11    4.54    0.51
   0   9 -11    3.75    0.53
  -1   9 -11    0.01    0.36
  -1   9 -11    0.01    0.30
  -2   9 -11    2.98    0.43
  -2   9 -11    1.68    0.42
  -3   9 -11    8.95    0.72
  -3   9 -11    9.37    0.74
  -4   9 -11   11.13    0.72
  -4   9 -11   10.74    0.73
  -5   9 -11    9.53    0.70
  -5   9 -11   10.77    0.78
  -6   9 -11    2.24    0.44
  -6   9 -11    2.20    0.51
  -7   9 -11    4.02    0.62
  -7   9 -11    3.68    0.48
  -8   9 -11    0.90    0.46
  -8   9 -11    1.04    0.41
  -9   9 -11   11.19    0.77
  -9   9 -11   10.67    0.86
 -10   9 -11    0.64    0.41
 -11   9 -11    0.86    0.40
 -12   9 -11    0.07    0.42
  11   8 -11    0.16    0.59
  10   8 -11    0.05    0.59
   9   8 -11    6.20    0.98
   8   8 -11    2.24    0.63
   8   8 -11    0.00    0.28
   7   8 -11    6.76    0.74
   7   8 -11   11.55    1.06
   6   8 -11    0.95    0.46
   6   8 -11    0.03    0.37
   5   8 -11    1.80    0.51
   5   8 -11    1.60    0.43
   4   8 -11    2.17    0.53
   3   8 -11    1.21    0.33
   3   8 -11    1.63    0.43
   2   8 -11    2.25    0.34
   2   8 -11    3.07    0.49
   1   8 -11    0.22    0.30
   1   8 -11    0.06    0.34
   0   8 -11    1.07    0.34
   0   8 -11    1.67    0.43
  -1   8 -11   22.90    1.01
  -1   8 -11   23.78    0.98
  -2   8 -11    3.39    0.59
  -2   8 -11    3.53    0.56
  -3   8 -11   10.94    0.70
  -3   8 -11   11.38    0.72
  -4   8 -11    1.99    0.41
  -4   8 -11    1.72    0.39
  -5   8 -11    9.76    0.58
  -5   8 -11    9.13    0.62
  -6   8 -11    2.51    0.40
  -6   8 -11    2.77    0.51
  -7   8 -11    2.44    0.40
  -8   8 -11    2.78    0.43
  -9   8 -11    0.13    0.32
 -10   8 -11    7.36    0.69
 -11   8 -11    0.18    0.37
 -12   8 -11    0.09    0.47
  11   7 -11    0.85    0.62
  10   7 -11    0.06    0.49
   9   7 -11    0.00    0.49
   8   7 -11   15.57    1.14
   7   7 -11    1.14    0.50
   7   7 -11    0.02    0.26
   6   7 -11    0.05    0.44
   6   7 -11    0.05    0.31
   5   7 -11    4.45    0.56
   5   7 -11    4.39    0.68
   4   7 -11    1.48    0.51
   4   7 -11    1.58    0.38
   3   7 -11   17.47    0.96
   2   7 -11    0.18    0.33
   2   7 -11    0.18    0.25
   1   7 -11   12.68    0.81
   1   7 -11   12.01    0.92
   0   7 -11    1.57    0.35
   0   7 -11    1.95    0.44
  -1   7 -11    0.04    0.34
  -1   7 -11    0.00    0.27
  -2   7 -11    2.97    0.46
  -2   7 -11    2.65    0.49
  -3   7 -11    9.39    0.72
  -3   7 -11    7.73    0.67
  -4   7 -11    0.34    0.37
  -4   7 -11    0.53    0.41
  -5   7 -11    1.26    0.30
  -6   7 -11    6.94    0.60
  -7   7 -11    0.23    0.32
  -8   7 -11    0.00    0.30
  -9   7 -11    0.72    0.36
 -10   7 -11    3.54    0.53
 -11   7 -11    6.12    0.70
 -12   7 -11    0.00    0.44
 -13   7 -11    2.14    0.55
  12   6 -11    0.00    0.54
  11   6 -11    0.06    0.61
  10   6 -11    0.01    0.50
   9   6 -11    5.37    0.82
   8   6 -11    0.65    0.49
   7   6 -11    0.00    0.41
   7   6 -11    0.00    0.16
   6   6 -11    0.00    0.27
   6   6 -11    0.00    0.41
   5   6 -11    5.65    0.71
   5   6 -11    4.52    0.49
   4   6 -11    8.11    0.49
   4   6 -11    7.41    0.64
   3   6 -11    2.51    0.55
   3   6 -11    3.12    0.39
   2   6 -11    2.14    0.47
   1   6 -11    6.42    0.57
   1   6 -11    6.92    0.75
   0   6 -11    3.10    0.41
   0   6 -11    2.93    0.49
  -1   6 -11    5.31    0.52
  -1   6 -11    5.77    0.46
  -2   6 -11    9.56    0.56
  -2   6 -11    9.77    0.63
  -3   6 -11    9.86    0.65
  -3   6 -11   10.63    0.65
  -4   6 -11   12.60    0.78
  -5   6 -11    8.07    0.47
  -6   6 -11    2.21    0.40
  -7   6 -11    5.25    0.52
  -8   6 -11    0.64    0.35
  -9   6 -11    0.23    0.36
 -10   6 -11    1.74    0.50
 -11   6 -11    0.69    0.46
 -12   6 -11    0.02    0.47
 -13   6 -11    2.04    0.64
  12   5 -11    0.04    0.53
  11   5 -11    0.07    0.50
  10   5 -11    0.25    0.58
   9   5 -11    4.07    0.78
   8   5 -11    1.19    0.51
   7   5 -11    0.48    0.22
   7   5 -11    0.68    0.47
   6   5 -11    6.39    0.70
   6   5 -11    2.70    0.37
   5   5 -11   13.08    0.75
   5   5 -11   15.52    1.02
   4   5 -11    3.58    0.50
   4   5 -11    4.59    0.35
   3   5 -11    5.81    0.47
   3   5 -11    6.00    0.65
   2   5 -11    3.34    0.36
   2   5 -11    3.53    0.55
   1   5 -11   32.06    1.47
   1   5 -11   27.25    1.20
   0   5 -11    9.15    0.67
   0   5 -11   10.92    0.54
  -1   5 -11    3.95    0.44
  -1   5 -11    3.19    0.33
  -2   5 -11    0.01    0.29
  -3   5 -11    3.28    0.43
  -4   5 -11    6.04    0.48
  -5   5 -11    0.19    0.31
  -6   5 -11    0.00    0.29
  -7   5 -11    6.00    0.53
  -8   5 -11    0.02    0.34
  -9   5 -11   25.36    1.21
 -10   5 -11    1.23    0.42
 -11   5 -11    7.59    0.72
 -12   5 -11    7.10    0.79
 -13   5 -11    0.22    0.49
  13   4 -11    1.84    0.68
  12   4 -11    0.02    0.55
  11   4 -11    0.00    0.56
  10   4 -11    0.95    0.56
   9   4 -11    3.56    0.68
   8   4 -11    0.16    0.45
   7   4 -11    7.41    0.81
   7   4 -11    9.23    0.49
   6   4 -11    6.13    0.78
   5   4 -11   19.21    1.02
   5   4 -11   16.94    0.66
   4   4 -11    2.10    0.50
   4   4 -11    1.28    0.26
   3   4 -11    0.81    0.20
   3   4 -11    1.47    0.36
   2   4 -11    6.39    0.36
   2   4 -11    6.66    0.54
   1   4 -11   13.02    0.76
   0   4 -11    2.87    0.33
   0   4 -11    2.44    0.42
  -1   4 -11    0.05    0.28
  -2   4 -11    0.01    0.30
  -3   4 -11   42.60    1.90
  -4   4 -11    0.77    0.32
  -5   4 -11    3.07    0.41
  -6   4 -11    0.06    0.35
  -7   4 -11   13.36    0.82
  -8   4 -11   29.70    1.31
  -9   4 -11   10.32    0.87
 -10   4 -11    2.14    0.54
 -11   4 -11   11.16    0.96
 -12   4 -11    2.17    0.52
  13   3 -11    5.68    0.92
 -13  -3  11    7.04    0.65
  12   3 -11    1.06    0.60
 -12  -3  11    2.00    0.46
  11   3 -11    1.24    0.65
 -11  -3  11    1.74    0.45
  10   3 -11    0.64    0.60
 -10  -3  11    0.69    0.41
   9   3 -11    3.28    0.63
  -9  -3  11    3.85    0.51
   8   3 -11    0.45    0.48
  -8  -3  11    0.59    0.40
   7   3 -11    8.01    0.84
  -7  -3  11   10.05    0.72
   6   3 -11    1.02    0.15
   6   3 -11    0.64    0.43
   5   3 -11    0.84    0.48
   4   3 -11    0.15    0.18
   4   3 -11    0.17    0.37
   3   3 -11    1.10    0.35
   3   3 -11    1.10    0.18
   2   3 -11   18.57    0.81
   2   3 -11   16.99    1.05
   1   3 -11   16.55    0.74
   1   3 -11   19.59    1.01
   0   3 -11    3.39    0.40
  -1   3 -11   24.01    1.06
  -2   3 -11   10.37    0.71
  -3   3 -11   82.08    3.05
  -4   3 -11   14.34    0.78
  -5   3 -11    2.65    0.38
  -6   3 -11    1.49    0.33
  -7   3 -11    7.10    0.59
  -8   3 -11   14.27    0.92
  -9   3 -11    0.83    0.42
 -10   3 -11    0.15    0.40
 -11   3 -11    1.43    0.56
 -12   3 -11    0.04    0.51
  14   2 -11    2.53    0.70
 -14  -2  11    2.26    0.51
  13   2 -11    6.19    0.95
 -13  -2  11    7.34    0.71
  12   2 -11    0.33    0.59
 -12  -2  11    0.02    0.39
  11   2 -11   14.77    1.19
 -11  -2  11   14.62    0.95
  10   2 -11    1.39    0.58
 -10  -2  11    1.80    0.45
   9   2 -11    1.10    0.54
  -9  -2  11    2.17    0.47
   8   2 -11    2.03    0.54
  -8  -2  11    2.02    0.46
   7   2 -11    0.00    0.40
  -7  -2  11    0.46    0.39
   6   2 -11    2.30    0.55
  -6  -2  11    2.61    0.50
   5   2 -11    9.88    0.48
   5   2 -11   10.66    0.95
   5   2 -11    8.62    0.50
  -5  -2  11   10.57    0.83
   4   2 -11   38.81    1.16
   4   2 -11   37.12    1.53
  -4  -2  11   37.08    1.40
   3   2 -11   14.27    0.65
   3   2 -11   16.20    1.03
   2   2 -11    0.97    0.23
   2   2 -11    0.28    0.40
   1   2 -11  108.20    4.37
   0   2 -11    9.27    0.57
  -1   2 -11    0.05    0.26
  -2   2 -11   27.87    1.35
  -3   2 -11   14.51    0.80
  -4   2 -11   10.41    0.64
  -5   2 -11    5.48    0.53
  -6   2 -11   10.58    0.76
  -7   2 -11    1.51    0.41
  -8   2 -11    0.29    0.39
  -9   2 -11    0.68    0.40
 -10   2 -11    0.21    0.43
 -11   2 -11    0.38    0.45
 -12   2 -11    3.66    0.74
  14   1 -11    2.40    0.70
 -14  -1  11    2.48    0.52
  13   1 -11    0.12    0.58
 -13  -1  11    0.03    0.40
  12   1 -11    0.27    0.49
 -12  -1  11    0.20    0.39
  11   1 -11    0.00    0.42
 -11  -1  11    0.34    0.41
  10   1 -11    0.18    0.51
 -10  -1  11    0.72    0.42
   9   1 -11   24.78    1.49
  -9  -1  11   25.77    1.27
   8   1 -11    0.05    0.42
  -8  -1  11    0.00    0.41
   7   1 -11   10.25    0.98
  -7  -1  11   11.23    0.87
   6   1 -11    0.15    0.47
  -6  -1  11    0.15    0.36
   5   1 -11    0.32    0.10
   5   1 -11    0.01    0.10
   5   1 -11    0.00    0.38
  -5  -1  11    0.01    0.31
   4   1 -11   34.14    1.73
   4   1 -11   33.09    1.30
  -4  -1  11   34.52    1.59
   3   1 -11    8.55    0.34
   3   1 -11    9.30    0.65
  -3  -1  11    8.33    0.53
   2   1 -11    4.68    0.65
  -2  -1  11    4.27    0.59
   1   1 -11    1.50    0.34
   0   1 -11    3.06    0.39
  -1   1 -11    2.16    0.40
  -2   1 -11   18.14    0.88
  -3   1 -11    0.28    0.27
  -4   1 -11    4.51    0.49
  -5   1 -11    3.89    0.49
  -6   1 -11    2.53    0.48
  -7   1 -11    2.31    0.46
  -8   1 -11    3.14    0.51
  -9   1 -11    0.81    0.49
 -10   1 -11    3.42    0.66
 -11   1 -11    3.48    0.67
 -12   1 -11    2.00    0.57
  14   0 -11    0.32    0.49
 -14   0  11    0.05    0.43
  13   0 -11    1.35    0.56
 -13   0  11    0.98    0.46
  12   0 -11    0.11    0.49
 -12   0  11    0.00    0.42
  11   0 -11    0.01    0.42
 -11   0  11    0.05    0.41
  10   0 -11    7.15    0.79
 -10   0  11    8.01    0.67
   9   0 -11    7.98    0.86
  -9   0  11    6.24    0.62
   8   0 -11    2.31    0.62
  -8   0  11    2.83    0.54
   7   0 -11    6.24    0.78
  -7   0  11    9.26    0.77
   6   0 -11    0.00    0.37
  -6   0  11    0.00    0.39
   5   0 -11   10.28    0.83
  -5   0  11   10.23    0.76
   4   0 -11    0.42    0.39
   4   0 -11    1.08    0.13
  -4   0  11    1.45    0.39
   3   0 -11    5.98    0.63
  -3   0  11    5.81    0.53
   2   0 -11   28.21    1.14
  -2   0  11   27.24    1.12
   1   0 -11    6.31    0.67
  -1   0  11    6.44    0.71
   0   0 -11   20.17    1.05
  -1   0 -11   13.68    0.91
  -2   0 -11    1.11    0.33
  -3   0 -11   21.18    1.02
  -4   0 -11    1.29    0.35
  -5   0 -11   14.86    0.87
  -6   0 -11    7.35    0.63
  -7   0 -11    6.56    0.64
  -8   0 -11    2.37    0.49
  -9   0 -11   11.66    0.97
 -10   0 -11    0.00    0.41
 -11   0 -11    3.30    0.63
  14  -1 -11    0.00    0.46
 -14   1  11    0.04    0.44
  13  -1 -11    1.12    0.54
 -13   1  11    0.89    0.49
  12  -1 -11    1.71    0.53
 -12   1  11    1.83    0.51
  11  -1 -11    0.07    0.39
 -11   1  11    0.19    0.41
  10  -1 -11    0.61    0.43
 -10   1  11    0.75    0.41
   9  -1 -11    0.00    0.42
  -9   1  11    0.30    0.45
   8  -1 -11    2.09    0.59
  -8   1  11    2.93    0.57
   7  -1 -11   27.78    1.56
  -7   1  11   32.15    1.49
   6  -1 -11    2.16    0.52
  -6   1  11    2.12    0.45
   5  -1 -11    1.50    0.47
   5  -1 -11    2.21    0.15
  -5   1  11    1.50    0.42
   4  -1 -11    2.24    0.47
  -4   1  11    2.15    0.40
   3  -1 -11   17.12    1.07
  -3   1  11   17.57    1.00
   2  -1 -11   26.66    1.48
  -2   1  11   23.37    1.38
   1  -1 -11    2.52    0.46
  -1   1  11    2.72    0.52
   0  -1 -11    2.74    0.41
   0   1  11    3.01    0.47
  -1  -1 -11    3.05    0.44
  -2  -1 -11    0.01    0.26
  -3  -1 -11   38.47    1.70
  -4  -1 -11    1.07    0.34
  -5  -1 -11    2.76    0.47
  -6  -1 -11   12.46    0.87
  -7  -1 -11   15.35    0.94
  -8  -1 -11    7.20    0.68
  -9  -1 -11    5.86    0.65
 -10  -1 -11    6.33    0.73
 -11  -1 -11    0.38    0.49
  15  -2 -11    1.57    0.62
  14  -2 -11    1.27    0.59
 -14   2  11    1.59    0.49
  13  -2 -11    1.77    0.60
 -13   2  11    2.69    0.60
  12  -2 -11    5.97    0.74
 -12   2  11    5.66    0.64
  11  -2 -11    3.26    0.63
 -11   2  11    4.28    0.57
  10  -2 -11    1.37    0.46
 -10   2  11    1.17    0.42
   9  -2 -11    0.01    0.34
  -9   2  11    0.39    0.45
   8  -2 -11    5.12    0.68
  -8   2  11    5.16    0.60
   7  -2 -11   14.21    1.04
  -7   2  11   16.29    1.04
   6  -2 -11    0.00    0.35
  -6   2  11    0.20    0.38
   5  -2 -11    0.14    0.47
  -5   2  11    0.27    0.40
   4  -2 -11    9.48    0.88
  -4   2  11    7.92    0.75
   3  -2 -11   13.82    1.02
  -3   2  11   13.55    0.93
   2  -2 -11    3.34    0.41
  -2   2  11    4.55    0.43
   1  -2 -11   37.49    1.48
  -1   2  11   37.40    1.50
   0  -2 -11    9.34    0.67
   0   2  11    8.26    0.72
  -1  -2 -11   37.92    1.50
   1   2  11   39.14    1.56
  -2  -2 -11   29.84    1.42
  -3  -2 -11   24.63    1.15
  -4  -2 -11    7.49    0.71
  -5  -2 -11   19.65    1.02
  -6  -2 -11   13.83    0.90
  -7  -2 -11    2.54    0.48
  -8  -2 -11    0.27    0.41
  -9  -2 -11    0.00    0.40
 -10  -2 -11    0.17    0.44
 -11  -2 -11    5.21    0.75
  15  -3 -11    1.72    0.65
 -15   3  11    0.40    0.53
  14  -3 -11    3.84    0.68
 -14   3  11    2.93    0.61
  13  -3 -11    5.76    0.79
 -13   3  11    4.48    0.66
  12  -3 -11    0.18    0.41
 -12   3  11    0.00    0.40
  11  -3 -11    2.48    0.60
 -11   3  11    2.63    0.61
  10  -3 -11    0.10    0.43
 -10   3  11    0.18    0.40
   9  -3 -11    9.65    0.89
  -9   3  11    7.67    0.79
   8  -3 -11   10.92    0.91
  -8   3  11   12.69    0.99
   7  -3 -11    1.44    0.55
  -7   3  11    1.25    0.47
   6  -3 -11    8.07    0.91
  -6   3  11    9.54    0.85
   5  -3 -11    5.52    0.72
  -5   3  11    5.03    0.56
   4  -3 -11   10.79    0.83
  -4   3  11    8.68    0.67
   3  -3 -11   56.15    2.10
  -3   3  11   52.44    1.99
   2  -3 -11   30.56    1.30
  -2   3  11   26.82    1.28
   1  -3 -11   26.33    1.22
  -1   3  11   26.15    1.26
  -1   3  11   24.92    1.11
   0  -3 -11    2.17    0.36
   0   3  11    2.65    0.32
   0   3  11    2.17    0.36
  -1  -3 -11    0.68    0.28
   1   3  11    0.08    0.27
   1   3  11    0.90    0.36
  -2  -3 -11   27.14    1.11
   2   3  11   27.73    1.12
  -3  -3 -11    0.36    0.33
   3   3  11    0.06    0.31
  -4  -3 -11    1.39    0.42
  -5  -3 -11    4.16    0.48
  -6  -3 -11    0.10    0.34
  -7  -3 -11    5.48    0.69
  -8  -3 -11    8.13    0.78
  -9  -3 -11    0.01    0.46
 -10  -3 -11    0.07    0.50
  15  -4 -11    0.21    0.41
  14  -4 -11    1.73    0.58
 -14   4  11    2.01    0.58
  13  -4 -11    4.48    0.72
 -13   4  11    3.40    0.66
  12  -4 -11    1.32    0.48
 -12   4  11    0.17    0.51
  11  -4 -11    4.04    0.65
 -11   4  11    4.22    0.63
  10  -4 -11    3.83    0.69
 -10   4  11    3.50    0.66
   9  -4 -11    6.47    0.75
  -9   4  11    6.75    0.71
   8  -4 -11    1.23    0.50
  -8   4  11    0.94    0.45
   7  -4 -11   27.58    1.53
  -7   4  11   31.27    1.45
   6  -4 -11    7.07    0.75
  -6   4  11    8.78    0.73
   5  -4 -11    0.04    0.38
  -5   4  11    0.17    0.44
  -5   4  11    0.00    0.17
   4  -4 -11    8.03    0.78
  -4   4  11    9.05    0.71
  -4   4  11    7.71    0.45
   3  -4 -11   25.04    1.24
  -3   4  11   21.58    0.92
  -3   4  11   22.10    1.15
   2  -4 -11   14.14    0.86
  -2   4  11   12.67    0.85
  -2   4  11   12.81    0.69
   1  -4 -11    0.20    0.32
  -1   4  11    0.12    0.36
  -1   4  11    0.67    0.27
   0  -4 -11    8.62    0.59
   0   4  11    8.96    0.66
   0   4  11    8.99    0.63
  -1  -4 -11    0.36    0.30
   1   4  11    0.00    0.30
   1   4  11    0.41    0.36
  -2  -4 -11    1.02    0.32
   2   4  11    1.21    0.40
   2   4  11    0.53    0.34
  -3  -4 -11   15.81    0.86
   3   4  11   17.71    0.97
  -4  -4 -11    0.82    0.38
   4   4  11    1.43    0.43
  -5  -4 -11    0.13    0.36
   5   4  11    0.72    0.37
  -6  -4 -11    6.18    0.60
   6   4  11    6.01    0.64
  -7  -4 -11    1.38    0.46
  -8  -4 -11    1.91    0.47
  -9  -4 -11    0.72    0.52
  14  -5 -11    0.01    0.40
 -14   5  11    0.20    0.55
  13  -5 -11    0.06    0.42
 -13   5  11    0.44    0.54
  12  -5 -11    0.52    0.39
 -12   5  11    0.01    0.50
  11  -5 -11    5.99    0.72
 -11   5  11    6.48    0.71
  10  -5 -11   25.42    1.33
 -10   5  11   22.69    1.28
   9  -5 -11    0.65    0.45
  -9   5  11    0.91    0.49
   8  -5 -11    2.21    0.53
  -8   5  11    2.20    0.52
   7  -5 -11   25.67    1.38
  -7   5  11   27.40    0.92
  -7   5  11   29.07    1.38
   6  -5 -11    1.31    0.51
  -6   5  11    0.80    0.21
  -6   5  11    1.02    0.51
   5  -5 -11    4.44    0.60
  -5   5  11    6.00    0.37
  -5   5  11    4.85    0.56
   4  -5 -11    0.03    0.43
  -4   5  11    0.03    0.39
  -4   5  11    0.03    0.21
   3  -5 -11    0.47    0.38
  -3   5  11    0.27    0.41
  -3   5  11    0.53    0.26
   2  -5 -11    0.27    0.36
  -2   5  11    0.02    0.26
  -2   5  11    0.52    0.35
   1  -5 -11    0.04    0.31
  -1   5  11    0.64    0.32
  -1   5  11    0.40    0.38
   0  -5 -11   31.50    1.34
   0   5  11   29.48    1.35
   0   5  11   29.77    1.30
  -1  -5 -11    1.97    0.41
   1   5  11    1.44    0.42
   1   5  11    1.90    0.44
  -2  -5 -11    0.87    0.36
   2   5  11    1.38    0.44
   2   5  11    0.74    0.36
  -3  -5 -11    3.97    0.55
   3   5  11    4.85    0.65
  -4  -5 -11    1.53    0.43
   4   5  11    0.67    0.41
  -5  -5 -11    4.84    0.59
   5   5  11    4.97    0.66
  -6  -5 -11    3.56    0.59
   6   5  11    3.75    0.63
  -7  -5 -11    0.20    0.41
   7   5  11    0.35    0.47
  -8  -5 -11    3.41    0.58
  -9  -5 -11    8.61    0.84
  14  -6 -11    2.02    0.56
 -14   6  11    2.84    0.66
  13  -6 -11    3.56    0.58
 -13   6  11    3.32    0.64
  12  -6 -11    3.13    0.59
 -12   6  11    2.28    0.63
  11  -6 -11    1.06    0.47
 -11   6  11    0.47    0.50
  10  -6 -11    1.55    0.45
 -10   6  11    0.75    0.49
   9  -6 -11    0.85    0.39
  -9   6  11    1.04    0.47
   8  -6 -11    1.64    0.44
  -8   6  11    0.39    0.44
   7  -6 -11    0.39    0.37
  -7   6  11    0.19    0.42
  -7   6  11    0.94    0.20
   6  -6 -11    0.19    0.39
  -6   6  11    0.17    0.22
  -6   6  11    0.00    0.48
   5  -6 -11    0.00    0.45
  -5   6  11    0.00    0.23
  -5   6  11    0.35    0.47
   4  -6 -11    0.19    0.47
  -4   6  11    0.64    0.46
  -4   6  11    0.39    0.28
   3  -6 -11    1.41    0.50
  -3   6  11    1.93    0.38
  -3   6  11    1.69    0.45
   2  -6 -11    0.04    0.36
  -2   6  11    0.04    0.34
  -2   6  11    0.04    0.30
   1  -6 -11    3.64    0.45
  -1   6  11    4.22    0.51
  -1   6  11    3.96    0.53
   0  -6 -11    1.11    0.32
   0   6  11    0.34    0.34
   0   6  11    0.62    0.35
  -1  -6 -11    1.42    0.39
   1   6  11    1.28    0.40
   1   6  11    1.18    0.39
  -2  -6 -11   21.55    1.07
   2   6  11   20.21    1.11
   2   6  11   18.91    1.11
  -3  -6 -11    1.64    0.40
   3   6  11    1.42    0.44
  -4  -6 -11    0.01    0.35
   4   6  11    0.02    0.38
  -5  -6 -11    9.97    0.75
   5   6  11    9.74    0.85
  -6  -6 -11    6.49    0.70
   6   6  11    7.40    0.82
  -7  -6 -11    0.07    0.43
   7   6  11    0.03    0.42
  -8  -6 -11    7.83    0.87
   8   6  11    8.14    0.92
  14  -7 -11    1.73    0.51
 -14   7  11    0.89    0.58
  13  -7 -11    5.15    0.65
 -13   7  11    4.56    0.72
  12  -7 -11    0.50    0.40
 -12   7  11    0.06    0.57
  11  -7 -11    3.61    0.51
 -11   7  11    2.05    0.56
  10  -7 -11    9.54    0.80
 -10   7  11    7.88    0.89
   9  -7 -11    0.48    0.33
  -9   7  11    0.31    0.45
   8  -7 -11    2.71    0.47
  -8   7  11    1.25    0.54
   7  -7 -11    0.48    0.33
  -7   7  11    0.48    0.50
  -7   7  11    0.03    0.22
   6  -7 -11    0.04    0.34
  -6   7  11    0.04    0.41
  -6   7  11    0.02    0.25
   5  -7 -11    3.25    0.64
  -5   7  11    5.79    0.48
  -5   7  11    4.74    0.62
   4  -7 -11    0.00    0.42
  -4   7  11    0.12    0.38
  -4   7  11    0.39    0.31
   3  -7 -11   24.97    1.31
  -3   7  11   25.32    1.32
  -3   7  11   26.88    1.15
   2  -7 -11    3.72    0.52
  -2   7  11    3.48    0.54
  -2   7  11    3.41    0.49
   1  -7 -11    1.34    0.35
  -1   7  11    1.65    0.43
  -1   7  11    1.26    0.38
   0  -7 -11    6.65    0.57
   0   7  11    6.99    0.61
   0   7  11    7.44    0.66
  -1  -7 -11   12.68    0.79
   1   7  11   14.54    0.93
   1   7  11   15.32    0.91
  -2  -7 -11   29.71    1.30
   2   7  11   26.79    1.33
   2   7  11   28.45    1.28
  -3  -7 -11    2.77    0.47
   3   7  11    3.12    0.58
   3   7  11    2.25    0.44
  -4  -7 -11    1.35    0.44
   4   7  11    1.07    0.46
  -5  -7 -11    5.79    0.68
   5   7  11    5.08    0.76
  -6  -7 -11    3.89    0.54
   6   7  11    4.61    0.64
  -7  -7 -11    3.81    0.57
   7   7  11    3.71    0.64
  14  -8 -11    0.91    0.47
  13  -8 -11    6.10    0.69
 -13   8  11    4.43    0.74
  12  -8 -11    2.39    0.54
 -12   8  11    2.04    0.70
  11  -8 -11    0.19    0.36
 -11   8  11    0.02    0.48
  10  -8 -11    2.86    0.51
 -10   8  11    2.22    0.64
   9  -8 -11    0.29    0.33
  -9   8  11    0.07    0.47
   8  -8 -11    0.15    0.26
  -8   8  11    0.65    0.50
  -7   8  11    4.63    0.71
  -7   8  11    4.42    0.43
   6  -8 -11    0.08    0.29
  -6   8  11    1.12    0.31
  -6   8  11    0.81    0.46
   5  -8 -11    0.03    0.39
  -5   8  11    0.33    0.42
  -5   8  11    0.46    0.32
   4  -8 -11    7.81    0.80
  -4   8  11    8.62    0.74
  -4   8  11    9.28    0.62
   3  -8 -11   16.51    1.11
  -3   8  11   18.99    0.98
  -3   8  11   17.67    1.07
   2  -8 -11   28.07    1.33
  -2   8  11   25.66    1.37
  -2   8  11   26.25    1.28
   1  -8 -11   13.59    0.78
  -1   8  11   11.29    0.80
  -1   8  11   11.67    0.83
   0  -8 -11   10.60    0.69
   0   8  11    8.73    0.72
   0   8  11    8.99    0.70
  -1  -8 -11    0.42    0.34
   1   8  11    0.38    0.36
   1   8  11    0.38    0.44
  -2  -8 -11    3.98    0.49
   2   8  11    3.90    0.59
  -3  -8 -11    0.72    0.37
   3   8  11    0.05    0.33
   3   8  11    0.39    0.43
  -4  -8 -11    0.92    0.43
   4   8  11    1.24    0.54
  -5  -8 -11    0.00    0.37
   5   8  11    0.00    0.43
  -6  -8 -11    1.96    0.51
   6   8  11    1.99    0.58
  13  -9 -11    0.15    0.22
 -13   9  11    0.06    0.50
 -12   9  11    2.96    0.66
  11  -9 -11    1.68    0.43
 -11   9  11    1.60    0.61
  10  -9 -11    6.17    0.65
 -10   9  11    5.69    0.80
   9  -9 -11   14.49    0.93
  -9   9  11   13.15    1.09
   8  -9 -11    3.45    0.53
  -8   9  11    2.68    0.64
   7  -9 -11    2.34    0.41
  -7   9  11    2.08    0.54
  -7   9  11    2.49    0.37
   6  -9 -11    0.17    0.30
  -6   9  11    0.86    0.47
  -6   9  11    1.85    0.37
   5  -9 -11    0.02    0.33
  -5   9  11    0.26    0.33
  -5   9  11    0.18    0.42
  -4   9  11   10.51    0.90
  -4   9  11   10.59    0.74
   3  -9 -11    0.22    0.22
  -3   9  11    0.91    0.47
  -3   9  11    0.75    0.38
   2  -9 -11    3.09    0.49
  -2   9  11    2.75    0.52
  -2   9  11    2.09    0.45
   1  -9 -11    2.47    0.42
  -1   9  11    1.77    0.44
  -1   9  11    1.44    0.47
   0  -9 -11    0.71    0.33
   0   9  11    1.12    0.39
   0   9  11    0.28    0.43
  -1  -9 -11    5.09    0.56
   1   9  11    5.94    0.61
   1   9  11    6.67    0.71
  -2  -9 -11    6.21    0.61
   2   9  11    6.64    0.74
   2   9  11    7.95    0.67
  -3  -9 -11    0.01    0.33
   3   9  11    0.01    0.42
  -4  -9 -11    0.00    0.38
   4   9  11    0.41    0.50
  -5  -9 -11    1.65    0.49
   5   9  11    2.56    0.66
 -12  10  11    0.03    0.50
 -11  10  11    0.31    0.50
 -10  10  11    5.68    0.80
   9 -10 -11    5.52    0.59
  -9  10  11    2.95    0.67
   8 -10 -11    9.34    0.71
  -8  10  11    6.87    0.89
   7 -10 -11    1.91    0.37
  -7  10  11    1.33    0.58
  -7  10  11    2.10    0.40
  -6  10  11    6.95    0.75
  -6  10  11    6.74    0.59
   5 -10 -11    0.04    0.30
  -5  10  11    1.22    0.46
  -5  10  11    0.92    0.36
   4 -10 -11    0.00    0.40
  -4  10  11    0.00    0.37
  -4  10  11    0.00    0.33
   3 -10 -11    6.41    0.73
  -3  10  11    5.71    0.68
  -3  10  11    8.17    0.72
  -2  10  11    2.77    0.50
  -2  10  11    2.91    0.54
   1 -10 -11    0.89    0.37
  -1  10  11    0.87    0.42
  -1  10  11    1.07    0.43
   0 -10 -11    4.68    0.53
   0  10  11    4.57    0.67
   0  10  11    3.22    0.52
  -1 -10 -11    1.11    0.39
   1  10  11    2.25    0.57
   1  10  11    0.56    0.28
  -2 -10 -11    8.35    0.70
   2  10  11    9.28    0.87
   2  10  11    9.28    0.74
  -3 -10 -11    0.41    0.38
   3  10  11    0.01    0.48
  -4 -10 -11    0.05    0.37
   4  10  11    0.05    0.44
 -11  11  11    0.79    0.55
 -10  11  11    0.11    0.59
  -9  11  11    0.34    0.59
  -8  11  11    0.04    0.48
  -7  11  11    0.04    0.47
  -7  11  11    0.06    0.35
  -6  11  11    9.29    0.72
  -6  11  11    7.79    0.84
  -5  11  11    0.80    0.47
  -5  11  11    1.60    0.46
  -4  11  11    0.31    0.41
  -4  11  11    0.74    0.45
   3 -11 -11    2.07    0.51
  -3  11  11    2.30    0.54
  -3  11  11    2.20    0.50
   2 -11 -11    1.87    0.48
  -2  11  11    1.49    0.47
  -2  11  11    2.35    0.54
   1 -11 -11    0.00    0.34
  -1  11  11    0.12    0.45
  -1  11  11    0.00    0.35
   0 -11 -11    0.06    0.19
   0  11  11    1.18    0.52
   0  11  11    1.31    0.43
  -1 -11 -11    2.47    0.43
   1  11  11    3.07    0.62
   1  11  11    2.05    0.42
  -2 -11 -11    1.61    0.43
   2  11  11    1.52    0.59
 -10  12  11    0.70    0.63
  -9  12  11    0.08    0.57
  -8  12  11    1.68    0.60
  -7  12  11    0.57    0.56
  -7  12  11    0.75    0.37
  -6  12  11    0.82    0.51
  -6  12  11    1.39    0.47
  -5  12  11    0.11    0.50
  -5  12  11    0.01    0.39
  -4  12  11    4.81    0.71
  -4  12  11    4.87    0.61
  -3  12  11    4.79    0.66
  -3  12  11    3.75    0.65
  -2  12  11    0.05    0.45
  -2  12  11    0.05    0.39
  -1  12  11    4.04    0.68
  -1  12  11    3.81    0.59
   0  12  11    0.87    0.49
   0  12  11    0.28    0.39
  -8  13  11    0.09    0.51
  -7  13  11    1.73    0.59
  -7  13  11    2.07    0.50
  -6  13  11    0.05    0.50
  -6  13  11    0.01    0.40
  -5  13  11    4.27    0.71
  -5  13  11    5.38    0.69
  -4  13  11    3.57    0.70
  -4  13  11    4.74    0.69
  -3  13  11    1.63    0.51
  -3  13  11    0.37    0.46
   0  15 -12    0.15    0.38
   0  15 -12    0.37    0.39
  -1  15 -12    2.71    0.52
  -1  15 -12    2.46    0.50
  -2  15 -12    0.01    0.35
  -3  15 -12    0.26    0.38
  -4  15 -12    0.54    0.40
  -5  15 -12    0.08    0.43
  -6  15 -12    0.93    0.51
   3  14 -12    1.24    0.51
   3  14 -12    0.98    0.51
   2  14 -12    0.48    0.46
   2  14 -12    0.55    0.40
   1  14 -12    1.29    0.46
   1  14 -12    1.93    0.44
   0  14 -12    0.31    0.35
   0  14 -12    1.38    0.44
  -1  14 -12    0.04    0.34
  -1  14 -12    0.04    0.36
  -2  14 -12    0.61    0.39
  -2  14 -12    0.02    0.34
  -3  14 -12    3.64    0.54
  -3  14 -12    2.79    0.52
  -4  14 -12    2.27    0.51
  -4  14 -12    1.66    0.42
  -5  14 -12    9.16    0.89
  -5  14 -12   11.51    0.83
  -6  14 -12    0.19    0.38
  -6  14 -12    0.00    0.45
  -7  14 -12    2.16    0.54
  -8  14 -12    0.40    0.49
   5  13 -12    0.40    0.48
   4  13 -12    1.56    0.52
   4  13 -12    0.71    0.46
   3  13 -12    0.39    0.39
   3  13 -12    0.03    0.43
   2  13 -12    0.43    0.37
   2  13 -12    0.16    0.42
   1  13 -12    2.72    0.52
   1  13 -12    1.76    0.45
   0  13 -12    2.03    0.46
   0  13 -12    1.41    0.39
  -1  13 -12    4.48    0.58
  -1  13 -12    4.85    0.59
  -2  13 -12    1.23    0.40
  -2  13 -12    0.86    0.41
  -3  13 -12    2.46    0.46
  -3  13 -12    1.92    0.50
  -4  13 -12    2.88    0.52
  -4  13 -12    2.76    0.60
  -5  13 -12    9.11    0.78
  -5  13 -12    7.84    0.80
  -6  13 -12    0.14    0.39
  -6  13 -12    0.51    0.45
  -7  13 -12    0.03    0.37
  -7  13 -12    0.33    0.45
  -8  13 -12    1.04    0.55
  -8  13 -12    1.12    0.48
  -9  13 -12    0.00    0.45
  -9  13 -12    0.00    0.38
   6  12 -12    0.43    0.51
   6  12 -12    0.01    0.53
   5  12 -12    0.44    0.51
   5  12 -12    0.27    0.50
   4  12 -12    0.00    0.43
   4  12 -12    0.00    0.41
   3  12 -12    5.36    0.65
   3  12 -12    4.90    0.70
   2  12 -12    1.92    0.44
   2  12 -12    2.53    0.53
   1  12 -12    6.81    0.66
   1  12 -12    7.83    0.77
   0  12 -12    0.01    0.36
   0  12 -12    0.13    0.36
  -1  12 -12    0.13    0.37
  -1  12 -12    0.07    0.33
  -2  12 -12    5.40    0.54
  -2  12 -12    4.48    0.52
  -3  12 -12    0.88    0.40
  -3  12 -12    1.53    0.43
  -4  12 -12    0.37    0.40
  -4  12 -12    0.53    0.40
  -5  12 -12    0.81    0.51
  -5  12 -12    0.24    0.40
  -6  12 -12    3.90    0.56
  -6  12 -12    3.83    0.62
  -7  12 -12    1.06    0.48
  -7  12 -12    0.91    0.42
  -8  12 -12    1.60    0.44
  -8  12 -12    0.23    0.53
  -9  12 -12    1.09    0.55
  -9  12 -12    1.82    0.47
 -10  12 -12    0.09    0.51
 -10  12 -12    0.35    0.40
   7  11 -12    2.16    0.69
   6  11 -12    0.00    0.43
   6  11 -12    0.00    0.41
   5  11 -12    1.71    0.58
   5  11 -12    1.14    0.46
   4  11 -12    1.29    0.47
   4  11 -12    2.07    0.59
   3  11 -12    0.48    0.33
   3  11 -12    0.78    0.47
   2  11 -12    0.17    0.35
   2  11 -12    0.67    0.43
   1  11 -12    7.26    0.70
   1  11 -12    6.67    0.62
   0  11 -12    0.60    0.39
   0  11 -12    0.00    0.32
  -1  11 -12    0.23    0.36
  -1  11 -12    0.52    0.37
  -2  11 -12    3.61    0.48
  -2  11 -12    3.31    0.46
  -3  11 -12    0.01    0.35
  -3  11 -12    0.17    0.36
  -4  11 -12    2.47    0.53
  -4  11 -12    1.59    0.45
  -5  11 -12    1.42    0.44
  -5  11 -12    1.76    0.46
  -6  11 -12    9.92    0.69
  -6  11 -12    8.25    0.76
  -7  11 -12    6.23    0.69
  -7  11 -12    5.58    0.57
  -8  11 -12    0.01    0.36
  -8  11 -12    0.02    0.49
  -9  11 -12    1.80    0.57
  -9  11 -12    2.99    0.50
 -10  11 -12    1.10    0.56
 -10  11 -12    1.38    0.44
 -11  11 -12    1.95    0.46
   8  10 -12    0.94    0.57
   7  10 -12    1.56    0.51
   7  10 -12    2.29    0.65
   6  10 -12    0.58    0.51
   6  10 -12    0.05    0.39
   5  10 -12    0.88    0.36
   5  10 -12    0.93    0.46
   4  10 -12    0.51    0.40
   4  10 -12    0.31    0.43
   3  10 -12    1.29    0.43
   3  10 -12    1.79    0.40
   2  10 -12    0.01    0.30
   2  10 -12    0.01    0.33
   1  10 -12    8.69    0.61
   1  10 -12    8.35    0.69
   0  10 -12    0.02    0.31
   0  10 -12    0.21    0.38
  -1  10 -12    4.71    0.51
  -1  10 -12    4.67    0.52
  -2  10 -12    1.68    0.43
  -2  10 -12    2.04    0.42
  -3  10 -12    0.10    0.33
  -3  10 -12    0.10    0.37
  -4  10 -12    1.46    0.39
  -4  10 -12    0.14    0.34
  -5  10 -12    0.52    0.40
  -5  10 -12    0.27    0.42
  -6  10 -12    0.23    0.40
  -6  10 -12    0.49    0.37
  -7  10 -12    1.53    0.48
  -7  10 -12    0.81    0.35
  -8  10 -12    0.57    0.37
  -8  10 -12    1.03    0.45
  -9  10 -12   12.32    0.81
  -9  10 -12   13.26    0.97
 -10  10 -12    1.15    0.36
 -10  10 -12    0.74    0.46
 -11  10 -12    6.12    0.77
 -11  10 -12    5.99    0.65
   9   9 -12    0.53    0.55
   8   9 -12    0.01    0.56
   7   9 -12    2.37    0.64
   7   9 -12    1.18    0.49
   6   9 -12    0.07    0.42
   6   9 -12    0.35    0.52
   5   9 -12    3.60    0.60
   5   9 -12    3.08    0.49
   4   9 -12    2.87    0.56
   3   9 -12    0.02    0.35
   3   9 -12    0.02    0.29
   2   9 -12    0.62    0.44
   2   9 -12    0.50    0.32
   1   9 -12    1.56    0.49
   1   9 -12    1.60    0.40
   0   9 -12    4.56    0.49
   0   9 -12    3.55    0.56
  -1   9 -12    0.01    0.30
  -1   9 -12    0.13    0.35
  -2   9 -12    0.84    0.47
  -2   9 -12    0.68    0.39
  -3   9 -12    8.26    0.60
  -3   9 -12    9.19    0.63
  -4   9 -12    0.00    0.33
  -4   9 -12    0.03    0.37
  -5   9 -12    4.72    0.47
  -5   9 -12    5.35    0.59
  -6   9 -12    0.24    0.34
  -6   9 -12    0.10    0.35
  -7   9 -12   15.44    0.93
  -7   9 -12   15.72    0.84
  -8   9 -12    1.97    0.50
  -8   9 -12    2.10    0.43
  -9   9 -12    1.73    0.51
  -9   9 -12    2.33    0.40
 -10   9 -12    0.16    0.40
 -11   9 -12    1.36    0.44
  10   8 -12    1.22    0.66
   9   8 -12    0.43    0.53
   8   8 -12    3.91    0.76
   7   8 -12    5.60    0.77
   7   8 -12    3.92    0.56
   6   8 -12    2.40    0.64
   6   8 -12    2.61    0.51
   5   8 -12    4.24    0.56
   5   8 -12    4.64    0.69
   4   8 -12    1.39    0.37
   4   8 -12    1.16    0.44
   3   8 -12    0.07    0.15
   3   8 -12    0.00    0.35
   2   8 -12    1.82    0.41
   2   8 -12    2.59    0.57
   1   8 -12   11.42    0.64
   1   8 -12   11.05    0.73
   0   8 -12    0.88    0.44
   0   8 -12    0.91    0.32
  -1   8 -12    6.13    0.66
  -1   8 -12    6.08    0.59
  -2   8 -12    6.61    0.61
  -2   8 -12    7.31    0.58
  -3   8 -12   24.49    1.21
  -3   8 -12   24.49    1.24
  -4   8 -12   22.68    1.30
  -4   8 -12   24.45    1.32
  -5   8 -12    9.92    0.77
  -5   8 -12    9.93    0.73
  -6   8 -12    0.01    0.35
  -6   8 -12    0.01    0.28
  -7   8 -12    1.00    0.39
  -8   8 -12    5.44    0.61
  -9   8 -12    6.25    0.62
 -10   8 -12    0.00    0.40
 -11   8 -12    0.26    0.42
 -12   8 -12    0.10    0.46
  11   7 -12    1.53    0.66
  10   7 -12    0.33    0.57
   9   7 -12    0.07    0.57
   8   7 -12    2.07    0.64
   7   7 -12    2.15    0.57
   6   7 -12    2.94    0.46
   6   7 -12    4.00    0.63
   5   7 -12    4.51    0.61
   5   7 -12    2.87    0.42
   4   7 -12    7.12    0.81
   4   7 -12    8.14    0.65
   3   7 -12    7.18    0.49
   3   7 -12    6.63    0.64
   2   7 -12    0.00    0.41
   2   7 -12    0.12    0.24
   1   7 -12   25.89    0.99
   1   7 -12   23.52    1.11
   0   7 -12    5.39    0.64
   0   7 -12    5.93    0.58
  -1   7 -12    0.00    0.31
  -1   7 -12    0.23    0.42
  -2   7 -12    0.44    0.35
  -2   7 -12    0.03    0.28
  -3   7 -12    0.96    0.41
  -3   7 -12    1.01    0.42
  -4   7 -12    5.89    0.57
  -4   7 -12    6.23    0.62
  -5   7 -12    5.23    0.53
  -6   7 -12    0.31    0.30
  -7   7 -12    1.77    0.42
  -8   7 -12    0.55    0.40
  -9   7 -12    4.13    0.50
 -10   7 -12    0.04    0.41
 -11   7 -12    0.48    0.47
 -12   7 -12    1.61    0.51
  11   6 -12    0.75    0.64
  10   6 -12    0.14    0.55
   9   6 -12    5.40    0.81
   8   6 -12    2.63    0.66
   7   6 -12    6.86    0.78
   6   6 -12    0.16    0.27
   6   6 -12    0.90    0.48
   5   6 -12    2.09    0.54
   5   6 -12    2.22    0.37
   4   6 -12   11.25    0.77
   4   6 -12   11.24    0.99
   3   6 -12    0.12    0.24
   3   6 -12    0.00    0.42
   2   6 -12    2.62    0.36
   2   6 -12    2.91    0.53
   1   6 -12    4.88    0.44
   1   6 -12    4.27    0.56
   0   6 -12    0.31    0.37
   0   6 -12    0.02    0.27
  -1   6 -12    3.97    0.49
  -1   6 -12    5.21    0.44
  -2   6 -12    6.06    0.55
  -2   6 -12    5.18    0.55
  -3   6 -12    0.19    0.29
  -4   6 -12    0.06    0.33
  -5   6 -12    6.56    0.60
  -6   6 -12    0.04    0.30
  -7   6 -12    0.29    0.35
  -8   6 -12    8.56    0.65
  -9   6 -12    0.38    0.38
 -10   6 -12    0.22    0.39
 -11   6 -12    2.40    0.52
 -12   6 -12    1.82    0.56
  12   5 -12    0.12    0.55
  11   5 -12    0.53    0.57
  10   5 -12    0.14    0.57
   9   5 -12    0.51    0.52
   8   5 -12    3.75    0.69
   7   5 -12    1.48    0.50
   6   5 -12    0.75    0.26
   6   5 -12    1.65    0.49
   5   5 -12    2.20    0.38
   5   5 -12    3.60    0.64
   4   5 -12    0.02    0.23
   4   5 -12    0.12    0.40
   3   5 -12    0.62    0.26
   3   5 -12    0.01    0.41
   2   5 -12    0.73    0.27
   2   5 -12    0.28    0.42
   1   5 -12    0.00    0.40
   1   5 -12    0.18    0.13
   0   5 -12    2.16    0.35
   0   5 -12    2.72    0.54
  -1   5 -12   15.80    0.91
  -1   5 -12   16.25    0.78
  -2   5 -12    6.51    0.52
  -3   5 -12    5.19    0.49
  -4   5 -12    0.87    0.32
  -5   5 -12    1.37    0.41
  -6   5 -12    5.88    0.54
  -7   5 -12    4.68    0.58
  -8   5 -12    3.35    0.55
  -9   5 -12    6.13    0.60
 -10   5 -12    0.96    0.43
 -11   5 -12   19.14    1.22
 -12   5 -12    0.83    0.50
  12   4 -12    0.16    0.58
  11   4 -12    1.55    0.60
  10   4 -12    0.11    0.56
   9   4 -12    0.91    0.59
   8   4 -12    0.42    0.45
   7   4 -12    1.70    0.52
   6   4 -12    0.17    0.43
   5   4 -12    3.31    0.40
   5   4 -12    4.75    0.72
   4   4 -12    3.21    0.61
   4   4 -12    3.54    0.36
   3   4 -12    2.37    0.29
   3   4 -12    2.99    0.50
   2   4 -12    1.14    0.45
   2   4 -12    0.46    0.22
   1   4 -12    4.18    0.49
   0   4 -12    0.00    0.22
   0   4 -12    0.00    0.34
  -1   4 -12    0.00    0.30
  -2   4 -12    0.09    0.30
  -3   4 -12   23.86    1.01
  -4   4 -12    7.38    0.65
  -5   4 -12   15.53    0.82
  -6   4 -12    0.25    0.35
  -7   4 -12   11.97    0.74
  -8   4 -12    9.62    0.80
  -9   4 -12    0.11    0.37
 -10   4 -12    7.13    0.73
 -11   4 -12    0.54    0.45
 -12   4 -12    0.10    0.47
  13   3 -12    1.24    0.69
  12   3 -12    0.42    0.56
 -12  -3  12    0.42    0.41
  11   3 -12    5.88    0.91
 -11  -3  12    6.92    0.66
  10   3 -12    0.40    0.52
 -10  -3  12    0.19    0.39
   9   3 -12    0.47    0.49
  -9  -3  12    0.00    0.32
   8   3 -12    1.01    0.51
  -8  -3  12    1.63    0.45
   7   3 -12    0.83    0.51
   6   3 -12    6.82    0.75
   5   3 -12    0.00    0.40
   5   3 -12    0.00    0.17
   4   3 -12    1.61    0.48
   4   3 -12    1.69    0.26
   3   3 -12    0.45    0.45
   3   3 -12    0.56    0.26
   2   3 -12    0.02    0.35
   2   3 -12    0.68    0.21
   1   3 -12   74.54    2.90
   1   3 -12   71.35    2.54
   0   3 -12    1.20    0.37
  -1   3 -12   10.66    0.71
  -2   3 -12   16.28    0.80
  -3   3 -12   15.06    0.78
  -4   3 -12    9.74    0.58
  -5   3 -12   14.19    0.88
  -6   3 -12    0.36    0.37
  -7   3 -12    0.12    0.34
  -8   3 -12    0.49    0.38
  -9   3 -12    3.23    0.54
 -10   3 -12    0.67    0.44
 -11   3 -12    2.25    0.58
 -12   3 -12    5.69    0.82
  13   2 -12    1.51    0.71
 -13  -2  12    1.06    0.45
  12   2 -12    0.01    0.52
 -12  -2  12    0.23    0.41
  11   2 -12    9.06    1.04
 -11  -2  12    8.92    0.75
  10   2 -12    0.02    0.48
 -10  -2  12    0.38    0.40
   9   2 -12    0.83    0.54
  -9  -2  12    0.62    0.36
   8   2 -12    0.38    0.46
  -8  -2  12    0.02    0.33
   7   2 -12    5.24    0.71
  -7  -2  12    5.19    0.58
   6   2 -12    0.08    0.41
  -6  -2  12    0.22    0.43
   5   2 -12    4.28    0.30
   5   2 -12    4.88    0.65
  -5  -2  12    5.35    0.60
   4   2 -12    5.04    0.37
   4   2 -12    4.52    0.69
   3   2 -12   26.38    0.95
   3   2 -12   27.01    1.31
   2   2 -12   12.78    0.84
   1   2 -12   31.63    1.28
   0   2 -12    4.90    0.47
  -1   2 -12    8.33    0.68
  -2   2 -12   18.48    0.96
  -3   2 -12    6.44    0.61
  -4   2 -12    0.36    0.35
  -5   2 -12    5.50    0.50
  -6   2 -12   10.13    0.76
  -7   2 -12    1.84    0.43
  -8   2 -12   27.36    1.23
  -9   2 -12    1.70    0.52
 -10   2 -12    0.55    0.44
 -11   2 -12    3.31    0.70
  14   1 -12    0.00    0.53
  13   1 -12    1.10    0.68
 -13  -1  12    0.92    0.48
  12   1 -12    3.55    0.75
 -12  -1  12    4.56    0.59
  11   1 -12    1.03    0.59
 -11  -1  12    1.65    0.44
  10   1 -12    0.15    0.47
 -10  -1  12    0.03    0.36
   9   1 -12    4.78    0.79
  -9  -1  12    5.73    0.67
   8   1 -12    2.97    0.57
  -8  -1  12    3.41    0.51
   7   1 -12   27.06    1.54
  -7  -1  12   33.59    1.41
   6   1 -12    2.53    0.55
  -6  -1  12    2.20    0.49
   5   1 -12    0.01    0.12
   5   1 -12    0.01    0.37
  -5  -1  12    0.19    0.40
   4   1 -12    0.08    0.14
   4   1 -12    0.19    0.41
  -4  -1  12    0.08    0.35
   3   1 -12    0.67    0.49
  -3  -1  12    0.42    0.41
   2   1 -12   82.48    3.18
   1   1 -12    2.25    0.41
   0   1 -12    0.23    0.29
  -1   1 -12    2.32    0.36
  -2   1 -12    0.45    0.31
  -3   1 -12   30.51    1.29
  -4   1 -12    2.03    0.43
  -5   1 -12   17.38    0.92
  -6   1 -12    0.79    0.38
  -7   1 -12    4.95    0.60
  -8   1 -12    7.92    0.79
  -9   1 -12    0.15    0.39
 -10   1 -12    0.89    0.47
 -11   1 -12    0.39    0.54
  14   0 -12    0.92    0.60
 -14   0  12    0.38    0.46
  13   0 -12    1.02    0.67
 -13   0  12    0.72    0.48
  12   0 -12    0.77    0.55
 -12   0  12    0.35    0.48
  11   0 -12    6.22    0.92
 -11   0  12    4.72    0.62
  10   0 -12    6.71    0.92
 -10   0  12    6.18    0.69
   9   0 -12    0.08    0.51
  -9   0  12    0.16    0.44
   8   0 -12   11.73    0.98
  -8   0  12   13.68    0.85
   7   0 -12   10.00    0.98
  -7   0  12   13.09    0.94
   6   0 -12    3.15    0.65
  -6   0  12    2.74    0.53
   5   0 -12    0.26    0.11
   5   0 -12    0.19    0.48
  -5   0  12    0.81    0.39
   4   0 -12    4.56    0.26
   4   0 -12    3.87    0.58
  -4   0  12    4.42    0.50
   3   0 -12    1.07    0.42
  -3   0  12    0.31    0.36
   2   0 -12   10.65    0.81
  -2   0  12   10.97    0.79
   1   0 -12    1.05    0.40
   0   0 -12    6.25    0.51
  -1   0 -12    7.03    0.53
  -2   0 -12    6.70    0.56
  -3   0 -12    1.75    0.37
  -4   0 -12    2.37    0.43
  -5   0 -12    0.97    0.36
  -6   0 -12    0.46    0.34
  -7   0 -12    0.00    0.36
  -8   0 -12    0.50    0.40
  -9   0 -12    2.87    0.56
 -10   0 -12    4.71    0.67
 -11   0 -12    0.63    0.49
  14  -1 -12    2.84    0.77
 -14   1  12    2.77    0.62
  13  -1 -12    1.87    0.64
 -13   1  12    1.07    0.47
  12  -1 -12    0.21    0.50
 -12   1  12    0.01    0.41
  11  -1 -12    1.87    0.66
 -11   1  12    2.19    0.55
  10  -1 -12    0.00    0.50
 -10   1  12    0.28    0.40
   9  -1 -12    4.44    0.69
  -9   1  12    5.07    0.62
   8  -1 -12    3.52    0.64
  -8   1  12    3.91    0.59
   7  -1 -12    5.17    0.73
  -7   1  12    6.56    0.67
   6  -1 -12    0.09    0.45
  -6   1  12    0.08    0.40
   5  -1 -12   13.91    0.59
   5  -1 -12   15.10    1.12
  -5   1  12   15.34    1.02
   4  -1 -12   16.17    1.08
  -4   1  12   14.65    0.98
   3  -1 -12    2.15    0.49
  -3   1  12    2.79    0.46
   2  -1 -12    0.02    0.40
  -2   1  12    0.01    0.38
   1  -1 -12    0.07    0.31
  -1   1  12    0.03    0.38
   0  -1 -12    1.20    0.32
  -1  -1 -12    2.11    0.33
  -2  -1 -12    4.38    0.45
  -3  -1 -12    3.38    0.44
  -4  -1 -12    0.01    0.34
  -5  -1 -12   35.83    1.64
  -6  -1 -12    6.43    0.66
  -7  -1 -12    0.65    0.38
  -8  -1 -12    1.45    0.51
  -9  -1 -12    2.53    0.59
 -10  -1 -12    4.34    0.66
  14  -2 -12    2.68    0.74
 -14   2  12    2.13    0.60
  13  -2 -12    1.38    0.56
 -13   2  12    0.98    0.53
  12  -2 -12    0.69    0.57
 -12   2  12    0.62    0.51
  11  -2 -12    7.35    0.84
 -11   2  12    8.03    0.72
  10  -2 -12    5.56    0.80
 -10   2  12    5.35    0.63
   9  -2 -12    0.37    0.42
  -9   2  12    0.36    0.42
   8  -2 -12    1.69    0.56
  -8   2  12    1.36    0.46
   7  -2 -12    0.13    0.42
  -7   2  12    0.74    0.43
   6  -2 -12    0.10    0.44
  -6   2  12    0.02    0.45
   5  -2 -12    4.77    0.70
  -5   2  12    4.11    0.56
   4  -2 -12    0.01    0.42
  -4   2  12    0.01    0.40
   3  -2 -12   20.75    1.08
  -3   2  12   20.26    1.03
   2  -2 -12   15.99    0.81
  -2   2  12   18.10    0.84
   1  -2 -12   36.96    1.62
  -1   2  12   37.66    1.66
   0  -2 -12    0.01    0.31
   0   2  12    0.24    0.35
  -1  -2 -12   20.88    1.14
  -2  -2 -12   15.30    0.80
  -3  -2 -12    0.00    0.30
  -4  -2 -12    4.42    0.50
  -5  -2 -12    9.50    0.75
  -6  -2 -12    3.43    0.54
  -7  -2 -12    4.89    0.65
  -8  -2 -12    0.19    0.44
  -9  -2 -12    1.75    0.54
 -10  -2 -12    0.41    0.48
  14  -3 -12    0.08    0.52
 -14   3  12    0.06    0.51
  13  -3 -12    0.34    0.46
 -13   3  12    0.69    0.47
  12  -3 -12    2.78    0.69
 -12   3  12    3.30    0.63
  11  -3 -12    0.24    0.49
 -11   3  12    0.06    0.40
  10  -3 -12    1.11    0.47
 -10   3  12    1.07    0.45
   9  -3 -12    0.28    0.41
  -9   3  12    0.00    0.42
   8  -3 -12    0.44    0.48
  -8   3  12    0.06    0.40
   7  -3 -12   30.24    1.72
  -7   3  12   35.77    1.60
   6  -3 -12    0.37    0.45
  -6   3  12    0.00    0.41
   5  -3 -12    0.02    0.41
  -5   3  12    0.40    0.42
   4  -3 -12    1.15    0.50
  -4   3  12    0.77    0.41
   3  -3 -12   28.67    1.55
  -3   3  12   28.78    1.49
   2  -3 -12   25.77    1.34
  -2   3  12   22.99    1.30
   1  -3 -12    5.96    0.54
  -1   3  12    4.93    0.55
   0  -3 -12    7.17    0.65
   0   3  12    7.32    0.75
  -1  -3 -12    5.11    0.52
   1   3  12    5.11    0.59
  -2  -3 -12    0.71    0.35
  -3  -3 -12   11.97    0.86
  -4  -3 -12    1.60    0.39
  -5  -3 -12    7.19    0.66
  -6  -3 -12    2.79    0.52
  -7  -3 -12    0.86    0.42
  -8  -3 -12    7.88    0.79
  -9  -3 -12    0.80    0.49
  14  -4 -12    1.25    0.56
 -14   4  12    0.32    0.46
  13  -4 -12    1.94    0.60
 -13   4  12    1.20    0.57
  12  -4 -12   10.04    1.01
 -12   4  12    8.04    0.82
  11  -4 -12    2.22    0.60
 -11   4  12    1.92    0.56
  10  -4 -12   10.85    0.97
 -10   4  12    9.27    0.83
   9  -4 -12    3.75    0.62
  -9   4  12    3.99    0.60
   8  -4 -12    2.80    0.56
  -8   4  12    2.15    0.50
   7  -4 -12   18.21    1.32
  -7   4  12   22.29    1.25
   6  -4 -12    1.81    0.53
  -6   4  12    2.70    0.56
   5  -4 -12    0.47    0.53
  -5   4  12    1.99    0.47
   4  -4 -12    4.20    0.70
  -4   4  12    3.34    0.56
   3  -4 -12    0.38    0.46
  -3   4  12    1.07    0.28
  -3   4  12    0.94    0.42
   2  -4 -12   12.76    0.83
  -2   4  12   12.62    0.83
  -2   4  12   11.94    0.66
   1  -4 -12    1.95    0.42
  -1   4  12    0.77    0.30
  -1   4  12    2.08    0.42
   0  -4 -12    8.62    0.68
   0   4  12    8.97    0.78
   0   4  12    8.24    0.66
  -1  -4 -12    1.21    0.36
   1   4  12    2.01    0.45
   1   4  12    1.81    0.41
  -2  -4 -12   12.68    0.87
   2   4  12   12.30    0.90
  -3  -4 -12    5.29    0.51
   3   4  12    5.51    0.57
  -4  -4 -12    0.31    0.37
   4   4  12    0.00    0.34
  -5  -4 -12   18.00    1.06
  -6  -4 -12    8.83    0.82
  -7  -4 -12    1.79    0.53
  -8  -4 -12    3.83    0.61
  -9  -4 -12    2.36    0.54
  14  -5 -12    2.25    0.66
 -14   5  12    1.63    0.59
  13  -5 -12    4.48    0.75
 -13   5  12    4.38    0.70
  12  -5 -12    0.72    0.49
 -12   5  12    0.01    0.47
  11  -5 -12    7.18    0.82
 -11   5  12    7.01    0.76
  10  -5 -12    4.43    0.67
 -10   5  12    2.98    0.63
   9  -5 -12    0.04    0.35
  -9   5  12    0.13    0.44
   8  -5 -12    2.98    0.66
  -8   5  12    3.39    0.67
   7  -5 -12    0.00    0.40
  -7   5  12    0.00    0.46
   6  -5 -12    6.56    0.80
  -6   5  12    8.30    0.44
  -6   5  12    7.18    0.73
   5  -5 -12    5.00    0.69
  -5   5  12    5.26    0.62
  -5   5  12    5.80    0.40
   4  -5 -12    1.95    0.59
  -4   5  12    1.40    0.29
  -4   5  12    2.26    0.48
   3  -5 -12   21.81    1.16
  -3   5  12   18.78    0.85
  -3   5  12   19.01    1.06
   2  -5 -12   19.11    1.04
  -2   5  12   17.74    0.87
  -2   5  12   17.22    1.01
   1  -5 -12    2.15    0.41
  -1   5  12    2.41    0.47
  -1   5  12    1.82    0.36
   0  -5 -12    0.84    0.36
   0   5  12    0.81    0.37
   0   5  12    0.99    0.39
  -1  -5 -12    0.19    0.33
   1   5  12    0.02    0.27
   1   5  12    0.03    0.32
  -2  -5 -12   17.56    0.88
   2   5  12   16.62    0.95
   2   5  12   16.92    0.92
  -3  -5 -12    0.14    0.32
   3   5  12    0.02    0.35
  -4  -5 -12    1.13    0.39
   4   5  12    1.31    0.49
  -5  -5 -12    7.57    0.72
   5   5  12    7.25    0.76
  -6  -5 -12    2.64    0.50
   6   5  12    4.16    0.61
  -7  -5 -12    0.33    0.46
  -8  -5 -12    0.32    0.47
  14  -6 -12    4.35    0.67
  13  -6 -12    5.57    0.75
 -13   6  12    3.17    0.72
  12  -6 -12    2.81    0.62
 -12   6  12    1.65    0.60
  11  -6 -12    0.03    0.37
 -11   6  12    0.41    0.50
  10  -6 -12    4.53    0.67
 -10   6  12    5.34    0.76
   9  -6 -12    0.91    0.47
  -9   6  12    0.17    0.47
   8  -6 -12    0.23    0.37
  -8   6  12    0.32    0.43
   7  -6 -12    0.28    0.40
  -7   6  12    0.33    0.47
   6  -6 -12    0.00    0.37
  -6   6  12    0.24    0.41
  -6   6  12    0.18    0.21
   5  -6 -12    2.43    0.60
  -5   6  12    3.04    0.57
  -5   6  12    3.15    0.35
   4  -6 -12    1.11    0.53
  -4   6  12    1.78    0.33
  -4   6  12    1.17    0.45
   3  -6 -12    8.21    0.77
  -3   6  12    9.14    0.60
  -3   6  12    8.16    0.72
   2  -6 -12    4.68    0.56
  -2   6  12    3.33    0.44
  -2   6  12    3.28    0.53
   1  -6 -12   10.25    0.72
  -1   6  12    8.99    0.68
  -1   6  12    9.25    0.74
   0  -6 -12    3.05    0.48
   0   6  12    3.34    0.50
   0   6  12    3.11    0.51
  -1  -6 -12    0.37    0.34
   1   6  12    0.73    0.38
   1   6  12    0.55    0.38
  -2  -6 -12    7.92    0.69
   2   6  12    5.98    0.68
   2   6  12    7.61    0.69
  -3  -6 -12    0.28    0.38
   3   6  12    0.02    0.37
  -4  -6 -12    9.60    0.78
   4   6  12    8.47    0.85
  -5  -6 -12    5.57    0.69
   5   6  12    7.96    0.86
  -6  -6 -12    0.97    0.46
   6   6  12    0.98    0.57
  -7  -6 -12    0.00    0.44
   7   6  12    0.50    0.52
  13  -7 -12    1.02    0.48
 -13   7  12    0.61    0.57
  12  -7 -12    2.40    0.53
 -12   7  12    1.50    0.66
  11  -7 -12    0.77    0.45
 -11   7  12    0.73    0.61
  10  -7 -12   13.38    1.00
 -10   7  12   12.53    1.07
   9  -7 -12    6.34    0.73
  -9   7  12    3.83    0.66
   8  -7 -12    3.29    0.58
  -8   7  12    3.85    0.63
   7  -7 -12    2.89    0.49
  -7   7  12    2.92    0.54
   6  -7 -12    0.02    0.38
  -6   7  12    0.11    0.24
  -6   7  12    0.99    0.44
   5  -7 -12    0.00    0.42
  -5   7  12    0.00    0.39
  -5   7  12    0.58    0.27
   4  -7 -12    0.00    0.45
  -4   7  12    0.13    0.39
  -4   7  12    0.73    0.31
   3  -7 -12    0.00    0.41
  -3   7  12    0.89    0.45
  -3   7  12    0.55    0.32
   2  -7 -12   17.45    0.99
  -2   7  12   15.89    0.89
  -2   7  12   15.08    0.97
   1  -7 -12   29.06    1.30
  -1   7  12   28.23    1.34
  -1   7  12   26.69    1.26
   0  -7 -12    0.40    0.32
   0   7  12    0.84    0.38
   0   7  12    0.86    0.41
  -1  -7 -12    2.54    0.43
   1   7  12    2.98    0.53
   1   7  12    2.81    0.48
  -2  -7 -12    1.66    0.43
   2   7  12    2.29    0.45
   2   7  12    2.27    0.52
  -3  -7 -12    1.75    0.46
   3   7  12    1.51    0.49
  -4  -7 -12    7.90    0.72
   4   7  12    8.13    0.88
  -5  -7 -12    0.72    0.39
   5   7  12    0.00    0.46
  -6  -7 -12    0.41    0.40
   6   7  12    0.68    0.49
  13  -8 -12    0.23    0.42
 -13   8  12    0.04    0.52
  12  -8 -12    2.43    0.49
 -12   8  12    1.29    0.65
  11  -8 -12    1.25    0.41
 -11   8  12    0.86    0.60
  10  -8 -12    2.41    0.49
 -10   8  12    1.53    0.58
   9  -8 -12    0.74    0.39
  -9   8  12    0.47    0.52
   8  -8 -12    1.38    0.43
  -8   8  12    0.59    0.57
   7  -8 -12    2.81    0.55
  -7   8  12    3.56    0.68
   6  -8 -12    0.12    0.38
  -6   8  12    0.86    0.31
  -6   8  12    0.54    0.47
   5  -8 -12    6.15    0.78
  -5   8  12    7.52    0.74
  -5   8  12    8.53    0.60
   4  -8 -12    8.45    0.89
  -4   8  12    9.72    0.66
  -4   8  12    8.50    0.78
   3  -8 -12    0.00    0.38
  -3   8  12    0.00    0.35
  -3   8  12    0.00    0.31
   2  -8 -12    9.32    0.77
  -2   8  12    8.88    0.78
  -2   8  12    9.46    0.74
   1  -8 -12   11.42    0.84
  -1   8  12   11.19    0.87
  -1   8  12   12.68    0.94
   0  -8 -12   16.53    0.89
   0   8  12   16.04    0.99
   0   8  12   16.15    1.00
  -1  -8 -12    0.96    0.38
   1   8  12    0.76    0.38
   1   8  12    0.59    0.44
  -2  -8 -12    0.13    0.36
   2   8  12    0.01    0.28
   2   8  12    0.55    0.47
  -3  -8 -12    0.00    0.34
   3   8  12    0.00    0.48
  -4  -8 -12    1.27    0.43
   4   8  12    0.77    0.47
  -5  -8 -12    2.19    0.50
   5   8  12    2.34    0.56
  12  -9 -12    0.16    0.21
 -12   9  12    0.32    0.56
  11  -9 -12    0.22    0.15
 -11   9  12    0.05    0.52
  10  -9 -12    0.07    0.20
 -10   9  12    0.07    0.56
   9  -9 -12    4.09    0.47
  -9   9  12    4.04    0.72
   8  -9 -12   10.66    0.74
  -8   9  12   13.25    1.01
  -7   9  12    3.49    0.64
   6  -9 -12    0.02    0.13
  -6   9  12    0.47    0.46
  -6   9  12    0.15    0.31
  -5   9  12    5.64    0.70
  -5   9  12    5.60    0.56
   4  -9 -12    4.02    0.69
  -4   9  12    5.39    0.59
  -4   9  12    5.26    0.65
   3  -9 -12   10.14    0.89
  -3   9  12    9.65    0.86
  -3   9  12   11.40    0.80
   2  -9 -12    1.68    0.46
  -2   9  12    1.87    0.48
  -2   9  12    1.85    0.49
   1  -9 -12    0.01    0.34
  -1   9  12    0.18    0.38
  -1   9  12    0.01    0.39
   0  -9 -12    0.00    0.31
   0   9  12    0.00    0.35
   0   9  12    0.08    0.43
  -1  -9 -12    3.97    0.54
   1   9  12    3.80    0.59
   1   9  12    3.90    0.63
  -2  -9 -12   10.57    0.80
   2   9  12    9.33    0.89
  -3  -9 -12    0.25    0.38
   3   9  12    0.54    0.53
  -4  -9 -12    2.67    0.53
   4   9  12    2.98    0.66
 -11  10  12    0.24    0.54
 -10  10  12    3.13    0.74
  -9  10  12    0.66    0.54
   8 -10 -12    6.75    0.71
  -8  10  12    6.68    0.85
   7 -10 -12    0.00    0.23
  -7  10  12    0.00    0.54
   6 -10 -12    0.17    0.32
  -6  10  12    0.15    0.47
  -6  10  12    1.31    0.38
   5 -10 -12    0.66    0.44
  -5  10  12    0.67    0.54
  -5  10  12    1.26    0.42
   4 -10 -12    1.88    0.57
  -4  10  12    2.50    0.47
  -4  10  12    2.96    0.60
  -3  10  12    4.71    0.65
  -3  10  12    4.51    0.60
   2 -10 -12    4.05    0.54
  -2  10  12    4.56    0.60
  -2  10  12    4.93    0.61
   1 -10 -12    0.72    0.39
  -1  10  12    0.79    0.43
  -1  10  12    0.94    0.49
   0 -10 -12    3.11    0.52
   0  10  12    3.68    0.57
   0  10  12    3.79    0.65
  -1 -10 -12    0.01    0.34
   1  10  12    0.31    0.43
   1  10  12    0.01    0.32
  -2 -10 -12    5.60    0.64
   2  10  12    7.93    0.87
  -3 -10 -12    1.13    0.43
 -10  11  12    0.05    0.52
  -9  11  12    2.36    0.67
  -8  11  12    0.37    0.53
  -7  11  12    0.19    0.47
  -6  11  12    1.13    0.50
  -6  11  12    0.33    0.38
  -5  11  12    0.01    0.40
  -5  11  12    0.01    0.34
  -4  11  12    8.44    0.73
  -4  11  12    6.64    0.76
   3 -11 -12    0.00    0.43
  -3  11  12    0.65    0.45
  -3  11  12    0.42    0.41
   2 -11 -12    2.45    0.52
  -2  11  12    2.31    0.54
  -2  11  12    2.35    0.56
  -1  11  12    1.43    0.47
  -1  11  12    1.32    0.49
   0 -11 -12    0.69    0.37
   0  11  12    1.45    0.54
   0  11  12    1.04    0.46
  -1 -11 -12    0.17    0.38
   1  11  12    0.13    0.44
  -8  12  12    1.34    0.58
  -7  12  12    0.28    0.50
  -6  12  12    0.02    0.45
  -6  12  12    0.24    0.39
  -5  12  12    0.99    0.55
  -5  12  12    1.28    0.45
  -4  12  12    3.57    0.58
  -4  12  12    2.38    0.60
  -3  12  12    0.03    0.43
  -3  12  12    0.32    0.47
  -2  12  12    0.45    0.42
  -2  12  12    0.02    0.43
   2  14 -13    0.49    0.48
   1  14 -13    0.03    0.40
   1  14 -13    0.03    0.35
   0  14 -13    0.74    0.40
   0  14 -13    1.32    0.46
  -1  14 -13    0.11    0.35
  -1  14 -13    0.11    0.38
  -2  14 -13    0.45    0.39
  -2  14 -13    0.60    0.40
  -3  14 -13    1.50    0.47
  -3  14 -13    2.10    0.47
  -4  14 -13    0.29    0.39
  -4  14 -13    0.29    0.47
  -5  14 -13    6.00    0.75
  -5  14 -13    9.01    0.80
  -6  14 -13    0.04    0.45
  -6  14 -13    0.01    0.42
   4  13 -13    0.30    0.51
   3  13 -13    0.39    0.42
   3  13 -13    0.73    0.49
   2  13 -13    0.60    0.41
   2  13 -13    0.12    0.40
   1  13 -13    4.88    0.64
   1  13 -13    4.90    0.56
   0  13 -13    0.46    0.42
   0  13 -13    0.48    0.36
  -1  13 -13    2.98    0.52
  -1  13 -13    2.46    0.49
  -2  13 -13    0.26    0.38
  -2  13 -13    0.06    0.36
  -3  13 -13    2.87    0.53
  -3  13 -13    2.51    0.51
  -4  13 -13    5.91    0.63
  -4  13 -13    5.47    0.58
  -5  13 -13    1.07    0.50
  -5  13 -13    1.26    0.49
  -6  13 -13    2.02    0.53
  -6  13 -13    1.61    0.59
  -7  13 -13    1.54    0.51
  -7  13 -13    2.07    0.61
  -8  13 -13    0.86    0.46
  -8  13 -13    0.49    0.51
   5  12 -13    1.41    0.55
   5  12 -13    1.56    0.61
   4  12 -13    0.00    0.38
   4  12 -13    0.20    0.47
   3  12 -13    2.09    0.57
   3  12 -13    2.51    0.49
   2  12 -13    0.09    0.36
   2  12 -13    0.34    0.47
   1  12 -13    4.45    0.50
   1  12 -13    3.17    0.54
   0  12 -13    6.49    0.62
   0  12 -13    6.29    0.64
  -1  12 -13    1.15    0.39
  -1  12 -13    1.22    0.39
  -2  12 -13    0.02    0.34
  -2  12 -13    0.00    0.34
  -3  12 -13    0.47    0.42
  -3  12 -13    0.91    0.43
  -4  12 -13    5.26    0.65
  -4  12 -13    4.65    0.61
  -5  12 -13    0.48    0.47
  -5  12 -13    1.55    0.48
  -6  12 -13    0.70    0.47
  -6  12 -13    0.44    0.46
  -7  12 -13    0.11    0.46
  -7  12 -13    0.21    0.42
  -8  12 -13    0.00    0.41
  -8  12 -13    0.99    0.51
  -9  12 -13    3.03    0.64
  -9  12 -13    3.36    0.53
   7  11 -13    1.18    0.61
   6  11 -13    0.00    0.37
   6  11 -13    0.00    0.47
   5  11 -13    2.20    0.53
   5  11 -13    3.99    0.70
   4  11 -13    0.98    0.41
   4  11 -13    1.44    0.53
   3  11 -13    0.00    0.34
   3  11 -13    0.57    0.48
   2  11 -13    0.16    0.41
   2  11 -13    0.76    0.33
   1  11 -13    0.83    0.41
   1  11 -13    0.72    0.38
   0  11 -13    2.72    0.41
   0  11 -13    2.30    0.48
  -1  11 -13    0.00    0.35
  -1  11 -13    0.00    0.37
  -2  11 -13    1.89    0.49
  -2  11 -13    2.36    0.54
  -3  11 -13    0.16    0.36
  -3  11 -13    0.07    0.36
  -4  11 -13    1.14    0.45
  -4  11 -13    1.44    0.49
  -5  11 -13    1.34    0.46
  -5  11 -13    0.62    0.44
  -6  11 -13    1.49    0.56
  -6  11 -13    0.20    0.44
  -7  11 -13    1.54    0.52
  -7  11 -13    1.02    0.43
  -8  11 -13    2.80    0.62
  -8  11 -13    2.97    0.52
  -9  11 -13    3.65    0.70
  -9  11 -13    3.79    0.57
 -10  11 -13    1.57    0.49
   8  10 -13    1.30    0.70
   7  10 -13    0.51    0.61
   6  10 -13    0.00    0.43
   6  10 -13    0.00    0.43
   5  10 -13    0.32    0.36
   5  10 -13    0.65    0.48
   4  10 -13    0.41    0.43
   4  10 -13    0.45    0.33
   3  10 -13    0.13    0.34
   3  10 -13    0.00    0.44
   2  10 -13    0.64    0.45
   2  10 -13    0.63    0.35
   1  10 -13    0.84    0.34
   1  10 -13    0.73    0.46
   0  10 -13    0.23    0.36
   0  10 -13    0.09    0.33
  -1  10 -13    2.96    0.57
  -1  10 -13    2.90    0.52
  -2  10 -13    2.57    0.48
  -2  10 -13    3.30    0.52
  -3  10 -13    0.39    0.45
  -3  10 -13    0.98    0.47
  -4  10 -13    6.30    0.64
  -4  10 -13    5.53    0.59
  -5  10 -13    0.34    0.47
  -5  10 -13    0.21    0.42
  -6  10 -13    0.01    0.38
  -6  10 -13    0.01    0.41
  -7  10 -13    4.72    0.56
  -7  10 -13    4.56    0.64
  -8  10 -13    0.46    0.46
  -8  10 -13    0.48    0.41
  -9  10 -13    0.49    0.49
  -9  10 -13    0.34    0.41
 -10  10 -13    1.94    0.59
 -10  10 -13    1.73    0.45
   9   9 -13    0.04    0.54
   8   9 -13    0.04    0.56
   7   9 -13    0.29    0.51
   6   9 -13    0.01    0.50
   6   9 -13    0.01    0.38
   5   9 -13    1.62    0.42
   5   9 -13    1.55    0.50
   4   9 -13    6.43    0.78
   4   9 -13    4.69    0.55
   3   9 -13    5.25    0.68
   3   9 -13    4.11    0.48
   2   9 -13    1.04    0.49
   2   9 -13    0.93    0.35
   1   9 -13    3.04    0.49
   1   9 -13    3.09    0.58
   0   9 -13    0.26    0.28
   0   9 -13    0.00    0.39
  -1   9 -13    0.00    0.30
  -1   9 -13    0.01    0.39
  -2   9 -13    1.47    0.40
  -2   9 -13    0.07    0.35
  -3   9 -13    2.81    0.55
  -3   9 -13    2.18    0.54
  -4   9 -13    9.73    0.77
  -4   9 -13    9.45    0.78
  -5   9 -13    6.91    0.62
  -5   9 -13    8.12    0.72
  -6   9 -13    0.00    0.43
  -6   9 -13    0.00    0.33
  -7   9 -13    8.86    0.75
  -7   9 -13   10.41    0.85
  -8   9 -13    3.79    0.59
  -8   9 -13    2.79    0.45
  -9   9 -13    0.62    0.49
  -9   9 -13    0.35    0.36
 -10   9 -13    1.64    0.42
 -11   9 -13    0.17    0.47
   9   8 -13    1.05    0.62
   8   8 -13    0.12    0.52
   7   8 -13    0.27    0.50
   6   8 -13    0.86    0.40
   6   8 -13    0.83    0.51
   5   8 -13    1.16    0.52
   5   8 -13    1.45    0.38
   4   8 -13    0.53    0.31
   4   8 -13    0.91    0.46
   3   8 -13    2.13    0.45
   3   8 -13    1.76    0.29
   2   8 -13    0.18    0.38
   2   8 -13    0.59    0.31
   1   8 -13   13.25    0.90
   1   8 -13   14.05    0.79
   0   8 -13    2.75    0.39
   0   8 -13    2.53    0.46
  -1   8 -13    9.29    0.65
  -1   8 -13    7.88    0.72
  -2   8 -13    0.79    0.32
  -2   8 -13    1.05    0.43
  -3   8 -13   13.02    0.81
  -3   8 -13   13.88    0.80
  -4   8 -13    6.15    0.56
  -4   8 -13    6.57    0.57
  -5   8 -13    1.62    0.38
  -5   8 -13    2.25    0.48
  -6   8 -13   12.23    0.83
  -6   8 -13    9.95    0.71
  -7   8 -13    0.00    0.33
  -8   8 -13    0.53    0.40
  -9   8 -13    4.01    0.57
 -10   8 -13    0.00    0.42
 -11   8 -13    2.40    0.55
  10   7 -13    0.51    0.62
   9   7 -13    0.15    0.54
   8   7 -13    0.01    0.48
   7   7 -13    4.98    0.74
   6   7 -13    2.65    0.65
   5   7 -13    6.45    0.58
   5   7 -13    7.08    0.78
   4   7 -13    0.00    0.27
   4   7 -13    0.20    0.43
   3   7 -13    1.67    0.47
   3   7 -13    1.45    0.33
   2   7 -13    4.28    0.55
   1   7 -13   11.15    0.94
   1   7 -13   11.14    0.75
   0   7 -13    4.28    0.58
   0   7 -13    3.76    0.48
  -1   7 -13    0.04    0.28
  -1   7 -13    0.25    0.43
  -2   7 -13    0.18    0.37
  -2   7 -13    0.28    0.30
  -3   7 -13   16.05    0.88
  -3   7 -13   15.08    0.93
  -4   7 -13    2.00    0.48
  -4   7 -13    2.53    0.51
  -5   7 -13    8.32    0.65
  -6   7 -13    5.84    0.56
  -7   7 -13   10.81    0.75
  -8   7 -13    8.63    0.69
  -9   7 -13    0.45    0.39
 -10   7 -13    3.27    0.58
 -11   7 -13    3.58    0.58
  11   6 -13    0.43    0.67
  10   6 -13    0.76    0.64
   9   6 -13    0.60    0.64
   8   6 -13    0.96    0.62
   7   6 -13    2.73    0.64
   6   6 -13    2.06    0.57
   5   6 -13    3.62    0.42
   5   6 -13    4.23    0.64
   4   6 -13    2.19    0.33
   4   6 -13    2.10    0.48
   3   6 -13    0.02    0.24
   3   6 -13    0.02    0.37
   2   6 -13    6.03    0.69
   2   6 -13    6.45    0.53
   1   6 -13    3.64    0.46
   1   6 -13    4.13    0.61
   0   6 -13    0.03    0.28
   0   6 -13    0.03    0.37
  -1   6 -13    0.19    0.27
  -1   6 -13    0.03    0.37
  -2   6 -13    3.93    0.47
  -2   6 -13    4.09    0.54
  -3   6 -13    3.04    0.51
  -4   6 -13   16.56    0.91
  -5   6 -13    0.70    0.39
  -6   6 -13    1.08    0.36
  -7   6 -13    1.53    0.41
  -8   6 -13   12.32    0.83
  -9   6 -13    1.04    0.41
 -10   6 -13    2.62    0.52
 -11   6 -13    2.98    0.65
  11   5 -13    4.92    0.80
  10   5 -13    0.01    0.57
   9   5 -13    0.47    0.58
   8   5 -13    0.13    0.49
   7   5 -13    0.00    0.41
   6   5 -13    3.05    0.62
   5   5 -13    0.62    0.42
   5   5 -13    0.34    0.23
   4   5 -13    2.57    0.55
   4   5 -13    2.12    0.30
   3   5 -13    0.33    0.45
   3   5 -13    0.00    0.23
   2   5 -13    1.36    0.44
   2   5 -13    1.47    0.30
   0   5 -13    4.57    0.42
   0   5 -13    5.60    0.58
  -1   5 -13    5.28    0.54
  -1   5 -13    5.30    0.63
  -2   5 -13    1.96    0.43
  -3   5 -13    0.24    0.34
  -4   5 -13    4.23    0.44
  -5   5 -13    3.46    0.39
  -6   5 -13    0.00    0.31
  -7   5 -13    0.04    0.33
  -8   5 -13    0.04    0.35
  -9   5 -13    0.18    0.40
 -10   5 -13    3.84    0.59
 -11   5 -13    1.11    0.48
  12   4 -13    0.62    0.66
  11   4 -13    3.77    0.83
  10   4 -13    0.01    0.50
   9   4 -13    1.32    0.60
   8   4 -13    3.81    0.70
   7   4 -13    0.00    0.40
   6   4 -13    0.01    0.41
   5   4 -13    0.99    0.49
   5   4 -13    0.42    0.22
   4   4 -13    1.41    0.26
   4   4 -13    1.48    0.45
   3   4 -13    0.60    0.44
   3   4 -13    0.19    0.25
   2   4 -13    5.34    0.42
   2   4 -13    5.54    0.63
   1   4 -13    4.81    0.45
   1   4 -13    5.09    0.65
   0   4 -13    0.12    0.39
   0   4 -13    0.00    0.25
  -1   4 -13    0.44    0.38
  -2   4 -13    0.14    0.33
  -3   4 -13    0.25    0.34
  -4   4 -13    1.09    0.40
  -5   4 -13    9.19    0.70
  -6   4 -13   10.74    0.76
  -7   4 -13    1.30    0.41
  -8   4 -13    0.01    0.33
  -9   4 -13    0.14    0.46
 -10   4 -13    4.92    0.65
 -11   4 -13    2.55    0.53
  12   3 -13    1.07    0.70
  11   3 -13    3.92    0.82
  10   3 -13    0.74    0.60
   9   3 -13    0.34    0.52
   8   3 -13    3.15    0.68
   7   3 -13    0.24    0.42
   6   3 -13    0.01    0.39
   5   3 -13    0.04    0.42
   5   3 -13    0.07    0.17
   4   3 -13    2.34    0.59
   4   3 -13    2.25    0.30
   3   3 -13    1.12    0.24
   3   3 -13    0.96    0.44
   2   3 -13    4.40    0.67
   2   3 -13    4.96    0.43
   1   3 -13    2.84    0.50
   0   3 -13    0.83    0.44
  -1   3 -13   37.20    1.44
  -2   3 -13    0.53    0.39
  -3   3 -13    0.57    0.33
  -4   3 -13    4.30    0.51
  -5   3 -13    9.28    0.62
  -6   3 -13   15.05    0.90
  -7   3 -13    0.12    0.37
  -8   3 -13   10.30    0.84
  -9   3 -13    2.18    0.58
 -10   3 -13    1.15    0.49
 -11   3 -13    6.55    0.81
  13   2 -13    0.04    0.54
 -13  -2  13    0.21    0.45
  12   2 -13    1.21    0.71
 -12  -2  13    0.98    0.48
  11   2 -13    0.11    0.55
 -11  -2  13    0.23    0.44
  10   2 -13    0.12    0.51
 -10  -2  13    0.12    0.40
   9   2 -13    2.06    0.57
  -9  -2  13    1.17    0.41
   8   2 -13    0.17    0.41
  -8  -2  13    0.08    0.37
   7   2 -13   10.74    1.09
  -7  -2  13   10.86    0.94
   6   2 -13    2.27    0.60
  -6  -2  13    2.32    0.54
   5   2 -13    8.46    0.44
   5   2 -13    9.33    0.90
  -5  -2  13    7.77    0.68
   4   2 -13    2.76    0.23
   4   2 -13    1.69    0.47
   3   2 -13   14.69    0.59
   3   2 -13   15.31    0.93
   2   2 -13   19.25    1.08
   1   2 -13    2.18    0.50
   0   2 -13    2.23    0.45
  -1   2 -13   15.72    0.90
  -2   2 -13    3.47    0.43
  -3   2 -13    8.25    0.65
  -4   2 -13    0.65    0.38
  -5   2 -13    3.38    0.52
  -6   2 -13    1.10    0.41
  -7   2 -13    9.32    0.73
  -8   2 -13   17.22    1.10
  -9   2 -13    0.11    0.41
 -10   2 -13   11.80    0.96
 -11   2 -13    1.11    0.53
  13   1 -13    0.92    0.60
 -13  -1  13    0.60    0.46
  12   1 -13    3.15    0.76
 -12  -1  13    2.03    0.48
  11   1 -13    5.99    0.85
 -11  -1  13    6.02    0.68
  10   1 -13    0.02    0.49
 -10  -1  13    0.20    0.43
   9   1 -13    1.78    0.61
  -9  -1  13    2.18    0.49
   8   1 -13    0.30    0.51
  -8  -1  13    0.12    0.39
   7   1 -13   13.28    1.00
  -7  -1  13   16.30    0.90
   6   1 -13    9.05    0.90
  -6  -1  13   12.42    0.84
   5   1 -13    7.25    0.78
  -5  -1  13    8.17    0.64
   4   1 -13    0.51    0.18
   4   1 -13    0.06    0.44
  -4  -1  13    0.03    0.38
   3   1 -13    0.01    0.40
   2   1 -13   20.37    1.14
   1   1 -13    2.15    0.48
   0   1 -13    0.11    0.36
  -1   1 -13    0.84    0.37
  -2   1 -13    9.10    0.63
  -3   1 -13    3.79    0.48
  -4   1 -13   23.70    1.07
  -5   1 -13   15.72    0.90
  -6   1 -13    5.04    0.53
  -7   1 -13    0.07    0.37
  -8   1 -13    3.45    0.54
  -9   1 -13    0.00    0.45
 -10   1 -13    6.07    0.72
  13   0 -13    1.71    0.63
 -13   0  13    1.34    0.51
  12   0 -13    1.39    0.64
 -12   0  13    1.19    0.53
  11   0 -13    8.35    1.04
 -11   0  13    9.92    0.85
  10   0 -13    1.35    0.55
 -10   0  13    1.25    0.44
   9   0 -13    0.33    0.51
  -9   0  13    0.40    0.42
   8   0 -13    3.86    0.67
  -8   0  13    5.88    0.62
   7   0 -13    0.39    0.47
  -7   0  13    0.73    0.43
   6   0 -13    4.44    0.72
  -6   0  13    5.92    0.62
   5   0 -13    9.95    0.87
  -5   0  13    8.45    0.70
   4   0 -13    2.43    0.23
   4   0 -13    1.78    0.54
  -4   0  13    1.86    0.50
   3   0 -13    3.22    0.53
  -3   0  13    4.09    0.49
   2   0 -13   16.72    1.04
  -2   0  13   16.93    1.07
   1   0 -13    0.70    0.38
   0   0 -13    1.48    0.35
  -1   0 -13    0.18    0.33
  -2   0 -13   12.55    0.83
  -3   0 -13    5.67    0.56
  -4   0 -13    0.66    0.39
  -5   0 -13    5.07    0.56
  -6   0 -13    4.17    0.57
  -7   0 -13    2.29    0.47
  -8   0 -13    0.23    0.41
  -9   0 -13    0.42    0.44
 -10   0 -13    2.22    0.57
  13  -1 -13    0.47    0.53
 -13   1  13    0.61    0.51
  12  -1 -13    3.83    0.76
 -12   1  13    3.07    0.62
  11  -1 -13    1.55    0.66
 -11   1  13    0.72    0.47
  10  -1 -13    0.05    0.43
 -10   1  13    0.05    0.43
   9  -1 -13    0.00    0.44
  -9   1  13    0.22    0.41
   8  -1 -13    0.50    0.46
  -8   1  13    0.04    0.44
   7  -1 -13    6.69    0.81
  -7   1  13    6.65    0.67
   6  -1 -13    0.60    0.47
  -6   1  13    0.26    0.42
   5  -1 -13   15.21    1.08
  -5   1  13   14.41    0.92
   4  -1 -13    0.11    0.47
  -4   1  13    0.11    0.38
   3  -1 -13    0.04    0.51
  -3   1  13    0.54    0.46
   2  -1 -13   25.83    1.31
  -2   1  13   26.27    1.32
   1  -1 -13    0.01    0.35
  -1   1  13    0.31    0.37
   0  -1 -13    0.24    0.35
  -1  -1 -13    4.61    0.53
  -2  -1 -13    0.24    0.36
  -3  -1 -13    4.17    0.46
  -4  -1 -13    1.02    0.38
  -5  -1 -13    4.33    0.50
  -6  -1 -13    0.23    0.37
  -7  -1 -13    0.62    0.42
  -8  -1 -13    0.13    0.46
  -9  -1 -13    0.24    0.49
  13  -2 -13    0.44    0.54
 -13   2  13    0.56    0.47
  12  -2 -13    2.89    0.69
 -12   2  13    2.65    0.55
  11  -2 -13    0.03    0.44
 -11   2  13    0.71    0.47
  10  -2 -13    2.48    0.68
 -10   2  13    2.22    0.56
   9  -2 -13    4.48    0.76
  -9   2  13    4.10    0.61
   8  -2 -13    0.21    0.46
  -8   2  13    1.16    0.47
   7  -2 -13    9.91    1.04
  -7   2  13   11.41    0.90
   6  -2 -13    1.55    0.53
  -6   2  13    0.67    0.42
   5  -2 -13    1.77    0.58
  -5   2  13    1.70    0.47
   4  -2 -13    3.01    0.60
  -4   2  13    2.74    0.52
   3  -2 -13    0.70    0.49
  -3   2  13    0.64    0.39
   2  -2 -13    6.78    0.78
  -2   2  13    4.88    0.65
   1  -2 -13   10.06    0.72
  -1   2  13   10.30    0.78
   0  -2 -13    2.66    0.51
   0   2  13    2.59    0.51
  -1  -2 -13   21.46    0.96
  -2  -2 -13    0.79    0.35
  -3  -2 -13    0.28    0.35
  -4  -2 -13    7.50    0.64
  -5  -2 -13    6.30    0.64
  -6  -2 -13    1.16    0.43
  -7  -2 -13    0.28    0.39
  -8  -2 -13    0.01    0.43
  -9  -2 -13    1.45    0.56
  13  -3 -13    2.65    0.64
 -13   3  13    1.93    0.55
  12  -3 -13    3.30    0.77
 -12   3  13    3.91    0.68
  11  -3 -13    0.00    0.43
 -11   3  13    0.12    0.49
  10  -3 -13    0.10    0.50
 -10   3  13    0.26    0.50
   9  -3 -13    0.47    0.44
  -9   3  13    0.11    0.49
   8  -3 -13    0.01    0.40
  -8   3  13    0.11    0.42
   7  -3 -13    3.61    0.60
  -7   3  13    4.06    0.56
   6  -3 -13    2.74    0.57
  -6   3  13    3.25    0.53
   5  -3 -13   16.23    1.12
  -5   3  13   16.85    1.10
   4  -3 -13    0.15    0.42
  -4   3  13    0.00    0.40
   3  -3 -13    0.35    0.43
  -3   3  13    0.16    0.38
   2  -3 -13    4.47    0.56
  -2   3  13    4.43    0.53
   1  -3 -13    9.36    0.77
  -1   3  13    9.09    0.77
   0  -3 -13   11.98    0.70
   0   3  13   10.36    0.74
  -1  -3 -13    1.97    0.40
  -2  -3 -13    0.60    0.35
  -3  -3 -13    0.58    0.32
  -4  -3 -13    0.16    0.37
  -5  -3 -13   24.08    1.19
  -6  -3 -13    6.35    0.67
  -7  -3 -13    0.07    0.40
  -8  -3 -13    2.41    0.54
  13  -4 -13    0.82    0.54
 -13   4  13    0.42    0.50
  12  -4 -13    0.61    0.48
 -12   4  13    0.39    0.54
  11  -4 -13    6.67    0.82
 -11   4  13    4.87    0.67
  10  -4 -13    0.44    0.51
 -10   4  13    0.75    0.47
   9  -4 -13    5.59    0.78
  -9   4  13    4.98    0.69
   8  -4 -13    5.51    0.73
  -8   4  13    6.27    0.66
   7  -4 -13    0.81    0.55
  -7   4  13    2.94    0.58
   6  -4 -13   12.97    1.19
  -6   4  13   15.36    1.14
   5  -4 -13   22.87    1.41
  -5   4  13   24.82    1.32
   4  -4 -13    4.51    0.74
  -4   4  13    3.15    0.59
   3  -4 -13    2.99    0.61
  -3   4  13    1.66    0.47
   2  -4 -13    2.74    0.48
  -2   4  13    1.81    0.42
   1  -4 -13    0.01    0.34
  -1   4  13    0.01    0.33
   0  -4 -13    0.05    0.29
   0   4  13    0.05    0.32
  -1  -4 -13    6.25    0.59
   1   4  13    7.50    0.66
  -2  -4 -13   10.55    0.71
  -3  -4 -13    1.03    0.43
  -4  -4 -13   11.28    0.77
  -5  -4 -13    9.31    0.77
  -6  -4 -13   10.18    0.89
  -7  -4 -13    0.26    0.45
  -8  -4 -13    0.27    0.47
  13  -5 -13    4.58    0.74
 -13   5  13    4.39    0.69
  12  -5 -13    5.95    0.78
 -12   5  13    5.24    0.68
  11  -5 -13    4.76    0.76
 -11   5  13    3.65    0.66
  10  -5 -13    0.03    0.41
 -10   5  13    0.03    0.44
   9  -5 -13    3.85    0.71
  -9   5  13    4.08    0.65
   8  -5 -13    2.74    0.59
  -8   5  13    2.77    0.56
   7  -5 -13    0.01    0.40
  -7   5  13    0.66    0.46
   6  -5 -13    0.61    0.43
  -6   5  13    1.16    0.43
   5  -5 -13    0.08    0.48
  -5   5  13    0.00    0.44
   4  -5 -13    0.03    0.43
  -4   5  13    0.19    0.24
  -4   5  13    0.17    0.40
   3  -5 -13   17.56    1.11
  -3   5  13   16.65    0.86
  -3   5  13   16.32    1.05
   2  -5 -13   12.08    0.89
  -2   5  13   11.46    0.75
  -2   5  13   10.83    0.90
   1  -5 -13    3.08    0.49
  -1   5  13    2.19    0.47
  -1   5  13    2.88    0.47
   0  -5 -13    1.86    0.46
   0   5  13    2.27    0.46
   0   5  13    2.46    0.47
  -1  -5 -13    3.19    0.49
   1   5  13    3.31    0.54
   1   5  13    3.49    0.56
  -2  -5 -13    1.74    0.47
   2   5  13    1.68    0.48
  -3  -5 -13    0.08    0.38
   3   5  13    0.05    0.40
  -4  -5 -13   17.53    1.09
   4   5  13   18.30    1.17
  -5  -5 -13    0.29    0.42
  -6  -5 -13    0.01    0.37
  -7  -5 -13    0.02    0.45
  13  -6 -13    0.39    0.49
 -13   6  13    0.09    0.51
  12  -6 -13    9.73    1.04
 -12   6  13    9.79    0.97
  11  -6 -13    0.60    0.45
 -11   6  13    0.04    0.45
  10  -6 -13    2.38    0.60
 -10   6  13    1.11    0.60
   9  -6 -13    0.26    0.45
  -9   6  13    0.08    0.48
   8  -6 -13    1.25    0.52
  -8   6  13    2.16    0.54
   7  -6 -13    5.91    0.82
  -7   6  13    7.63    0.78
   6  -6 -13    0.48    0.48
  -6   6  13    0.52    0.49
   5  -6 -13    5.15    0.76
  -5   6  13    5.08    0.43
  -5   6  13    5.75    0.66
   4  -6 -13    0.00    0.44
  -4   6  13    0.16    0.25
  -4   6  13    0.19    0.44
   3  -6 -13    3.87    0.66
  -3   6  13    2.59    0.44
  -3   6  13    3.08    0.54
   2  -6 -13   12.58    0.85
  -2   6  13   10.49    0.86
  -2   6  13   12.79    0.78
   1  -6 -13    1.04    0.37
  -1   6  13    1.68    0.45
  -1   6  13    1.17    0.39
   0  -6 -13    4.59    0.54
   0   6  13    3.69    0.53
   0   6  13    3.70    0.49
  -1  -6 -13    0.16    0.37
   1   6  13    0.11    0.37
   1   6  13    0.04    0.38
  -2  -6 -13    0.85    0.34
   2   6  13    1.01    0.44
   2   6  13    0.04    0.33
  -3  -6 -13    1.15    0.42
   3   6  13    1.56    0.51
  -4  -6 -13    6.15    0.65
   4   6  13    7.17    0.75
  -5  -6 -13    0.29    0.44
   5   6  13    0.01    0.48
  -6  -6 -13    0.29    0.43
   6   6  13    0.01    0.39
  12  -7 -13    1.03    0.44
 -12   7  13    0.04    0.49
  11  -7 -13    0.61    0.41
 -11   7  13    0.01    0.53
  10  -7 -13    1.67    0.51
 -10   7  13    1.16    0.56
   9  -7 -13    0.64    0.41
  -9   7  13    0.09    0.48
   8  -7 -13    3.66    0.65
  -8   7  13    4.82    0.73
   7  -7 -13    1.18    0.47
  -7   7  13    2.29    0.55
   6  -7 -13    0.98    0.51
  -6   7  13    2.34    0.55
   5  -7 -13    6.18    0.87
  -5   7  13    7.76    0.59
  -5   7  13    7.80    0.83
   4  -7 -13    3.39    0.68
  -4   7  13    3.32    0.44
  -4   7  13    3.18    0.59
   3  -7 -13    0.91    0.44
  -3   7  13    0.59    0.34
  -3   7  13    0.01    0.37
   2  -7 -13    0.25    0.41
  -2   7  13    0.97    0.45
  -2   7  13    0.07    0.34
   1  -7 -13   13.20    0.89
  -1   7  13   11.57    0.83
  -1   7  13   11.96    0.96
   0  -7 -13    8.77    0.72
   0   7  13    7.98    0.73
   0   7  13    8.26    0.75
  -1  -7 -13    0.95    0.40
   1   7  13    1.07    0.50
   1   7  13    1.92    0.48
  -2  -7 -13    0.05    0.36
   2   7  13    0.05    0.37
   2   7  13    1.01    0.47
  -3  -7 -13    1.85    0.47
   3   7  13    1.53    0.49
  -4  -7 -13    2.41    0.50
   4   7  13    2.03    0.54
  -5  -7 -13    0.02    0.36
   5   7  13    0.08    0.51
  12  -8 -13    0.35    0.41
 -12   8  13    0.49    0.58
  11  -8 -13    0.10    0.37
 -11   8  13    0.05    0.57
  10  -8 -13    0.33    0.34
 -10   8  13    0.91    0.55
   9  -8 -13    0.21    0.35
  -9   8  13    0.13    0.51
   8  -8 -13    2.94    0.56
  -8   8  13    5.18    0.74
   7  -8 -13    0.67    0.42
  -7   8  13    0.70    0.48
   6  -8 -13    0.04    0.40
  -6   8  13    1.50    0.54
   5  -8 -13   11.50    1.08
  -5   8  13   14.35    0.78
  -5   8  13   13.25    1.00
   4  -8 -13    3.55    0.68
  -4   8  13    3.39    0.57
  -4   8  13    4.48    0.50
   3  -8 -13    0.02    0.42
  -3   8  13    0.02    0.42
  -3   8  13    0.43    0.35
   2  -8 -13    8.32    0.80
  -2   8  13    6.82    0.71
  -2   8  13    8.05    0.72
   1  -8 -13    4.81    0.61
  -1   8  13    4.49    0.60
  -1   8  13    4.87    0.61
   0  -8 -13   15.60    0.97
   0   8  13   16.38    1.05
   0   8  13   16.03    1.06
  -1  -8 -13    0.22    0.37
   1   8  13    0.00    0.39
   1   8  13    0.00    0.35
  -2  -8 -13    0.65    0.40
   2   8  13    1.12    0.52
   2   8  13    0.74    0.41
  -3  -8 -13    0.01    0.34
   3   8  13    0.27    0.50
  -4  -8 -13    1.43    0.46
   4   8  13    1.90    0.55
  11  -9 -13    2.14    0.49
 -11   9  13    1.85    0.65
  10  -9 -13    0.43    0.27
 -10   9  13    0.01    0.49
  -9   9  13    2.03    0.63
  -8   9  13    7.54    0.93
   7  -9 -13    0.01    0.20
  -7   9  13    0.80    0.49
   6  -9 -13    1.84    0.53
  -6   9  13    2.97    0.65
   5  -9 -13    3.19    0.66
  -5   9  13    3.13    0.61
  -5   9  13    4.43    0.51
   4  -9 -13    0.45    0.51
  -4   9  13    0.40    0.42
  -4   9  13    0.18    0.36
   3  -9 -13    0.21    0.45
  -3   9  13    0.27    0.45
  -3   9  13    0.79    0.39
   2  -9 -13    0.26    0.40
  -2   9  13    0.03    0.39
  -2   9  13    0.41    0.38
   1  -9 -13    5.41    0.62
  -1   9  13    5.68    0.63
  -1   9  13    4.08    0.59
   0  -9 -13    0.22    0.36
   0   9  13    0.00    0.37
   0   9  13    0.00    0.42
  -1  -9 -13    0.08    0.35
   1   9  13    1.50    0.52
   1   9  13    0.96    0.43
  -2  -9 -13    4.78    0.55
   2   9  13    4.00    0.66
  -3  -9 -13    1.38    0.48
 -10  10  13    3.47    0.68
  -9  10  13    0.00    0.49
  -8  10  13    1.01    0.54
  -7  10  13    0.29    0.51
   6 -10 -13    0.03    0.34
  -6  10  13    1.61    0.52
   5 -10 -13    0.95    0.46
  -5  10  13    1.28    0.40
  -5  10  13    0.62    0.45
  -4  10  13    3.74    0.58
  -4  10  13    2.97    0.65
   3 -10 -13    0.00    0.40
  -3  10  13    0.00    0.38
  -3  10  13    0.52    0.42
   2 -10 -13    7.00    0.77
  -2  10  13    6.26    0.70
  -2  10  13    6.49    0.74
   1 -10 -13    4.00    0.59
  -1  10  13    3.91    0.59
  -1  10  13    5.36    0.69
   0 -10 -13   10.48    0.81
   0  10  13   10.97    0.87
   0  10  13   10.06    0.94
  -1 -10 -13    0.01    0.37
   1  10  13    0.22    0.50
   1  10  13    0.00    0.38
  -8  11  13    1.69    0.67
  -7  11  13    1.78    0.59
  -6  11  13    0.01    0.50
  -5  11  13    1.32    0.47
  -5  11  13    0.74    0.49
  -4  11  13    4.29    0.65
  -4  11  13    5.68    0.66
  -3  11  13    0.01    0.39
  -3  11  13    0.50    0.44
  -2  11  13    3.86    0.65
  -2  11  13    3.80    0.64
  -1  11  13    1.43    0.57
  -1  11  13    1.58    0.51
  -1  14 -14    0.53    0.44
  -2  14 -14    2.18    0.53
  -2  14 -14    3.06    0.55
  -3  14 -14    0.10    0.39
  -4  14 -14    0.17    0.45
   2  13 -14    0.54    0.42
   2  13 -14    0.39    0.49
   1  13 -14    1.87    0.51
   1  13 -14    1.61    0.44
   0  13 -14    0.29    0.36
   0  13 -14    0.83    0.46
  -1  13 -14    1.66    0.46
  -1  13 -14    1.74    0.45
  -2  13 -14    0.40    0.42
  -2  13 -14    0.00    0.40
  -3  13 -14    3.63    0.58
  -3  13 -14    3.09    0.55
  -4  13 -14    3.20    0.59
  -4  13 -14    3.69    0.62
  -5  13 -14    0.07    0.43
  -5  13 -14    0.07    0.44
  -6  13 -14    3.80    0.64
  -6  13 -14    3.72    0.71
   4  12 -14    0.00    0.38
   4  12 -14    0.00    0.48
   3  12 -14    1.45    0.51
   3  12 -14    1.50    0.47
   2  12 -14    0.11    0.35
   2  12 -14    0.85    0.44
   1  12 -14    1.52    0.51
   1  12 -14    2.10    0.43
   0  12 -14    3.87    0.60
   0  12 -14    3.92    0.55
  -1  12 -14    0.00    0.36
  -1  12 -14    0.00    0.40
  -2  12 -14    1.48    0.45
  -2  12 -14    0.73    0.44
  -3  12 -14    0.19    0.43
  -3  12 -14    0.02    0.39
  -4  12 -14    0.26    0.42
  -4  12 -14    0.63    0.43
  -5  12 -14    1.31    0.54
  -5  12 -14    2.23    0.57
  -6  12 -14    0.00    0.41
  -6  12 -14    0.00    0.39
  -7  12 -14    1.67    0.57
  -7  12 -14    1.57    0.54
  -8  12 -14    1.55    0.53
   6  11 -14    0.01    0.50
   5  11 -14    2.03    0.46
   5  11 -14    3.78    0.68
   4  11 -14    1.05    0.40
   4  11 -14    1.87    0.53
   3  11 -14    0.23    0.42
   3  11 -14    0.46    0.36
   2  11 -14    0.94    0.50
   2  11 -14    0.55    0.36
   1  11 -14    0.87    0.37
   1  11 -14    1.61    0.50
   0  11 -14    0.38    0.43
   0  11 -14    0.93    0.37
  -1  11 -14    0.03    0.33
  -1  11 -14    0.33    0.44
  -2  11 -14    0.07    0.37
  -2  11 -14    0.07    0.39
  -3  11 -14    1.00    0.43
  -3  11 -14    1.59    0.51
  -4  11 -14    8.63    0.82
  -4  11 -14   10.02    0.86
  -5  11 -14    0.99    0.50
  -5  11 -14    1.17    0.48
  -6  11 -14    2.07    0.51
  -6  11 -14    1.54    0.50
  -7  11 -14    1.65    0.50
  -7  11 -14    1.74    0.59
  -8  11 -14    1.96    0.50
  -8  11 -14    1.72    0.61
   7  10 -14    0.01    0.53
   6  10 -14    0.64    0.58
   5  10 -14    0.03    0.51
   5  10 -14    0.06    0.33
   4  10 -14    0.35    0.49
   4  10 -14    0.31    0.28
   3  10 -14    0.24    0.32
   3  10 -14    0.37    0.49
   2  10 -14    1.01    0.36
   2  10 -14    0.45    0.42
   1  10 -14    2.51    0.48
   1  10 -14    3.09    0.38
   0  10 -14    4.52    0.67
   0  10 -14    4.59    0.56
  -1  10 -14    0.24    0.45
  -1  10 -14    0.65    0.37
  -2  10 -14    0.00    0.38
  -2  10 -14    0.00    0.43
  -3  10 -14    0.05    0.45
  -3  10 -14    1.28    0.46
  -4  10 -14   11.80    0.87
  -4  10 -14   10.35    0.84
  -5  10 -14    0.04    0.38
  -5  10 -14    0.04    0.37
  -6  10 -14    0.90    0.48
  -6  10 -14    1.24    0.50
  -7  10 -14    2.84    0.54
  -7  10 -14    2.88    0.65
  -8  10 -14    0.42    0.40
  -8  10 -14    0.85    0.50
  -9  10 -14    0.24    0.39
  -9  10 -14    0.00    0.48
   8   9 -14    0.38    0.56
   7   9 -14    0.01    0.57
   6   9 -14    0.01    0.45
   5   9 -14    0.38    0.47
   5   9 -14    0.19    0.36
   4   9 -14    1.19    0.56
   4   9 -14    0.99    0.38
   3   9 -14    4.56    0.66
   2   9 -14    4.01    0.45
   2   9 -14    4.53    0.60
   1   9 -14    1.15    0.41
   1   9 -14    1.08    0.33
   0   9 -14    2.44    0.43
   0   9 -14    2.60    0.50
  -1   9 -14    1.71    0.44
  -1   9 -14    1.79    0.48
  -2   9 -14    0.00    0.38
  -2   9 -14    0.00    0.39
  -3   9 -14    1.44    0.41
  -3   9 -14    2.02    0.52
  -4   9 -14    0.09    0.39
  -4   9 -14    0.36    0.38
  -5   9 -14    1.75    0.48
  -5   9 -14    2.35    0.57
  -6   9 -14    3.87    0.64
  -6   9 -14    4.02    0.58
  -7   9 -14    2.61    0.51
  -7   9 -14    2.08    0.52
  -8   9 -14    0.01    0.43
  -8   9 -14    0.28    0.41
  -9   9 -14    0.25    0.48
  -9   9 -14    0.61    0.40
 -10   9 -14    0.32    0.41
   9   8 -14    0.03    0.63
   8   8 -14    0.01    0.48
   7   8 -14    0.01    0.51
   6   8 -14    0.40    0.57
   5   8 -14    0.09    0.44
   5   8 -14    0.02    0.34
   4   8 -14    0.04    0.38
   4   8 -14    0.04    0.30
   3   8 -14    0.07    0.40
   3   8 -14    0.11    0.29
   2   8 -14    1.12    0.45
   1   8 -14    1.76    0.51
   1   8 -14    1.38    0.37
   0   8 -14    5.29    0.69
   0   8 -14    5.13    0.54
  -1   8 -14   21.01    1.12
  -1   8 -14   22.36    1.27
  -2   8 -14    0.06    0.33
  -2   8 -14    0.32    0.43
  -3   8 -14    4.23    0.62
  -3   8 -14    4.56    0.58
  -4   8 -14    0.01    0.36
  -4   8 -14    0.27    0.36
  -5   8 -14    0.00    0.41
  -5   8 -14    0.00    0.40
  -6   8 -14   11.56    0.84
  -6   8 -14   12.81    0.88
  -7   8 -14    5.74    0.59
  -8   8 -14    0.04    0.40
  -9   8 -14    0.11    0.43
 -10   8 -14    0.66    0.43
   9   7 -14    0.09    0.54
   8   7 -14    0.71    0.54
   7   7 -14    0.64    0.53
   6   7 -14    0.41    0.55
   5   7 -14    7.92    0.82
   4   7 -14    0.43    0.29
   4   7 -14    0.11    0.41
   3   7 -14    8.00    0.61
   3   7 -14    8.50    0.81
   2   7 -14    0.78    0.29
   2   7 -14    0.76    0.42
   1   7 -14    0.03    0.27
   1   7 -14    0.09    0.43
   0   7 -14    0.62    0.38
   0   7 -14    0.39    0.29
  -1   7 -14    0.02    0.39
  -1   7 -14    0.23    0.29
  -2   7 -14    5.82    0.53
  -2   7 -14    4.90    0.56
  -3   7 -14    7.57    0.67
  -3   7 -14    8.00    0.64
  -4   7 -14    1.06    0.40
  -4   7 -14    0.98    0.37
  -5   7 -14   13.25    0.85
  -6   7 -14    1.10    0.44
  -7   7 -14   13.15    0.87
  -8   7 -14    5.02    0.66
  -9   7 -14    0.00    0.44
 -10   7 -14    3.17    0.59
  10   6 -14    0.06    0.60
   9   6 -14    0.13    0.52
   8   6 -14    0.00    0.50
   7   6 -14    0.46    0.50
   6   6 -14   11.93    1.08
   5   6 -14    4.38    0.65
   4   6 -14    3.46    0.37
   4   6 -14    3.10    0.55
   3   6 -14    1.01    0.27
   3   6 -14    0.91    0.47
   2   6 -14    0.69    0.28
   2   6 -14    0.43    0.40
   1   6 -14   13.08    0.94
   0   6 -14    0.00    0.28
   0   6 -14    0.26    0.40
  -1   6 -14    0.16    0.39
  -1   6 -14    0.02    0.30
  -2   6 -14    0.12    0.37
  -2   6 -14    0.79    0.30
  -3   6 -14    0.57    0.37
  -4   6 -14   16.07    1.02
  -5   6 -14    4.80    0.55
  -6   6 -14   16.94    0.92
  -7   6 -14    0.11    0.38
  -8   6 -14    2.51    0.48
  -9   6 -14    0.31    0.41
 -10   6 -14    6.41    0.70
  11   5 -14    2.79    0.82
  10   5 -14    1.78    0.71
   9   5 -14    0.48    0.55
   8   5 -14    0.44    0.54
   7   5 -14    0.33    0.50
   6   5 -14    4.44    0.65
   5   5 -14    1.01    0.48
   4   5 -14    0.05    0.37
   4   5 -14    0.22    0.23
   3   5 -14    2.97    0.38
   3   5 -14    2.33    0.55
   2   5 -14    2.02    0.33
   2   5 -14    1.84    0.53
   1   5 -14    0.27    0.23
   1   5 -14    0.61    0.44
   0   5 -14    4.85    0.50
   0   5 -14    5.07    0.67
  -1   5 -14    1.09    0.36
  -1   5 -14    0.97    0.44
  -2   5 -14    1.24    0.40
  -3   5 -14    3.48    0.44
  -4   5 -14    1.65    0.40
  -5   5 -14    0.16    0.33
  -6   5 -14   18.65    1.06
  -7   5 -14    0.43    0.37
  -8   5 -14    2.01    0.51
  -9   5 -14    1.38    0.50
 -10   5 -14    0.85    0.52
  11   4 -14    0.19    0.59
  10   4 -14    0.63    0.66
   9   4 -14    0.51    0.60
   8   4 -14    3.83    0.71
   7   4 -14    1.33    0.58
   6   4 -14    1.13    0.51
   5   4 -14    1.35    0.54
   4   4 -14    0.42    0.22
   4   4 -14    0.42    0.43
   3   4 -14    0.00    0.38
   3   4 -14    0.01    0.22
   2   4 -14   11.21    0.61
   2   4 -14   10.33    0.83
   1   4 -14    2.45    0.35
   1   4 -14    1.59    0.49
   0   4 -14    2.65    0.51
   0   4 -14    3.43    0.40
  -1   4 -14   15.68    0.89
  -2   4 -14    0.01    0.33
  -3   4 -14    1.81    0.47
  -4   4 -14    2.29    0.45
  -5   4 -14    7.84    0.67
  -6   4 -14    3.66    0.49
  -7   4 -14    0.34    0.38
  -8   4 -14    1.60    0.45
  -9   4 -14    0.37    0.40
 -10   4 -14    0.02    0.41
  12   3 -14    0.14    0.54
  11   3 -14    0.62    0.61
  10   3 -14    0.24    0.56
   9   3 -14    1.84    0.63
   8   3 -14    0.91    0.56
   7   3 -14    0.03    0.43
   6   3 -14    4.58    0.74
   5   3 -14    0.49    0.44
   4   3 -14    0.06    0.40
   4   3 -14    0.18    0.21
   3   3 -14    3.84    0.64
   3   3 -14    3.34    0.34
   2   3 -14    1.85    0.53
   2   3 -14    1.31    0.27
   1   3 -14    0.71    0.44
   1   3 -14    0.05    0.23
   0   3 -14    1.65    0.43
  -1   3 -14   14.37    0.93
  -2   3 -14    3.71    0.52
  -3   3 -14    3.07    0.55
  -4   3 -14    0.43    0.34
  -5   3 -14    0.01    0.36
  -6   3 -14    0.01    0.38
  -7   3 -14    1.12    0.39
  -8   3 -14    1.45    0.47
  -9   3 -14    0.53    0.41
 -10   3 -14    8.85    0.87
  12   2 -14    0.00    0.56
 -12  -2  14    0.31    0.40
  11   2 -14    2.28    0.75
 -11  -2  14    2.12    0.53
  10   2 -14    0.00    0.52
 -10  -2  14    0.27    0.45
   9   2 -14    0.22    0.54
  -9  -2  14    0.04    0.39
   8   2 -14    0.73    0.58
  -8  -2  14    1.00    0.46
   7   2 -14    3.76    0.67
  -7  -2  14    5.03    0.61
   6   2 -14    5.16    0.70
   5   2 -14   14.13    1.06
   4   2 -14    1.12    0.24
   4   2 -14    0.84    0.48
   3   2 -14    6.73    0.44
   3   2 -14    6.91    0.74
   2   2 -14    0.00    0.38
   1   2 -14    1.75    0.49
   0   2 -14    4.91    0.67
  -1   2 -14    1.82    0.41
  -2   2 -14    0.43    0.39
  -3   2 -14    0.71    0.39
  -4   2 -14    5.73    0.61
  -5   2 -14   18.09    1.02
  -6   2 -14    4.45    0.57
  -7   2 -14    2.23    0.45
  -8   2 -14    5.01    0.63
  -9   2 -14    1.44    0.56
 -10   2 -14   12.29    0.94
  12   1 -14    1.19    0.65
 -12  -1  14    0.00    0.45
  11   1 -14    4.79    0.85
 -11  -1  14    4.80    0.61
  10   1 -14    0.69    0.62
 -10  -1  14    0.00    0.40
   9   1 -14    5.86    0.87
  -9  -1  14    8.05    0.76
   8   1 -14    0.07    0.47
  -8  -1  14    0.14    0.39
   7   1 -14    2.14    0.61
  -7  -1  14    3.24    0.58
   6   1 -14    3.21    0.66
  -6  -1  14    3.50    0.61
   5   1 -14    3.40    0.73
  -5  -1  14    3.73    0.64
   4   1 -14    9.38    0.54
   4   1 -14   10.03    0.95
  -4  -1  14   11.30    0.88
   3   1 -14    0.03    0.37
   2   1 -14    1.65    0.47
   1   1 -14    0.56    0.42
   0   1 -14    0.27    0.36
  -1   1 -14   13.10    0.79
  -2   1 -14    8.92    0.67
  -3   1 -14    0.50    0.33
  -4   1 -14    6.47    0.64
  -5   1 -14   11.71    0.81
  -6   1 -14   11.63    0.88
  -7   1 -14    0.28    0.39
  -8   1 -14    0.66    0.46
  -9   1 -14    0.04    0.43
  12   0 -14    1.77    0.70
 -12   0  14    2.23    0.56
  11   0 -14    0.94    0.59
 -11   0  14    1.59    0.48
  10   0 -14    1.37    0.60
 -10   0  14    1.06    0.47
   9   0 -14    7.33    0.94
  -9   0  14    7.67    0.71
   8   0 -14    2.00    0.62
  -8   0  14    1.15    0.47
   7   0 -14    6.87    0.92
  -7   0  14    6.98    0.74
   6   0 -14    2.88    0.61
  -6   0  14    3.77    0.56
   5   0 -14    2.45    0.52
  -5   0  14    2.26    0.46
   4   0 -14    1.17    0.18
   4   0 -14    0.86    0.52
  -4   0  14    1.58    0.46
   3   0 -14    5.94    0.76
  -3   0  14    4.69    0.62
   2   0 -14   26.58    1.46
   1   0 -14    0.60    0.44
   0   0 -14    6.87    0.67
  -1   0 -14   10.75    0.75
  -2   0 -14    9.04    0.70
  -3   0 -14   13.19    0.83
  -4   0 -14    4.06    0.51
  -5   0 -14    4.01    0.54
  -6   0 -14    3.19    0.51
  -7   0 -14    0.05    0.36
  -8   0 -14    0.27    0.43
  -9   0 -14    0.00    0.48
  13  -1 -14    0.61    0.59
  12  -1 -14    4.50    0.88
 -12   1  14    3.53    0.67
  11  -1 -14    0.10    0.52
 -11   1  14    0.01    0.48
  10  -1 -14    0.00    0.47
 -10   1  14    0.39    0.44
   9  -1 -14    0.04    0.45
  -9   1  14    0.04    0.43
   8  -1 -14    0.01    0.55
  -8   1  14    0.00    0.42
   7  -1 -14    3.43    0.63
  -7   1  14    5.61    0.61
   6  -1 -14    2.31    0.59
  -6   1  14    2.74    0.52
   5  -1 -14    0.15    0.42
  -5   1  14    0.15    0.37
   4  -1 -14    0.00    0.50
  -4   1  14    0.24    0.43
   3  -1 -14    4.77    0.69
  -3   1  14    3.88    0.56
   2  -1 -14   14.63    0.97
  -2   1  14   17.43    1.04
   1  -1 -14    0.07    0.42
   0  -1 -14   12.45    0.79
  -1  -1 -14    1.46    0.40
  -2  -1 -14    0.73    0.32
  -3  -1 -14    0.36    0.38
  -4  -1 -14    0.39    0.37
  -5  -1 -14    5.99    0.64
  -6  -1 -14    0.50    0.41
  -7  -1 -14    4.38    0.60
  -8  -1 -14    0.46    0.48
  13  -2 -14    0.14    0.60
 -13   2  14    0.88    0.55
  12  -2 -14    0.01    0.52
 -12   2  14    0.23    0.51
  11  -2 -14    0.24    0.54
 -11   2  14    1.12    0.56
  10  -2 -14    0.05    0.49
 -10   2  14    0.00    0.44
   9  -2 -14    0.01    0.45
  -9   2  14    0.47    0.46
   8  -2 -14    0.92    0.56
  -8   2  14    1.13    0.46
   7  -2 -14    1.26    0.57
  -7   2  14    0.92    0.46
   6  -2 -14   12.49    1.07
  -6   2  14   11.45    0.89
   5  -2 -14    7.36    0.88
  -5   2  14    8.88    0.82
   4  -2 -14    0.68    0.51
  -4   2  14    0.04    0.38
   3  -2 -14    0.03    0.47
  -3   2  14    0.85    0.43
   2  -2 -14    1.09    0.53
  -2   2  14    1.15    0.46
   1  -2 -14    3.23    0.55
  -1   2  14    2.88    0.51
   0  -2 -14   17.67    0.99
  -1  -2 -14    3.25    0.51
  -2  -2 -14    0.01    0.34
  -3  -2 -14    5.96    0.62
  -4  -2 -14    1.16    0.38
  -5  -2 -14    3.73    0.52
  -6  -2 -14    0.35    0.39
  -7  -2 -14    0.01    0.39
  -8  -2 -14    1.16    0.48
  13  -3 -14    0.27    0.59
 -13   3  14    0.00    0.53
  12  -3 -14    2.87    0.77
 -12   3  14    1.14    0.59
  11  -3 -14    0.45    0.52
 -11   3  14    0.86    0.57
  10  -3 -14    0.54    0.54
 -10   3  14    1.00    0.53
   9  -3 -14    1.26    0.66
  -9   3  14    1.71    0.55
   8  -3 -14    1.51    0.65
  -8   3  14    3.26    0.60
   7  -3 -14    0.01    0.50
  -7   3  14    0.00    0.41
   6  -3 -14    6.52    0.83
  -6   3  14    4.90    0.68
   5  -3 -14   18.72    1.28
  -5   3  14   18.32    1.16
   4  -3 -14    2.92    0.74
  -4   3  14    2.60    0.59
   3  -3 -14    0.00    0.40
  -3   3  14    0.61    0.44
   2  -3 -14    0.17    0.41
  -2   3  14    0.04    0.40
   1  -3 -14    5.85    0.62
  -1   3  14    5.21    0.56
   0  -3 -14    3.66    0.56
   0   3  14    3.21    0.56
  -1  -3 -14    4.14    0.53
  -2  -3 -14    0.10    0.37
  -3  -3 -14    0.10    0.35
  -4  -3 -14    4.84    0.58
  -5  -3 -14    5.87    0.68
  -6  -3 -14    4.80    0.59
  -7  -3 -14    0.65    0.44
  12  -4 -14    5.34    0.86
 -12   4  14    4.76    0.76
  11  -4 -14    1.17    0.59
 -11   4  14    1.64    0.65
  10  -4 -14    0.00    0.52
 -10   4  14    0.00    0.45
   9  -4 -14   17.84    1.30
  -9   4  14   17.82    1.18
   8  -4 -14    0.86    0.56
  -8   4  14    1.15    0.59
   7  -4 -14    0.04    0.40
  -7   4  14    0.04    0.48
   6  -4 -14    1.57    0.59
  -6   4  14    1.61    0.49
   5  -4 -14    0.09    0.44
  -5   4  14    0.79    0.42
   4  -4 -14    8.92    0.88
  -4   4  14    8.59    0.72
   3  -4 -14    1.14    0.48
  -3   4  14    0.00    0.37
   2  -4 -14    5.86    0.71
  -2   4  14    5.57    0.69
   1  -4 -14    8.44    0.76
  -1   4  14    7.46    0.69
   0  -4 -14    0.20    0.35
   0   4  14    0.84    0.44
  -1  -4 -14   10.51    0.79
  -2  -4 -14    1.46    0.42
  -3  -4 -14    3.12    0.53
  -4  -4 -14   20.85    1.13
  -5  -4 -14    0.03    0.42
  -6  -4 -14    6.11    0.71
  -7  -4 -14    1.39    0.51
  12  -5 -14    5.92    0.92
 -12   5  14    4.91    0.77
  11  -5 -14    1.89    0.64
 -11   5  14    2.75    0.63
  10  -5 -14    1.15    0.50
 -10   5  14    0.41    0.49
   9  -5 -14    1.38    0.53
  -9   5  14    1.64    0.52
   8  -5 -14    0.03    0.38
  -8   5  14    0.03    0.50
   7  -5 -14    1.17    0.55
  -7   5  14    3.78    0.62
   6  -5 -14    0.17    0.45
  -6   5  14    0.03    0.42
   5  -5 -14   19.22    1.29
  -5   5  14   19.90    1.13
   4  -5 -14    0.11    0.43
  -4   5  14    0.01    0.39
   3  -5 -14    5.95    0.76
  -3   5  14    5.41    0.68
   2  -5 -14    0.07    0.45
  -2   5  14    0.35    0.43
   1  -5 -14    3.60    0.57
  -1   5  14    4.80    0.61
  -1   5  14    4.02    0.49
   0  -5 -14   10.55    0.78
   0   5  14   10.52    0.80
   0   5  14    9.68    0.73
  -1  -5 -14    0.02    0.37
   1   5  14    0.01    0.33
   1   5  14    0.02    0.38
  -2  -5 -14    1.58    0.43
  -3  -5 -14    0.74    0.39
  -4  -5 -14    8.74    0.75
  -5  -5 -14    3.62    0.52
  -6  -5 -14    0.01    0.36
  12  -6 -14    1.88    0.65
 -12   6  14    0.91    0.58
  11  -6 -14    0.75    0.50
 -11   6  14    0.09    0.57
  10  -6 -14    2.86    0.65
 -10   6  14    2.52    0.62
   9  -6 -14    0.00    0.43
  -9   6  14    0.25    0.47
   8  -6 -14    3.03    0.68
  -8   6  14    2.90    0.59
   7  -6 -14    4.12    0.76
  -7   6  14    5.57    0.74
   6  -6 -14    1.24    0.58
  -6   6  14    1.67    0.57
   5  -6 -14   13.05    1.17
  -5   6  14   13.71    1.03
   4  -6 -14    5.50    0.79
  -4   6  14    6.53    0.75
  -4   6  14    5.38    0.51
   3  -6 -14    2.66    0.62
  -3   6  14    1.93    0.47
  -3   6  14    2.31    0.38
   2  -6 -14    7.65    0.83
  -2   6  14    6.09    0.73
  -2   6  14    5.66    0.60
   1  -6 -14    0.36    0.44
  -1   6  14    0.08    0.36
  -1   6  14    0.02    0.39
   0  -6 -14   20.40    1.09
   0   6  14   19.71    1.11
   0   6  14   20.21    1.06
  -1  -6 -14    0.11    0.34
   1   6  14    0.00    0.35
   1   6  14    0.00    0.35
  -2  -6 -14    0.00    0.32
   2   6  14    0.00    0.39
  -3  -6 -14    0.79    0.45
   3   6  14    0.40    0.43
  -4  -6 -14    0.05    0.36
   4   6  14    0.14    0.42
  -5  -6 -14    0.03    0.42
  11  -7 -14    0.84    0.48
 -11   7  14    1.03    0.58
  10  -7 -14    0.04    0.35
 -10   7  14    0.04    0.45
   9  -7 -14    0.00    0.38
  -9   7  14    0.00    0.44
   8  -7 -14    3.01    0.66
  -8   7  14    4.88    0.71
   7  -7 -14    0.00    0.38
  -7   7  14    0.00    0.43
   6  -7 -14    4.64    0.77
  -6   7  14    7.89    0.84
   5  -7 -14    4.74    0.74
  -5   7  14    3.54    0.61
   4  -7 -14    5.12    0.78
  -4   7  14    5.41    0.52
  -4   7  14    5.19    0.69
   3  -7 -14    0.00    0.41
  -3   7  14    0.34    0.35
  -3   7  14    0.59    0.42
   2  -7 -14    0.01    0.44
  -2   7  14    0.45    0.35
  -2   7  14    0.01    0.42
   1  -7 -14    0.00    0.36
  -1   7  14    0.00    0.43
  -1   7  14    0.41    0.38
   0  -7 -14    4.97    0.62
   0   7  14    6.22    0.67
   0   7  14    5.93    0.68
  -1  -7 -14    1.21    0.41
   1   7  14    1.57    0.47
   1   7  14    0.05    0.36
  -2  -7 -14    0.15    0.35
   2   7  14    0.75    0.50
  -3  -7 -14    1.24    0.43
   3   7  14    1.35    0.47
  -4  -7 -14    3.42    0.58
   4   7  14    2.65    0.61
  11  -8 -14    2.26    0.58
  10  -8 -14    0.49    0.39
 -10   8  14    0.22    0.52
   9  -8 -14    0.24    0.32
  -9   8  14    0.01    0.45
   8  -8 -14    0.75    0.44
  -8   8  14    3.22    0.65
   7  -8 -14    0.00    0.30
  -7   8  14    0.00    0.47
   6  -8 -14    2.08    0.64
  -6   8  14    5.23    0.71
   5  -8 -14    1.10    0.58
  -5   8  14    1.74    0.58
   4  -8 -14    0.67    0.55
  -4   8  14    0.79    0.45
  -4   8  14    0.93    0.36
   3  -8 -14    4.85    0.74
  -3   8  14    5.08    0.59
  -3   8  14    3.71    0.60
   2  -8 -14    1.78    0.57
  -2   8  14    1.42    0.50
  -2   8  14    2.12    0.49
   1  -8 -14    0.40    0.42
  -1   8  14    0.00    0.38
  -1   8  14    0.00    0.41
   0  -8 -14    1.09    0.44
   0   8  14    0.84    0.44
   0   8  14    1.21    0.48
  -1  -8 -14    0.20    0.39
   1   8  14    0.68    0.49
   1   8  14    0.44    0.40
  -2  -8 -14    0.67    0.44
   2   8  14    0.07    0.46
  10  -9 -14    4.15    0.60
   9  -9 -14    1.21    0.41
  -9   9  14    1.22    0.59
   8  -9 -14    0.06    0.26
  -8   9  14    0.85    0.51
  -7   9  14    0.33    0.52
   6  -9 -14    2.46    0.60
  -6   9  14    4.01    0.66
   5  -9 -14    0.06    0.53
  -5   9  14    0.51    0.53
   4  -9 -14    0.02    0.50
  -4   9  14    0.05    0.46
  -4   9  14    0.02    0.33
   3  -9 -14    1.23    0.54
  -3   9  14    1.59    0.44
  -3   9  14    0.53    0.42
   2  -9 -14    0.21    0.49
  -2   9  14    0.79    0.46
  -2   9  14    0.33    0.41
   1  -9 -14    7.01    0.77
  -1   9  14    6.89    0.76
  -1   9  14    8.08    0.81
   0  -9 -14    6.99    0.71
   0   9  14    6.64    0.69
   0   9  14    7.14    0.79
  -1  -9 -14    0.31    0.38
   1   9  14    0.77    0.41
   1   9  14    0.58    0.44
  -8  10  14    0.40    0.52
  -7  10  14    0.07    0.52
   6 -10 -14    0.39    0.25
  -6  10  14    0.22    0.48
   5 -10 -14    0.47    0.27
  -5  10  14    2.16    0.57
   4 -10 -14    2.60    0.66
  -4  10  14    3.02    0.59
  -4  10  14    3.74    0.54
   3 -10 -14    0.00    0.47
  -3  10  14    0.30    0.40
  -3  10  14    0.00    0.45
   2 -10 -14   11.77    1.04
  -2  10  14   10.57    0.88
  -2  10  14    7.66    0.80
   1 -10 -14    0.90    0.49
  -1  10  14    1.43    0.46
   0  13 -15    0.36    0.44
  -1  13 -15    1.56    0.51
  -1  13 -15    1.78    0.50
  -2  13 -15    0.68    0.45
  -2  13 -15    0.33    0.44
  -3  13 -15    3.06    0.57
  -3  13 -15    2.59    0.56
  -4  13 -15    0.37    0.46
   3  12 -15    2.54    0.57
   2  12 -15    0.80    0.49
   2  12 -15    0.58    0.37
   1  12 -15    1.20    0.49
   1  12 -15    0.04    0.36
   0  12 -15    1.24    0.52
   0  12 -15    0.75    0.38
  -1  12 -15    0.00    0.38
  -1  12 -15    0.00    0.43
  -2  12 -15    3.40    0.51
  -2  12 -15    4.04    0.56
  -3  12 -15    0.72    0.48
  -3  12 -15    0.00    0.40
  -4  12 -15    0.25    0.46
  -4  12 -15    0.06    0.46
  -5  12 -15    1.93    0.57
  -5  12 -15    1.70    0.59
  -6  12 -15    0.00    0.43
   4  11 -15    1.31    0.56
   3  11 -15    0.65    0.51
   3  11 -15    0.88    0.37
   2  11 -15    1.80    0.40
   2  11 -15    1.60    0.52
   1  11 -15    0.79    0.48
   1  11 -15    0.66    0.37
   0  11 -15    0.34    0.37
   0  11 -15    0.17    0.40
  -1  11 -15    1.57    0.51
  -1  11 -15    1.01    0.42
  -2  11 -15    0.03    0.47
  -2  11 -15    0.03    0.40
  -3  11 -15    4.60    0.64
  -3  11 -15    5.36    0.72
  -4  11 -15    3.81    0.64
  -4  11 -15    3.06    0.62
  -5  11 -15    0.14    0.42
  -5  11 -15    0.25    0.48
  -6  11 -15    4.92    0.73
  -6  11 -15    4.92    0.77
  -7  11 -15    0.63    0.50
  -7  11 -15    0.83    0.51
   6  10 -15    1.62    0.65
   5  10 -15    1.15    0.58
   4  10 -15    0.09    0.45
   3  10 -15    0.39    0.45
   3  10 -15    0.02    0.11
   2  10 -15    0.73    0.45
   2  10 -15    1.17    0.38
   1  10 -15    1.70    0.42
   1  10 -15    1.92    0.57
   0  10 -15    5.52    0.62
   0  10 -15    4.53    0.50
  -1  10 -15    4.68    0.68
  -1  10 -15    4.79    0.60
  -2  10 -15    0.58    0.44
  -2  10 -15    0.87    0.51
  -3  10 -15    0.71    0.42
  -3  10 -15    1.05    0.47
  -4  10 -15    4.02    0.61
  -4  10 -15    2.78    0.59
  -5  10 -15    0.32    0.49
  -5  10 -15    0.25    0.49
  -6  10 -15    2.24    0.53
  -6  10 -15    2.61    0.55
  -7  10 -15    0.18    0.41
  -7  10 -15    0.02    0.52
  -8  10 -15    0.00    0.38
   7   9 -15    0.17    0.56
   6   9 -15    0.42    0.53
   5   9 -15    0.33    0.47
   4   9 -15    1.12    0.39
   4   9 -15    1.37    0.53
   3   9 -15    0.45    0.32
   3   9 -15    0.05    0.40
   2   9 -15    1.06    0.32
   2   9 -15    2.06    0.57
   1   9 -15    0.30    0.42
   1   9 -15    1.16    0.36
   0   9 -15    3.15    0.49
   0   9 -15    3.98    0.67
  -1   9 -15    4.66    0.55
  -1   9 -15    4.60    0.60
  -2   9 -15    4.36    0.53
  -2   9 -15    5.81    0.69
  -3   9 -15    1.25    0.48
  -3   9 -15    1.72    0.56
  -4   9 -15    0.70    0.50
  -4   9 -15    1.90    0.47
  -5   9 -15    0.05    0.41
  -5   9 -15    0.15    0.47
  -6   9 -15    0.80    0.48
  -6   9 -15    1.33    0.49
  -7   9 -15    0.67    0.47
  -7   9 -15    0.34    0.41
  -8   9 -15    0.01    0.49
  -8   9 -15    0.15    0.40
   8   8 -15    0.02    0.52
   7   8 -15    0.10    0.49
   6   8 -15    4.99    0.70
   5   8 -15    0.31    0.48
   4   8 -15    0.38    0.49
   3   8 -15    3.98    0.44
   3   8 -15    3.92    0.61
   2   8 -15    0.65    0.49
   2   8 -15    0.00    0.23
   1   8 -15    0.71    0.43
   1   8 -15    0.46    0.31
   0   8 -15    0.10    0.32
   0   8 -15    0.11    0.42
  -1   8 -15    6.68    0.77
  -1   8 -15    6.32    0.62
  -2   8 -15    1.31    0.48
  -2   8 -15    1.93    0.46
  -3   8 -15    0.76    0.44
  -3   8 -15    1.51    0.46
  -4   8 -15    0.00    0.37
  -4   8 -15    0.01    0.45
  -5   8 -15    0.24    0.40
  -5   8 -15    0.04    0.38
  -6   8 -15    1.17    0.51
  -6   8 -15    1.33    0.49
  -7   8 -15    2.77    0.53
  -7   8 -15    3.91    0.63
  -8   8 -15    0.03    0.43
  -9   8 -15    0.15    0.46
   9   7 -15    0.48    0.58
   8   7 -15    0.01    0.50
   7   7 -15    1.11    0.55
   6   7 -15    0.95    0.53
   5   7 -15    1.49    0.54
   4   7 -15    1.00    0.53
   3   7 -15    9.51    0.64
   3   7 -15    9.25    0.89
   2   7 -15    0.10    0.38
   2   7 -15    0.00    0.28
   1   7 -15    0.08    0.22
   1   7 -15    1.19    0.46
   0   7 -15    2.38    0.55
   0   7 -15    2.68    0.46
  -1   7 -15    2.02    0.43
  -1   7 -15    1.98    0.56
  -2   7 -15    9.13    0.79
  -2   7 -15    9.61    0.74
  -3   7 -15    0.81    0.45
  -3   7 -15    1.22    0.40
  -4   7 -15    2.97    0.54
  -4   7 -15    1.47    0.54
  -5   7 -15    5.38    0.61
  -6   7 -15    4.44    0.58
  -7   7 -15    2.65    0.47
  -8   7 -15    0.73    0.40
  -9   7 -15    1.25    0.45
   9   6 -15    2.41    0.73
   8   6 -15    0.10    0.58
   7   6 -15    1.58    0.65
   6   6 -15    2.41    0.60
   5   6 -15    0.02    0.45
   4   6 -15   12.88    0.97
   3   6 -15    0.28    0.27
   3   6 -15    0.35    0.41
   2   6 -15    3.81    0.58
   2   6 -15    4.36    0.42
   1   6 -15    0.00    0.14
   1   6 -15    0.00    0.43
   0   6 -15    1.91    0.54
   0   6 -15    1.32    0.35
  -1   6 -15    9.78    0.70
  -1   6 -15    6.73    0.74
  -2   6 -15    2.82    0.57
  -2   6 -15    2.30    0.49
  -3   6 -15    1.97    0.45
  -3   6 -15    1.12    0.42
  -4   6 -15    8.63    0.72
  -5   6 -15    2.13    0.49
  -6   6 -15   34.98    1.54
  -7   6 -15    0.35    0.44
  -8   6 -15    1.45    0.53
  -9   6 -15    1.34    0.45
  10   5 -15    2.34    0.75
   9   5 -15    1.06    0.64
   8   5 -15    0.00    0.50
   7   5 -15    0.47    0.51
   6   5 -15    0.02    0.46
   5   5 -15    9.08    0.85
   4   5 -15    3.91    0.66
   3   5 -15    4.81    0.45
   3   5 -15    5.03    0.68
   2   5 -15    5.52    0.68
   2   5 -15    6.02    0.48
   1   5 -15    0.39    0.28
   1   5 -15    0.00    0.38
   0   5 -15    7.10    0.56
   0   5 -15    5.54    0.72
  -1   5 -15    6.31    0.53
  -1   5 -15    6.23    0.64
  -2   5 -15    7.53    0.74
  -3   5 -15    2.08    0.45
  -4   5 -15    5.61    0.65
  -5   5 -15    0.17    0.38
  -6   5 -15    1.47    0.44
  -7   5 -15    1.04    0.44
  -8   5 -15    0.08    0.45
  -9   5 -15    0.36    0.43
  10   4 -15    0.31    0.58
   9   4 -15    0.00    0.51
   8   4 -15    0.01    0.47
   7   4 -15    1.37    0.57
   6   4 -15    9.13    0.98
   5   4 -15    4.75    0.69
   4   4 -15    2.53    0.60
   3   4 -15    4.14    0.39
   3   4 -15    3.45    0.60
   2   4 -15    6.43    0.50
   2   4 -15    6.03    0.72
   1   4 -15    0.46    0.26
   1   4 -15    0.04    0.45
   0   4 -15    7.18    0.54
   0   4 -15    6.96    0.75
  -1   4 -15    1.23    0.49
  -2   4 -15    7.86    0.69
  -3   4 -15    3.26    0.51
  -4   4 -15    3.56    0.49
  -5   4 -15    2.48    0.49
  -6   4 -15    0.90    0.41
  -7   4 -15    0.35    0.44
  -8   4 -15    0.18    0.41
  -9   4 -15    0.15    0.44
  11   3 -15    3.09    0.84
  10   3 -15    0.10    0.56
   9   3 -15    0.31    0.66
   8   3 -15    0.04    0.51
   7   3 -15    0.27    0.56
   6   3 -15   11.13    0.94
   5   3 -15    1.43    0.50
   4   3 -15    4.18    0.65
   3   3 -15    0.76    0.24
   3   3 -15    0.33    0.43
   2   3 -15    0.47    0.23
   2   3 -15    0.09    0.40
   1   3 -15    0.94    0.26
   1   3 -15    1.24    0.44
   0   3 -15    5.38    0.65
  -1   3 -15    0.09    0.43
  -2   3 -15    0.60    0.41
  -3   3 -15    0.69    0.37
  -4   3 -15    0.13    0.36
  -5   3 -15    1.87    0.45
  -6   3 -15    1.14    0.42
  -7   3 -15    0.03    0.39
  -8   3 -15    0.03    0.39
  -9   3 -15    2.07    0.54
  11   2 -15    0.05    0.68
 -11  -2  15    1.14    0.53
  10   2 -15    0.22    0.56
 -10  -2  15    1.16    0.53
   9   2 -15    2.04    0.74
  -9  -2  15    3.48    0.59
   8   2 -15    0.07    0.49
  -8  -2  15    0.19    0.41
   7   2 -15    0.00    0.43
   6   2 -15    0.17    0.45
   5   2 -15    0.53    0.43
   4   2 -15    5.12    0.69
   3   2 -15    0.61    0.23
   3   2 -15    0.31    0.45
   2   2 -15    1.19    0.28
   2   2 -15    0.80    0.50
   1   2 -15    1.63    0.49
   0   2 -15    0.99    0.45
  -1   2 -15    8.36    0.67
  -2   2 -15    0.08    0.37
  -3   2 -15    0.04    0.33
  -4   2 -15    0.46    0.35
  -5   2 -15    7.49    0.66
  -6   2 -15    4.88    0.57
  -7   2 -15    2.86    0.58
  -8   2 -15    2.48    0.51
  -9   2 -15    0.67    0.49
  11   1 -15    0.21    0.56
 -11  -1  15    0.00    0.45
  10   1 -15    0.01    0.53
 -10  -1  15    1.07    0.52
   9   1 -15    7.41    1.01
  -9  -1  15    7.01    0.73
   8   1 -15    0.53    0.52
  -8  -1  15    0.19    0.41
   7   1 -15    0.63    0.53
  -7  -1  15    0.81    0.46
   6   1 -15    1.96    0.52
  -6  -1  15    1.74    0.43
   5   1 -15    0.90    0.55
  -5  -1  15    1.51    0.46
   4   1 -15    8.75    0.86
   3   1 -15    0.32    0.51
   3   1 -15    0.84    0.23
   2   1 -15    0.62    0.48
   1   1 -15    0.88    0.44
   0   1 -15    3.65    0.50
  -1   1 -15   22.04    1.12
  -2   1 -15   12.60    0.78
  -3   1 -15    2.07    0.47
  -4   1 -15    3.26    0.47
  -5   1 -15    0.01    0.35
  -6   1 -15    9.66    0.83
  -7   1 -15    0.50    0.40
  -8   1 -15    3.47    0.57
  12   0 -15    0.76    0.67
 -12   0  15    1.20    0.49
  11   0 -15    0.33    0.59
 -11   0  15    0.01    0.48
  10   0 -15    1.69    0.68
 -10   0  15    1.32    0.50
   9   0 -15    0.55    0.58
  -9   0  15    0.52    0.45
   8   0 -15    4.30    0.78
  -8   0  15    5.45    0.66
   7   0 -15    0.01    0.47
  -7   0  15    0.25    0.41
   6   0 -15    1.04    0.53
  -6   0  15    1.23    0.47
   5   0 -15    5.29    0.72
  -5   0  15    4.03    0.57
   4   0 -15    0.01    0.43
  -4   0  15    0.01    0.37
   3   0 -15    2.87    0.56
   2   0 -15   11.32    0.87
   1   0 -15    2.67    0.59
   0   0 -15   32.47    1.57
  -1   0 -15    1.24    0.39
  -2   0 -15   13.81    0.91
  -3   0 -15    0.03    0.35
  -4   0 -15    7.15    0.67
  -5   0 -15    9.13    0.81
  -6   0 -15    0.07    0.44
  -7   0 -15    0.02    0.39
  -8   0 -15    1.54    0.48
  12  -1 -15    0.03    0.54
 -12   1  15    0.52    0.54
  11  -1 -15    1.67    0.63
 -11   1  15    0.88    0.53
  10  -1 -15    0.94    0.69
 -10   1  15    1.71    0.55
   9  -1 -15    1.48    0.62
  -9   1  15    2.48    0.56
   8  -1 -15    2.49    0.67
  -8   1  15    2.06    0.53
   7  -1 -15    0.06    0.50
  -7   1  15    0.06    0.41
   6  -1 -15   14.65    1.10
  -6   1  15   15.41    1.06
   5  -1 -15    7.25    0.96
  -5   1  15    6.18    0.73
   4  -1 -15   15.31    1.13
  -4   1  15   15.22    1.03
   3  -1 -15    0.07    0.42
  -3   1  15    0.07    0.36
   2  -1 -15    1.08    0.49
  -2   1  15    1.92    0.48
   1  -1 -15    0.01    0.40
   0  -1 -15   27.60    1.29
  -1  -1 -15    4.24    0.53
  -2  -1 -15    0.26    0.37
  -3  -1 -15    3.20    0.48
  -4  -1 -15    0.75    0.39
  -5  -1 -15    1.37    0.46
  -6  -1 -15    3.85    0.58
  -7  -1 -15    0.16    0.47
  12  -2 -15    2.74    0.74
 -12   2  15    2.35    0.58
  11  -2 -15    0.21    0.62
 -11   2  15    0.50    0.47
  10  -2 -15    0.27    0.55
 -10   2  15    0.18    0.53
   9  -2 -15    1.70    0.62
  -9   2  15    3.18    0.65
   8  -2 -15    9.98    1.11
  -8   2  15   11.66    0.97
   7  -2 -15    0.37    0.50
  -7   2  15    1.36    0.49
   6  -2 -15    5.65    0.91
  -6   2  15    4.99    0.70
   5  -2 -15    0.16    0.48
  -5   2  15    1.58    0.44
   4  -2 -15    7.67    0.84
  -4   2  15    7.52    0.72
   3  -2 -15    0.38    0.53
  -3   2  15    0.15    0.41
   2  -2 -15    0.34    0.41
  -2   2  15    0.03    0.41
   1  -2 -15    0.04    0.42
   0  -2 -15    1.32    0.43
  -1  -2 -15    2.69    0.49
  -2  -2 -15    0.14    0.34
  -3  -2 -15    2.04    0.45
  -4  -2 -15    0.49    0.39
  -5  -2 -15    1.27    0.43
  -6  -2 -15    0.37    0.42
  -7  -2 -15    0.00    0.42
  12  -3 -15    2.87    0.80
 -12   3  15    4.79    0.72
  11  -3 -15    0.03    0.43
 -11   3  15    0.14    0.49
  10  -3 -15    2.25    0.72
 -10   3  15    1.92    0.63
   9  -3 -15    3.48    0.75
  -9   3  15    4.74    0.66
   8  -3 -15    0.04    0.46
  -8   3  15    0.94    0.48
   7  -3 -15    0.07    0.54
  -7   3  15    0.82    0.46
   6  -3 -15    0.02    0.52
  -6   3  15    0.65    0.50
   5  -3 -15    2.40    0.60
  -5   3  15    2.47    0.58
   4  -3 -15   11.72    1.01
  -4   3  15    9.07    0.80
   3  -3 -15    8.81    0.91
  -3   3  15    6.84    0.73
   2  -3 -15    0.79    0.48
  -2   3  15    0.48    0.42
   1  -3 -15    1.36    0.41
  -1   3  15    0.64    0.42
   0  -3 -15    0.03    0.36
  -1  -3 -15    0.02    0.34
  -2  -3 -15    0.01    0.33
  -3  -3 -15    3.54    0.55
  -4  -3 -15    3.57    0.55
  -5  -3 -15    0.35    0.40
  -6  -3 -15    5.01    0.64
  11  -4 -15    0.02    0.48
 -11   4  15    0.02    0.55
  10  -4 -15    1.75    0.66
 -10   4  15    2.57    0.62
   9  -4 -15    1.49    0.60
  -9   4  15    2.55    0.60
   8  -4 -15    0.08    0.55
  -8   4  15    0.01    0.45
   7  -4 -15    0.00    0.45
  -7   4  15    0.36    0.46
   6  -4 -15    0.00    0.47
  -6   4  15    0.00    0.43
   5  -4 -15    3.10    0.65
  -5   4  15    2.64    0.60
   4  -4 -15    0.59    0.55
  -4   4  15    0.79    0.45
   3  -4 -15    1.48    0.57
  -3   4  15    0.47    0.47
   2  -4 -15    0.57    0.51
  -2   4  15    0.00    0.36
   1  -4 -15    1.61    0.52
  -1   4  15    1.80    0.49
   0  -4 -15    9.81    0.81
   0   4  15   10.11    0.81
  -1  -4 -15    0.79    0.39
  -2  -4 -15    1.67    0.43
  -3  -4 -15    4.42    0.61
  -4  -4 -15   11.83    0.84
  -5  -4 -15    0.15    0.39
  11  -5 -15    0.00    0.49
 -11   5  15    0.33    0.56
  10  -5 -15    5.98    0.88
 -10   5  15    4.91    0.70
   9  -5 -15    0.04    0.51
  -9   5  15    0.08    0.49
   8  -5 -15    0.05    0.50
  -8   5  15    0.35    0.49
   7  -5 -15    0.14    0.53
  -7   5  15    0.87    0.49
   6  -5 -15    0.87    0.57
  -6   5  15    0.70    0.54
   5  -5 -15   24.92    1.52
  -5   5  15   25.36    1.38
   4  -5 -15    1.01    0.58
  -4   5  15    1.35    0.56
   3  -5 -15    1.55    0.60
  -3   5  15    1.23    0.46
   2  -5 -15    0.99    0.55
  -2   5  15    0.83    0.44
   1  -5 -15    0.00    0.43
  -1   5  15    0.06    0.42
   0  -5 -15   17.06    1.07
   0   5  15   16.84    1.10
  -1  -5 -15    0.04    0.35
  -2  -5 -15    2.44    0.49
  -3  -5 -15    0.25    0.37
  -4  -5 -15    0.15    0.44
  11  -6 -15    1.43    0.57
 -11   6  15    0.75    0.54
  10  -6 -15    0.01    0.47
 -10   6  15    0.40    0.57
   9  -6 -15    0.36    0.49
  -9   6  15    1.55    0.57
   8  -6 -15    0.65    0.55
  -8   6  15    1.04    0.60
   7  -6 -15    0.05    0.50
  -7   6  15    0.07    0.53
   6  -6 -15    5.77    0.83
  -6   6  15    7.41    0.79
   5  -6 -15    1.44    0.55
  -5   6  15    0.98    0.52
   4  -6 -15   20.52    1.32
  -4   6  15   18.00    1.12
   3  -6 -15    1.00    0.56
  -3   6  15    1.76    0.52
   2  -6 -15    5.06    0.72
  -2   6  15    4.05    0.61
   1  -6 -15    2.00    0.55
  -1   6  15    2.13    0.46
  -1   6  15    2.31    0.54
   0  -6 -15    3.45    0.59
   0   6  15    3.32    0.55
   0   6  15    4.21    0.57
  -1  -6 -15    0.00    0.40
  -2  -6 -15    0.18    0.41
  -3  -6 -15    0.00    0.40
  10  -7 -15    1.79    0.57
 -10   7  15    1.74    0.66
   9  -7 -15    0.00    0.36
  -9   7  15    0.33    0.49
   8  -7 -15    0.93    0.50
  -8   7  15    2.08    0.64
   7  -7 -15    0.00    0.43
  -7   7  15    0.66    0.50
   6  -7 -15    7.43    0.98
  -6   7  15   10.96    0.99
   5  -7 -15    0.20    0.57
  -5   7  15    1.28    0.55
   4  -7 -15    1.45    0.64
  -4   7  15    1.26    0.55
   3  -7 -15    1.11    0.59
  -3   7  15    0.88    0.46
  -3   7  15    1.38    0.41
   2  -7 -15    0.00    0.43
  -2   7  15    0.08    0.34
  -2   7  15    0.00    0.37
   1  -7 -15    1.54    0.51
  -1   7  15    1.75    0.46
  -1   7  15    2.34    0.49
   0  -7 -15    1.08    0.48
   0   7  15    1.26    0.46
   0   7  15    0.77    0.45
  -1  -7 -15    0.18    0.40
   1   7  15    0.42    0.41
   1   7  15    1.11    0.46
  -2  -7 -15    0.16    0.41
   2   7  15    0.57    0.48
   9  -8 -15    0.00    0.31
  -9   8  15    0.50    0.53
   8  -8 -15    0.02    0.33
  -8   8  15    0.02    0.47
   7  -8 -15    0.02    0.35
  -7   8  15    0.02    0.47
   6  -8 -15    0.83    0.53
  -6   8  15    1.56    0.52
   5  -8 -15    0.88    0.56
  -5   8  15    0.83    0.51
   4  -8 -15    0.11    0.53
  -4   8  15    0.05    0.48
   3  -8 -15    5.91    0.79
  -3   8  15    4.56    0.60
  -3   8  15    6.79    0.62
   2  -8 -15    0.00    0.49
  -2   8  15    0.00    0.36
  -2   8  15    0.40    0.41
   1  -8 -15    0.01    0.42
  -1   8  15    0.19    0.38
  -1   8  15    0.01    0.37
   0  -8 -15    4.88    0.67
   0   8  15    5.92    0.73
   0   8  15    4.74    0.64
  -1  -8 -15    0.02    0.39
   1   8  15    0.20    0.39
   1   8  15    0.02    0.40
   7  -9 -15    1.30    0.48
  -7   9  15    2.27    0.58
   6  -9 -15    0.02    0.42
  -6   9  15    0.06    0.46
   5  -9 -15    0.09    0.52
  -5   9  15    0.00    0.48
   4  -9 -15    0.85    0.62
  -4   9  15    1.04    0.55
   3  -9 -15    0.07    0.52
  -3   9  15    0.03    0.42
  -3   9  15    0.54    0.41
   2  -9 -15    2.12    0.59
  -2   9  15    1.57    0.47
  -2   9  15    0.77    0.49
   0  12 -16    0.13    0.46
  -1  12 -16    0.02    0.41
  -2  12 -16    0.99    0.54
  -3  12 -16    1.78    0.57
   3  11 -16    0.11    0.46
   2  11 -16    0.77    0.55
   2  11 -16    1.19    0.41
   1  11 -16    0.04    0.33
   1  11 -16    0.40    0.48
   0  11 -16    0.34    0.37
   0  11 -16    0.45    0.44
  -1  11 -16    3.93    0.63
  -1  11 -16    4.21    0.57
  -2  11 -16    0.40    0.39
  -2  11 -16    0.99    0.53
  -3  11 -16    2.38    0.61
  -3  11 -16    2.21    0.57
  -4  11 -16    1.45    0.61
  -4  11 -16    2.21    0.60
  -5  11 -16    0.01    0.52
  -5  11 -16    0.16    0.52
   4  10 -16    0.00    0.45
   3  10 -16    3.13    0.64
   2  10 -16    1.23    0.55
   2  10 -16    0.64    0.34
   1  10 -16    1.11    0.53
   1  10 -16    1.04    0.38
   0  10 -16    1.14    0.42
   0  10 -16    1.57    0.59
  -1  10 -16    2.22    0.58
  -1  10 -16    1.38    0.45
  -2  10 -16   10.71    0.97
  -2  10 -16   10.41    0.81
  -3  10 -16    0.57    0.50
  -3  10 -16    0.73    0.49
  -4  10 -16    0.98    0.56
  -4  10 -16    0.84    0.50
  -5  10 -16    0.93    0.49
  -5  10 -16    0.72    0.54
  -6  10 -16    0.84    0.51
  -6  10 -16    0.32    0.47
   6   9 -16    2.48    0.71
   5   9 -16    0.59    0.52
   4   9 -16    1.16    0.49
   3   9 -16    1.00    0.56
   2   9 -16    3.00    0.61
   1   9 -16    0.39    0.33
   1   9 -16    0.70    0.45
   0   9 -16    1.67    0.50
   0   9 -16    3.03    0.45
  -1   9 -16    0.67    0.46
  -1   9 -16    0.28    0.40
  -2   9 -16    5.82    0.71
  -2   9 -16    5.74    0.66
  -3   9 -16    0.00    0.44
  -3   9 -16    0.01    0.50
  -4   9 -16    0.00    0.50
  -4   9 -16    0.51    0.43
  -5   9 -16    0.00    0.40
  -5   9 -16    0.70    0.53
  -6   9 -16    1.57    0.52
  -6   9 -16    0.98    0.47
  -7   9 -16    0.01    0.41
   7   8 -16    1.73    0.60
   6   8 -16    2.88    0.65
   5   8 -16    0.01    0.47
   4   8 -16    1.93    0.55
   3   8 -16    0.91    0.46
   2   8 -16    0.71    0.50
   2   8 -16    0.01    0.30
   1   8 -16    2.81    0.63
   1   8 -16    2.27    0.41
   0   8 -16    0.85    0.46
   0   8 -16    0.99    0.38
  -1   8 -16    0.48    0.38
  -1   8 -16    0.29    0.47
  -2   8 -16    0.37    0.53
  -2   8 -16    0.00    0.38
  -3   8 -16    0.16    0.43
  -3   8 -16    0.26    0.46
  -4   8 -16    0.07    0.43
  -4   8 -16    0.38    0.52
  -5   8 -16    0.18    0.46
  -5   8 -16    0.50    0.44
  -6   8 -16    2.55    0.54
  -6   8 -16    1.56    0.53
  -7   8 -16    0.00    0.45
  -7   8 -16    0.11    0.42
   8   7 -16    0.33    0.61
   7   7 -16    0.83    0.56
   6   7 -16    0.01    0.48
   5   7 -16    0.17    0.46
   4   7 -16    1.70    0.51
   3   7 -16    0.00    0.44
   2   7 -16    1.66    0.35
   2   7 -16    0.42    0.45
   1   7 -16    1.19    0.52
   0   7 -16    0.01    0.47
   0   7 -16    0.01    0.31
  -1   7 -16    4.60    0.54
  -1   7 -16    4.39    0.70
  -2   7 -16    0.38    0.46
  -2   7 -16    0.31    0.39
  -3   7 -16    0.00    0.39
  -3   7 -16    0.00    0.42
  -4   7 -16    0.61    0.44
  -4   7 -16    0.33    0.38
  -5   7 -16    2.69    0.60
  -5   7 -16    3.30    0.59
  -6   7 -16    4.76    0.64
  -7   7 -16    0.08    0.41
  -8   7 -16    1.65    0.48
   8   6 -16    0.98    0.59
   7   6 -16    0.58    0.59
   6   6 -16    0.03    0.53
   5   6 -16    0.19    0.45
   4   6 -16    4.08    0.69
   3   6 -16    2.48    0.61
   2   6 -16    1.14    0.33
   2   6 -16    1.19    0.50
   1   6 -16    0.21    0.44
   1   6 -16    0.85    0.32
   0   6 -16    1.47    0.56
   0   6 -16    1.64    0.37
  -1   6 -16    3.24    0.64
  -1   6 -16    3.28    0.47
  -2   6 -16   12.26    0.79
  -2   6 -16   10.58    0.90
  -3   6 -16    8.24    0.70
  -3   6 -16    6.54    0.69
  -4   6 -16    3.01    0.53
  -5   6 -16    0.91    0.48
  -6   6 -16    4.57    0.59
  -7   6 -16    0.50    0.48
  -8   6 -16    4.61    0.65
   9   5 -16    0.07    0.52
   8   5 -16    1.52    0.66
   7   5 -16    0.00    0.54
   6   5 -16    0.54    0.50
   5   5 -16    5.06    0.72
   4   5 -16    0.87    0.56
   3   5 -16   13.15    0.99
   2   5 -16    1.62    0.36
   2   5 -16    1.84    0.58
   1   5 -16    0.56    0.30
   1   5 -16    0.02    0.44
   0   5 -16    8.91    0.89
   0   5 -16    9.57    0.66
  -1   5 -16    0.03    0.49
  -1   5 -16    0.22    0.32
  -2   5 -16   10.46    0.86
  -3   5 -16    0.31    0.47
  -4   5 -16    0.58    0.42
  -5   5 -16   11.13    0.89
  -6   5 -16    0.54    0.41
  -7   5 -16    0.10    0.45
  -8   5 -16    0.21    0.44
   9   4 -16    2.07    0.61
   8   4 -16    0.02    0.49
   7   4 -16    0.31    0.56
   6   4 -16    3.53    0.71
   5   4 -16    0.86    0.51
   4   4 -16   18.74    1.18
   3   4 -16    1.37    0.55
   2   4 -16    2.59    0.55
   2   4 -16    2.95    0.37
   1   4 -16    0.10    0.27
   1   4 -16    0.11    0.44
   0   4 -16    6.62    0.71
  -1   4 -16    2.79    0.56
  -2   4 -16    0.50    0.46
  -3   4 -16    0.04    0.36
  -4   4 -16    0.05    0.35
  -5   4 -16    0.49    0.45
  -6   4 -16    4.23    0.56
  -7   4 -16    0.79    0.45
  -8   4 -16    0.06    0.47
  10   3 -16    1.81    0.68
   9   3 -16    2.34    0.75
   8   3 -16    1.10    0.59
   7   3 -16    1.00    0.57
   6   3 -16    3.99    0.77
   5   3 -16    0.19    0.44
   4   3 -16   13.52    1.09
   3   3 -16    1.31    0.51
   2   3 -16    0.00    0.22
   2   3 -16    0.78    0.46
   1   3 -16    0.72    0.30
   1   3 -16    0.15    0.46
   0   3 -16    0.39    0.43
  -1   3 -16    4.52    0.59
  -2   3 -16    0.20    0.43
  -3   3 -16    2.50    0.58
  -4   3 -16    0.09    0.37
  -5   3 -16    1.16    0.44
  -6   3 -16    1.53    0.44
  -7   3 -16    0.05    0.40
  -8   3 -16    0.88    0.45
  10   2 -16    2.48    0.79
   9   2 -16    1.20    0.65
   8   2 -16    1.19    0.60
   7   2 -16    0.06    0.46
   6   2 -16    0.46    0.49
   5   2 -16    0.83    0.48
   4   2 -16    1.67    0.60
   3   2 -16    0.00    0.41
   2   2 -16    0.19    0.45
   2   2 -16    0.12    0.22
   1   2 -16    0.06    0.45
   0   2 -16    1.57    0.49
  -1   2 -16    0.75    0.46
  -2   2 -16    7.71    0.67
  -3   2 -16    2.39    0.50
  -4   2 -16    0.21    0.38
  -5   2 -16    0.44    0.42
  -6   2 -16    1.57    0.47
  -7   2 -16    3.38    0.58
  10   1 -16    0.01    0.58
 -10  -1  16    1.61    0.53
   9   1 -16    0.25    0.54
  -9  -1  16    0.06    0.48
   8   1 -16    1.61    0.66
  -8  -1  16    2.09    0.54
   7   1 -16    1.76    0.59
  -7  -1  16    2.00    0.58
   6   1 -16    0.28    0.47
   5   1 -16    0.07    0.49
   4   1 -16    0.24    0.49
   3   1 -16    0.47    0.49
   2   1 -16    0.04    0.52
   1   1 -16    1.94    0.50
   0   1 -16   11.31    0.90
  -1   1 -16    3.36    0.55
  -2   1 -16    3.98    0.57
  -3   1 -16    5.76    0.61
  -4   1 -16    4.66    0.59
  -5   1 -16    0.02    0.41
  -6   1 -16    0.98    0.49
  -7   1 -16    0.02    0.41
  11   0 -16    0.02    0.52
 -11   0  16    0.60    0.54
  10   0 -16    0.97    0.64
 -10   0  16    1.39    0.47
   9   0 -16    0.29    0.56
  -9   0  16    0.20    0.50
   8   0 -16    0.36    0.54
  -8   0  16    0.10    0.45
   7   0 -16    0.00    0.46
  -7   0  16    0.00    0.48
   6   0 -16    0.68    0.58
  -6   0  16    0.75    0.48
   5   0 -16    7.27    0.83
  -5   0  16    7.07    0.75
   4   0 -16    7.18    0.80
   3   0 -16    3.51    0.66
   2   0 -16    3.18    0.66
   1   0 -16    2.06    0.52
   0   0 -16   15.86    1.03
  -1   0 -16    5.17    0.64
  -2   0 -16    8.18    0.67
  -3   0 -16    1.37    0.50
  -4   0 -16    2.00    0.48
  -5   0 -16    1.54    0.46
  -6   0 -16    0.23    0.44
  -7   0 -16    0.57    0.43
  11  -1 -16    0.23    0.64
 -11   1  16    0.23    0.47
  10  -1 -16    0.07    0.64
 -10   1  16    0.01    0.47
   9  -1 -16    5.27    0.90
  -9   1  16    5.33    0.72
   8  -1 -16    8.13    1.02
  -8   1  16    8.51    0.83
   7  -1 -16    1.17    0.61
  -7   1  16    1.28    0.48
   6  -1 -16    0.48    0.57
  -6   1  16    1.71    0.53
   5  -1 -16    0.15    0.55
  -5   1  16    0.40    0.50
   4  -1 -16   23.26    1.44
  -4   1  16   25.10    1.34
   3  -1 -16    0.01    0.52
  -3   1  16    0.46    0.47
   2  -1 -16    1.26    0.51
   1  -1 -16    1.28    0.49
   0  -1 -16    3.28    0.56
  -1  -1 -16    5.85    0.68
  -2  -1 -16    0.00    0.37
  -3  -1 -16    0.63    0.44
  -4  -1 -16    2.11    0.53
  -5  -1 -16    1.69    0.52
  -6  -1 -16    4.24    0.59
  11  -2 -16    0.48    0.67
 -11   2  16    0.00    0.54
  10  -2 -16    2.35    0.71
 -10   2  16    4.47    0.68
   9  -2 -16    0.50    0.65
  -9   2  16    1.45    0.55
   8  -2 -16    5.44    0.90
  -8   2  16    5.68    0.77
   7  -2 -16    0.24    0.59
  -7   2  16    0.16    0.51
   6  -2 -16    0.01    0.55
  -6   2  16    0.59    0.44
   5  -2 -16    6.32    0.81
  -5   2  16    7.26    0.70
   4  -2 -16    4.54    0.72
  -4   2  16    4.34    0.62
   3  -2 -16    0.16    0.50
  -3   2  16    0.06    0.42
   2  -2 -16    0.36    0.52
  -2   2  16    0.00    0.45
   1  -2 -16    0.54    0.47
   0  -2 -16    1.89    0.48
  -1  -2 -16    1.07    0.42
  -2  -2 -16    0.22    0.37
  -3  -2 -16    0.04    0.40
  -4  -2 -16    2.04    0.47
  -5  -2 -16    6.09    0.66
  11  -3 -16    0.14    0.53
  10  -3 -16    5.26    0.96
 -10   3  16    5.73    0.81
   9  -3 -16    0.00    0.51
  -9   3  16    0.68    0.56
   8  -3 -16    0.27    0.53
  -8   3  16    0.65    0.50
   7  -3 -16    0.02    0.51
  -7   3  16    0.14    0.45
   6  -3 -16    0.01    0.52
  -6   3  16    0.01    0.49
   5  -3 -16    3.15    0.73
  -5   3  16    3.11    0.66
   4  -3 -16    1.55    0.56
  -4   3  16    0.84    0.46
   3  -3 -16    0.42    0.49
  -3   3  16    1.37    0.45
   2  -3 -16    0.73    0.56
  -2   3  16    0.57    0.49
   1  -3 -16    1.30    0.48
   0  -3 -16    7.61    0.77
  -1  -3 -16    1.44    0.45
  -2  -3 -16    0.02    0.41
  -3  -3 -16    1.59    0.48
  -4  -3 -16    2.10    0.50
  -5  -3 -16    0.01    0.40
  10  -4 -16    1.86    0.69
 -10   4  16    2.22    0.58
   9  -4 -16    0.00    0.54
  -9   4  16    0.42    0.50
   8  -4 -16    0.06    0.56
  -8   4  16    0.16    0.46
   7  -4 -16    4.36    0.83
  -7   4  16    4.67    0.68
   6  -4 -16    1.18    0.58
  -6   4  16    2.37    0.61
   5  -4 -16    1.20    0.64
  -5   4  16    1.72    0.56
   4  -4 -16    7.62    0.96
  -4   4  16    5.07    0.70
   3  -4 -16    1.56    0.62
  -3   4  16    1.79    0.48
   2  -4 -16    0.00    0.40
  -2   4  16    0.06    0.38
   1  -4 -16    0.00    0.41
  -1   4  16    0.57    0.44
   0  -4 -16    2.52    0.53
  -1  -4 -16    0.00    0.37
  -2  -4 -16    4.74    0.62
  -3  -4 -16    2.40    0.56
  -4  -4 -16    0.91    0.43
  10  -5 -16    0.11    0.49
 -10   5  16    0.08    0.48
   9  -5 -16    0.54    0.53
  -9   5  16    0.85    0.61
   8  -5 -16    0.00    0.49
  -8   5  16    0.00    0.47
   7  -5 -16    0.06    0.55
  -7   5  16    0.26    0.50
   6  -5 -16    0.00    0.47
  -6   5  16    0.40    0.48
   5  -5 -16    0.61    0.65
  -5   5  16    0.93    0.51
   4  -5 -16    3.38    0.76
  -4   5  16    3.97    0.66
   3  -5 -16    4.03    0.78
  -3   5  16    2.90    0.58
   2  -5 -16    2.46    0.57
  -2   5  16    1.53    0.51
   1  -5 -16    1.18    0.52
  -1   5  16    0.70    0.40
   0  -5 -16    0.94    0.43
  -1  -5 -16    0.00    0.35
  -2  -5 -16    3.65    0.55
  -3  -5 -16    1.21    0.45
   9  -6 -16    0.46    0.56
  -9   6  16    1.41    0.58
   8  -6 -16    0.00    0.52
  -8   6  16    0.00    0.47
   7  -6 -16    0.00    0.47
  -7   6  16    0.00    0.46
   6  -6 -16    8.12    1.06
  -6   6  16    8.22    0.87
   5  -6 -16    0.95    0.58
  -5   6  16    0.77    0.48
   4  -6 -16    9.14    1.06
  -4   6  16    6.53    0.79
   3  -6 -16    2.34    0.69
  -3   6  16    2.68    0.55
   2  -6 -16    3.44    0.69
  -2   6  16    2.66    0.55
   1  -6 -16    1.53    0.50
  -1   6  16    1.38    0.50
   0  -6 -16    0.85    0.49
   0   6  16    1.55    0.50
  -1  -6 -16    0.00    0.44
  -2  -6 -16    0.11    0.41
   8  -7 -16    0.10    0.51
  -8   7  16    0.32    0.51
   7  -7 -16    0.00    0.45
  -7   7  16    0.18    0.47
   6  -7 -16    1.65    0.65
  -6   7  16    3.20    0.63
   5  -7 -16    5.11    0.90
  -5   7  16    3.61    0.70
   4  -7 -16    0.26    0.57
  -4   7  16    0.00    0.42
   3  -7 -16    0.00    0.54
  -3   7  16    0.00    0.47
   2  -7 -16    0.00    0.43
  -2   7  16    0.00    0.42
   1  -7 -16    0.00    0.41
  -1   7  16    0.18    0.43
   0  -7 -16    6.97    0.78
   0   7  16    5.65    0.70
   6  -8 -16    0.29    0.54
  -6   8  16    1.34    0.51
   5  -8 -16    0.01    0.53
  -5   8  16    0.22    0.46
   4  -8 -16    3.04    0.74
  -4   8  16    1.76    0.54
   3  -8 -16    0.58    0.58
  -3   8  16    0.44    0.50
   2  10 -17    1.02    0.50
   1  10 -17    0.03    0.35
   1  10 -17    0.43    0.52
   0  10 -17    2.36    0.45
   0  10 -17    2.06    0.53
  -1  10 -17    0.02    0.53
  -1  10 -17    0.20    0.40
  -2  10 -17    7.06    0.69
  -2  10 -17    7.12    0.77
  -3  10 -17    0.01    0.45
  -3  10 -17    0.01    0.39
  -4  10 -17    1.61    0.56
   4   9 -17    1.87    0.60
   3   9 -17    0.18    0.46
   2   9 -17    6.03    0.79
   1   9 -17    0.34    0.47
   1   9 -17    0.25    0.32
   0   9 -17    0.77    0.50
   0   9 -17    0.65    0.41
  -1   9 -17    0.39    0.42
  -1   9 -17    1.45    0.58
  -2   9 -17    0.24    0.49
  -2   9 -17    0.00    0.42
  -3   9 -17    0.27    0.46
  -3   9 -17    0.17    0.50
  -4   9 -17    0.12    0.50
  -4   9 -17    0.01    0.48
  -5   9 -17    0.00    0.47
   5   8 -17    0.02    0.53
   4   8 -17    0.91    0.52
   3   8 -17    0.01    0.45
   2   8 -17    0.41    0.48
   1   8 -17    0.75    0.54
   1   8 -17    0.03    0.12
   0   8 -17    1.92    0.64
   0   8 -17    2.75    0.47
  -1   8 -17    2.17    0.47
  -1   8 -17    1.14    0.54
  -2   8 -17    4.13    0.58
  -2   8 -17    5.27    0.75
  -3   8 -17    0.03    0.43
  -3   8 -17    0.24    0.53
  -4   8 -17    0.01    0.46
  -4   8 -17    0.19    0.48
  -5   8 -17    0.06    0.46
  -5   8 -17    0.06    0.50
   6   7 -17    0.04    0.55
   5   7 -17    0.01    0.51
   4   7 -17    0.27    0.47
   3   7 -17    1.11    0.53
   2   7 -17    0.33    0.49
   1   7 -17    0.05    0.31
   1   7 -17    0.01    0.45
   0   7 -17    0.24    0.53
   0   7 -17    0.30    0.33
  -1   7 -17    1.78    0.58
  -1   7 -17    2.36    0.47
  -2   7 -17    4.21    0.60
  -2   7 -17    3.72    0.72
  -3   7 -17    1.61    0.49
  -3   7 -17    0.82    0.57
  -4   7 -17    0.60    0.42
  -4   7 -17    0.84    0.50
  -5   7 -17    0.22    0.49
  -5   7 -17    0.19    0.47
  -6   7 -17    0.01    0.41
   7   6 -17    0.17    0.52
   6   6 -17    0.06    0.50
   5   6 -17    0.04    0.42
   4   6 -17    0.28    0.48
   3   6 -17    1.69    0.53
   2   6 -17    0.35    0.48
   1   6 -17    1.77    0.54
   1   6 -17    0.83    0.35
   0   6 -17    1.10    0.39
   0   6 -17    0.93    0.59
  -1   6 -17    0.01    0.32
  -1   6 -17    0.01    0.47
  -2   6 -17    0.28    0.48
  -2   6 -17    1.13    0.42
  -3   6 -17    3.51    0.51
  -3   6 -17    2.72    0.59
  -4   6 -17    3.56    0.60
  -5   6 -17    0.42    0.44
  -6   6 -17    0.67    0.50
   8   5 -17    0.12    0.60
   7   5 -17    0.02    0.51
   6   5 -17    0.98    0.56
   5   5 -17    0.01    0.45
   4   5 -17    5.33    0.69
   3   5 -17    2.73    0.60
   2   5 -17    2.66    0.60
   1   5 -17    2.51    0.42
   1   5 -17    2.02    0.56
   0   5 -17    3.00    0.62
  -1   5 -17    3.24    0.65
  -1   5 -17    3.56    0.49
  -2   5 -17    2.47    0.55
  -3   5 -17    0.04    0.49
  -4   5 -17    6.51    0.69
  -5   5 -17    2.11    0.53
  -6   5 -17    1.84    0.57
   8   4 -17    0.55    0.54
   7   4 -17    0.26    0.51
   6   4 -17    0.67    0.52
   5   4 -17    0.01    0.47
   4   4 -17   13.68    1.06
   3   4 -17    0.18    0.47
   2   4 -17    3.45    0.72
   1   4 -17    0.01    0.51
   1   4 -17    0.28    0.29
   0   4 -17    0.61    0.50
  -1   4 -17    0.77    0.46
  -2   4 -17    0.91    0.51
  -3   4 -17    0.00    0.46
  -4   4 -17    0.00    0.40
  -5   4 -17    1.09    0.52
  -6   4 -17    4.14    0.57
   9   3 -17    0.02    0.56
   8   3 -17    7.44    0.93
   7   3 -17    1.60    0.56
   6   3 -17    0.35    0.49
   5   3 -17    2.21    0.67
   4   3 -17    2.68    0.59
   3   3 -17    1.72    0.59
   2   3 -17    0.11    0.45
   1   3 -17    0.01    0.43
   1   3 -17    0.01    0.25
   0   3 -17    0.85    0.51
  -1   3 -17    0.21    0.50
  -2   3 -17    3.99    0.65
  -3   3 -17    0.00    0.41
  -4   3 -17    1.86    0.48
  -5   3 -17    1.86    0.46
  -6   3 -17    0.17    0.43
   9   2 -17    0.01    0.52
   8   2 -17    1.10    0.61
   7   2 -17    0.77    0.54
   6   2 -17    0.66    0.60
   5   2 -17    1.29    0.55
   4   2 -17    3.93    0.72
   3   2 -17    0.19    0.49
   2   2 -17    0.03    0.44
   1   2 -17    0.00    0.45
   0   2 -17    4.02    0.69
  -1   2 -17    0.96    0.51
  -2   2 -17    1.97    0.49
  -3   2 -17    2.24    0.50
  -4   2 -17    0.82    0.43
  -5   2 -17    1.16    0.43
  -6   2 -17    0.13    0.48
   9   1 -17    0.78    0.62
  -9  -1  17    0.72    0.48
   8   1 -17    0.09    0.54
  -8  -1  17    0.17    0.47
   7   1 -17    0.57    0.55
   6   1 -17    0.04    0.55
   5   1 -17    0.01    0.48
   4   1 -17    2.94    0.68
   3   1 -17    0.00    0.43
   2   1 -17    0.04    0.47
   1   1 -17    1.82    0.59
   0   1 -17    0.39    0.45
  -1   1 -17    0.78    0.44
  -2   1 -17    0.36    0.43
  -3   1 -17    1.67    0.47
  -4   1 -17    1.32    0.47
  -5   1 -17    1.17    0.47
   9   0 -17    1.86    0.69
  -9   0  17    1.20    0.58
   8   0 -17    0.35    0.63
  -8   0  17    1.38    0.57
   7   0 -17    0.75    0.57
  -7   0  17    1.69    0.58
   6   0 -17    2.03    0.62
  -6   0  17    1.57    0.57
   5   0 -17    0.07    0.49
   4   0 -17    4.60    0.72
   3   0 -17    3.34    0.66
   2   0 -17    1.67    0.57
   1   0 -17    0.00    0.41
   0   0 -17    4.93    0.72
  -1   0 -17    0.00    0.43
  -2   0 -17    1.70    0.48
  -3   0 -17    0.51    0.47
  -4   0 -17    0.39    0.41
  -5   0 -17    0.36    0.42
   9  -1 -17    0.34    0.59
  -9   1  17    1.49    0.52
   8  -1 -17    2.53    0.78
  -8   1  17    3.02    0.67
   7  -1 -17    1.07    0.64
  -7   1  17    0.20    0.54
   6  -1 -17    2.52    0.78
  -6   1  17    2.78    0.62
   5  -1 -17    0.02    0.46
  -5   1  17    0.02    0.46
   4  -1 -17    1.86    0.64
  -4   1  17    1.94    0.60
   3  -1 -17    0.00    0.47
   2  -1 -17    6.99    0.86
   1  -1 -17    0.01    0.44
   0  -1 -17    0.55    0.47
  -1  -1 -17    0.05    0.39
  -2  -1 -17    0.00    0.43
  -3  -1 -17    3.34    0.61
  -4  -1 -17    4.66    0.62
   9  -2 -17    0.00    0.56
  -9   2  17    0.62    0.56
   8  -2 -17    3.86    0.81
  -8   2  17    4.35    0.66
   7  -2 -17    0.22    0.53
  -7   2  17    0.43    0.47
   6  -2 -17    1.07    0.63
  -6   2  17    2.02    0.52
   5  -2 -17    3.97    0.82
  -5   2  17    3.51    0.63
   4  -2 -17    0.25    0.54
  -4   2  17    0.51    0.46
   3  -2 -17    0.23    0.52
  -3   2  17    0.01    0.41
   2  -2 -17    0.79    0.57
   1  -2 -17    0.30    0.46
   0  -2 -17    5.25    0.69
  -1  -2 -17    2.39    0.57
  -2  -2 -17    2.22    0.52
  -3  -2 -17    0.00    0.39
  -4  -2 -17    1.67    0.54
   9  -3 -17    1.62    0.74
  -9   3  17    1.88    0.58
   8  -3 -17    0.82    0.60
  -8   3  17    1.41    0.59
   7  -3 -17    0.05    0.62
  -7   3  17    0.64    0.57
   6  -3 -17    0.00    0.57
  -6   3  17    0.36    0.47
   5  -3 -17    0.00    0.51
  -5   3  17    0.88    0.48
   4  -3 -17   11.24    1.08
  -4   3  17    8.44    0.86
   3  -3 -17    0.02    0.49
  -3   3  17    0.02    0.40
   2  -3 -17    0.37    0.50
  -2   3  17    0.00    0.39
   1  -3 -17    1.59    0.58
   0  -3 -17    0.02    0.44
  -1  -3 -17    1.58    0.48
  -2  -3 -17    2.81    0.60
  -3  -3 -17    0.35    0.43
   9  -4 -17    0.16    0.60
   8  -4 -17    0.01    0.49
  -8   4  17    0.14    0.49
   7  -4 -17    1.25    0.62
  -7   4  17    0.53    0.50
   6  -4 -17    2.10    0.74
  -6   4  17    1.94    0.57
   5  -4 -17    0.77    0.66
  -5   4  17    0.68    0.49
   4  -4 -17    2.85    0.65
  -4   4  17    3.23    0.57
   3  -4 -17    1.97    0.68
  -3   4  17    1.51    0.50
   2  -4 -17    1.15    0.59
  -2   4  17    1.36    0.51
   1  -4 -17    0.60    0.48
   0  -4 -17    0.51    0.51
  -1  -4 -17    0.39    0.42
  -2  -4 -17    4.24    0.67
   8  -5 -17    0.02    0.56
  -8   5  17    0.02    0.50
   7  -5 -17    0.05    0.59
  -7   5  17    1.28    0.58
   6  -5 -17    0.01    0.57
  -6   5  17    0.27    0.50
   5  -5 -17    2.39    0.76
  -5   5  17    2.22    0.56
   4  -5 -17    1.20    0.63
  -4   5  17    1.23    0.55
   3  -5 -17    1.21    0.64
  -3   5  17    0.31    0.43
   2  -5 -17    3.98    0.75
  -2   5  17    3.50    0.63
   1  -5 -17    0.01    0.43
  -1   5  17    0.01    0.44
   0  -5 -17    0.32    0.49
  -1  -5 -17    0.15    0.42
   6  -6 -17    3.10    0.71
  -6   6  17    2.93    0.63
   5  -6 -17    0.00    0.49
  -5   6  17    0.55    0.49
   4  -6 -17    0.98    0.66
  -4   6  17    1.41    0.49
   3  -6 -17    0.05    0.54
  -3   6  17    0.03    0.41
   2  -6 -17    0.71    0.54
  -2   6  17    1.39    0.47
   1  -6 -17    0.03    0.51
  -1   6  17    0.40    0.47
   0   9 -18    0.82    0.58
  -1   9 -18    0.37    0.60
   3   8 -18    0.94    0.58
   2   8 -18    1.26    0.56
   1   8 -18    1.25    0.60
   0   8 -18    0.86    0.52
   0   8 -18    0.04    0.36
  -1   8 -18    0.00    0.37
  -1   8 -18    0.32    0.51
  -2   8 -18    5.70    0.67
  -2   8 -18    4.97    0.75
  -3   8 -18    0.10    0.57
   4   7 -18    0.48    0.50
   3   7 -18    0.00    0.47
   2   7 -18    0.09    0.48
   1   7 -18    0.03    0.49
   0   7 -18    0.04    0.50
   0   7 -18    0.18    0.31
  -1   7 -18    4.96    0.74
  -1   7 -18    5.23    0.61
  -2   7 -18    0.00    0.54
  -2   7 -18    0.00    0.41
  -3   7 -18    0.12    0.47
  -3   7 -18    0.34    0.37
  -4   7 -18    2.09    0.67
   5   6 -18    0.25    0.56
   4   6 -18    0.70    0.50
   3   6 -18    0.01    0.46
   2   6 -18    0.47    0.50
   1   6 -18    2.60    0.63
   0   6 -18    0.47    0.51
   0   6 -18    0.00    0.14
  -1   6 -18    0.32    0.37
  -1   6 -18    0.50    0.53
  -2   6 -18    0.00    0.46
  -2   6 -18    0.10    0.38
  -3   6 -18    0.58    0.50
  -3   6 -18    0.69    0.44
  -4   6 -18    6.33    0.75
   6   5 -18    0.23    0.51
   5   5 -18    0.00    0.53
   4   5 -18    1.14    0.57
   3   5 -18    0.02    0.47
   2   5 -18    3.87    0.71
   1   5 -18    0.64    0.50
   0   5 -18    1.78    0.61
   0   5 -18    1.04    0.20
  -1   5 -18    0.93    0.40
  -1   5 -18    0.00    0.53
  -2   5 -18    0.04    0.48
  -2   5 -18    0.21    0.39
  -3   5 -18    0.22    0.47
  -4   5 -18    0.75    0.48
   7   4 -18    2.45    0.70
   6   4 -18    0.88    0.64
   5   4 -18    0.06    0.47
   4   4 -18    0.91    0.51
   3   4 -18    1.07    0.53
   2   4 -18    4.16    0.72
   1   4 -18    0.07    0.50
   0   4 -18    0.00    0.47
   0   4 -18    0.23    0.25
  -1   4 -18    0.01    0.49
  -2   4 -18    0.64    0.51
  -3   4 -18    0.89    0.52
  -4   4 -18    4.64    0.64
   7   3 -18    0.78    0.60
   6   3 -18    0.87    0.55
   5   3 -18    0.71    0.52
   4   3 -18    0.44    0.54
   3   3 -18    0.52    0.59
   2   3 -18    0.00    0.45
   1   3 -18    0.79    0.51
   0   3 -18    0.08    0.48
  -1   3 -18    2.70    0.58
  -2   3 -18    2.58    0.64
  -3   3 -18    0.02    0.43
  -4   3 -18    4.04    0.68
   7   2 -18    0.79    0.60
   6   2 -18    0.30    0.51
   5   2 -18    0.00    0.48
   4   2 -18    6.40    0.78
   3   2 -18    0.12    0.48
   2   2 -18    1.06    0.62
   1   2 -18    0.10    0.49
   0   2 -18    1.88    0.58
  -1   2 -18    0.70    0.49
  -2   2 -18    0.38    0.50
  -3   2 -18    0.41    0.42
  -4   2 -18    0.06    0.39
   8   1 -18    0.35    0.56
   7   1 -18    0.01    0.57
   6   1 -18    0.02    0.49
   5   1 -18    1.49    0.57
   4   1 -18    0.61    0.56
   3   1 -18    0.03    0.50
   2   1 -18    0.50    0.51
   1   1 -18    0.18    0.50
   0   1 -18    0.02    0.45
  -1   1 -18    0.09    0.46
  -2   1 -18    0.00    0.40
  -3   1 -18    0.26    0.41
  -4   1 -18    0.00    0.41
   8   0 -18    0.95    0.59
  -8   0  18    0.66    0.54
   7   0 -18    0.03    0.51
  -7   0  18    0.03    0.45
   6   0 -18    0.08    0.51
   5   0 -18    0.59    0.57
   4   0 -18    0.76    0.62
   3   0 -18    0.36    0.53
   2   0 -18    6.20    0.86
   1   0 -18    0.63    0.57
   0   0 -18    0.01    0.51
  -1   0 -18    0.55    0.44
  -2   0 -18    0.54    0.48
  -3   0 -18    0.51    0.49
   8  -1 -18    3.40    0.84
   7  -1 -18    1.82    0.65
  -7   1  18    2.37    0.61
   6  -1 -18    3.01    0.79
  -6   1  18    2.64    0.67
   5  -1 -18    0.33    0.59
  -5   1  18    0.20    0.45
   4  -1 -18    0.00    0.56
   3  -1 -18    0.09    0.56
   2  -1 -18    1.11    0.56
   1  -1 -18    0.71    0.51
   0  -1 -18    0.01    0.47
  -1  -1 -18    0.01    0.47
  -2  -1 -18    0.99    0.52
   7  -2 -18    0.00    0.52
  -7   2  18    0.12    0.48
   6  -2 -18    3.99    0.79
  -6   2  18    3.65    0.69
   5  -2 -18    0.42    0.65
  -5   2  18    0.03    0.45
   4  -2 -18    1.60    0.65
  -4   2  18    1.42    0.55
   3  -2 -18    0.10    0.57
   2  -2 -18    0.70    0.52
   1  -2 -18    0.01    0.54
   0  -2 -18    0.60    0.57
  -1  -2 -18    0.28    0.45
   7  -3 -18    0.03    0.60
  -7   3  18    0.03    0.45
   6  -3 -18    0.52    0.59
  -6   3  18    1.22    0.58
   5  -3 -18    1.15    0.61
  -5   3  18    1.68    0.57
   4  -3 -18    3.88    0.77
  -4   3  18    2.86    0.61
   3  -3 -18    0.07    0.49
  -3   3  18    0.06    0.51
   2  -3 -18    4.49    0.75
   1  -3 -18    1.20    0.54
   0  -3 -18    0.51    0.49
   6  -4 -18    0.73    0.61
   5  -4 -18    1.88    0.76
  -5   4  18    2.14    0.59
   4  -4 -18    0.17    0.63
  -4   4  18    0.44    0.52
   3  -4 -18    0.14    0.61
  -3   4  18    0.43    0.52
   2  -4 -18    3.07    0.72
   1  -4 -18    0.07    0.50
   1   6 -19    0.00    0.50
   0   6 -19    0.01    0.51
   3   5 -19    0.06    0.56
   2   5 -19    2.42    0.64
   1   5 -19    0.02    0.51
   0   5 -19    0.23    0.53
  -1   5 -19    1.36    0.64
   4   4 -19    0.00    0.49
   3   4 -19    0.10    0.50
   2   4 -19    0.24    0.59
   1   4 -19    1.72    0.66
   0   4 -19    0.07    0.58
  -1   4 -19    0.08    0.36
  -1   4 -19    0.15    0.52
   4   3 -19    0.75    0.58
   3   3 -19    0.05    0.57
   2   3 -19    0.50    0.55
   1   3 -19    0.00    0.50
   0   3 -19    1.90    0.61
  -1   3 -19    0.15    0.51
   5   2 -19    0.07    0.57
   4   2 -19    0.80    0.55
   3   2 -19    0.90    0.63
   2   2 -19    7.21    0.89
   1   2 -19    0.01    0.50
   0   2 -19    0.82    0.53
  -1   2 -19    0.00    0.47
   5   1 -19    0.21    0.53
   4   1 -19    0.48    0.57
   3   1 -19    0.27    0.52
   2   1 -19    0.60    0.61
   1   1 -19    0.83    0.60
   0   1 -19    0.08    0.51
  -1   1 -19    0.04    0.49
   5   0 -19    0.64    0.64
   4   0 -19    0.43    0.56
   3   0 -19    0.77    0.55
   2   0 -19    0.01    0.51
   1   0 -19    0.00    0.50
   0   0 -19    0.01    0.49
   4  -1 -19    0.05    0.59
   3  -1 -19    0.06    0.55
   2  -1 -19    0.01    0.49
   1  -1 -19    0.14    0.50
   0   0   0    0.00    0.00
;
_shelx_hkl_checksum              38616
_platon_squeeze_void_probe_radius 1.20
loop_
_space_group_symop_operation_xyz
'x, y, z'
'-x, -y, -z'
loop_
_atom_site_label
_atom_site_type_symbol
_atom_site_fract_x
_atom_site_fract_y
_atom_site_fract_z
_atom_site_U_iso_or_equiv
_atom_site_adp_type
_atom_site_occupancy
_atom_site_site_symmetry_order
_atom_site_calc_flag
_atom_site_refinement_flags_posn
_atom_site_refinement_flags_adp
_atom_site_refinement_flags_occupancy
_atom_site_disorder_assembly
_atom_site_disorder_group
Zn1 Zn 0.78800(3) 0.61645(3) 0.09559(3) 0.03485(13) Uani 1 1 d . . . . .
Zn2 Zn 1.02038(4) 0.66013(4) 0.22102(3) 0.05421(16) Uani 1 1 d . . . . .
Zn3 Zn 0.60319(4) 0.60899(4) 0.23515(3) 0.05024(15) Uani 1 1 d . . . . .
Zn4 Zn 0.80837(4) 0.79869(3) -0.03460(3) 0.04783(15) Uani 1 1 d . . . . .
Zn5 Zn 0.72272(4) 0.39611(3) -0.03625(3) 0.04558(15) Uani 1 1 d . . . . .
O1 O 1.1557(2) 0.6694(2) 0.2554(2) 0.0724(11) Uani 1 1 d . . . . .
O2 O 1.1291(3) 0.7819(3) 0.3341(3) 0.0908(12) Uani 1 1 d . U . . .
O3 O 1.6000(3) 0.7157(3) 0.3692(2) 0.0752(10) Uani 1 1 d . U . . .
O4 O 1.4868(2) 0.6435(2) 0.26291(19) 0.0581(8) Uani 1 1 d . . . . .
O5 O 1.7952(3) 0.9305(2) 0.9597(2) 0.0651(9) Uani 1 1 d . . . . .
O6 O 1.6980(3) 0.8187(2) 0.8641(2) 0.0676(10) Uani 1 1 d . . . . .
O7 O 1.7372(3) 1.2389(3) 0.9950(3) 0.0833(11) Uani 1 1 d . U . . .
O8 O 1.6698(2) 1.28022(19) 0.88674(18) 0.0559(8) Uani 1 1 d . . . . .
O9 O 0.5648(4) 0.4940(3) 0.3086(3) 0.1043(14) Uani 1 1 d . U . . .
O10 O 0.9163(4) 0.8326(4) -0.1203(3) 0.1002(14) Uani 1 1 d . U . . .
N1 N 0.9021(3) 0.6479(3) 0.2794(2) 0.0510(9) Uani 1 1 d . . . . .
N2 N 0.8158(2) 0.6330(2) 0.2318(2) 0.0402(8) Uani 1 1 d . . . . .
N3 N 0.7472(3) 0.6305(2) 0.2810(2) 0.0488(9) Uani 1 1 d . . . . .
N4 N 1.0034(3) 0.7521(3) 0.1472(2) 0.0505(9) Uani 1 1 d . . . . .
N5 N 0.9193(2) 0.7358(2) 0.0966(2) 0.0423(8) Uani 1 1 d . . . . .
N6 N 0.9260(3) 0.8058(2) 0.0546(2) 0.0487(9) Uani 1 1 d . . . . .
N7 N 0.9659(2) 0.5406(2) 0.1336(2) 0.0464(9) Uani 1 1 d . . . . .
N8 N 0.8789(2) 0.5242(2) 0.0889(2) 0.0407(8) Uani 1 1 d . . . . .
N9 N 0.8549(2) 0.4426(2) 0.0387(2) 0.0422(8) Uani 1 1 d . . . . .
N10 N 0.6405(3) 0.7114(2) 0.1544(2) 0.0482(9) Uani 1 1 d . . . . .
N11 N 0.7038(2) 0.7087(2) 0.1016(2) 0.0425(8) Uani 1 1 d . . . . .
N12 N 0.7115(3) 0.7774(2) 0.0574(2) 0.0448(8) Uani 1 1 d . . . . .
N13 N 0.5815(3) 0.5039(2) 0.1348(2) 0.0492(9) Uani 1 1 d . . . . .
N14 N 0.6543(2) 0.5002(2) 0.0933(2) 0.0405(8) Uani 1 1 d . . . . .
N15 N 0.6284(3) 0.4213(2) 0.0389(2) 0.0510(9) Uani 1 1 d . . . . .
N16 N 0.7710(3) 0.6595(2) -0.0868(2) 0.0424(8) Uani 1 1 d . . . . .
N17 N 0.7647(2) 0.5923(2) -0.04151(19) 0.0383(8) Uani 1 1 d . . . . .
N18 N 0.7382(3) 0.5103(2) -0.0925(2) 0.0445(8) Uani 1 1 d . . . . .
N19 N 1.5144(2) 0.9106(2) 0.6160(2) 0.0413(8) Uani 1 1 d . . . . .
N20 N 1.4007(3) 0.9720(3) 0.5834(2) 0.0600(11) Uani 1 1 d . . . . .
H20' H 1.352468 0.982565 0.555186 0.072 Uiso 1 1 calc R U . . .
N21 N 1.4461(3) 1.0194(3) 0.6605(2) 0.0629(11) Uani 1 1 d . . . . .
C1 C 0.8870(4) 0.6552(4) 0.3591(3) 0.0716(15) Uani 1 1 d . . . . .
H1 H 0.934610 0.665704 0.405376 0.086 Uiso 1 1 calc R U . . .
C2 C 0.7911(4) 0.6447(4) 0.3609(3) 0.0675(14) Uani 1 1 d . . . . .
H2 H 0.760759 0.646904 0.408334 0.081 Uiso 1 1 calc R U . . .
C3 C 1.0636(4) 0.8336(4) 0.1358(3) 0.0676(14) Uani 1 1 d . . . . .
H3 H 1.127154 0.862502 0.163430 0.081 Uiso 1 1 calc R U . . .
C4 C 1.0164(4) 0.8662(3) 0.0777(3) 0.0662(14) Uani 1 1 d . . . . .
H4 H 1.041757 0.920969 0.057148 0.079 Uiso 1 1 calc R U . . .
C5 C 0.9973(4) 0.4679(4) 0.1107(3) 0.0602(13) Uani 1 1 d . . . . .
H5 H 1.056523 0.460778 0.132163 0.072 Uiso 1 1 calc R U . . .
C6 C 0.9292(3) 0.4070(3) 0.0516(3) 0.0546(12) Uani 1 1 d . . . . .
H6 H 0.932726 0.350592 0.024549 0.066 Uiso 1 1 calc R U . . .
C7 C 0.6066(4) 0.7828(4) 0.1423(3) 0.0678(15) Uani 1 1 d . . . . .
H7 H 0.559481 0.800312 0.169474 0.081 Uiso 1 1 calc R U . . .
C8 C 0.6536(4) 0.8247(3) 0.0834(3) 0.0615(13) Uani 1 1 d . . . . .
H8 H 0.646156 0.877574 0.064624 0.074 Uiso 1 1 calc R U . . .
C9 C 0.5073(4) 0.4267(4) 0.1067(4) 0.0772(17) Uani 1 1 d . . . . .
H9 H 0.446587 0.411056 0.125158 0.093 Uiso 1 1 calc R U . . .
C10 C 0.5362(4) 0.3744(4) 0.0460(4) 0.0783(17) Uani 1 1 d . . . . .
H10 H 0.498859 0.316828 0.015306 0.094 Uiso 1 1 calc R U . . .
C11 C 0.7487(4) 0.6201(3) -0.1669(3) 0.0573(12) Uani 1 1 d . . . . .
H11 H 0.748085 0.651015 -0.212304 0.069 Uiso 1 1 calc R U . . .
C12 C 0.7268(4) 0.5267(3) -0.1705(3) 0.0573(12) Uani 1 1 d . . . . .
H12 H 0.707400 0.482082 -0.218751 0.069 Uiso 1 1 calc R U . . .
C13 C 1.4409(3) 0.9071(3) 0.5578(3) 0.0409(10) Uani 1 1 d . . . . .
C14 C 1.5136(3) 0.9789(3) 0.6766(2) 0.0419(10) Uani 1 1 d . . . . .
C15 C 1.4097(3) 0.8445(3) 0.4767(2) 0.0380(9) Uani 1 1 d . . . . .
C16 C 1.3157(3) 0.8246(3) 0.4340(3) 0.0422(10) Uani 1 1 d . . . . .
H16 H 1.272013 0.852550 0.455835 0.051 Uiso 1 1 calc R U . . .
C17 C 1.2866(3) 0.7634(3) 0.3589(3) 0.0426(10) Uani 1 1 d . . . . .
C18 C 1.3525(3) 0.7232(3) 0.3263(2) 0.0402(9) Uani 1 1 d . . . . .
H18 H 1.333558 0.682713 0.275494 0.048 Uiso 1 1 calc R U . . .
C19 C 1.4463(3) 0.7427(3) 0.3686(2) 0.0354(9) Uani 1 1 d . . . . .
C20 C 1.4746(3) 0.8039(3) 0.4436(2) 0.0406(9) Uani 1 1 d . . . . .
H20 H 1.537890 0.817691 0.471977 0.049 Uiso 1 1 calc R U . . .
C21 C 1.1846(3) 0.7379(3) 0.3135(3) 0.0550(12) Uani 1 1 d . . . . .
C22 C 1.5167(3) 0.6986(3) 0.3317(3) 0.0482(11) Uani 1 1 d . . . . .
C23 C 1.5810(3) 1.0074(3) 0.7562(2) 0.0409(10) Uani 1 1 d . . . . .
C24 C 1.6214(3) 0.9442(3) 0.7891(3) 0.0436(10) Uani 1 1 d . . . . .
H24 H 1.605457 0.883752 0.760194 0.052 Uiso 1 1 calc R U . . .
C25 C 1.6844(3) 0.9699(3) 0.8634(2) 0.0412(10) Uani 1 1 d . . . . .
C26 C 1.7063(3) 1.0593(3) 0.9066(3) 0.0453(10) Uani 1 1 d . . . . .
H26 H 1.748412 1.076849 0.957080 0.054 Uiso 1 1 calc R U . . .
C27 C 1.6666(3) 1.1233(3) 0.8761(2) 0.0405(10) Uani 1 1 d . . . . .
C28 C 1.6044(3) 1.0970(3) 0.8012(2) 0.0401(10) Uani 1 1 d . . . . .
H28 H 1.577682 1.139749 0.780470 0.048 Uiso 1 1 calc R U . . .
C29 C 1.7281(4) 0.9014(3) 0.8971(3) 0.0513(11) Uani 1 1 d . . . . .
C30 C 1.6933(3) 1.2195(3) 0.9220(3) 0.0496(11) Uani 1 1 d . . . . .
C31 C 0.5188(8) 0.4645(7) 0.3471(6) 0.144(3) Uani 1 1 d . U . . .
C32 C 0.9899(14) 0.8713(13) -0.1255(11) 0.120(5) Uani 0.5 1 d . U P A 1
C32' C 0.9615(11) 0.8001(11) -0.1394(9) 0.096(4) Uani 0.5 1 d . U P A 2
loop_
_atom_site_aniso_label
_atom_site_aniso_U_11
_atom_site_aniso_U_22
_atom_site_aniso_U_33
_atom_site_aniso_U_23
_atom_site_aniso_U_13
_atom_site_aniso_U_12
Zn1 0.0302(2) 0.0338(2) 0.0401(3) -0.00014(18) -0.0011(2) 0.01412(19)
Zn2 0.0318(3) 0.0724(4) 0.0536(3) -0.0058(3) -0.0093(2) 0.0213(3)
Zn3 0.0409(3) 0.0623(3) 0.0532(3) 0.0056(2) 0.0123(2) 0.0247(2)
Zn4 0.0532(3) 0.0375(3) 0.0525(3) 0.0086(2) -0.0033(3) 0.0168(2)
Zn5 0.0495(3) 0.0320(3) 0.0504(3) -0.0070(2) -0.0027(2) 0.0147(2)
O1 0.0428(19) 0.084(2) 0.074(2) -0.0260(19) -0.0291(17) 0.0249(17)
O2 0.0866(15) 0.0932(14) 0.0933(15) 0.0072(9) 0.0088(10) 0.0342(10)
O3 0.0694(13) 0.0781(13) 0.0791(13) 0.0031(9) 0.0113(9) 0.0288(9)
O4 0.0517(19) 0.080(2) 0.0474(19) -0.0036(16) 0.0131(16) 0.0328(17)
O5 0.079(3) 0.059(2) 0.059(2) 0.0175(16) -0.0123(19) 0.0279(18)
O6 0.092(3) 0.0411(19) 0.073(2) 0.0091(16) -0.009(2) 0.0327(18)
O7 0.0877(14) 0.0787(13) 0.0811(14) 0.0104(9) 0.0044(9) 0.0264(9)
O8 0.081(2) 0.0330(16) 0.0490(18) -0.0039(13) -0.0081(17) 0.0213(16)
O9 0.1058(17) 0.1039(17) 0.1060(17) 0.0209(10) 0.0222(10) 0.0333(10)
O10 0.0985(16) 0.1029(16) 0.1004(16) 0.0203(10) 0.0169(10) 0.0308(10)
N1 0.047(2) 0.059(2) 0.048(2) 0.0011(17) -0.0073(18) 0.0260(19)
N2 0.0335(19) 0.046(2) 0.043(2) 0.0025(15) -0.0003(16) 0.0193(15)
N3 0.046(2) 0.061(2) 0.043(2) 0.0060(17) 0.0087(18) 0.0227(18)
N4 0.034(2) 0.056(2) 0.056(2) -0.0010(18) -0.0065(18) 0.0137(17)
N5 0.0328(19) 0.044(2) 0.047(2) 0.0020(16) -0.0064(16) 0.0133(15)
N6 0.046(2) 0.039(2) 0.056(2) 0.0021(17) -0.0018(18) 0.0116(17)
N7 0.036(2) 0.054(2) 0.051(2) 0.0042(17) -0.0055(17) 0.0230(17)
N8 0.0344(19) 0.0396(19) 0.047(2) 0.0023(15) -0.0022(16) 0.0151(15)
N9 0.042(2) 0.0378(19) 0.048(2) 0.0003(15) 0.0006(16) 0.0202(16)
N10 0.045(2) 0.060(2) 0.048(2) 0.0022(17) 0.0067(18) 0.0315(18)
N11 0.039(2) 0.043(2) 0.048(2) 0.0038(16) -0.0011(17) 0.0198(16)
N12 0.042(2) 0.040(2) 0.053(2) 0.0028(16) 0.0004(17) 0.0183(16)
N13 0.034(2) 0.053(2) 0.057(2) -0.0025(17) 0.0077(18) 0.0130(17)
N14 0.0340(19) 0.0369(19) 0.048(2) -0.0003(15) 0.0072(16) 0.0096(15)
N15 0.040(2) 0.038(2) 0.065(3) -0.0055(17) 0.0022(19) 0.0054(16)
N16 0.047(2) 0.0372(19) 0.043(2) 0.0049(15) -0.0006(17) 0.0169(16)
N17 0.0393(19) 0.0354(18) 0.0372(19) 0.0006(14) -0.0009(15) 0.0119(15)
N18 0.048(2) 0.0350(19) 0.047(2) -0.0034(15) -0.0015(17) 0.0157(16)
N19 0.047(2) 0.0412(19) 0.0349(19) -0.0074(14) -0.0075(16) 0.0229(16)
N20 0.061(3) 0.061(2) 0.056(2) -0.0154(19) -0.023(2) 0.036(2)
N21 0.078(3) 0.065(3) 0.049(2) -0.0141(19) -0.016(2) 0.046(2)
C1 0.067(4) 0.108(4) 0.041(3) 0.002(3) -0.011(3) 0.040(3)
C2 0.071(4) 0.104(4) 0.033(3) 0.002(2) 0.002(2) 0.041(3)
C3 0.037(3) 0.071(4) 0.077(4) 0.006(3) -0.005(3) -0.004(3)
C4 0.054(3) 0.054(3) 0.080(4) 0.016(3) 0.008(3) -0.002(2)
C5 0.044(3) 0.074(3) 0.074(4) 0.017(3) 0.006(3) 0.036(3)
C6 0.053(3) 0.050(3) 0.068(3) 0.001(2) 0.005(3) 0.031(2)
C7 0.073(4) 0.083(4) 0.074(4) 0.016(3) 0.020(3) 0.059(3)
C8 0.080(4) 0.054(3) 0.066(3) 0.010(2) 0.009(3) 0.045(3)
C9 0.040(3) 0.088(4) 0.091(4) -0.006(3) 0.018(3) 0.006(3)
C10 0.049(3) 0.065(3) 0.092(4) -0.021(3) 0.010(3) -0.012(3)
C11 0.069(3) 0.060(3) 0.039(3) 0.006(2) -0.010(2) 0.021(3)
C12 0.072(3) 0.054(3) 0.043(3) -0.005(2) -0.008(2) 0.026(2)
C13 0.042(2) 0.037(2) 0.044(2) -0.0023(17) -0.001(2) 0.0180(19)
C14 0.049(3) 0.037(2) 0.038(2) -0.0012(17) -0.0049(19) 0.0171(19)
C15 0.035(2) 0.041(2) 0.038(2) 0.0049(17) 0.0020(18) 0.0127(18)
C16 0.036(2) 0.050(2) 0.041(2) -0.0019(18) 0.0012(19) 0.0209(19)
C17 0.036(2) 0.049(2) 0.041(2) 0.0052(19) -0.0024(19) 0.0155(19)
C18 0.040(2) 0.042(2) 0.036(2) -0.0020(17) -0.0027(19) 0.0155(19)
C19 0.032(2) 0.038(2) 0.036(2) 0.0062(17) 0.0024(18) 0.0113(17)
C20 0.033(2) 0.044(2) 0.042(2) 0.0018(18) -0.0033(19) 0.0120(18)
C21 0.040(3) 0.071(3) 0.057(3) -0.002(2) -0.010(2) 0.034(2)
C22 0.033(2) 0.056(3) 0.056(3) 0.000(2) 0.003(2) 0.020(2)
C23 0.050(3) 0.036(2) 0.034(2) -0.0018(17) -0.0025(19) 0.0172(19)
C24 0.059(3) 0.029(2) 0.041(2) -0.0034(17) 0.000(2) 0.0178(19)
C25 0.055(3) 0.034(2) 0.038(2) 0.0083(17) 0.003(2) 0.0183(19)
C26 0.051(3) 0.042(2) 0.039(2) 0.0018(18) -0.002(2) 0.014(2)
C27 0.051(3) 0.032(2) 0.036(2) 0.0009(16) -0.002(2) 0.0147(19)
C28 0.050(3) 0.034(2) 0.039(2) 0.0021(17) 0.001(2) 0.0203(19)
C29 0.061(3) 0.051(3) 0.051(3) 0.020(2) 0.008(2) 0.027(2)
C30 0.059(3) 0.047(3) 0.035(2) -0.0050(19) -0.012(2) 0.016(2)
C31 0.144(3) 0.144(3) 0.144(3) 0.0258(11) 0.0228(11) 0.0445(14)
C32 0.119(5) 0.120(5) 0.120(5) 0.0206(13) 0.0176(13) 0.0361(19)
C32' 0.096(4) 0.095(4) 0.096(4) 0.0157(12) 0.0143(12) 0.0304(16)
loop_
_atom_type_symbol
_atom_type_description
_atom_type_scat_dispersion_real
_atom_type_scat_dispersion_imag
_atom_type_scat_source
C C 0.0033 0.0016 'International Tables Vol C Tables 4.2.6.8 and 6.1.1.4'
H H 0.0000 0.0000 'International Tables Vol C Tables 4.2.6.8 and 6.1.1.4'
N N 0.0061 0.0033 'International Tables Vol C Tables 4.2.6.8 and 6.1.1.4'
O O 0.0106 0.0060 'International Tables Vol C Tables 4.2.6.8 and 6.1.1.4'
Zn Zn 0.2839 1.4301 'International Tables Vol C Tables 4.2.6.8 and 6.1.1.4'
loop_
_geom_angle_atom_site_label_1
_geom_angle_atom_site_label_2
_geom_angle_atom_site_label_3
_geom_angle
_geom_angle_site_symmetry_1
_geom_angle_site_symmetry_3
_geom_angle_publ_flag
N11 Zn1 N8 178.33(13) . . ?
N11 Zn1 N2 91.58(13) . . ?
N8 Zn1 N2 88.63(12) . . ?
N11 Zn1 N17 92.24(13) . . ?
N8 Zn1 N17 87.56(12) . . ?
N2 Zn1 N17 176.14(11) . . ?
N11 Zn1 N14 89.40(13) . . ?
N8 Zn1 N14 92.26(12) . . ?
N2 Zn1 N14 89.88(13) . . ?
N17 Zn1 N14 89.64(13) . . ?
N11 Zn1 N5 88.88(13) . . ?
N8 Zn1 N5 89.47(12) . . ?
N2 Zn1 N5 90.77(13) . . ?
N17 Zn1 N5 89.83(13) . . ?
N14 Zn1 N5 178.17(12) . . ?
O1 Zn2 N1 134.76(16) . . ?
O1 Zn2 N4 113.68(16) . . ?
N1 Zn2 N4 100.06(15) . . ?
O1 Zn2 N7 105.09(14) . . ?
N1 Zn2 N7 98.43(15) . . ?
N4 Zn2 N7 98.46(14) . . ?
O1 Zn2 O2 56.96(13) . . ?
N1 Zn2 O2 93.09(14) . . ?
N4 Zn2 O2 93.68(14) . . ?
N7 Zn2 O2 161.51(13) . . ?
O1 Zn2 C21 28.62(13) . . ?
N1 Zn2 C21 115.25(15) . . ?
N4 Zn2 C21 105.58(16) . . ?
N7 Zn2 C21 133.53(14) . . ?
O2 Zn2 C21 28.35(13) . . ?
O4 Zn3 N3 141.48(14) 1_455 . ?
O4 Zn3 N13 117.05(14) 1_455 . ?
N3 Zn3 N13 100.93(14) . . ?
O4 Zn3 N10 93.42(13) 1_455 . ?
N3 Zn3 N10 92.71(14) . . ?
N13 Zn3 N10 90.13(14) . . ?
O4 Zn3 O9 89.55(17) 1_455 . ?
N3 Zn3 O9 87.58(17) . . ?
N13 Zn3 O9 84.76(17) . . ?
N10 Zn3 O9 174.84(15) . . ?
O4 Zn3 C22 28.13(13) 1_455 1_455 ?
N3 Zn3 C22 113.35(14) . 1_455 ?
N13 Zn3 C22 144.69(14) . 1_455 ?
N10 Zn3 C22 96.24(14) . 1_455 ?
O9 Zn3 C22 88.36(16) . 1_455 ?
N16 Zn4 N6 98.98(14) . . ?
N16 Zn4 O5 149.18(13) . 1_454 ?
N6 Zn4 O5 111.05(14) . 1_454 ?
N16 Zn4 N12 95.23(13) . . ?
N6 Zn4 N12 90.21(14) . . ?
O5 Zn4 N12 91.53(14) 1_454 . ?
N16 Zn4 O10 89.73(17) . . ?
N6 Zn4 O10 86.49(17) . . ?
O5 Zn4 O10 85.47(17) 1_454 . ?
N12 Zn4 O10 174.42(16) . . ?
N16 Zn4 O6 89.64(13) . 1_454 ?
N6 Zn4 O6 168.85(13) . 1_454 ?
O5 Zn4 O6 59.72(12) 1_454 1_454 ?
N12 Zn4 O6 96.06(13) . 1_454 ?
O10 Zn4 O6 86.49(17) . 1_454 ?
N16 Zn4 C29 119.00(15) . 1_454 ?
N6 Zn4 C29 141.10(15) . 1_454 ?
O5 Zn4 C29 30.32(14) 1_454 1_454 ?
N12 Zn4 C29 94.13(14) . 1_454 ?
O10 Zn4 C29 85.65(17) . 1_454 ?
O6 Zn4 C29 29.40(13) 1_454 1_454 ?
O8 Zn5 N15 113.26(14) 1_444 . ?
O8 Zn5 N9 127.09(13) 1_444 . ?
N15 Zn5 N9 104.10(14) . . ?
O8 Zn5 N18 113.34(13) 1_444 . ?
N15 Zn5 N18 96.91(14) . . ?
N9 Zn5 N18 97.14(14) . . ?
O8 Zn5 C30 27.83(13) 1_444 1_444 ?
N15 Zn5 C30 111.27(15) . 1_444 ?
N9 Zn5 C30 104.19(14) . 1_444 ?
N18 Zn5 C30 138.65(14) . 1_444 ?
C21 O1 Zn2 103.8(3) . . ?
C21 O2 Zn2 78.8(3) . . ?
C22 O4 Zn3 104.3(3) . 1_655 ?
C29 O5 Zn4 93.5(3) . 1_656 ?
C29 O6 Zn4 85.2(3) . 1_656 ?
C30 O8 Zn5 106.5(3) . 1_666 ?
C31 O9 Zn3 144.6(7) . . ?
C32' O10 Zn4 130.5(10) . . ?
C32 O10 Zn4 145.1(11) . . ?
C1 N1 N2 107.6(4) . . ?
C1 N1 Zn2 135.0(3) . . ?
N2 N1 Zn2 117.3(3) . . ?
N3 N2 N1 108.8(3) . . ?
N3 N2 Zn1 124.3(3) . . ?
N1 N2 Zn1 126.9(3) . . ?
N2 N3 C2 107.8(4) . . ?
N2 N3 Zn3 122.6(3) . . ?
C2 N3 Zn3 129.6(3) . . ?
N5 N4 C3 107.1(4) . . ?
N5 N4 Zn2 120.5(3) . . ?
C3 N4 Zn2 132.4(3) . . ?
N6 N5 N4 109.3(3) . . ?
N6 N5 Zn1 127.1(3) . . ?
N4 N5 Zn1 123.3(3) . . ?
N5 N6 C4 107.6(4) . . ?
N5 N6 Zn4 118.9(3) . . ?
C4 N6 Zn4 133.3(4) . . ?
N8 N7 C5 107.1(4) . . ?
N8 N7 Zn2 118.5(2) . . ?
C5 N7 Zn2 134.4(3) . . ?
N7 N8 N9 109.5(3) . . ?
N7 N8 Zn1 125.7(2) . . ?
N9 N8 Zn1 124.9(2) . . ?
N8 N9 C6 107.6(3) . . ?
N8 N9 Zn5 118.8(2) . . ?
C6 N9 Zn5 133.5(3) . . ?
N11 N10 C7 106.8(4) . . ?
N11 N10 Zn3 121.6(3) . . ?
C7 N10 Zn3 131.5(3) . . ?
N10 N11 N12 109.8(3) . . ?
N10 N11 Zn1 124.8(3) . . ?
N12 N11 Zn1 125.2(3) . . ?
C8 N12 N11 107.5(4) . . ?
C8 N12 Zn4 130.8(3) . . ?
N11 N12 Zn4 121.8(2) . . ?
N14 N13 C9 107.9(4) . . ?
N14 N13 Zn3 119.9(3) . . ?
C9 N13 Zn3 131.6(3) . . ?
N13 N14 N15 109.8(3) . . ?
N13 N14 Zn1 125.4(2) . . ?
N15 N14 Zn1 123.8(2) . . ?
N14 N15 C10 107.3(4) . . ?
N14 N15 Zn5 119.6(3) . . ?
C10 N15 Zn5 133.1(3) . . ?
N17 N16 C11 107.8(3) . . ?
N17 N16 Zn4 123.1(3) . . ?
C11 N16 Zn4 129.1(3) . . ?
N16 N17 N18 109.2(3) . . ?
N16 N17 Zn1 123.8(2) . . ?
N18 N17 Zn1 127.0(3) . . ?
C12 N18 N17 107.4(3) . . ?
C12 N18 Zn5 136.5(3) . . ?
N17 N18 Zn5 116.1(3) . . ?
C13 N19 C14 103.6(3) . . ?
C13 N20 N21 110.7(4) . . ?
C13 N20 H20' 124.7 . . ?
N21 N20 H20' 124.7 . . ?
C14 N21 N20 101.9(3) . . ?
N1 C1 C2 108.4(4) . . ?
N1 C1 H1 125.8 . . ?
C2 C1 H1 125.8 . . ?
C1 C2 N3 107.4(4) . . ?
C1 C2 H2 126.3 . . ?
N3 C2 H2 126.3 . . ?
C4 C3 N4 108.3(4) . . ?
C4 C3 H3 125.8 . . ?
N4 C3 H3 125.8 . . ?
C3 C4 N6 107.7(5) . . ?
C3 C4 H4 126.1 . . ?
N6 C4 H4 126.1 . . ?
N7 C5 C6 108.7(4) . . ?
N7 C5 H5 125.7 . . ?
C6 C5 H5 125.7 . . ?
C5 C6 N9 107.1(4) . . ?
C5 C6 H6 126.4 . . ?
N9 C6 H6 126.4 . . ?
N10 C7 C8 107.6(4) . . ?
N10 C7 H7 126.2 . . ?
C8 C7 H7 126.2 . . ?
N12 C8 C7 108.2(4) . . ?
N12 C8 H8 125.9 . . ?
C7 C8 H8 125.9 . . ?
N13 C9 C10 107.7(4) . . ?
N13 C9 H9 126.2 . . ?
C10 C9 H9 126.2 . . ?
N15 C10 C9 107.2(4) . . ?
N15 C10 H10 126.4 . . ?
C9 C10 H10 126.4 . . ?
N16 C11 C12 107.7(4) . . ?
N16 C11 H11 126.1 . . ?
C12 C11 H11 126.1 . . ?
N18 C12 C11 107.8(4) . . ?
N18 C12 H12 126.1 . . ?
C11 C12 H12 126.1 . . ?
N20 C13 N19 108.9(3) . . ?
N20 C13 C15 124.4(4) . . ?
N19 C13 C15 126.7(3) . . ?
N21 C14 N19 114.9(4) . . ?
N21 C14 C23 121.2(4) . . ?
N19 C14 C23 123.9(4) . . ?
C20 C15 C16 119.8(4) . . ?
C20 C15 C13 119.2(4) . . ?
C16 C15 C13 121.0(3) . . ?
C17 C16 C15 120.1(4) . . ?
C17 C16 H16 119.9 . . ?
C15 C16 H16 119.9 . . ?
C18 C17 C16 119.5(4) . . ?
C18 C17 C21 119.3(4) . . ?
C16 C17 C21 121.2(4) . . ?
C17 C18 C19 120.6(4) . . ?
C17 C18 H18 119.7 . . ?
C19 C18 H18 119.7 . . ?
C20 C19 C18 119.5(3) . . ?
C20 C19 C22 120.9(4) . . ?
C18 C19 C22 119.6(3) . . ?
C15 C20 C19 120.4(4) . . ?
C15 C20 H20 119.8 . . ?
C19 C20 H20 119.8 . . ?
O2 C21 O1 120.5(4) . . ?
O2 C21 C17 120.6(4) . . ?
O1 C21 C17 118.9(4) . . ?
O2 C21 Zn2 72.9(3) . . ?
O1 C21 Zn2 47.6(2) . . ?
C17 C21 Zn2 166.3(3) . . ?
O3 C22 O4 122.2(4) . . ?
O3 C22 C19 119.8(4) . . ?
O4 C22 C19 118.1(4) . . ?
O3 C22 Zn3 74.7(2) . 1_655 ?
O4 C22 Zn3 47.54(19) . 1_655 ?
C19 C22 Zn3 165.4(3) . 1_655 ?
C28 C23 C24 118.5(4) . . ?
C28 C23 C14 121.0(3) . . ?
C24 C23 C14 120.6(3) . . ?
C25 C24 C23 121.2(4) . . ?
C25 C24 H24 119.4 . . ?
C23 C24 H24 119.4 . . ?
C24 C25 C26 119.0(4) . . ?
C24 C25 C29 120.3(4) . . ?
C26 C25 C29 120.6(4) . . ?
C25 C26 C27 121.2(4) . . ?
C25 C26 H26 119.4 . . ?
C27 C26 H26 119.4 . . ?
C28 C27 C26 119.2(4) . . ?
C28 C27 C30 120.4(4) . . ?
C26 C27 C30 120.4(4) . . ?
C27 C28 C23 120.9(4) . . ?
C27 C28 H28 119.5 . . ?
C23 C28 H28 119.5 . . ?
O6 C29 O5 121.6(4) . . ?
O6 C29 C25 119.9(4) . . ?
O5 C29 C25 118.5(4) . . ?
O6 C29 Zn4 65.4(2) . 1_656 ?
O5 C29 Zn4 56.2(2) . 1_656 ?
C25 C29 Zn4 174.5(3) . 1_656 ?
O7 C30 O8 121.2(4) . . ?
O7 C30 C27 119.7(4) . . ?
O8 C30 C27 119.1(4) . . ?
O7 C30 Zn5 75.6(3) . 1_666 ?
O8 C30 Zn5 45.65(19) . 1_666 ?
C27 C30 Zn5 164.6(3) . 1_666 ?
loop_
_geom_bond_atom_site_label_1
_geom_bond_atom_site_label_2
_geom_bond_distance
_geom_bond_site_symmetry_2
_geom_bond_publ_flag
Zn1 N11 2.106(3) . ?
Zn1 N8 2.181(3) . ?
Zn1 N2 2.186(3) . ?
Zn1 N17 2.195(3) . ?
Zn1 N14 2.200(3) . ?
Zn1 N5 2.208(3) . ?
Zn2 O1 1.930(3) . ?
Zn2 N1 2.011(4) . ?
Zn2 N4 2.015(4) . ?
Zn2 N7 2.055(4) . ?
Zn2 O2 2.474(4) . ?
Zn2 C21 2.539(5) . ?
Zn3 O4 1.975(3) 1_455 ?
Zn3 N3 2.048(4) . ?
Zn3 N13 2.064(4) . ?
Zn3 N10 2.160(4) . ?
Zn3 O9 2.224(5) . ?
Zn3 C22 2.594(4) 1_455 ?
Zn4 N16 2.069(3) . ?
Zn4 N6 2.085(4) . ?
Zn4 O5 2.085(3) 1_454 ?
Zn4 N12 2.147(4) . ?
Zn4 O10 2.195(5) . ?
Zn4 O6 2.287(3) 1_454 ?
Zn4 C29 2.505(4) 1_454 ?
Zn5 O8 1.928(3) 1_444 ?
Zn5 N15 2.006(4) . ?
Zn5 N9 2.034(4) . ?
Zn5 N18 2.041(4) . ?
Zn5 C30 2.585(4) 1_444 ?
O1 C21 1.252(5) . ?
O2 C21 1.229(5) . ?
O3 C22 1.229(5) . ?
O4 C22 1.263(5) . ?
O5 C29 1.267(5) . ?
O6 C29 1.234(5) . ?
O7 C30 1.246(5) . ?
O8 C30 1.259(5) . ?
O9 C31 1.012(10) . ?
O10 C32' 0.977(14) . ?
O10 C32 1.072(18) . ?
N1 C1 1.336(6) . ?
N1 N2 1.340(4) . ?
N2 N3 1.332(4) . ?
N3 C2 1.350(6) . ?
N4 N5 1.334(5) . ?
N4 C3 1.342(6) . ?
N5 N6 1.328(5) . ?
N6 C4 1.341(6) . ?
N7 N8 1.322(4) . ?
N7 C5 1.338(5) . ?
N8 N9 1.327(4) . ?
N9 C6 1.344(5) . ?
N10 N11 1.324(4) . ?
N10 C7 1.344(5) . ?
N11 N12 1.333(5) . ?
N12 C8 1.319(5) . ?
N13 N14 1.316(4) . ?
N13 C9 1.329(6) . ?
N14 N15 1.328(4) . ?
N15 C10 1.339(6) . ?
N16 N17 1.329(4) . ?
N16 C11 1.330(5) . ?
N17 N18 1.335(4) . ?
N18 C12 1.333(6) . ?
N19 C13 1.331(5) . ?
N19 C14 1.342(5) . ?
N20 C13 1.328(5) . ?
N20 N21 1.360(5) . ?
N20 H20' 0.8600 . ?
N21 C14 1.316(5) . ?
C1 C2 1.348(7) . ?
C1 H1 0.9300 . ?
C2 H2 0.9300 . ?
C3 C4 1.341(7) . ?
C3 H3 0.9300 . ?
C4 H4 0.9300 . ?
C5 C6 1.340(7) . ?
C5 H5 0.9300 . ?
C6 H6 0.9300 . ?
C7 C8 1.355(7) . ?
C7 H7 0.9300 . ?
C8 H8 0.9300 . ?
C9 C10 1.364(7) . ?
C9 H9 0.9300 . ?
C10 H10 0.9300 . ?
C11 C12 1.358(6) . ?
C11 H11 0.9300 . ?
C12 H12 0.9300 . ?
C13 C15 1.470(5) . ?
C14 C23 1.473(5) . ?
C15 C20 1.380(5) . ?
C15 C16 1.388(5) . ?
C16 C17 1.384(6) . ?
C16 H16 0.9300 . ?
C17 C18 1.383(5) . ?
C17 C21 1.493(6) . ?
C18 C19 1.383(5) . ?
C18 H18 0.9300 . ?
C19 C20 1.382(5) . ?
C19 C22 1.502(5) . ?
C20 H20 0.9300 . ?
C23 C28 1.391(5) . ?
C23 C24 1.397(6) . ?
C24 C25 1.375(6) . ?
C24 H24 0.9300 . ?
C25 C26 1.379(5) . ?
C25 C29 1.500(6) . ?
C26 C27 1.386(6) . ?
C26 H26 0.9300 . ?
C27 C28 1.376(5) . ?
C27 C30 1.478(5) . ?
C28 H28 0.9300 . ?
loop_
_platon_squeeze_void_nr
_platon_squeeze_void_average_x
_platon_squeeze_void_average_y
_platon_squeeze_void_average_z
_platon_squeeze_void_volume
_platon_squeeze_void_count_electrons
_platon_squeeze_void_content
1 -0.036 0.084 0.443 1642 391 ' '
