#------------------------------------------------------------------------------
#$Date: 2020-03-12 00:18:16 +0200 (Thu, 12 Mar 2020) $
#$Revision: 249283 $
#$URL: file:///home/coder/svn-repositories/cod/cif/4/51/74/4517491.cif $
#------------------------------------------------------------------------------
#
# This file is available in the Crystallography Open Database (COD),
# http://www.crystallography.net/
#
# All data on this site have been placed in the public domain by the
# contributors.
#
data_4517491
loop_
_publ_author_name
'Zhang, Zhi-Hui'
'Lan, Jian-Hui'
'Yuan, Li-Yong'
'Sheng, Pan-Pan'
'He, Ming-Yang'
'Zheng, Li-Rong'
'Chen, Qun'
'Chai, Zhi-Fang'
'Gibson, John K.'
'Shi, Wei-Qun'
_publ_section_title
;
 Rational Construction of Porous Metal-Organic Frameworks for Uranium(VI)
 Extraction: The Strong Periodic Tendency with a Metal Node.
;
_journal_name_full               'ACS applied materials &amp; interfaces'
_journal_paper_doi               10.1021/acsami.0c02121
_journal_year                    2020
_chemical_formula_sum            'C52 H53 N2 O33 Tb3'
_chemical_formula_weight         1710.72
_space_group_crystal_system      triclinic
_space_group_IT_number           2
_space_group_name_Hall           '-P 1'
_space_group_name_H-M_alt        'P -1'
_atom_sites_solution_hydrogens   mixed
_audit_creation_method           SHELXL-2014/6
_cell_angle_alpha                65.062(4)
_cell_angle_beta                 69.474(3)
_cell_angle_gamma                87.698(4)
_cell_formula_units_Z            1
_cell_length_a                   11.637(3)
_cell_length_b                   12.225(3)
_cell_length_c                   13.590(3)
_cell_measurement_reflns_used    5792
_cell_measurement_temperature    297(2)
_cell_measurement_theta_max      26.60
_cell_measurement_theta_min      2.39
_cell_volume                     1628.5(7)
_computing_cell_refinement       'Bruker SAINT'
_computing_data_collection       'Bruker APEX2'
_computing_data_reduction        'Bruker SAINT'
_computing_molecular_graphics    'Bruker SHELXTL'
_computing_publication_material  'Bruker SHELXTL'
_computing_structure_refinement  'SHELXL-2014/6 (Sheldrick, 2014)'
_computing_structure_solution    'SHELXS-97 (Sheldrick, 2008)'
_diffrn_ambient_temperature      297(2)
_diffrn_measured_fraction_theta_full 0.953
_diffrn_measured_fraction_theta_max 0.952
_diffrn_measurement_device_type  'Bruker APEX-II CCD'
_diffrn_measurement_method       '\f and \w scans'
_diffrn_radiation_type           MoK\a
_diffrn_radiation_wavelength     0.71073
_diffrn_reflns_av_R_equivalents  0.0253
_diffrn_reflns_av_unetI/netI     0.0414
_diffrn_reflns_Laue_measured_fraction_full 0.953
_diffrn_reflns_Laue_measured_fraction_max 0.952
_diffrn_reflns_limit_h_max       14
_diffrn_reflns_limit_h_min       -14
_diffrn_reflns_limit_k_max       14
_diffrn_reflns_limit_k_min       -12
_diffrn_reflns_limit_l_max       16
_diffrn_reflns_limit_l_min       -16
_diffrn_reflns_number            10911
_diffrn_reflns_point_group_measured_fraction_full 0.953
_diffrn_reflns_point_group_measured_fraction_max 0.952
_diffrn_reflns_theta_full        25.242
_diffrn_reflns_theta_max         25.349
_diffrn_reflns_theta_min         1.777
_exptl_absorpt_coefficient_mu    3.312
_exptl_absorpt_correction_T_max  0.587
_exptl_absorpt_correction_T_min  0.528
_exptl_absorpt_correction_type   multi-scan
_exptl_absorpt_process_details   SADABS
_exptl_crystal_colour            Colorless
_exptl_crystal_density_diffrn    1.744
_exptl_crystal_description       Block
_exptl_crystal_F_000             838
_exptl_crystal_size_max          0.220
_exptl_crystal_size_mid          0.200
_exptl_crystal_size_min          0.180
_refine_diff_density_max         1.787
_refine_diff_density_min         -1.118
_refine_diff_density_rms         0.230
_refine_ls_extinction_method     none
_refine_ls_goodness_of_fit_ref   1.093
_refine_ls_hydrogen_treatment    constr
_refine_ls_matrix_type           full
_refine_ls_number_parameters     396
_refine_ls_number_reflns         5668
_refine_ls_number_restraints     2
_refine_ls_restrained_S_all      1.093
_refine_ls_R_factor_all          0.0466
_refine_ls_R_factor_gt           0.0370
_refine_ls_shift/su_max          0.001
_refine_ls_shift/su_mean         0.000
_refine_ls_structure_factor_coef Fsqd
_refine_ls_weighting_details
'w=1/[\s^2^(Fo^2^)+(0.0709P)^2^+10.4800P] where P=(Fo^2^+2Fc^2^)/3'
_refine_ls_weighting_scheme      calc
_refine_ls_wR_factor_gt          0.1123
_refine_ls_wR_factor_ref         0.1285
_reflns_Friedel_coverage         0.000
_reflns_number_gt                4835
_reflns_number_total             5668
_reflns_threshold_expression     'I > 2\s(I)'
_cod_data_source_file            am0c02121_si_002.cif
_cod_data_source_block           Tb-MOF
_cod_original_cell_volume        1628.6(7)
_cod_database_code               4517491
_shelx_space_group_comment
; 
The symmetry employed for this shelxl refinement is uniquely defined 
by the following loop, which should always be used as a source of 
symmetry information in preference to the above space-group names. 
They are only intended as comments. 
;
_shelx_estimated_absorpt_t_min   0.529
_shelx_estimated_absorpt_t_max   0.587
_shelxl_version_number           2014/6
_shelx_res_file
; 
TITL c365 in P-1 #2 
CELL 0.71073 11.6367 12.2253 13.5901 65.062 69.474 87.698 
ZERR 1 0.0028 0.003 0.0033 0.004 0.003 0.004 
LATT 1 
SFAC C  H  O  Tb N 
UNIT 52  53  33  3  2 
L.S. 20 
SHEL 999 0.83 
ACTA 
BOND $H 
FMAP 2 
PLAN 5 
HTAB C27 O3_$2 
HTAB C26 O17 
HTAB N1 O10_$4 
HTAB N1 O3_$8 
HTAB O18 O9_$7 
HTAB O17 O8_$5 
HTAB O17 O13_$4 
HTAB O16 O14 
HTAB O15 O13_$6 
HTAB O15 O17_$5 
HTAB O13 O17_$4 
HTAB O13 O15_$3 
HTAB O13 O18_$2 
HTAB O8 O2_$1 
HTAB C27 O3_$2 
HTAB C26 O17 
HTAB N1 O10_$4 
HTAB N1 O3_$8 
EQIV $8 x, y, z+1 
HTAB O18 O9_$7 
EQIV $7 x, y-1, z 
HTAB O17 O8_$5 
HTAB O17 O13_$4 
HTAB O16 O14 
HTAB O15 O13_$6 
EQIV $6 x+1, y, z 
HTAB O15 O17_$5 
EQIV $5 -x+1, -y+2, -z+1 
HTAB O13 O17_$4 
EQIV $4 -x, -y+2, -z+1 
HTAB O13 O15_$3 
EQIV $3 x-1, y, z 
HTAB O13 O18_$2 
EQIV $2 -x, -y+1, -z+1 
HTAB O8 O2_$1 
EQIV $1 x, y+1, z 
SIZE 0.22 0.20 0.18 
HTAB 
CONF 
HTAB O8 O2_$1 
HTAB O13 O18_$2 
HTAB O13 O15_$3 
HTAB O13 O17_$4 
HTAB O15 O17_$5 
HTAB O15 O13_$6 
HTAB O16 O14 
HTAB O17 O13_$4 
HTAB O17 O8_$5 
HTAB O18 O9_$7 
HTAB N1 O3_$8 
HTAB N1 O10_$4 
HTAB C26 O17 
HTAB C27 O3_$2 
FREE Tb2  C23 
DFIX 1.47 0.01 N1 C26 N1 C27 
TEMP 24 
WGHT    0.070900   10.480000 
FVAR       0.12878 
TB1   4    0.000000    1.000000    0.000000    10.50000    0.01372    0.01065 = 
         0.01437   -0.00521   -0.00663    0.00201 
TB2   4    0.074426    1.170020    0.172602    11.00000    0.01649    0.01054 = 
         0.01648   -0.00914   -0.00866    0.00402 
O1    3    0.233930    0.322321    0.103696    11.00000    0.03195    0.01022 = 
         0.04098   -0.01355   -0.02240    0.00326 
O2    3    0.361590    0.328909    0.189417    11.00000    0.05531    0.01612 = 
         0.07396   -0.02500   -0.05427    0.02141 
O3    3    0.019768    0.672328   -0.055052    11.00000    0.02974    0.01765 = 
         0.03445   -0.01502   -0.02412    0.00788 
O4    3    0.062609    0.843912   -0.055525    11.00000    0.02224    0.00984 = 
         0.02417   -0.00931   -0.01250    0.00675 
O5    3    0.790031    0.806577    0.015370    11.00000    0.01752    0.03100 = 
         0.02338   -0.01823   -0.00368    0.00838 
O6    3    0.789453    0.951590    0.071296    11.00000    0.01594    0.02225 = 
         0.05107   -0.02245   -0.01264    0.00171 
O7    3    0.240406    1.056713    0.208952    11.00000    0.01959    0.01564 = 
         0.03329   -0.01078   -0.01586    0.01117 
O8    3    0.422049    1.130151    0.192041    11.00000    0.02999    0.01972 = 
         0.05481   -0.02445   -0.02490    0.01136 
AFIX  83 
H8    2    0.381578    1.180933    0.207967    10.50000   -1.50000 
AFIX   0 
O9    3    0.063450    1.131140    0.368322    11.00000    0.04576    0.01827 = 
         0.02859   -0.01860   -0.02133    0.01565 
O10   3   -0.000444    1.301779    0.275540    11.00000    0.06080    0.02440 = 
         0.02445   -0.01835   -0.02196    0.01378 
O11   3   -0.032604    1.028963    0.811852    11.00000    0.03799    0.00899 = 
         0.02401    0.00008   -0.02066   -0.00006 
O12   3    0.032149    1.184899    0.823761    11.00000    0.07117    0.01382 = 
         0.02035   -0.00184   -0.02996    0.00078 
O13   3   -0.139468    1.100618    0.296361    11.00000    0.03272    0.06746 = 
         0.02816   -0.02143   -0.00075   -0.01294 
AFIX   3 
H13A  2   -0.165488    1.092929    0.363690    11.00000   -1.50000 
H13B  2   -0.181180    1.072329    0.272839    11.00000   -1.50000 
AFIX   0 
O14   3    0.337309    0.515700    0.460265    10.50000    0.24488 
AFIX   3 
H14A  2    0.393283    0.517837    0.402117    10.50000   -1.50000 
H14B  2    0.342076    0.562000    0.488562    10.50000   -1.50000 
AFIX   0 
O15   3    0.701547    0.953258    0.300075    10.50000    0.11001    0.23478 = 
         0.11481   -0.13646   -0.01573   -0.04158 
AFIX   3 
H15A  2    0.626803    0.955745    0.325199    10.50000   -1.50000 
H15B  2    0.750056    0.992756    0.308041    10.50000   -1.50000 
AFIX   0 
O16   3    0.339365    0.318714    0.509134    11.00000    0.04119    0.66231 = 
         0.66517   -0.02543    0.02734   -0.00534 
AFIX   3 
H16A  2    0.363803    0.324333    0.556769    11.00000   -1.50000 
H16B  2    0.293723    0.365424    0.482839    11.00000   -1.50000 
AFIX   0 
O17   3    0.407285    0.913604    0.704591    10.50000    0.80773 
AFIX   3 
H17A  2    0.372855    0.899923    0.666750    10.50000   -1.50000 
H17B  2    0.452875    0.866787    0.731386    10.50000   -1.50000 
AFIX   0 
O18   3    0.231438   -0.009388    0.470670    11.00000    0.13537    0.25430 = 
         0.07017   -0.04638   -0.04473    0.08261 
AFIX   3 
H18A  2    0.304590   -0.011944    0.436761    11.00000   -1.50000 
H18B  2    0.186224    0.022220    0.434523    11.00000   -1.50000 
AFIX   0 
C1    1    0.165874    0.677575    0.031369    11.00000    0.01532    0.01100 = 
         0.02512   -0.00967   -0.01179    0.00334 
C2    1    0.181230    0.558142    0.060723    11.00000    0.02196    0.01462 = 
         0.02845   -0.01242   -0.01519    0.00243 
AFIX  43 
H2    2    0.132129    0.509727    0.049474    11.00000   -1.20000 
AFIX   0 
C3    1    0.271443    0.508355    0.108028    11.00000    0.02115    0.00561 = 
         0.03001   -0.00722   -0.01271    0.00372 
C4    1    0.342012    0.579550    0.127755    11.00000    0.02229    0.01218 = 
         0.03176   -0.01080   -0.01963    0.01032 
AFIX  43 
H4    2    0.401570    0.546020    0.158961    11.00000   -1.20000 
AFIX   0 
C5    1    0.325220    0.700874    0.101561    11.00000    0.01545    0.01092 = 
         0.02473   -0.00837   -0.00966    0.00203 
C6    1    0.237738    0.750160    0.050623    11.00000    0.01892    0.00998 = 
         0.03007   -0.00943   -0.01488    0.00339 
AFIX  43 
H6    2    0.227387    0.831751    0.029460    11.00000   -1.20000 
AFIX   0 
C7    1    0.076424    0.733091   -0.027585    11.00000    0.01627    0.00961 = 
         0.02052   -0.00740   -0.00867    0.00331 
C8    1    0.289126    0.376562    0.136554    11.00000    0.02324    0.01303 = 
         0.03041   -0.01257   -0.01469    0.00548 
C9    1    0.399420    0.781622    0.120368    11.00000    0.01580    0.01069 = 
         0.02419   -0.00661   -0.01101    0.00071 
C10   1    0.526966    0.779382    0.095211    11.00000    0.02064    0.01334 = 
         0.02130   -0.00994   -0.01263    0.00584 
AFIX  43 
H10   2    0.565698    0.720471    0.073824    11.00000   -1.20000 
AFIX   0 
C11   1    0.595825    0.864250    0.101951    11.00000    0.01205    0.00809 = 
         0.01427   -0.00552   -0.00519    0.00065 
C12   1    0.538518    0.949533    0.138850    11.00000    0.01913    0.00799 = 
         0.02515   -0.00774   -0.01162    0.00218 
AFIX  43 
H12   2    0.584997    1.004111    0.145819    11.00000   -1.20000 
AFIX   0 
C13   1    0.411201    0.953706    0.165579    11.00000    0.01716    0.01191 = 
         0.02091   -0.01006   -0.00818    0.00341 
C14   1    0.343465    0.867183    0.157105    11.00000    0.01405    0.01488 = 
         0.02710   -0.01191   -0.01004    0.00177 
AFIX  43 
H14   2    0.258463    0.867456    0.176787    11.00000   -1.20000 
AFIX   0 
C15   1    0.735163    0.873565    0.060815    11.00000    0.01381    0.01703 = 
         0.02226   -0.00661   -0.00619    0.00355 
C16   1    0.350590    1.052061    0.192522    11.00000    0.02788    0.01283 = 
         0.02018   -0.00801   -0.01403    0.00610 
C17   1    0.012415    1.269337    0.455488    11.00000    0.03267    0.00576 = 
         0.02337   -0.01057   -0.01081    0.00616 
C18   1    0.009875    1.392534    0.430812    11.00000    0.05524    0.00954 = 
         0.01565   -0.00545   -0.01833    0.00623 
AFIX  43 
H18   2    0.013065    1.448319    0.357360    11.00000   -1.20000 
AFIX   0 
C19   1    0.002587    1.433685    0.514984    11.00000    0.04418    0.01187 = 
         0.01487   -0.00865   -0.01327    0.00551 
C20   1   -0.000787    1.350179    0.620351    11.00000    0.04417    0.00799 = 
         0.01847   -0.00906   -0.01558    0.00532 
AFIX  43 
H20   2   -0.004833    1.376375    0.676423    11.00000   -1.20000 
AFIX   0 
C21   1    0.001543    1.225010    0.649334    11.00000    0.02982    0.00411 = 
         0.01070    0.00246   -0.00945    0.00345 
C22   1    0.007123    1.184695    0.567007    11.00000    0.03162    0.00972 = 
         0.01712   -0.00783   -0.01289    0.00755 
AFIX  43 
H22   2    0.007386    1.102393    0.585017    11.00000   -1.20000 
AFIX   0 
C23   1    0.025703    1.229022    0.362374    11.00000    0.03237    0.01422 = 
         0.01487   -0.00488   -0.01376    0.00464 
C24   1    0.002135    1.140854    0.766973    11.00000    0.01863    0.01241 = 
         0.01088   -0.00620   -0.00379    0.00581 
N1    5    0.237947    0.612865    0.745990    11.00000    0.26449 
AFIX  23 
H1A   2    0.181153    0.650596    0.778928    11.00000   -1.20000 
H1B   2    0.256021    0.650379    0.669284    11.00000   -1.20000 
AFIX   0 
C26   1    0.350216    0.621433    0.770382    11.00000    0.47206 
AFIX   3 
H26A  2    0.343530    0.705389    0.753893    11.00000   -1.50000 
H26B  2    0.424197    0.615491    0.713359    11.00000   -1.50000 
H26C  2    0.353534    0.578191    0.846739    11.00000   -1.50000 
AFIX   0 
C27   1    0.186973    0.485831    0.790591    11.00000    0.15873 
AFIX   3 
H27A  2    0.228172    0.432336    0.838872    11.00000   -1.50000 
H27B  2    0.200921    0.469064    0.724651    11.00000   -1.50000 
H27C  2    0.099805    0.473256    0.834969    11.00000   -1.50000 
AFIX   0 
HKLF 4 
  
REM  c365 in P-1 #2 
REM R1 =  0.0370 for    4835 Fo > 4sig(Fo)  and  0.0466 for all    5668 data 
REM    396 parameters refined using      2 restraints 
  
END 
  
WGHT      0.0706     10.5225 
  
REM Instructions for potential hydrogen bonds 
HTAB O8 O2_$1 
HTAB O13 O18_$2 
HTAB O13 O15_$3 
HTAB O13 O17_$4 
HTAB O15 O17_$5 
HTAB O15 O13_$6 
HTAB O16 O14 
HTAB O17 O13_$4 
HTAB O17 O8_$5 
HTAB O18 O9_$7 
HTAB N1 O3_$8 
HTAB N1 O10_$4 
HTAB C26 O17 
HTAB C27 O3_$2 
  
REM Highest difference peak  1.787,  deepest hole -1.118,  1-sigma level  0.230 
Q1    1   0.3154  0.7649  0.5039  11.00000  0.05    1.79 
Q2    1   0.3292  0.9555  0.5832  11.00000  0.05    1.60 
Q3    1   0.3590  0.3379  0.6115  11.00000  0.05    1.35 
Q4    1  -0.2348  1.0390  0.3257  11.00000  0.05    1.04 
Q5    1   0.0867  1.1719  0.1108  11.00000  0.05    1.02 
;
_shelx_res_checksum              45341
_shelx_hkl_file
; 
  -1   0   0  961.02   28.87 
   1   0   0  954.83   28.98 
  -2   0   0  359.07   10.55 
   2   0   0  340.06   10.78 
  -3   0   0 1000.00   29.07 
   3   0   0  937.07   29.50 
  -4   0   0  209.99    6.45 
   4   0   0  207.34    6.84 
  -5   0   0   93.73    3.14 
   5   0   0   97.96    3.64 
  -6   0   0    1.91    0.45 
  -6   0   0    1.01    0.65 
   6   0   0    1.51    0.84 
  -7   0   0   16.68    1.00 
   7   0   0   17.69    1.56 
  -8   0   0    0.02    0.57 
  -8   0   0    0.05    0.51 
   8   0   0    1.97    0.93 
  -9   0   0   11.77    1.60 
   9   0   0   12.10    1.64 
 -10   0   0   16.35    1.83 
  10   0   0   13.57    1.76 
 -11   0   0   40.43    2.98 
  11   0   0   42.31    3.03 
 -12   0   0   96.90    4.90 
  12   0   0  106.99    5.07 
 -13   0   0   74.11    4.42 
  13   0   0   79.16    4.48 
  13  -1   0   18.15    2.30 
 -13   1   0   13.96    2.28 
  12  -1   0    7.46    1.73 
 -12   1   0    6.25    1.74 
  11  -1   0   -0.55    1.12 
 -11   1   0    1.28    1.36 
  10  -1   0    7.57    1.37 
 -10   1   0    4.12    1.33 
   9  -1   0    8.01    1.43 
  -9   1   0   10.35    1.55 
   8  -1   0   22.08    1.83 
  -8   1   0   19.17    1.74 
  -8   1   0   20.64    1.34 
   7  -1   0    8.26    1.15 
  -7   1   0    8.89    0.83 
  -7   1   0    6.98    1.11 
   6  -1   0    0.52    0.62 
  -6   1   0    0.02    0.48 
  -6   1   0    0.64    0.77 
   5  -1   0  301.93    9.70 
  -5   1   0  302.18    9.37 
  -5   1   0  299.26    9.46 
   4  -1   0  218.38    7.31 
  -4   1   0  235.29    7.12 
   3  -1   0  266.92    8.43 
  -3   1   0  266.68    8.29 
  -3   1   0  270.95    8.26 
   2  -1   0  602.43   18.65 
  -2   1   0  623.12   18.20 
  -2   1   0  613.45   18.52 
  -1   1   0  505.20   15.37 
  -1   1   0  513.20   15.02 
   0   1   0  368.13   10.16 
   0   1   0  331.74   10.08 
   0   1   0  300.18    9.88 
  -2  -1   0   72.25    2.49 
   2   1   0   72.25    2.57 
  -3  -1   0   57.10    2.20 
  -3  -1   0   60.13    1.86 
   3   1   0   56.09    2.30 
  -4  -1   0   17.27    1.34 
  -4  -1   0   19.20    0.76 
   4   1   0   17.85    1.40 
  -5  -1   0   74.11    2.40 
  -5  -1   0   73.21    2.99 
   5   1   0   75.64    3.05 
  -6  -1   0   80.77    2.60 
  -6  -1   0   79.99    3.26 
   6   1   0   77.37    3.32 
  -7  -1   0    0.08    0.55 
  -7  -1   0    0.41    0.35 
   7   1   0    1.07    0.93 
   8   1   0   25.45    2.00 
  -9  -1   0   65.25    3.31 
   9   1   0   72.89    3.61 
 -10  -1   0   79.82    3.86 
  10   1   0   75.59    3.97 
 -11  -1   0   42.78    3.04 
  11   1   0   38.70    3.07 
 -12  -1   0   48.84    3.30 
  12   1   0   49.54    3.32 
 -13  -1   0   51.15    3.64 
  13   1   0   41.07    3.31 
  13  -2   0    3.65    1.52 
 -13   2   0    1.50    1.39 
  12  -2   0    9.52    1.76 
 -12   2   0    6.22    1.75 
  11  -2   0   13.29    1.85 
 -11   2   0    9.05    1.57 
  10  -2   0    7.25    1.39 
 -10   2   0    9.33    1.47 
   9  -2   0    1.73    1.02 
  -9   2   0    1.23    1.01 
  -9   2   0    1.35    0.78 
   8  -2   0   11.21    1.28 
  -8   2   0   10.92    1.44 
  -8   2   0   11.26    1.10 
   7  -2   0  121.07    4.52 
  -7   2   0  119.08    4.22 
  -7   2   0  117.82    4.45 
   6  -2   0  194.35    6.60 
  -6   2   0  195.83    6.38 
  -6   2   0  194.34    6.50 
   5  -2   0  396.48   12.74 
  -5   2   0  409.39   12.48 
  -5   2   0  408.29   12.59 
   4  -2   0  219.06    6.86 
  -4   2   0  229.47    6.83 
  -4   2   0  188.53    6.67 
   3  -2   0  105.54    3.57 
  -3   2   0  102.56    3.60 
  -3   2   0  110.42    3.53 
  -2   2   0    9.00    0.79 
  -2   2   0    9.83    0.76 
   0   2   0   21.72    0.81 
   0   2   0   21.97    1.01 
   1   2   0  308.84    9.21 
   1   2   0  306.07    9.43 
   1   2   0  308.01    9.63 
  -2  -2   0  305.70    9.63 
   2   2   0  328.16    9.68 
  -3  -2   0  157.81    5.21 
   3   2   0  163.91    4.95 
  -4  -2   0    2.67    0.30 
  -4  -2   0    2.35    0.69 
   4   2   0    3.67    0.86 
  -5  -2   0    8.78    1.05 
  -5  -2   0    8.79    0.46 
   5   2   0    8.07    1.05 
  -6  -2   0   25.51    1.71 
   6   2   0   22.32    1.85 
  -7  -2   0   90.76    3.79 
   7   2   0   94.55    3.98 
  -8  -2   0  133.02    5.12 
   8   2   0  132.51    5.39 
  -9  -2   0  137.81    5.50 
   9   2   0  135.15    5.64 
 -10  -2   0   75.27    3.92 
  10   2   0   76.61    3.93 
 -11  -2   0   49.76    3.33 
  11   2   0   41.83    3.09 
 -12  -2   0    4.53    1.71 
  12   2   0    4.00    1.69 
 -13  -2   0    2.83    1.79 
  13   2   0    4.21    1.74 
  13  -3   0    3.51    1.53 
 -13   3   0    0.88    1.46 
  12  -3   0    4.53    1.53 
 -12   3   0    6.31    1.59 
  11  -3   0   -0.63    1.07 
 -11   3   0   -0.01    1.16 
  10  -3   0    8.93    1.44 
 -10   3   0   10.98    1.66 
   9  -3   0   92.48    3.94 
  -9   3   0   89.06    3.65 
  -9   3   0   89.66    3.96 
   8  -3   0  188.03    6.68 
  -8   3   0  188.52    6.60 
  -8   3   0  187.52    6.45 
   7  -3   0  154.88    5.47 
  -7   3   0  153.43    5.33 
  -7   3   0  149.70    5.40 
   6  -3   0  339.18   10.88 
  -6   3   0  335.21   10.80 
  -6   3   0  340.97   10.68 
   5  -3   0  342.00   11.07 
  -5   3   0  352.92   11.08 
  -5   3   0  355.00   10.88 
  -4   3   0  143.24    4.86 
  -4   3   0  143.49    4.72 
  -3   3   0   17.49    1.15 
  -3   3   0   15.95    1.05 
  -2   3   0   78.16    2.84 
  -2   3   0   76.18    2.55 
  -1   3   0   36.19    1.58 
  -1   3   0   36.24    1.29 
   0   3   0   36.42    1.67 
   0   3   0   38.56    1.34 
   1   3   0   91.23    2.91 
   1   3   0   91.70    3.11 
   1   3   0   87.12    3.22 
   2   3   0    0.21    0.51 
   2   3   0    4.80    0.54 
  -3  -3   0   85.68    3.09 
   3   3   0   88.03    2.89 
  -4  -3   0  145.77    4.99 
   4   3   0  149.06    4.61 
  -5  -3   0  142.30    4.95 
  -5  -3   0  139.99    4.38 
   5   3   0  140.36    5.16 
  -6  -3   0  331.85   10.65 
   6   3   0  330.71   11.08 
  -7  -3   0  244.19    8.24 
   7   3   0  244.07    8.60 
  -8  -3   0  148.90    5.61 
   8   3   0  145.72    5.91 
  -9  -3   0  108.23    4.58 
   9   3   0  105.01    4.85 
 -10  -3   0   14.61    1.90 
  10   3   0   14.13    2.07 
 -11  -3   0    1.68    1.56 
  11   3   0    1.55    1.50 
 -12  -3   0   -1.29    1.50 
  12   3   0    0.21    1.48 
  13  -4   0    1.83    1.47 
 -13   4   0    0.91    1.48 
  12  -4   0   14.78    1.96 
 -12   4   0   17.19    2.19 
  11  -4   0   42.66    2.71 
 -11   4   0   36.00    2.74 
  10  -4   0  104.39    4.44 
 -10   4   0  100.04    4.44 
 -10   4   0  104.78    4.26 
   9  -4   0  185.78    6.81 
  -9   4   0  191.44    6.70 
  -9   4   0  188.32    6.79 
   8  -4   0   85.15    3.62 
  -8   4   0   83.27    3.62 
  -8   4   0   87.68    3.59 
   7  -4   0   42.44    2.24 
  -7   4   0   46.29    2.34 
  -7   4   0   43.89    2.26 
   6  -4   0   51.65    2.37 
  -6   4   0   56.62    2.45 
  -6   4   0   56.68    2.53 
  -5   4   0    1.61    0.76 
  -5   4   0    1.75    0.66 
  -4   4   0    1.78    0.57 
  -4   4   0    1.47    0.69 
  -3   4   0  194.91    6.54 
  -3   4   0  198.01    6.14 
  -1   4   0   -0.21    0.55 
  -1   4   0    2.40    0.36 
   0   4   0    1.14    0.63 
   0   4   0    1.07    0.33 
   1   4   0   10.53    0.90 
   1   4   0    9.81    0.73 
   2   4   0  246.87    7.77 
   2   4   0  241.93    8.08 
  -3  -4   0  312.51    9.86 
   3   4   0  316.86   10.43 
   3   4   0  327.56    9.94 
  -4  -4   0  425.20   13.22 
   4   4   0  434.73   13.14 
   4   4   0  426.71   13.83 
  -5  -4   0  275.84    9.10 
   5   4   0  290.39    8.72 
  -7  -4   0   68.90    3.18 
   7   4   0   65.46    3.45 
  -8  -4   0   31.49    2.50 
   8   4   0   32.15    2.46 
  -9  -4   0    0.49    1.26 
   9   4   0    0.10    1.28 
 -10  -4   0   -1.28    1.29 
  10   4   0    0.67    1.38 
 -11  -4   0    3.83    1.48 
  11   4   0    1.63    1.51 
 -12  -4   0    5.49    1.89 
  12   4   0    5.94    1.92 
 -13   5   0   38.53    3.12 
  12  -5   0   58.94    3.47 
 -12   5   0   61.21    3.60 
  11  -5   0  105.53    4.61 
 -11   5   0  103.31    4.64 
  10  -5   0  128.37    5.15 
 -10   5   0  123.90    5.10 
 -10   5   0  125.90    5.06 
   9  -5   0  106.11    4.45 
  -9   5   0  109.51    4.48 
  -9   5   0  113.79    4.53 
   8  -5   0    3.19    0.96 
  -8   5   0    3.82    1.07 
  -8   5   0    4.17    1.11 
   7  -5   0    3.91    0.91 
  -7   5   0    3.93    1.06 
  -7   5   0    4.41    0.97 
   6  -5   0   10.82    1.11 
  -6   5   0   11.68    1.33 
  -6   5   0   10.82    1.14 
  -5   5   0   16.96    1.29 
  -5   5   0   17.98    1.55 
  -4   5   0    7.39    0.77 
  -4   5   0    6.21    0.97 
  -3   5   0   20.53    1.09 
  -3   5   0   20.28    1.43 
  -2   5   0   72.54    2.43 
  -1   5   0   41.38    1.45 
  -1   5   0   39.56    1.95 
   0   5   0  117.99    4.70 
   0   5   0  150.90    4.25 
   1   5   0  463.96   14.73 
   1   5   0  465.02   13.90 
   2   5   0  294.44   10.40 
   2   5   0  367.87   10.83 
  -3  -5   0  356.13   11.08 
   3   5   0  366.26   11.27 
   3   5   0  354.12   11.74 
  -4  -5   0  198.15    6.50 
   4   5   0  198.69    6.37 
   4   5   0  196.13    7.01 
  -5  -5   0   80.30    3.29 
   5   5   0   82.06    2.81 
  -6  -5   0   12.15    1.42 
  -7  -5   0   18.20    1.71 
   7   5   0   16.15    1.77 
  -8  -5   0    0.53    1.21 
   8   5   0    1.23    1.07 
  -9  -5   0   18.50    2.09 
   9   5   0   16.75    2.07 
 -10  -5   0    0.75    1.47 
  10   5   0    0.55    1.47 
 -11  -5   0    0.51    1.47 
  11   5   0    1.37    1.51 
 -12  -5   0    0.21    1.71 
 -13   6   0   47.91    3.47 
 -12   6   0   54.83    3.55 
  11  -6   0   35.99    2.61 
 -11   6   0   36.11    2.60 
 -11   6   0   33.58    2.74 
  10  -6   0    5.44    1.22 
 -10   6   0    3.10    1.26 
 -10   6   0    4.37    1.25 
   9  -6   0    0.78    0.94 
  -9   6   0    0.12    0.94 
  -9   6   0   -1.18    0.93 
   8  -6   0   51.21    2.55 
  -8   6   0   50.52    2.73 
  -8   6   0   47.71    2.67 
   7  -6   0    3.03    0.91 
  -7   6   0    2.85    1.11 
  -7   6   0    3.44    0.95 
  -6   6   0   17.69    1.44 
  -6   6   0   16.34    1.57 
  -5   6   0    2.69    0.99 
  -5   6   0    1.08    0.55 
  -4   6   0   31.45    1.47 
  -4   6   0   32.66    1.94 
  -2   6   0  290.83    8.66 
  -2   6   0  280.13    9.40 
  -1   6   0  596.43   17.45 
  -1   6   0  578.65   18.40 
   0   6   0  482.52   14.38 
   0   6   0  481.93   15.22 
   1   6   0  208.86    6.46 
   1   6   0  208.99    7.04 
   2   6   0  104.54    3.88 
   2   6   0  103.39    4.15 
  -3  -6   0  118.20    4.07 
   3   6   0  115.17    4.63 
  -4  -6   0    1.04    0.76 
   4   6   0    0.84    0.89 
   4   6   0    0.98    0.50 
  -5  -6   0    0.13    0.85 
   5   6   0   -0.27    0.41 
   5   6   0    0.80    0.90 
  -6  -6   0   11.95    1.46 
   6   6   0   13.16    1.71 
  -7  -6   0   36.84    2.58 
   7   6   0   39.22    2.61 
  -8  -6   0   -0.98    1.12 
   8   6   0    0.85    1.12 
  -9  -6   0   -1.11    1.24 
   9   6   0   -0.45    1.05 
 -10  -6   0   16.42    2.13 
  10   6   0   21.91    2.45 
 -11  -6   0   25.50    2.58 
  11   6   0   29.97    3.02 
 -12   7   0    5.13    1.58 
 -11   7   0    1.51    1.25 
 -11   7   0    0.52    1.23 
 -10   7   0    7.27    1.43 
 -10   7   0    9.07    1.64 
   9  -7   0    7.16    1.32 
  -9   7   0    6.30    1.27 
  -9   7   0    6.92    1.40 
   8  -7   0   90.22    3.76 
  -8   7   0   94.21    4.19 
  -8   7   0   87.37    3.74 
  -7   7   0    6.23    1.35 
  -7   7   0    5.07    0.99 
  -6   7   0   31.90    1.76 
  -6   7   0   27.47    2.21 
  -5   7   0   60.05    2.97 
  -4   7   0  100.98    3.45 
  -3   7   0  245.36    7.56 
  -2   7   0  336.46   10.21 
  -2   7   0  343.23   11.20 
  -1   7   0  341.12   11.14 
  -1   7   0  335.76   10.14 
   0   7   0  101.29    3.99 
   0   7   0  101.16    3.26 
   1   7   0   18.04    0.98 
   1   7   0   17.30    1.51 
  -2  -7   0    4.30    0.68 
   2   7   0    3.20    1.07 
   2   7   0    3.13    0.85 
  -3  -7   0    2.49    0.74 
   3   7   0    1.49    0.68 
   3   7   0    2.25    1.07 
  -4  -7   0   20.29    1.61 
   4   7   0   23.54    1.50 
   4   7   0   21.99    1.96 
  -5  -7   0   10.31    1.29 
   5   7   0    9.19    1.50 
  -6  -7   0    3.51    1.14 
   6   7   0    3.51    1.23 
  -7  -7   0    8.61    1.45 
   7   7   0    8.05    1.65 
  -8  -7   0   43.21    2.96 
   8   7   0   47.24    3.22 
  -9  -7   0   38.76    2.86 
   9   7   0   37.18    3.06 
 -10  -7   0   45.01    3.30 
  10   7   0   48.22    3.60 
 -11   8   0    6.20    1.62 
 -10   8   0    0.77    1.25 
  -9   8   0    1.76    1.26 
   8  -8   0   37.82    2.33 
  -8   8   0   34.87    2.56 
  -7   8   0   85.14    4.09 
  -6   8   0   62.55    3.34 
  -5   8   0  104.65    4.45 
  -3   8   0  104.91    4.35 
  -2   8   0   76.03    3.46 
  -1   8   0    3.97    1.10 
   0   8   0   11.06    0.73 
   0   8   0   13.46    1.52 
   1   8   0   24.66    1.87 
  -2  -8   0   17.08    1.26 
   2   8   0   17.36    1.58 
  -3  -8   0    3.61    0.83 
   3   8   0    3.20    1.24 
   3   8   0    3.57    0.89 
  -4  -8   0    2.07    0.92 
   4   8   0    1.45    0.74 
   4   8   0    2.28    1.13 
  -5  -8   0    3.80    1.06 
   5   8   0    5.21    1.46 
  -6  -8   0   21.54    1.92 
   6   8   0   22.83    2.39 
  -7  -8   0  114.91    4.65 
   7   8   0  108.97    5.36 
  -8  -8   0   68.36    3.53 
   8   8   0   66.53    4.13 
  -9  -8   0   52.02    3.29 
   9   8   0   51.61    3.59 
 -10  -8   0   37.86    3.28 
  10   8   0   45.20    3.61 
 -11   9   0    2.06    1.53 
 -10   9   0   18.26    2.29 
  -9   9   0   43.57    3.14 
  -8   9   0  156.51    6.40 
  -7   9   0  161.68    6.55 
  -6   9   0  121.98    5.22 
  -5   9   0   85.46    4.08 
  -4   9   0   15.68    1.81 
  -3   9   0    4.24    1.30 
  -2   9   0   10.44    1.48 
  -1   9   0   19.89    1.87 
   0   9   0   17.08    1.78 
   1   9   0    9.07    1.32 
   2   9   0    7.16    1.27 
   3   9   0   11.49    1.39 
   4   9   0   58.55    3.35 
   4   9   0   57.06    2.76 
   5   9   0  148.00    6.28 
   6   9   0  161.78    6.77 
   7   9   0   93.14    4.82 
   8   9   0   49.40    3.55 
   9   9   0   23.50    2.93 
 -10  10   0   65.36    4.09 
  -9  10   0   80.35    4.42 
  -8  10   0   66.48    3.91 
  -7  10   0   39.70    3.02 
  -6  10   0   19.81    2.23 
  -5  10   0    0.07    0.90 
  -4  10   0   10.58    1.62 
  -3  10   0   17.45    2.06 
  -2  10   0   25.94    2.36 
  -1  10   0    2.22    1.05 
   0  10   0   -0.53    0.98 
   1  10   0   27.63    2.24 
   2  10   0   69.02    3.43 
   3  10   0  101.32    4.32 
   5  10   0   42.55    3.21 
   6  10   0   67.86    4.15 
   7  10   0   36.98    3.30 
   8  10   0    3.38    1.69 
  -9  11   0   12.49    2.11 
  -8  11   0    3.12    1.56 
  -7  11   0   -1.65    1.10 
  -6  11   0    5.87    1.51 
  -5  11   0   18.27    2.24 
  -4  11   0   12.46    1.84 
  -3  11   0    2.08    1.23 
  -2  11   0   12.18    1.82 
  -1  11   0   63.34    3.59 
   0  11   0   19.13    2.17 
   1  11   0  146.22    5.99 
   2  11   0   93.28    4.31 
   3  11   0   68.70    3.52 
  -8  12   0    0.76    1.36 
  -7  12   0   15.17    2.29 
  -6  12   0    6.16    1.67 
  -5  12   0   -0.06    1.19 
  -4  12   0   14.63    2.20 
  -3  12   0   40.38    3.00 
  -2  12   0   68.10    3.85 
  -1  12   0  124.25    5.65 
   0  12   0   73.91    4.04 
   1  12   0  109.97    5.06 
   2  12   0   30.31    2.53 
  -6  13   0   21.90    2.66 
  -5  13   0   16.82    2.35 
  -4  13   0   73.95    4.46 
  -3  13   0   80.39    4.61 
  -2  13   0   73.13    4.20 
  -1  13   0   42.07    3.15 
   0  13   0   12.60    1.90 
   1  13   0    4.60    1.45 
   1  13  -1   46.95    3.32 
   0  13  -1   84.49    4.59 
  -1  13  -1   64.74    4.05 
  -2  13  -1   71.61    4.19 
  -3  13  -1   43.60    3.48 
  -4  13  -1    5.17    1.84 
  -5  13  -1   -1.00    1.47 
   1  12  -1   77.68    4.12 
   0  12  -1   41.74    3.08 
  -1  12  -1   33.10    2.86 
  -2  12  -1    5.99    1.66 
  -3  12  -1    1.07    1.35 
  -4  12  -1    7.12    1.70 
  -5  12  -1   17.08    2.37 
  -6  12  -1    7.52    1.83 
  -7  12  -1   -0.32    1.15 
  -8  12  -1   15.85    2.53 
   2  11  -1   52.36    3.10 
   1  11  -1   15.40    1.94 
   0  11  -1    3.09    1.34 
  -1  11  -1    3.85    1.42 
  -2  11  -1    6.98    1.57 
  -3  11  -1   13.33    1.90 
  -4  11  -1    0.82    1.34 
  -5  11  -1    1.54    1.21 
  -6  11  -1   29.67    2.76 
  -7  11  -1   40.42    3.16 
  -8  11  -1   53.97    3.59 
  -9  11  -1   81.97    4.56 
   7  10  -1   85.84    4.88 
   2  10  -1   -0.71    0.91 
   1  10  -1    8.50    1.49 
   0  10  -1   33.60    2.50 
  -1  10  -1    7.53    1.39 
  -2  10  -1    5.63    1.43 
  -3  10  -1    0.59    1.14 
  -4  10  -1   14.52    1.86 
  -5  10  -1   76.36    3.93 
  -6  10  -1  106.19    4.98 
  -7  10  -1   85.20    4.49 
  -8  10  -1   77.85    4.35 
  -9  10  -1   61.21    3.89 
 -10  10  -1   18.11    2.37 
   8   9  -1   41.40    3.40 
   7   9  -1   59.91    3.85 
   6   9  -1   57.11    3.66 
   5   9  -1   14.43    2.01 
   3   9  -1    7.39    1.19 
   2   9  -1    7.24    1.23 
   1   9  -1   21.29    1.93 
   0   9  -1    5.75    1.23 
  -1   9  -1    1.72    1.06 
  -2   9  -1   18.17    1.89 
  -3   9  -1   55.09    3.04 
  -4   9  -1  112.10    4.87 
  -5   9  -1  113.29    4.91 
  -6   9  -1   78.03    3.87 
  -7   9  -1   49.52    3.20 
  -8   9  -1   25.37    2.54 
  -9   9  -1    0.43    1.34 
 -10   9  -1    3.95    1.42 
 -11   9  -1    5.34    1.69 
   9   8  -1   28.26    3.10 
   8   8  -1   21.50    2.52 
  -8  -8   1   22.18    2.23 
   7   8  -1   16.00    2.17 
  -7  -8   1   17.97    1.87 
   6   8  -1    8.19    1.72 
  -6  -8   1    8.39    1.40 
   5   8  -1    7.83    1.55 
   4   8  -1    0.92    1.22 
   3   8  -1    0.54    0.71 
   2   8  -1    1.32    0.89 
   1   8  -1    6.10    1.16 
   0   8  -1   29.63    2.09 
  -1   8  -1  133.38    5.23 
  -2   8  -1  170.82    6.33 
  -3   8  -1  149.36    5.73 
  -4   8  -1   94.46    4.09 
  -5   8  -1   15.48    1.72 
  -6   8  -1    3.51    1.17 
  -7   8  -1   -1.17    1.05 
  -8   8  -1    3.59    1.24 
  -9   8  -1   20.65    2.19 
   9  -8   1   21.21    1.97 
 -10   8  -1    3.81    1.31 
 -11   8  -1    0.95    1.38 
 -12   8  -1    3.83    1.67 
  10   7  -1    3.65    1.75 
 -10  -7   1    1.84    1.61 
   9   7  -1    2.44    1.58 
  -9  -7   1    4.48    1.56 
   8   7  -1    0.08    1.32 
  -8  -7   1    1.64    1.29 
   7   7  -1    4.57    1.50 
  -7  -7   1    5.04    1.35 
   6   7  -1   21.48    2.28 
  -6  -7   1   23.79    2.09 
   5   7  -1   19.00    2.08 
  -5  -7   1   17.54    1.58 
   4   7  -1    1.01    1.04 
   4   7  -1    0.21    0.60 
  -4  -7   1   -0.11    0.85 
   3   7  -1   75.39    3.65 
   3   7  -1   74.89    3.14 
  -3  -7   1   78.81    3.02 
   2   7  -1   65.17    2.92 
  -2  -7   1   65.64    2.51 
   1   7  -1  126.90    4.77 
  -1  -7   1  127.71    4.13 
   0   7  -1  212.25    7.29 
   0  -7   1  206.98    6.35 
  -1   7  -1  227.01    7.83 
  -2   7  -1   91.01    3.77 
  -3   7  -1   61.46    2.90 
  -3   7  -1   60.26    1.96 
  -4   7  -1   -0.35    0.35 
  -4   7  -1    0.58    0.37 
  -5   7  -1    0.05    0.45 
  -5   7  -1    0.84    0.87 
  -6   7  -1    1.98    1.07 
  -6   7  -1    2.10    0.64 
  -7   7  -1   93.87    3.65 
  -7   7  -1   97.95    4.31 
  -8   7  -1   18.79    1.62 
  -8   7  -1   16.85    1.91 
   8  -7   1   18.30    1.73 
  -9   7  -1   -0.40    0.85 
  -9   7  -1    0.10    0.99 
   9  -7   1   -1.25    0.89 
 -10   7  -1    2.54    1.27 
 -10   7  -1    0.79    1.04 
  10  -7   1    1.95    1.14 
 -11   7  -1   37.30    2.84 
 -12   7  -1   69.77    3.95 
  10   6  -1    1.38    1.64 
 -10  -6   1    1.53    1.43 
   9   6  -1    9.68    1.92 
  -9  -6   1    3.76    1.54 
   8   6  -1   -0.06    1.08 
  -8  -6   1   -0.47    1.22 
   7   6  -1    8.80    1.52 
  -7  -6   1   10.59    1.55 
   6   6  -1    3.03    1.21 
  -6  -6   1    3.66    1.15 
   5   6  -1   26.86    2.34 
  -5  -6   1   31.16    2.09 
   4   6  -1   89.06    4.13 
  -4  -6   1  104.12    3.75 
   3   6  -1  271.53    9.46 
  -3  -6   1  275.67    8.66 
   2   6  -1   99.76    3.79 
   2   6  -1  101.10    4.18 
  -2  -6   1  101.14    3.48 
   1   6  -1  208.36    7.15 
  -1  -6   1  216.41    6.58 
   0   6  -1  180.48    6.25 
   0  -6   1  181.25    5.51 
  -1   6  -1  118.22    4.40 
  -2   6  -1    0.40    0.70 
  -3   6  -1    1.90    0.73 
  -3   6  -1    1.34    0.32 
  -4   6  -1    7.79    1.08 
  -4   6  -1    8.84    0.75 
  -5   6  -1   22.79    1.74 
  -5   6  -1   20.48    1.22 
  -6   6  -1    1.04    0.66 
  -6   6  -1    1.15    0.84 
  -7   6  -1   13.02    1.29 
  -7   6  -1   12.75    1.55 
  -8   6  -1   13.19    1.65 
  -8   6  -1   10.18    1.31 
   8  -6   1   10.11    1.34 
  -9   6  -1   46.34    2.82 
  -9   6  -1   45.61    2.57 
   9  -6   1   46.71    2.62 
 -10   6  -1   73.88    3.78 
 -10   6  -1   74.20    3.66 
  10  -6   1   80.62    3.68 
 -11   6  -1  114.92    4.88 
 -11   6  -1  110.78    4.76 
  11  -6   1   99.91    4.67 
 -12   6  -1   81.50    4.15 
  12  -6   1   83.37    4.27 
 -13   6  -1   34.34    2.97 
  11   5  -1    6.01    1.87 
 -11  -5   1    5.89    1.85 
  10   5  -1    2.00    1.59 
 -10  -5   1    1.64    1.44 
   9   5  -1   -0.77    1.17 
  -9  -5   1   -0.82    1.21 
   8   5  -1   34.79    2.88 
  -8  -5   1   38.35    2.66 
   7   5  -1   11.29    1.63 
  -7  -5   1   10.55    1.54 
   6   5  -1  119.17    4.99 
  -6  -5   1  119.87    4.62 
   5   5  -1  157.56    5.10 
  -5  -5   1  158.01    5.56 
   4   5  -1  186.24    6.07 
  -4  -5   1  189.88    6.29 
   3   5  -1  179.63    6.01 
   3   5  -1  182.16    6.58 
  -3  -5   1  187.19    5.99 
   2   5  -1  108.32    4.19 
  -2  -5   1  106.14    3.62 
  -1  -5   1   48.81    1.82 
   0   5  -1   29.94    1.66 
   0  -5   1   27.48    1.08 
  -1   5  -1   11.76    1.13 
  -2   5  -1   41.76    1.36 
  -2   5  -1   40.36    2.09 
  -4   5  -1    5.81    0.64 
  -4   5  -1    3.73    0.92 
  -5   5  -1    3.36    0.65 
  -5   5  -1    5.16    1.03 
  -6   5  -1   66.65    2.70 
  -6   5  -1   66.55    2.97 
  -7   5  -1  131.49    4.61 
  -7   5  -1  122.27    4.80 
   7  -5   1  123.60    4.70 
  -8   5  -1   91.01    3.88 
  -8   5  -1   90.75    3.74 
   8  -5   1   93.87    3.83 
  -9   5  -1  176.79    6.56 
  -9   5  -1  177.98    6.39 
   9  -5   1  178.90    6.53 
 -10   5  -1  105.95    4.60 
 -10   5  -1  113.64    4.60 
  10  -5   1  108.50    4.66 
 -11   5  -1   46.10    2.80 
 -11   5  -1   41.18    2.79 
  11  -5   1   43.67    2.81 
 -12   5  -1    9.88    1.73 
  12  -5   1    9.37    1.69 
 -13   5  -1    0.43    1.33 
  13  -5   1   -1.30    1.24 
 -12  -4   1    1.35    1.66 
  11   4  -1    1.55    1.59 
 -11  -4   1    0.67    1.61 
  10   4  -1    8.32    1.78 
 -10  -4   1   12.65    1.99 
   9   4  -1   60.11    3.68 
  -9  -4   1   63.78    3.53 
   8   4  -1  210.95    8.06 
  -8  -4   1  213.06    7.61 
   7   4  -1  134.51    5.49 
  -7  -4   1  126.86    5.07 
   6   4  -1  196.23    7.32 
  -6  -4   1  200.86    6.88 
   5   4  -1  210.38    6.27 
  -5  -4   1  195.77    6.83 
   4   4  -1  122.32    3.89 
  -4  -4   1  115.38    4.22 
   3   4  -1   25.53    1.19 
   3   4  -1   17.31    1.35 
  -3  -4   1   23.37    1.38 
   2   4  -1   -0.01    0.46 
   2   4  -1    0.47    0.75 
  -2  -4   1    0.67    0.54 
   1   4  -1   17.73    1.17 
   1   4  -1   16.72    1.33 
  -1  -4   1   18.63    0.98 
   0   4  -1   -0.49    0.53 
   0  -4   1    0.55    0.30 
  -1   4  -1   -0.33    0.52 
  -3   4  -1   16.22    1.23 
  -3   4  -1   14.35    0.86 
  -4   4  -1   86.30    2.98 
  -4   4  -1   86.76    3.38 
  -6   4  -1  302.64    9.50 
  -6   4  -1  298.24    9.82 
  -7   4  -1  172.83    5.92 
  -7   4  -1  172.24    6.11 
   7  -4   1  174.51    6.09 
  -8   4  -1  152.40    5.41 
  -8   4  -1  150.90    5.48 
   8  -4   1  144.56    5.48 
  -9   4  -1   84.48    3.82 
  -9   4  -1   89.22    3.78 
   9  -4   1   91.56    3.86 
 -10   4  -1    9.23    1.44 
 -10   4  -1    9.93    1.43 
  10  -4   1   12.39    1.58 
 -11   4  -1   -0.77    1.11 
  11  -4   1    0.47    1.12 
 -12   4  -1    1.60    1.20 
  12  -4   1    1.14    1.21 
 -13   4  -1    7.57    1.69 
  13  -4   1    5.31    1.64 
  12   3  -1   12.83    2.31 
 -12  -3   1    9.52    2.07 
  11   3  -1   30.22    2.87 
 -11  -3   1   30.05    2.71 
  10   3  -1   71.65    4.02 
 -10  -3   1   68.40    3.86 
   9   3  -1  146.00    6.17 
  -9  -3   1  149.22    5.89 
   8   3  -1  150.74    6.10 
  -8  -3   1  156.06    5.91 
   7   3  -1  134.45    5.45 
  -7  -3   1  140.63    5.27 
   6   3  -1   80.96    3.60 
  -6  -3   1   74.48    3.35 
   5   3  -1    1.64    0.92 
  -5  -3   1    0.89    0.83 
   4   3  -1    1.67    0.76 
   4   3  -1    1.90    0.27 
  -4  -3   1    1.51    0.73 
   3   3  -1   36.59    1.41 
  -3  -3   1   35.70    1.74 
   2   3  -1   39.85    1.60 
  -2  -3   1   39.37    1.69 
   1   3  -1   14.32    0.96 
   0   3  -1    1.20    0.57 
   0  -3   1    0.46    0.30 
  -1   3  -1   59.96    2.33 
  -3   3  -1  238.22    7.80 
  -3   3  -1  247.48    7.41 
  -4   3  -1  283.83    8.75 
  -4   3  -1  284.95    9.11 
  -6   3  -1  159.48    5.42 
  -6   3  -1  156.92    5.30 
   6  -3   1  152.34    5.40 
  -7   3  -1   58.95    2.66 
  -7   3  -1   59.33    2.63 
   7  -3   1   61.93    2.67 
  -8   3  -1   29.81    1.98 
  -8   3  -1   27.78    1.79 
   8  -3   1   28.30    1.92 
  -9   3  -1    0.27    0.84 
  -9   3  -1    0.22    0.97 
   9  -3   1    0.08    0.88 
 -10   3  -1   10.18    1.57 
 -10   3  -1   10.56    1.34 
  10  -3   1   10.03    1.48 
 -11   3  -1   16.39    1.94 
  11  -3   1   19.40    1.98 
 -12   3  -1    2.74    1.27 
  12  -3   1    7.97    1.59 
 -13   3  -1   -0.91    1.36 
  13  -3   1    0.41    1.31 
  12   2  -1   57.60    3.83 
 -12  -2   1   48.66    3.51 
  11   2  -1   80.69    4.40 
 -11  -2   1   74.68    4.24 
  10   2  -1   58.10    3.44 
 -10  -2   1   59.08    3.54 
   9   2  -1   55.07    3.21 
  -9  -2   1   60.15    3.36 
   8   2  -1   22.72    2.05 
  -8  -2   1   27.51    2.35 
   7   2  -1    2.67    1.12 
  -7  -2   1    2.25    1.05 
   6   2  -1    1.09    0.83 
  -6  -2   1    1.59    0.98 
   5   2  -1   11.66    1.30 
  -5  -2   1   12.40    1.26 
   4   2  -1   20.94    1.64 
  -4  -2   1   22.44    1.53 
   3   2  -1   20.33    1.41 
   3   2  -1   21.62    0.79 
  -3  -2   1   18.74    1.32 
   2   2  -1    3.66    0.42 
   2   2  -1    2.86    0.69 
  -2  -2   1    2.69    0.62 
   1   2  -1   11.74    0.80 
  -1  -2   1   11.39    0.81 
   0   2  -1   59.05    2.10 
   0  -2   1   57.64    1.84 
  -1   2  -1  768.72   23.27 
  -2   2  -1  515.15   15.86 
  -2   2  -1  521.71   15.36 
  -3   2  -1  220.59    7.14 
  -3   2  -1  229.30    6.91 
  -4   2  -1   17.36    1.09 
  -4   2  -1   17.32    1.13 
  -5   2  -1   17.63    1.21 
  -5   2  -1   17.67    1.26 
   5  -2   1   19.68    1.33 
  -6   2  -1   13.54    1.21 
  -6   2  -1   14.19    1.21 
   6  -2   1   14.58    1.29 
  -7   2  -1    2.08    0.72 
  -7   2  -1    2.93    0.88 
   7  -2   1    2.24    0.85 
  -8   2  -1   35.36    2.18 
  -8   2  -1   36.66    1.95 
   8  -2   1   36.32    2.19 
  -9   2  -1   26.80    1.76 
  -9   2  -1   26.00    2.14 
   9  -2   1   28.75    2.13 
 -10   2  -1    8.60    1.47 
  10  -2   1    7.67    1.38 
 -11   2  -1    0.34    1.03 
  11  -2   1    1.56    1.22 
 -12   2  -1    5.99    1.48 
  12  -2   1    7.01    1.61 
 -13   2  -1   14.91    2.12 
  13  -2   1   16.33    2.20 
 -13  -1   1   72.77    4.51 
  12   1  -1   45.78    3.37 
 -12  -1   1   42.33    3.41 
  11   1  -1    9.25    1.68 
 -11  -1   1   11.47    1.93 
  10   1  -1   14.64    1.84 
 -10  -1   1   11.96    1.71 
   9   1  -1    1.42    1.18 
  -9  -1   1   -0.72    1.18 
   8   1  -1    1.62    1.13 
  -8  -1   1    1.67    1.06 
   7   1  -1   19.37    1.67 
  -7  -1   1   17.53    1.62 
   6   1  -1    8.49    1.17 
  -6  -1   1    6.82    1.08 
   5   1  -1   -0.53    0.73 
  -5  -1   1    0.18    0.77 
   4   1  -1   75.52    3.00 
  -4  -1   1   76.51    2.94 
   3   1  -1  346.31   10.93 
  -3  -1   1  342.93   10.57 
   2   1  -1  421.80   12.83 
  -2  -1   1  413.57   12.41 
  -2  -1   1  400.54   12.34 
   1   1  -1  530.69   16.79 
   1   1  -1  571.05   16.47 
  -1  -1   1  540.47   16.25 
   0   1  -1  890.35   28.00 
   0  -1   1  958.23   27.29 
  -2   1  -1  328.14   10.17 
  -2   1  -1  335.74    9.92 
  -3   1  -1   29.81    1.35 
  -3   1  -1   29.93    1.29 
  -4   1  -1   15.83    0.99 
  -4   1  -1   15.43    1.04 
   4  -1   1   17.09    1.19 
  -5   1  -1    5.52    0.84 
  -5   1  -1    4.99    0.66 
   5  -1   1    3.97    0.74 
  -6   1  -1  183.45    6.23 
  -6   1  -1  190.33    6.07 
   6  -1   1  184.17    6.36 
  -7   1  -1   66.85    2.88 
  -7   1  -1   66.86    2.61 
   7  -1   1   65.78    2.98 
  -8   1  -1   19.70    1.72 
  -8   1  -1   18.46    1.36 
   8  -1   1   19.10    1.76 
  -9   1  -1   -0.15    0.91 
  -9   1  -1    0.93    0.71 
   9  -1   1    0.52    1.00 
 -10   1  -1    3.98    1.23 
  10  -1   1    4.04    1.30 
 -11   1  -1   70.98    3.73 
  11  -1   1   67.25    3.74 
 -12   1  -1   51.45    3.42 
  12  -1   1   57.51    3.53 
 -13   1  -1   42.57    3.14 
  13  -1   1   42.93    3.29 
  13   0  -1   20.53    2.57 
 -13   0   1   18.97    2.58 
  12   0  -1    7.92    1.82 
 -12   0   1    4.24    1.73 
  11   0  -1    6.93    1.66 
 -11   0   1    6.48    1.49 
  10   0  -1    8.10    1.49 
 -10   0   1    8.97    1.60 
   9   0  -1   25.20    2.24 
  -9   0   1   25.91    2.18 
  -8   0   1   13.00    1.45 
   7   0  -1   27.34    1.88 
  -7   0   1   29.20    1.21 
   6   0  -1    2.68    0.79 
  -6   0   1    2.70    0.40 
  -6   0   1    2.69    0.80 
   5   0  -1  133.02    4.72 
  -5   0   1  126.77    4.56 
  -5   0   1  133.38    4.13 
   4   0  -1  299.10   10.05 
  -4   0   1  319.36    9.84 
  -4   0   1  327.78    9.59 
   3   0  -1  142.41    4.97 
  -3   0   1  155.76    4.61 
  -3   0   1  150.78    4.89 
   2   0  -1   56.31    2.15 
  -2   0   1   58.65    2.12 
  -2   0   1   57.23    1.82 
   1   0  -1  455.37   13.74 
  -1   0   1  431.08   13.57 
  -1   0   1  464.51   13.39 
   0   0  -1  512.92   16.45 
   0   0   1  561.11   15.84 
  -1   0  -1    4.26    0.33 
   1   0   1    3.70    0.30 
  -2   0  -1    2.42    0.37 
   2   0   1    2.12    0.42 
   2   0   1    1.87    0.43 
  -3   0  -1  285.03    8.68 
  -3   0  -1  288.46    8.64 
   3   0   1  273.42    8.86 
  -4   0  -1  109.36    3.53 
   4   0   1  105.72    3.81 
  -5   0  -1   23.53    1.15 
  -5   0  -1   26.25    1.53 
   5   0   1   23.79    1.58 
  -6   0  -1  149.09    4.77 
  -6   0  -1  144.27    5.05 
   6   0   1  144.73    5.20 
  -7   0  -1    1.40    0.81 
  -7   0  -1    2.17    0.55 
   7   0   1    2.42    0.93 
  -8   0  -1   13.10    1.10 
  -8   0  -1   12.33    1.40 
   8   0   1   15.02    1.61 
  -9   0  -1   49.48    2.75 
   9   0   1   51.97    2.94 
 -10   0  -1   72.87    3.61 
  10   0   1   79.35    3.89 
 -11   0  -1  126.88    5.37 
  11   0   1  125.16    5.44 
 -12   0  -1   64.91    3.82 
  12   0   1   68.13    3.94 
 -13   0  -1   25.94    2.75 
  13   0   1   32.23    3.01 
  13  -1  -1    0.19    1.41 
 -13   1   1   -1.58    1.34 
  12  -1  -1    2.73    1.47 
 -12   1   1    6.17    1.84 
  11  -1  -1    6.64    1.52 
 -11   1   1    8.69    1.75 
  10  -1  -1    0.72    1.10 
 -10   1   1    0.95    1.14 
   9  -1  -1    3.36    1.17 
  -9   1   1    1.59    1.24 
   8  -1  -1   14.29    1.51 
  -8   1   1   12.53    1.47 
   7  -1  -1   46.89    2.36 
  -7   1   1   44.89    1.85 
   6  -1  -1  246.67    8.30 
  -6   1   1  249.34    7.83 
  -6   1   1  251.18    8.16 
   5  -1  -1  556.57   17.64 
  -5   1   1  575.34   17.25 
  -5   1   1  563.28   17.21 
   4  -1  -1  246.22    8.05 
  -4   1   1  253.46    7.77 
   3  -1  -1  268.71    8.62 
  -3   1   1  278.98    8.44 
   2  -1  -1  279.73    8.68 
  -2   1   1  281.29    8.59 
   1  -1  -1    4.63    0.37 
  -1   1   1    4.09    0.39 
  -1   1   1    2.24    0.38 
   0   1   1    0.10    0.16 
   0   1   1    0.30    0.17 
   1   1   1   74.77    2.44 
   1   1   1   75.92    2.41 
  -3  -1  -1    6.06    0.54 
   3   1   1    5.92    0.68 
  -4  -1  -1   64.50    2.17 
   4   1   1   61.33    2.53 
  -5  -1  -1   15.69    0.86 
   5   1   1   15.47    1.30 
  -6  -1  -1   88.40    2.92 
   6   1   1   83.31    3.46 
  -7  -1  -1  258.83    7.92 
   7   1   1  246.81    8.64 
  -8  -1  -1  237.41    7.39 
   8   1   1  229.42    8.28 
  -9  -1  -1  205.35    7.49 
   9   1   1  218.58    7.84 
 -10  -1  -1  138.48    5.47 
  10   1   1  131.34    5.59 
 -11  -1  -1   46.24    3.10 
  11   1   1   48.80    3.23 
 -12  -1  -1   18.48    2.23 
  12   1   1   18.85    2.25 
 -13  -1  -1    2.05    1.60 
  13   1   1    2.55    1.71 
  13  -2  -1    2.40    1.48 
 -13   2   1    2.10    1.68 
  12  -2  -1   -0.38    1.21 
 -12   2   1    0.79    1.34 
  11  -2  -1   10.95    1.71 
 -11   2   1    9.08    1.68 
  10  -2  -1   50.89    2.96 
 -10   2   1   47.97    3.09 
   9  -2  -1  108.00    4.49 
  -9   2   1  104.71    4.45 
   8  -2  -1  225.11    7.82 
  -8   2   1  224.51    7.30 
  -8   2   1  219.64    7.71 
   7  -2  -1  388.09   12.47 
  -7   2   1  378.98   12.22 
  -7   2   1  386.35   12.07 
   6  -2  -1  412.24   13.41 
  -6   2   1  434.38   13.13 
  -6   2   1  418.11   13.18 
   5  -2  -1  319.43   10.31 
  -5   2   1  323.57   10.12 
  -5   2   1  326.07   10.18 
   4  -2  -1  145.62    4.90 
  -4   2   1  148.16    4.84 
  -4   2   1  147.02    4.89 
   3  -2  -1  146.69    4.83 
  -3   2   1  153.08    4.87 
  -3   2   1  147.94    4.85 
   2  -2  -1    0.38    0.36 
  -2   2   1   -0.19    0.44 
  -2   2   1   -0.33    0.55 
  -1   2   1    8.78    0.77 
  -1   2   1   10.40    0.73 
   0   2   1   45.38    1.59 
   0   2   1   44.56    1.56 
   1   2   1   55.23    1.94 
   1   2   1   57.08    1.99 
   1   2   1   57.04    2.02 
   2   2   1   11.91    0.89 
   2   2   1   10.55    0.71 
   2   2   1   11.33    0.92 
  -4  -2  -1  352.12   10.77 
  -4  -2  -1  344.65   10.64 
  -5  -2  -1  334.84   10.43 
  -5  -2  -1  345.37   10.71 
   5   2   1  343.17   11.08 
  -6  -2  -1  366.75   11.17 
  -6  -2  -1  366.36   11.56 
   6   2   1  362.81   11.95 
  -7  -2  -1  274.89    8.31 
  -7  -2  -1  266.07    8.88 
   7   2   1  264.14    9.19 
  -8  -2  -1  155.96    5.90 
   8   2   1  169.17    6.20 
  -9  -2  -1   50.97    3.01 
   9   2   1   50.44    2.96 
 -10  -2  -1   25.48    2.22 
  10   2   1   22.02    2.26 
 -11  -2  -1    2.92    1.45 
  11   2   1    3.86    1.56 
 -12  -2  -1   11.30    1.96 
  12   2   1   15.22    2.26 
 -13  -2  -1   17.43    2.38 
  13   2   1   16.65    2.46 
  13  -3  -1    6.20    1.72 
 -13   3   1    3.76    1.58 
  12  -3  -1   13.77    1.87 
 -12   3   1   11.54    1.95 
  11  -3  -1   77.42    3.86 
 -11   3   1   74.20    3.99 
  10  -3  -1  136.07    5.53 
 -10   3   1  135.27    5.54 
   9  -3  -1  212.96    7.47 
  -9   3   1  210.26    7.48 
  -9   3   1  201.05    7.04 
   8  -3  -1  159.16    5.87 
  -8   3   1  161.63    5.63 
  -8   3   1  164.13    5.98 
   7  -3  -1   94.08    3.70 
  -7   3   1   93.22    3.54 
  -7   3   1   93.34    3.83 
   6  -3  -1  138.61    4.91 
  -6   3   1  133.98    4.81 
  -6   3   1  143.81    4.99 
   5  -3  -1   18.76    1.24 
  -5   3   1   19.33    1.45 
  -5   3   1   20.01    1.31 
   4  -3  -1    4.95    0.64 
  -4   3   1    2.83    0.65 
  -4   3   1    1.06    0.56 
   3  -3  -1   22.59    1.13 
  -3   3   1   22.81    1.35 
  -3   3   1   23.02    1.27 
  -2   3   1    3.71    0.69 
  -2   3   1    4.03    0.61 
  -1   3   1   23.20    1.11 
  -1   3   1   24.75    1.30 
   0   3   1    6.60    0.80 
   0   3   1    8.23    0.74 
   0   3   1    7.55    0.60 
   1   3   1   28.41    1.33 
   1   3   1   25.74    1.34 
   1   3   1   24.71    1.15 
   2   3   1  306.18    9.25 
   2   3   1  299.67    9.62 
   2   3   1  305.10    9.40 
   3   3   1  536.98   16.08 
   3   3   1  531.13   16.23 
   4   3   1  401.49   12.26 
  -5  -3  -1  293.20    9.25 
  -5  -3  -1  286.97    8.94 
  -6  -3  -1  207.60    7.04 
  -6  -3  -1  211.52    6.55 
   6   3   1  212.02    7.34 
  -7  -3  -1   95.45    3.88 
  -7  -3  -1   91.36    3.03 
  -8  -3  -1    5.01    1.16 
   8   3   1    3.09    1.14 
  -9  -3  -1    2.82    1.34 
   9   3   1    0.70    1.26 
 -10  -3  -1    9.61    1.73 
  10   3   1    9.65    1.68 
 -11  -3  -1    5.11    1.56 
  11   3   1    6.78    1.64 
 -12  -3  -1    0.71    1.38 
  12   3   1    0.27    1.31 
 -13  -3  -1   -2.05    1.54 
  13   3   1    0.35    1.62 
 -13   4   1   44.83    3.52 
  12  -4  -1   57.51    3.37 
 -12   4   1   52.19    3.49 
  11  -4  -1   85.74    4.11 
 -11   4   1   85.97    4.22 
  10  -4  -1   97.97    4.34 
 -10   4   1  106.09    4.57 
   9  -4  -1   59.99    2.97 
  -9   4   1   56.98    3.15 
  -9   4   1   63.01    2.84 
   8  -4  -1    2.31    0.90 
  -8   4   1    1.44    1.04 
  -8   4   1    2.63    0.92 
   7  -4  -1    6.18    0.99 
  -7   4   1    6.20    1.01 
  -7   4   1    8.29    1.16 
   6  -4  -1   18.55    1.39 
  -6   4   1   20.03    1.50 
  -6   4   1   21.00    1.60 
   5  -4  -1   64.28    2.51 
  -5   4   1   59.43    2.66 
  -5   4   1   66.18    2.67 
   4  -4  -1   52.30    2.08 
  -4   4   1   51.58    2.33 
  -3   4   1  120.68    4.24 
  -3   4   1  116.84    3.96 
  -2   4   1   40.77    1.91 
  -2   4   1   41.29    1.65 
   0   4   1   61.19    2.10 
   0   4   1   58.93    2.42 
   1   4   1  279.29    8.81 
   1   4   1  276.15    8.40 
   1   4   1  270.38    8.72 
   2   4   1  445.44   13.36 
   2   4   1  439.84   13.68 
   3   4   1  192.50    6.09 
   3   4   1  186.44    6.42 
   4   4   1  166.08    5.33 
   4   4   1  166.43    5.89 
  -5  -4  -1   16.06    1.40 
   5   4   1   16.89    1.50 
  -6  -4  -1    3.17    0.47 
  -6  -4  -1    2.88    0.99 
  -7  -4  -1   -0.28    0.87 
   7   4   1    0.02    0.54 
  -8  -4  -1   44.65    2.74 
   8   4   1   42.45    2.68 
  -9  -4  -1   29.53    2.39 
   9   4   1   32.99    2.52 
 -10  -4  -1    1.96    1.48 
  10   4   1    2.59    1.32 
 -11  -4  -1   -3.08    1.22 
  11   4   1    0.34    1.30 
 -12  -4  -1    3.84    1.82 
  12   4   1    6.05    1.88 
 -13   5   1   35.69    3.21 
 -12   5   1   21.65    2.38 
  11  -5  -1   20.97    2.07 
 -11   5   1   22.68    2.30 
  10  -5  -1    7.40    1.31 
 -10   5   1    5.67    1.43 
 -10   5   1    7.31    1.30 
   9  -5  -1    3.57    1.03 
  -9   5   1    2.27    1.01 
  -9   5   1    2.87    1.14 
   8  -5  -1   53.15    2.64 
  -8   5   1   53.73    2.75 
  -8   5   1   53.15    2.84 
   7  -5  -1   21.32    1.59 
  -7   5   1   22.87    1.92 
  -7   5   1   22.53    1.79 
   6  -5  -1   47.42    2.16 
  -6   5   1   49.81    2.42 
  -6   5   1   45.10    2.40 
   5  -5  -1   13.31    1.14 
  -5   5   1   13.40    1.19 
  -5   5   1   14.99    1.37 
  -4   5   1    4.27    0.88 
  -4   5   1    0.07    0.42 
  -3   5   1   51.27    2.06 
  -3   5   1   53.47    2.41 
  -2   5   1  424.09   12.77 
  -2   5   1  422.68   13.37 
  -1   5   1  173.77    5.45 
   0   5   1  442.48   13.28 
   1   5   1  253.02    7.77 
   2   5   1  106.87    3.60 
   2   5   1  108.81    4.00 
   3   5   1    1.05    0.71 
   3   5   1    0.24    0.41 
   3   5   1    1.88    0.57 
   4   5   1    4.32    0.59 
   4   5   1    2.43    0.84 
  -5  -5  -1    2.53    0.82 
   5   5   1    4.10    0.54 
   5   5   1    3.38    0.93 
  -7  -5  -1   52.97    2.68 
   7   5   1   47.86    2.79 
  -8  -5  -1   17.15    1.88 
   8   5   1   14.59    1.73 
  -9  -5  -1    0.79    1.29 
   9   5   1   -0.68    1.07 
 -10  -5  -1   21.87    2.37 
  10   5   1   24.74    2.58 
 -11  -5  -1   18.84    2.18 
  11   5   1   17.23    2.31 
 -12  -5  -1   29.84    2.92 
  12   5   1   29.11    2.98 
 -12   6   1    0.07    1.38 
 -11   6   1    0.76    1.35 
 -10   6   1   10.80    1.66 
 -10   6   1   12.43    1.65 
   9  -6  -1   23.79    1.90 
  -9   6   1   24.47    2.15 
  -9   6   1   19.77    1.97 
   8  -6  -1   43.71    2.31 
  -8   6   1   41.67    2.49 
  -8   6   1   40.02    2.52 
   7  -6  -1   25.21    1.69 
  -7   6   1   23.66    1.96 
  -7   6   1   23.94    1.84 
   6  -6  -1   24.99    1.59 
  -6   6   1   25.50    1.96 
  -6   6   1   24.70    1.76 
  -5   6   1  185.14    6.11 
  -5   6   1  178.81    6.48 
  -4   6   1  301.60    9.99 
  -3   6   1  330.02   10.19 
  -3   6   1  332.96   10.83 
  -2   6   1  875.86   26.05 
  -1   6   1  707.30   20.97 
  -1   6   1  699.86   21.86 
   0   6   1  355.72   10.80 
   0   6   1  357.66   11.46 
   1   6   1   58.08    2.10 
   1   6   1   54.96    2.52 
   1   6   1   54.95    2.51 
   2   6   1   24.18    1.67 
   2   6   1   22.78    1.53 
   2   6   1   23.45    1.23 
   3   6   1    0.54    0.52 
   3   6   1    0.55    0.75 
   3   6   1    1.14    0.56 
   4   6   1    0.80    0.43 
   4   6   1    5.74    1.06 
  -5  -6  -1    0.08    0.78 
   5   6   1    0.68    0.85 
   5   6   1    0.69    0.45 
  -6  -6  -1   -0.29    0.90 
   6   6   1    0.60    0.43 
   6   6   1   -0.61    1.01 
  -7  -6  -1    6.94    1.37 
   7   6   1    7.40    1.46 
  -8  -6  -1   75.06    3.58 
   8   6   1   68.17    3.68 
  -9  -6  -1   55.36    3.31 
   9   6   1   53.64    3.29 
 -10  -6  -1  105.96    5.02 
  10   6   1  118.20    5.47 
 -11  -6  -1   54.12    3.69 
  11   6   1   66.39    4.10 
 -12   7   1    3.23    1.56 
 -11   7   1   11.98    1.87 
 -10   7   1    0.56    1.20 
 -10   7   1   -0.58    1.08 
  -9   7   1   -1.25    0.99 
  -9   7   1    0.61    1.04 
   8  -7  -1    3.49    0.99 
  -8   7   1    4.73    1.29 
  -8   7   1    3.86    1.08 
   7  -7  -1  157.30    5.51 
  -7   7   1  149.44    5.55 
  -7   7   1  153.11    5.94 
  -6   7   1  226.40    7.92 
  -6   7   1  216.96    7.35 
  -5   7   1  234.49    7.74 
  -5   7   1  245.05    8.39 
  -4   7   1  163.91    6.03 
  -3   7   1  162.81    5.28 
  -2   7   1  153.52    5.70 
  -2   7   1  158.63    5.03 
  -1   7   1   46.32    2.39 
  -1   7   1   46.77    1.78 
   0   7   1    0.76    0.70 
   0   7   1    0.55    0.41 
   1   7   1   13.74    1.35 
   1   7   1   14.29    0.91 
   2   7   1   12.53    1.25 
   2   7   1   15.63    1.43 
   3   7   1    4.96    0.74 
   3   7   1    6.35    1.16 
   3   7   1    4.77    0.86 
  -4  -7  -1    1.08    0.75 
   4   7   1    1.04    0.94 
   4   7   1    1.11    0.63 
  -5  -7  -1    5.65    1.10 
   5   7   1    6.75    0.83 
   5   7   1    9.04    1.48 
  -6  -7  -1   41.86    2.43 
   6   7   1   41.06    2.80 
  -7  -7  -1   98.14    4.22 
   7   7   1  104.33    4.77 
  -8  -7  -1  146.22    5.69 
   8   7   1  143.87    6.15 
  -9  -7  -1   71.53    3.78 
   9   7   1   72.14    4.12 
 -10  -7  -1   41.58    3.12 
  10   7   1   37.91    3.22 
 -11  -7  -1   19.82    2.34 
  11   7   1   22.60    2.75 
 -11   8   1    9.63    1.76 
 -11   8   1    9.76    1.87 
 -10   8   1   27.69    2.57 
 -10   8   1   23.54    2.25 
  -9   8   1   59.44    3.38 
  -9   8   1   52.10    2.99 
  -8   8   1  201.26    7.53 
  -8   8   1  200.97    7.11 
   7  -8  -1  212.33    7.40 
  -7   8   1  213.33    7.34 
  -7   8   1  222.75    7.98 
  -6   8   1  105.93    3.90 
  -6   8   1   95.18    4.42 
  -5   8   1   79.38    3.12 
  -5   8   1   84.29    3.87 
  -4   8   1   11.39    1.52 
  -2   8   1    8.71    1.27 
  -2   8   1    9.35    0.78 
  -1   8   1   68.38    3.28 
  -1   8   1   72.09    2.52 
   0   8   1   45.29    2.54 
   0   8   1   45.75    1.80 
   1   8   1   11.09    1.29 
   1   8   1   11.81    0.88 
   2   8   1   -1.12    0.85 
   2   8   1   -0.14    0.35 
   2   8   1   -0.69    0.74 
   3   8   1   41.38    2.26 
   3   8   1   42.60    2.60 
  -4  -8  -1   77.37    3.17 
   4   8   1   77.62    3.77 
   4   8   1   80.36    3.26 
  -5  -8  -1   71.15    3.13 
   5   8   1   69.37    2.89 
   5   8   1   65.66    3.63 
  -6  -8  -1  116.08    4.57 
   6   8   1  119.91    5.26 
  -7  -8  -1  127.02    5.00 
   7   8   1  121.54    5.55 
  -8  -8  -1   58.60    3.23 
   8   8   1   55.86    3.65 
  -9  -8  -1   23.61    2.26 
   9   8   1   22.46    2.63 
 -10  -8  -1    5.77    1.64 
  10   8   1    2.27    1.56 
 -11   9   1   63.56    3.89 
 -10   9   1   97.28    4.84 
  -9   9   1  101.09    4.86 
  -8   9   1  152.03    6.23 
  -7   9   1   92.23    4.43 
  -6   9   1   32.11    2.45 
  -5   9   1    0.76    1.01 
  -4   9   1    8.90    1.36 
  -3   9   1    8.33    1.38 
  -2   9   1   37.74    2.52 
  -1   9   1    5.94    1.21 
   0   9   1    7.56    1.34 
   1   9   1   36.65    1.66 
   1   9   1   41.17    2.48 
   2   9   1  137.25    5.26 
   2   9   1  133.81    4.52 
  -3  -9  -1  114.10    4.21 
   3   9   1  117.13    5.01 
   3   9   1  126.03    4.77 
  -4  -9  -1  195.92    6.81 
   4   9   1  204.73    7.13 
   4   9   1  211.41    7.73 
  -5  -9  -1  200.35    6.86 
   5   9   1  198.18    7.70 
  -6  -9  -1   86.95    3.74 
   6   9   1   81.54    4.24 
  -7  -9  -1   24.75    2.19 
   7   9   1   23.41    2.48 
  -8  -9  -1   11.75    1.71 
   8   9   1   10.94    2.09 
  -9  -9  -1   -0.04    1.34 
   9   9   1    2.91    1.62 
 -10  10   1   46.03    3.30 
  -9  10   1   26.53    2.74 
  -8  10   1    4.05    1.45 
  -7  10   1    0.89    1.14 
  -6  10   1    9.08    1.71 
  -5  10   1   14.90    1.88 
  -4  10   1   10.95    1.60 
  -3  10   1    0.28    1.00 
  -2  10   1    3.91    1.21 
  -1  10   1   35.13    2.58 
   0  10   1   94.54    4.32 
   1  10   1  159.41    6.19 
   2  10   1  159.10    6.13 
   3  10   1  159.03    6.03 
   4  10   1   66.71    3.12 
   4  10   1   60.41    3.58 
   5  10   1    3.79    1.51 
   6  10   1   12.12    1.91 
   7  10   1    0.08    1.28 
   8  10   1   -0.44    1.44 
  -9  11   1    6.66    1.87 
  -8  11   1   19.33    2.37 
  -7  11   1   25.38    2.67 
  -6  11   1   16.49    2.11 
  -5  11   1    2.85    1.27 
  -4  11   1    2.27    1.17 
  -3  11   1   35.79    2.68 
  -2  11   1  139.94    5.87 
  -1  11   1  139.22    5.81 
   0  11   1   86.42    4.23 
   1  11   1  124.23    5.29 
   2  11   1   24.87    2.25 
   3  11   1   15.25    1.75 
   6  11   1    4.91    1.65 
   7  11   1   18.79    2.60 
  -8  12   1    0.59    1.53 
  -7  12   1    1.91    1.38 
  -6  12   1   16.43    2.17 
  -5  12   1   49.61    3.38 
  -4  12   1  123.92    5.65 
  -3  12   1  127.02    5.71 
  -2  12   1  135.94    5.95 
  -1  12   1  121.56    5.44 
   0  12   1   38.46    2.79 
   1  12   1   31.44    2.60 
   2  12   1    1.23    1.18 
   3  12   1    0.10    0.95 
  -7  13   1   60.23    4.13 
  -6  13   1   74.63    4.35 
  -5  13   1   65.67    4.15 
  -4  13   1   97.26    5.04 
  -3  13   1   43.85    3.43 
  -2  13   1   21.76    2.55 
  -1  13   1    1.42    1.36 
   0  13   1    6.03    1.54 
   1  13   1    0.89    1.15 
   2  13   1    9.21    1.74 
  -4  14   1    7.06    2.01 
  -3  14   1    0.19    1.55 
  -2  14   1    5.69    1.87 
  -1  14   1   22.27    2.65 
   0  14   1    7.13    1.78 
   1  14   1    4.59    1.62 
  -1  13  -2    5.75    1.74 
  -2  13  -2    2.18    1.64 
  -3  13  -2    0.22    1.45 
   1  12  -2   13.81    2.06 
   0  12  -2   13.10    2.03 
  -1  12  -2   -0.06    1.26 
  -2  12  -2    2.03    1.44 
  -3  12  -2    1.03    1.44 
  -4  12  -2   -0.36    1.18 
  -5  12  -2   -0.66    1.25 
  -6  12  -2   15.05    2.24 
  -7  12  -2   67.18    4.13 
   1  11  -2   19.16    2.12 
   0  11  -2   16.36    2.05 
  -1  11  -2    3.24    1.36 
  -2  11  -2    6.96    1.66 
  -3  11  -2    1.84    1.34 
  -4  11  -2   22.56    2.43 
  -5  11  -2   65.04    3.99 
  -6  11  -2  127.28    5.91 
  -7  11  -2   81.44    4.55 
  -8  11  -2   63.60    3.98 
  -9  11  -2   77.71    4.52 
   2  10  -2   13.65    1.66 
   1  10  -2    9.06    1.56 
   0  10  -2    5.57    1.41 
  -1  10  -2    1.16    1.02 
  -2  10  -2   28.72    2.50 
  -3  10  -2   67.54    3.74 
  -4  10  -2  141.16    5.94 
  -5  10  -2  168.24    6.88 
  -6  10  -2  116.23    5.25 
  -7  10  -2   43.53    3.02 
  -8  10  -2   24.56    2.67 
  -9  10  -2    6.14    1.69 
 -10  10  -2    3.26    1.49 
   7   9  -2    2.90    1.60 
   2   9  -2   -1.58    0.77 
   1   9  -2   14.29    1.65 
   0   9  -2   50.86    2.90 
  -1   9  -2   92.18    4.20 
  -2   9  -2  119.56    5.00 
  -3   9  -2  127.52    5.29 
  -4   9  -2  150.48    6.02 
  -5   9  -2   54.50    3.21 
  -6   9  -2   13.96    1.78 
  -7   9  -2    1.35    1.29 
  -8   9  -2   -1.26    1.20 
  -9   9  -2    3.46    1.38 
 -10   9  -2    6.67    1.76 
 -11   9  -2   -0.33    1.33 
   8   8  -2    2.99    1.70 
   7   8  -2    7.35    1.80 
   6   8  -2   43.60    3.16 
   5   8  -2   11.45    1.85 
   3   8  -2   10.30    1.23 
   2   8  -2   64.60    3.01 
   1   8  -2   87.78    3.80 
   0   8  -2  132.10    5.18 
  -1   8  -2  154.63    5.89 
  -2   8  -2   85.42    3.87 
  -3   8  -2   42.84    2.56 
  -4   8  -2    1.64    1.00 
  -5   8  -2   32.43    2.25 
  -6   8  -2   18.10    1.89 
  -7   8  -2   24.34    2.20 
  -8   8  -2    1.22    1.14 
  -9   8  -2    3.48    1.36 
 -10   8  -2    5.41    1.44 
  10  -8   2    3.75    1.34 
 -11   8  -2   21.96    2.37 
 -12   8  -2   45.58    3.38 
   9   7  -2    2.68    1.67 
  -9  -7   2   -1.57    1.35 
   8   7  -2    1.94    1.56 
  -8  -7   2    2.50    1.36 
   7   7  -2    1.77    1.40 
  -7  -7   2    2.39    1.34 
   6   7  -2   -0.30    1.19 
  -6  -7   2    1.37    1.12 
   5   7  -2    9.98    1.70 
  -5  -7   2    8.48    1.31 
   4   7  -2   86.60    4.29 
  -4  -7   2   86.08    3.51 
   3   7  -2  200.81    6.86 
  -3  -7   2  198.69    6.56 
   2   7  -2  163.24    5.82 
   1   7  -2  212.45    7.36 
   0   7  -2  163.11    5.92 
  -1   7  -2   61.25    2.95 
  -2   7  -2    1.62    0.84 
  -3   7  -2    0.70    0.83 
  -5   7  -2    1.24    0.72 
  -6   7  -2   11.07    1.50 
  -7   7  -2   31.50    2.29 
  -8   7  -2   62.23    3.42 
  -9   7  -2   24.80    2.21 
   9  -7   2   20.85    2.01 
 -10   7  -2   50.90    3.23 
  10  -7   2   49.84    3.06 
 -11   7  -2  103.62    4.81 
  11  -7   2  104.68    4.71 
 -12   7  -2   65.15    3.82 
  10   6  -2    4.53    1.92 
 -10  -6   2    4.72    1.66 
   9   6  -2    0.41    1.42 
  -9  -6   2    3.15    1.51 
   8   6  -2    9.24    1.91 
  -8  -6   2    6.00    1.58 
   7   6  -2   36.29    2.92 
  -7  -6   2   35.28    2.55 
   6   6  -2   68.29    3.74 
  -6  -6   2   71.82    3.39 
   5   6  -2  106.68    4.64 
  -5  -6   2  101.19    4.12 
   4   6  -2  172.60    6.64 
  -4  -6   2  170.96    5.88 
   3   6  -2   83.69    4.27 
   3   6  -2  104.50    3.81 
  -3  -6   2  117.38    3.82 
   2   6  -2   17.42    1.41 
  -2  -6   2   16.44    1.23 
   1   6  -2   27.84    1.71 
  -1  -6   2   26.87    1.31 
   0   6  -2    1.50    0.79 
   0  -6   2    0.32    0.36 
  -1   6  -2    2.20    0.84 
  -2   6  -2   68.96    3.01 
  -3   6  -2    3.73    0.90 
  -5   6  -2    0.14    0.44 
  -5   6  -2   -0.34    0.62 
  -7   6  -2  141.96    5.45 
  -7   6  -2  136.36    4.85 
  -8   6  -2  148.04    5.71 
  -8   6  -2  146.33    5.26 
  -9   6  -2   80.32    3.47 
  -9   6  -2   82.14    3.80 
   9  -6   2   76.94    3.70 
 -10   6  -2  103.36    4.62 
 -10   6  -2   99.68    4.26 
  10  -6   2  103.96    4.47 
 -11   6  -2   61.66    3.48 
 -11   6  -2   61.17    3.30 
  11  -6   2   59.38    3.37 
 -12   6  -2   23.00    2.30 
 -12   6  -2   20.99    2.25 
  12  -6   2   20.95    2.22 
  10   5  -2    6.70    1.75 
 -10  -5   2    4.08    1.64 
   9   5  -2   33.65    2.92 
  -9  -5   2   36.57    2.90 
   8   5  -2   78.95    4.34 
  -8  -5   2   84.62    4.00 
   7   5  -2   83.23    4.31 
  -7  -5   2   85.05    3.85 
   6   5  -2  141.32    5.83 
  -6  -5   2  144.22    5.36 
   5   5  -2   90.82    4.16 
  -5  -5   2   93.37    3.73 
   4   5  -2   44.64    1.84 
  -4  -5   2   43.67    2.27 
   3   5  -2    0.27    0.53 
   3   5  -2    3.33    0.63 
  -3  -5   2    2.57    0.78 
   2   5  -2    9.39    1.28 
  -2  -5   2    9.79    0.90 
   1   5  -2   20.48    1.43 
  -1  -5   2   21.28    1.14 
   0   5  -2   87.59    3.43 
   0  -5   2   90.37    2.84 
  -1   5  -2   22.92    1.48 
  -2   5  -2    7.93    1.03 
  -3   5  -2   39.53    2.10 
  -4   5  -2   37.37    1.46 
  -5   5  -2  175.16    5.53 
  -5   5  -2  170.14    6.15 
  -6   5  -2  173.95    5.72 
  -7   5  -2  249.14    8.61 
  -7   5  -2  254.21    8.17 
  -8   5  -2  194.91    6.97 
  -8   5  -2  196.67    6.63 
   8  -5   2  190.02    6.92 
  -9   5  -2  100.67    4.07 
  -9   5  -2  100.40    4.29 
   9  -5   2   98.74    4.22 
 -10   5  -2   26.54    2.20 
 -10   5  -2   28.98    2.27 
  10  -5   2   29.11    2.29 
 -11   5  -2    2.43    1.28 
 -11   5  -2    3.62    1.28 
  11  -5   2    2.29    1.23 
 -12   5  -2    0.29    1.17 
 -12   5  -2   -0.23    1.13 
  12  -5   2    0.99    1.28 
 -13   5  -2    7.96    1.76 
  13  -5   2   10.07    1.81 
  11   4  -2   29.13    3.00 
 -11  -4   2   23.98    2.70 
  10   4  -2   50.15    3.64 
 -10  -4   2   53.31    3.51 
   9   4  -2  107.97    5.04 
  -9  -4   2  100.91    4.74 
   8   4  -2  128.91    5.66 
  -8  -4   2  127.29    5.24 
   7   4  -2   45.94    3.01 
  -7  -4   2   43.07    2.71 
   6   4  -2   49.39    2.83 
  -6  -4   2   44.11    2.61 
   5   4  -2   12.84    1.54 
  -5  -4   2   15.64    1.45 
   4   4  -2    0.46    0.85 
   4   4  -2    0.98    0.38 
  -4  -4   2    0.89    0.80 
   3   4  -2   25.33    1.26 
  -3  -4   2   24.21    1.52 
   2   4  -2   93.57    3.26 
  -2  -4   2   89.69    3.19 
   1   4  -2   25.54    1.38 
  -1  -4   2   22.52    1.16 
  -1   4  -2    3.44    0.72 
  -2   4  -2   76.46    2.99 
  -4   4  -2  264.03    7.96 
  -4   4  -2  255.09    8.54 
  -5   4  -2  289.28    9.50 
  -5   4  -2  290.69    8.98 
  -6   4  -2  120.63    4.19 
  -6   4  -2  121.63    4.52 
  -7   4  -2   67.16    3.04 
  -7   4  -2   72.01    2.92 
   7  -4   2   72.79    3.13 
  -8   4  -2   34.44    2.14 
  -8   4  -2   31.00    1.99 
   8  -4   2   31.23    1.99 
  -9   4  -2   -0.28    0.86 
  -9   4  -2    0.85    0.89 
   9  -4   2    0.14    0.95 
 -10   4  -2    9.32    1.40 
 -10   4  -2    8.14    1.34 
  10  -4   2    7.11    1.36 
 -11   4  -2    7.97    1.43 
 -11   4  -2    6.82    1.30 
  11  -4   2    5.18    1.37 
 -12   4  -2    2.85    1.34 
  12  -4   2   -0.69    1.20 
 -13   4  -2    4.33    1.53 
  13  -4   2    1.22    1.36 
  11   3  -2   57.90    3.88 
 -11  -3   2   56.22    3.82 
  10   3  -2   66.83    3.98 
 -10  -3   2   61.63    3.79 
   9   3  -2   50.71    3.30 
  -9  -3   2   45.26    3.13 
   8   3  -2   19.03    1.99 
  -8  -3   2   16.25    1.82 
   7   3  -2   12.53    1.72 
  -7  -3   2   11.72    1.61 
   6   3  -2   -0.15    0.92 
  -6  -3   2    0.44    0.89 
   5   3  -2   14.22    1.58 
  -5  -3   2   12.53    1.32 
   4   3  -2    8.37    1.20 
   4   3  -2   12.41    0.57 
  -4  -3   2    9.28    1.07 
   3   3  -2   12.12    0.77 
   3   3  -2    9.47    1.15 
  -3  -3   2   11.25    1.03 
   2   3  -2    1.64    0.49 
   2   3  -2    1.22    0.73 
  -2  -3   2    1.39    0.61 
   1   3  -2   84.39    3.02 
  -1  -3   2   88.78    2.91 
   0   3  -2  108.67    3.78 
   0  -3   2  112.38    3.45 
  -1   3  -2  218.66    7.03 
  -3   3  -2  365.04   10.92 
  -4   3  -2  198.96    6.14 
  -4   3  -2  194.37    6.53 
  -5   3  -2   53.44    2.07 
  -5   3  -2   50.26    2.27 
  -6   3  -2    3.24    0.72 
  -6   3  -2    3.04    0.78 
  -7   3  -2   -0.06    0.67 
  -7   3  -2    0.08    0.69 
   7  -3   2    0.57    0.80 
  -8   3  -2    8.39    1.21 
  -8   3  -2   10.71    1.21 
   8  -3   2    9.46    1.28 
  -9   3  -2   16.66    1.62 
  -9   3  -2   18.70    1.69 
   9  -3   2   18.56    1.75 
 -10   3  -2    4.85    1.09 
 -10   3  -2    4.05    1.21 
  10  -3   2    4.36    1.22 
 -11   3  -2    0.63    0.92 
 -11   3  -2    0.39    1.04 
  11  -3   2    0.92    1.12 
 -12   3  -2   15.16    1.89 
  12  -3   2   12.85    1.82 
 -13   3  -2   24.32    2.45 
  13  -3   2   28.05    2.62 
 -14   3  -2   35.30    3.14 
  12   2  -2   57.67    3.92 
 -12  -2   2   46.71    3.57 
  11   2  -2   33.99    3.06 
 -11  -2   2   37.34    3.23 
  10   2  -2    8.77    1.81 
 -10  -2   2    9.93    1.86 
   9   2  -2    2.05    1.31 
  -9  -2   2    1.56    1.22 
   8   2  -2    4.91    1.23 
  -8  -2   2    5.02    1.44 
   7   2  -2    6.79    1.34 
  -7  -2   2    5.37    1.37 
   6   2  -2    3.61    1.02 
  -6  -2   2    2.71    1.09 
   5   2  -2    1.33    0.82 
  -5  -2   2    1.70    0.87 
   4   2  -2   31.53    1.88 
  -4  -2   2   31.33    1.81 
   3   2  -2  133.67    4.95 
  -3  -2   2  141.54    4.65 
   2   2  -2  248.46    7.57 
   2   2  -2  240.12    8.07 
  -2  -2   2  248.60    7.66 
   1   2  -2  291.87    8.81 
   1   2  -2  261.15    9.14 
  -1  -2   2  301.69    8.69 
   0   2  -2   47.31    1.84 
   0  -2   2   49.03    1.68 
  -1   2  -2  507.69   15.54 
   1  -2   2  507.41   14.94 
  -3   2  -2   21.54    1.02 
  -3   2  -2   20.44    1.23 
  -4   2  -2   32.55    1.39 
  -4   2  -2   31.12    1.54 
  -6   2  -2    9.35    1.00 
  -6   2  -2    7.10    0.90 
   6  -2   2    7.93    0.98 
  -7   2  -2   23.63    1.52 
  -7   2  -2   19.78    1.44 
   7  -2   2   21.67    1.65 
  -8   2  -2   28.93    1.96 
  -8   2  -2   28.44    1.77 
   8  -2   2   29.79    1.90 
  -9   2  -2    0.62    0.96 
  -9   2  -2    0.88    0.80 
   9  -2   2    0.20    0.85 
 -10   2  -2   23.88    2.07 
 -10   2  -2   21.67    1.77 
  10  -2   2   20.21    1.97 
 -11   2  -2   77.18    3.79 
  11  -2   2   80.42    3.87 
 -12   2  -2   77.50    3.93 
  12  -2   2   73.30    3.99 
 -13   2  -2   55.75    3.65 
  13  -2   2   70.13    3.96 
 -14   2  -2   72.62    4.26 
  14  -2   2   78.32    4.52 
  12   1  -2    1.06    1.43 
 -12  -1   2   -2.11    1.50 
  11   1  -2    1.33    1.42 
 -11  -1   2    0.14    1.35 
  10   1  -2    1.15    1.34 
 -10  -1   2    0.50    1.45 
   9   1  -2   10.13    1.69 
  -9  -1   2   10.81    1.68 
   8   1  -2    3.25    1.28 
  -8  -1   2    2.58    1.29 
   7   1  -2    4.18    1.13 
  -7  -1   2    4.78    1.17 
   6   1  -2    3.06    0.93 
  -6  -1   2    5.33    1.17 
   5   1  -2   52.23    2.57 
  -5  -1   2   53.12    2.52 
   4   1  -2  320.64   10.58 
  -4  -1   2  333.67   10.26 
   3   1  -2  478.14   15.04 
  -3  -1   2  478.26   14.56 
   2   1  -2  291.65    8.60 
   2   1  -2  270.52    9.06 
  -2  -1   2  287.20    8.76 
   1   1  -2  265.86    7.89 
   1   1  -2  249.73    8.19 
  -1  -1   2  253.93    7.84 
   0   1  -2   12.03    0.79 
   0  -1   2   11.98    0.76 
  -1   1  -2  105.52    3.42 
   1  -1   2  100.78    3.17 
  -2   1  -2   33.33    1.43 
   2  -1   2   32.57    1.23 
  -3   1  -2  215.06    6.71 
   3  -1   2  205.72    6.45 
  -4   1  -2   64.42    2.32 
  -4   1  -2   60.23    2.37 
  -5   1  -2   30.83    1.67 
  -5   1  -2   38.52    1.64 
   5  -1   2   38.37    1.80 
  -6   1  -2   55.59    2.29 
  -6   1  -2   57.16    2.44 
   6  -1   2   58.15    2.50 
  -7   1  -2    0.87    0.77 
  -7   1  -2    0.59    0.63 
   7  -1   2    0.64    0.80 
  -8   1  -2   18.40    1.40 
  -8   1  -2   16.55    1.57 
   8  -1   2   20.32    1.63 
  -9   1  -2   93.15    3.94 
  -9   1  -2   99.95    3.68 
   9  -1   2   90.16    4.11 
 -10   1  -2  127.59    4.54 
 -10   1  -2  118.99    4.87 
  10  -1   2  117.87    5.06 
 -11   1  -2  176.36    6.71 
  11  -1   2  181.42    7.00 
 -12   1  -2   69.17    3.80 
  12  -1   2   68.78    3.89 
 -13   1  -2   41.83    3.17 
  13  -1   2   38.29    3.22 
 -14   1  -2   16.36    2.33 
  14  -1   2   16.23    2.33 
  12   0  -2    2.00    1.44 
 -12   0   2    0.50    1.39 
  11   0  -2   15.51    2.06 
 -11   0   2   11.83    1.86 
  10   0  -2    0.58    1.05 
 -10   0   2   -0.43    1.11 
   9   0  -2    1.93    1.15 
  -9   0   2    1.12    1.21 
   8   0  -2    7.59    1.40 
  -8   0   2    8.99    1.45 
   7   0  -2   22.70    1.89 
  -7   0   2   20.91    1.84 
   6   0  -2  157.31    5.70 
  -6   0   2  157.80    5.61 
   5   0  -2  142.78    5.10 
  -5   0   2  139.93    5.00 
   4   0  -2  428.64   13.60 
  -4   0   2  451.76   13.30 
  -4   0   2  413.29   12.94 
   3   0  -2  107.91    3.88 
  -3   0   2  111.24    3.81 
   2   0  -2    0.97    0.26 
   2   0  -2    1.42    0.63 
  -2   0   2    2.39    0.71 
   1   0  -2  340.48   10.53 
   1   0  -2  340.32   10.32 
  -1   0   2  338.15   10.26 
   0   0  -2   16.41    0.82 
   0   0   2   15.48    0.80 
  -1   0  -2   99.50    3.24 
  -2   0  -2    2.10    0.49 
   2   0   2    1.73    0.45 
  -3   0  -2    6.77    0.68 
   3   0   2    5.90    0.63 
   3   0   2    7.84    0.76 
  -4   0  -2    6.73    0.70 
   4   0   2    5.90    0.74 
   4   0   2    5.09    0.80 
  -5   0  -2  106.25    3.75 
  -5   0  -2  109.38    3.66 
   5   0   2  102.65    3.83 
  -6   0  -2  110.27    4.11 
  -6   0  -2  120.62    3.97 
   6   0   2  114.68    4.26 
  -7   0  -2  185.60    6.03 
  -7   0  -2  181.08    6.28 
   7   0   2  184.89    6.49 
  -8   0  -2  144.88    5.28 
  -8   0  -2  144.62    4.87 
   8   0   2  139.20    5.41 
  -9   0  -2  178.74    6.48 
  -9   0  -2  179.61    5.97 
   9   0   2  174.53    6.62 
 -10   0  -2  124.45    5.05 
  10   0   2  119.11    5.07 
 -11   0  -2   95.11    4.46 
  11   0   2   99.22    4.54 
 -12   0  -2   10.92    1.76 
  12   0   2   13.86    1.97 
 -13   0  -2    1.73    1.36 
  13   0   2    1.07    1.49 
 -14   0  -2   -1.03    1.39 
  14   0   2    0.79    1.57 
  12  -1  -2    2.39    1.48 
 -12   1   2    1.60    1.64 
  11  -1  -2    0.95    1.20 
 -11   1   2   -0.98    1.34 
  10  -1  -2   45.67    2.92 
 -10   1   2   44.55    2.91 
   9  -1  -2   73.97    3.58 
  -9   1   2   72.02    3.53 
   8  -1  -2  107.93    4.46 
  -8   1   2  107.40    4.40 
   7  -1  -2  124.25    4.62 
  -7   1   2  113.79    3.89 
   6  -1  -2  177.36    6.07 
  -6   1   2  168.34    5.47 
   5  -1  -2   72.31    2.98 
  -5   1   2   77.49    2.59 
   4  -1  -2   32.34    1.62 
  -4   1   2   31.71    1.30 
   3  -1  -2    6.32    0.72 
  -3   1   2    5.37    0.53 
   2  -1  -2   81.41    2.69 
  -2   1   2   79.93    2.56 
  -2   1   2   68.54    2.69 
   1  -1  -2  237.03    7.00 
  -1   1   2  217.19    6.93 
  -1   1   2  222.77    6.95 
   0   1   2   63.38    2.13 
   0   1   2   64.28    2.17 
  -1  -1  -2   23.90    0.96 
  -2  -1  -2    2.70    0.47 
   2   1   2    4.11    0.56 
   2   1   2    3.73    0.49 
  -3  -1  -2    0.43    0.45 
   3   1   2    0.70    0.51 
   3   1   2   -0.32    0.17 
  -4  -1  -2  216.73    6.77 
   4   1   2  211.92    6.76 
  -5  -1  -2  385.18   11.92 
   5   1   2  387.87   12.32 
  -6  -1  -2  275.62    9.00 
  -6  -1  -2  283.60    8.83 
   6   1   2  285.57    9.33 
  -7  -1  -2  179.39    5.82 
  -7  -1  -2  179.45    6.19 
   7   1   2  179.19    6.37 
  -8  -1  -2  110.74    3.82 
   8   1   2  109.44    4.46 
  -9  -1  -2   35.13    1.75 
  -9  -1  -2   37.14    2.50 
   9   1   2   37.52    2.53 
 -10  -1  -2    1.41    1.25 
  10   1   2    1.49    1.27 
 -11  -1  -2    6.37    1.53 
  11   1   2    5.29    1.46 
 -12  -1  -2   12.19    1.84 
  12   1   2    7.72    1.69 
 -13  -1  -2   12.03    2.03 
  13   1   2    9.32    1.85 
 -14  -1  -2    5.76    1.99 
  12  -2  -2   21.61    2.37 
 -12   2   2   20.87    2.51 
  11  -2  -2   71.46    3.86 
 -11   2   2   71.00    3.85 
  10  -2  -2  108.04    4.71 
 -10   2   2  109.26    4.77 
   9  -2  -2  144.15    5.61 
  -9   2   2  142.86    5.63 
   8  -2  -2  221.55    7.64 
  -8   2   2  212.26    7.58 
   7  -2  -2  157.43    5.68 
  -7   2   2  160.30    5.25 
  -7   2   2  152.74    5.73 
   6  -2  -2   41.86    2.09 
  -6   2   2   40.26    2.20 
  -6   2   2   41.59    1.81 
   5  -2  -2    2.35    0.69 
  -5   2   2    2.70    0.84 
  -5   2   2    2.41    0.59 
   4  -2  -2    2.17    0.62 
  -4   2   2    2.54    0.79 
  -4   2   2    1.45    0.53 
   3  -2  -2   10.71    0.87 
  -3   2   2   10.04    0.87 
   2  -2  -2    0.17    0.38 
  -2   2   2    0.23    0.55 
  -2   2   2    0.72    0.50 
   1  -2  -2    7.65    0.42 
  -1   2   2    7.75    0.42 
  -1   2   2    7.74    0.69 
  -1   2   2    8.79    0.77 
   0   2   2   11.81    0.79 
   0   2   2   11.83    0.47 
   0   2   2   12.13    0.79 
   1   2   2   40.44    1.46 
   1   2   2   34.75    1.37 
   1   2   2   37.03    1.47 
   2   2   2  184.23    5.82 
   2   2   2  182.98    5.72 
   2   2   2  178.96    5.69 
  -3  -2  -2  381.09   11.91 
   3   2   2  396.11   12.14 
  -5  -2  -2  447.23   13.73 
  -6  -2  -2  191.68    5.94 
  -6  -2  -2  177.27    6.19 
   6   2   2  186.25    6.45 
  -7  -2  -2   41.05    1.71 
   7   2   2   40.76    2.29 
  -8  -2  -2    0.38    0.46 
  -8  -2  -2    2.91    0.61 
   8   2   2    2.28    1.01 
  -9  -2  -2    7.08    1.37 
   9   2   2    8.35    1.43 
 -10  -2  -2    0.98    1.02 
  10   2   2   -0.26    1.17 
 -11  -2  -2   14.30    1.81 
  11   2   2   15.24    2.07 
 -12  -2  -2   27.22    2.60 
  12   2   2   23.76    2.51 
 -13  -2  -2    1.00    1.45 
  13   2   2    1.62    1.58 
  12  -3  -2   64.72    3.71 
 -12   3   2   65.69    4.01 
  11  -3  -2   82.30    4.13 
 -11   3   2   86.55    4.35 
  10  -3  -2   78.77    3.80 
 -10   3   2   81.85    4.07 
   9  -3  -2   65.47    3.24 
  -9   3   2   71.49    3.46 
   8  -3  -2   14.23    1.48 
  -8   3   2   14.94    1.27 
  -8   3   2   16.79    1.80 
   7  -3  -2    0.07    0.77 
  -7   3   2    0.97    0.91 
  -7   3   2   -0.20    0.66 
   6  -3  -2    1.28    0.70 
  -6   3   2    0.42    0.60 
  -6   3   2   -0.36    0.84 
   5  -3  -2   11.78    1.10 
  -5   3   2   13.20    1.10 
  -5   3   2   12.70    1.23 
   4  -3  -2    7.34    0.74 
  -4   3   2    7.75    0.86 
  -4   3   2    7.42    0.93 
   3  -3  -2   14.25    0.88 
  -3   3   2   12.33    1.09 
   2  -3  -2   40.49    1.44 
  -2   3   2   39.08    1.75 
  -2   3   2   40.23    1.72 
  -1   3   2  411.06   12.30 
  -1   3   2  404.31   12.62 
   0   3   2  374.78   11.27 
   0   3   2  371.95   11.38 
   1   3   2  349.51   10.70 
   1   3   2  333.19   10.44 
   1   3   2  352.80   10.68 
   2   3   2  440.90   13.55 
   2   3   2  441.55   13.20 
   2   3   2  427.34   13.40 
   3   3   2  180.82    5.81 
   3   3   2  183.08    5.85 
   3   3   2  184.01    6.08 
   4   3   2   37.73    1.71 
   4   3   2   32.40    1.74 
  -5  -3  -2   65.05    2.28 
   5   3   2   68.25    2.61 
   5   3   2   51.56    2.56 
  -6  -3  -2    2.73    0.84 
  -6  -3  -2    3.23    0.54 
  -7  -3  -2    1.14    0.97 
  -7  -3  -2    2.22    0.50 
   7   3   2    0.94    0.57 
  -8  -3  -2   28.09    2.15 
   8   3   2   17.66    1.79 
  -9  -3  -2   12.03    1.70 
   9   3   2   13.12    1.79 
 -10  -3  -2    6.18    1.41 
  10   3   2    4.50    1.39 
 -11  -3  -2    2.47    1.41 
  11   3   2    0.59    1.33 
 -12  -3  -2   36.67    2.88 
  12   3   2   33.27    2.93 
 -13  -3  -2   27.03    2.86 
  13   3   2   24.58    2.89 
 -12   4   2   34.94    3.10 
  11  -4  -2   18.95    1.95 
 -11   4   2   17.83    2.11 
  10  -4  -2    6.15    1.30 
 -10   4   2    5.78    1.54 
   9  -4  -2    1.12    0.96 
  -9   4   2    1.30    1.09 
   8  -4  -2    3.85    1.00 
  -8   4   2    3.51    1.19 
  -8   4   2    3.10    0.92 
   7  -4  -2   27.50    1.69 
  -7   4   2   27.06    1.76 
  -7   4   2   22.86    1.99 
   6  -4  -2   10.94    1.04 
  -6   4   2   11.34    1.16 
  -6   4   2   10.45    1.25 
   5  -4  -2    0.46    0.54 
  -5   4   2    0.33    0.67 
  -5   4   2    0.59    0.69 
   4  -4  -2   29.31    1.36 
  -4   4   2   30.61    1.68 
  -4   4   2   26.81    1.64 
   3  -4  -2  104.03    3.44 
  -3   4   2  104.58    3.78 
  -2   4   2  388.35   11.88 
  -2   4   2  391.45   12.26 
  -1   4   2  272.47    8.78 
  -1   4   2  275.79    8.44 
   0   4   2  498.70   15.44 
   0   4   2  509.11   15.14 
   1   4   2  399.49   12.51 
   1   4   2  401.89   12.49 
   1   4   2  404.68   12.16 
   2   4   2   80.09    2.84 
   2   4   2   80.60    2.92 
   2   4   2   81.64    3.00 
   3   4   2    0.47    0.59 
   3   4   2    0.57    0.52 
   3   4   2    0.93    0.47 
   4   4   2   12.43    0.87 
   4   4   2   10.85    1.01 
   4   4   2   11.07    1.11 
   5   4   2   75.10    2.92 
   5   4   2   69.64    3.12 
  -6  -4  -2   46.08    1.87 
  -6  -4  -2   45.64    2.30 
   6   4   2   50.12    2.53 
  -7  -4  -2    3.58    1.01 
  -7  -4  -2    3.87    0.60 
  -8  -4  -2   41.08    2.46 
   8   4   2   37.69    2.37 
  -9  -4  -2   15.09    1.83 
   9   4   2   14.50    1.76 
 -10  -4  -2   28.75    2.48 
  10   4   2   37.06    2.67 
 -11  -4  -2   47.33    3.31 
  11   4   2   46.55    3.38 
 -12  -4  -2   66.65    4.15 
  12   4   2   78.80    4.49 
 -13  -4  -2   75.06    4.30 
  13   4   2   71.45    4.42 
 -12   5   2   -0.25    1.27 
 -11   5   2   -0.20    1.30 
  10  -5  -2    3.72    1.18 
 -10   5   2    2.51    1.21 
   9  -5  -2    8.38    1.27 
  -9   5   2   10.35    1.38 
  -9   5   2    6.74    1.35 
   8  -5  -2    0.08    0.72 
  -8   5   2    0.58    0.90 
  -8   5   2    0.16    1.06 
   7  -5  -2    2.71    0.83 
  -7   5   2    4.10    1.05 
  -7   5   2    3.37    0.99 
   6  -5  -2   58.28    2.40 
  -6   5   2   57.97    2.69 
  -6   5   2   52.26    2.61 
   5  -5  -2  247.12    7.95 
  -5   5   2  243.63    8.26 
  -5   5   2  250.86    8.09 
   4  -5  -2  365.37   11.23 
  -4   5   2  347.38   11.55 
  -4   5   2  365.79   11.25 
  -2   5   2  454.35   13.74 
  -2   5   2  450.54   14.27 
   0   5   2  527.31   15.87 
   1   5   2   86.13    2.94 
   1   5   2   80.55    3.07 
   2   5   2    0.77    0.49 
   2   5   2    0.16    0.56 
   2   5   2   -0.11    0.55 
   3   5   2  160.72    5.06 
   3   5   2  121.45    4.68 
   4   5   2   20.31    1.19 
   4   5   2   21.99    1.41 
   4   5   2   24.88    1.60 
   5   5   2    0.63    0.41 
   5   5   2    0.63    0.70 
   5   5   2   -0.67    0.76 
  -6  -5  -2    2.43    0.56 
   6   5   2    3.50    1.04 
  -7  -5  -2    1.95    0.55 
  -7  -5  -2    2.26    0.96 
   7   5   2    0.71    0.82 
  -8  -5  -2   18.90    1.80 
   8   5   2   15.43    1.82 
  -9  -5  -2  147.61    5.86 
   9   5   2  156.57    6.27 
 -10  -5  -2  124.51    5.32 
  10   5   2  118.23    5.38 
 -11  -5  -2   55.12    3.42 
  11   5   2   55.01    3.53 
 -12  -5  -2   38.36    3.10 
  12   5   2   37.19    3.38 
 -12   6   2   12.63    2.05 
 -11   6   2    9.99    1.73 
 -10   6   2    2.94    1.33 
  -9   6   2   -0.50    1.07 
  -9   6   2   -0.43    0.90 
   8  -6  -2   14.76    1.43 
  -8   6   2   17.21    1.70 
  -8   6   2   17.72    1.83 
   7  -6  -2  103.57    3.80 
  -7   6   2   99.47    4.09 
  -7   6   2   92.92    4.09 
   6  -6  -2  135.90    4.67 
  -6   6   2  127.60    5.01 
  -6   6   2  135.61    4.91 
   5  -6  -2  342.23   10.77 
  -5   6   2  340.79   10.81 
  -5   6   2  337.98   11.19 
  -4   6   2  194.57    6.84 
  -4   6   2  197.03    6.46 
  -3   6   2   47.47    2.44 
  -2   6   2  101.01    3.86 
  -2   6   2   98.78    3.46 
  -1   6   2    4.85    0.65 
  -1   6   2    5.17    0.89 
   0   6   2   14.86    0.96 
   0   6   2   14.78    1.31 
   1   6   2   77.33    2.79 
   1   6   2   78.16    3.16 
   2   6   2   39.60    2.06 
   2   6   2   42.61    2.05 
   3   6   2  110.88    3.75 
   3   6   2  103.96    3.86 
   3   6   2  103.62    4.06 
   4   6   2    3.13    0.74 
   4   6   2    3.42    0.90 
   4   6   2    1.95    0.58 
   5   6   2   17.81    1.43 
   5   6   2   19.12    1.72 
  -6  -6  -2   27.80    1.95 
   6   6   2   27.49    2.16 
  -7  -6  -2   75.62    3.50 
   7   6   2   77.46    3.82 
  -8  -6  -2  129.20    5.12 
   8   6   2  124.75    5.39 
  -9  -6  -2  131.64    5.41 
   9   6   2  130.77    5.68 
 -10  -6  -2   69.94    3.91 
  10   6   2   77.20    4.08 
 -11  -6  -2   10.59    2.03 
  11   6   2   10.88    2.02 
 -12  -6  -2    1.52    1.66 
  12   6   2   -0.14    1.39 
 -12   7   2   -1.08    1.36 
 -11   7   2    4.25    1.51 
 -10   7   2   52.16    3.05 
 -10   7   2   46.56    3.07 
  -9   7   2   32.44    2.55 
  -9   7   2   35.95    2.52 
  -8   7   2   42.69    2.57 
  -8   7   2   42.35    2.67 
   7  -7  -2  226.72    7.77 
  -7   7   2  237.27    8.25 
  -7   7   2  234.70    8.01 
   6  -7  -2  122.14    4.45 
  -6   7   2  131.07    5.00 
  -6   7   2  123.78    4.67 
  -5   7   2   79.15    3.55 
  -5   7   2   74.68    3.14 
  -4   7   2    7.55    1.28 
  -4   7   2    6.41    0.89 
  -3   7   2    5.95    1.07 
  -3   7   2    2.56    0.57 
  -1   7   2   74.39    3.25 
  -1   7   2   76.40    2.77 
   0   7   2   36.68    1.61 
   0   7   2   36.72    2.13 
   1   7   2    2.80    0.80 
   1   7   2    3.65    0.83 
   1   7   2    2.88    0.60 
   2   7   2   -0.38    0.65 
   2   7   2    0.43    0.42 
   2   7   2   -0.49    0.64 
   3   7   2   30.82    1.99 
   3   7   2   28.28    1.57 
   3   7   2   30.70    1.76 
   4   7   2  136.09    4.80 
   4   7   2  139.81    5.28 
   4   7   2  137.64    4.88 
   5   7   2  130.31    5.09 
   5   7   2  122.94    4.47 
   5   7   2  127.56    4.58 
  -6  -7  -2  140.25    5.23 
   6   7   2  141.88    4.88 
   6   7   2  144.56    5.69 
  -7  -7  -2   94.74    4.05 
   7   7   2   94.66    4.44 
  -8  -7  -2   96.09    4.17 
   8   7   2   89.45    4.52 
  -9  -7  -2   21.23    2.11 
   9   7   2   16.03    2.08 
 -10  -7  -2    1.42    1.45 
  10   7   2   -1.12    1.23 
 -11  -7  -2    1.32    1.61 
  11   7   2    2.65    1.48 
 -11   8   2   83.65    4.36 
 -10   8   2   86.01    4.22 
 -10   8   2   84.73    4.27 
  -9   8   2  156.48    6.33 
  -9   8   2  157.64    6.17 
  -8   8   2  160.94    6.24 
  -8   8   2  176.80    6.64 
  -7   8   2   60.33    2.96 
  -7   8   2   64.65    3.40 
   6  -8  -2   11.50    1.18 
  -6   8   2   12.69    1.71 
  -6   8   2    9.35    1.22 
  -5   8   2    0.15    0.65 
  -5   8   2    1.22    1.03 
  -4   8   2    8.41    1.41 
  -4   8   2    9.02    0.96 
  -3   8   2    2.72    0.59 
  -3   8   2   -0.31    0.59 
  -2   8   2   10.52    0.94 
  -1   8   2   14.20    1.46 
  -1   8   2   10.60    0.94 
   0   8   2   20.71    1.71 
   0   8   2   21.03    1.21 
   2   8   2  174.34    6.17 
   2   8   2  173.83    6.18 
   2   8   2  165.11    5.59 
   3   8   2  363.53   12.15 
   3   8   2  372.67   11.95 
   3   8   2  364.56   11.42 
   4   8   2  269.99    9.03 
   4   8   2  274.55    9.51 
   4   8   2  272.57    8.75 
   5   8   2  147.01    5.24 
   5   8   2  148.46    5.87 
  -6  -8  -2   75.23    3.36 
   6   8   2   75.96    3.85 
  -7  -8  -2   14.33    1.66 
   7   8   2   14.64    1.95 
  -8  -8  -2    2.91    1.26 
   8   8   2    4.13    1.52 
  -9  -8  -2    2.91    1.32 
   9   8   2   -0.03    1.31 
 -10  -8  -2    8.18    1.76 
  10   8   2    7.78    1.97 
 -11  -8  -2   14.64    2.17 
  11   8   2   10.31    2.14 
 -11   9   2   72.20    4.09 
 -10   9   2   43.35    3.18 
  -9   9   2   24.84    2.46 
  -9   9   2   25.87    2.30 
  -8   9   2   15.94    1.74 
  -8   9   2   19.66    2.18 
  -7   9   2   -0.21    1.14 
  -7   9   2   -0.86    0.70 
  -6   9   2   10.96    1.24 
  -6   9   2    9.11    1.65 
  -5   9   2   21.06    1.49 
  -5   9   2   21.80    2.08 
  -4   9   2    5.67    1.27 
  -4   9   2    4.68    0.78 
  -3   9   2    0.17    0.50 
  -3   9   2    0.02    0.60 
  -2   9   2    5.25    1.15 
  -2   9   2    0.75    0.42 
  -1   9   2   36.39    1.64 
   0   9   2  191.70    7.04 
   1   9   2  116.29    3.98 
   2   9   2  179.30    6.41 
   2   9   2  167.56    5.68 
   3   9   2  109.25    4.55 
   3   9   2  108.25    4.35 
   3   9   2  104.53    3.86 
   4   9   2  132.26    5.38 
   4   9   2  131.11    4.94 
   4   9   2  128.04    4.63 
  -5  -9  -2   46.23    2.48 
   5   9   2   44.78    2.34 
   5   9   2   47.47    3.01 
  -6  -9  -2    4.57    1.15 
   6   9   2    3.39    1.37 
  -7  -9  -2    3.29    1.28 
   7   9   2    6.83    1.72 
  -8  -9  -2    4.66    1.36 
   8   9   2    2.50    1.51 
  -9  -9  -2   12.55    1.90 
   9   9   2    8.30    1.78 
 -10  -9  -2    1.23    1.48 
  10   9   2   -1.44    1.39 
 -10  10   2    0.43    1.40 
  -9  10   2    2.94    1.52 
  -8  10   2   18.75    2.25 
  -7  10   2   28.51    2.73 
  -6  10   2    9.96    1.69 
  -5  10   2    1.19    1.22 
  -4  10   2   26.92    2.31 
  -3  10   2   80.89    3.96 
  -2  10   2  147.27    5.97 
  -1  10   2  143.11    5.79 
   0  10   2  220.71    8.02 
   1  10   2   64.07    3.32 
   2  10   2   38.11    2.50 
   3  10   2   18.63    1.83 
   4  10   2   12.12    1.43 
   4  10   2    9.53    1.63 
   5  10   2   25.57    2.40 
   6  10   2    5.83    1.61 
  -7 -10  -2    8.49    1.64 
   7  10   2    7.18    1.67 
   8  10   2    1.05    1.50 
   9  10   2    1.22    1.63 
  -9  11   2   -0.40    1.42 
  -8  11   2    1.44    1.43 
  -7  11   2    3.70    1.51 
  -6  11   2   35.14    2.79 
  -5  11   2  137.12    5.95 
  -4  11   2  141.89    6.02 
  -3  11   2  231.99    8.73 
  -2  11   2  270.51    9.82 
  -1  11   2  133.55    5.68 
   0  11   2   91.43    4.35 
   1  11   2   10.23    1.66 
   2  11   2    3.14    1.13 
   3  11   2   -0.15    0.90 
   4  11   2    6.63    1.22 
   5  11   2    8.31    1.73 
   6  11   2    0.68    1.19 
   7  11   2    2.69    1.68 
   8  11   2   27.93    2.99 
  -8  12   2   12.72    2.16 
  -7  12   2   56.70    3.71 
  -6  12   2  103.97    5.14 
  -5  12   2  147.67    6.44 
  -4  12   2  108.21    5.10 
  -3  12   2   50.31    3.28 
  -2  12   2   28.60    2.55 
  -1  12   2   16.10    2.12 
   0  12   2    0.87    1.24 
   1  12   2   10.11    1.72 
   2  12   2   15.11    1.90 
   3  12   2   -0.64    1.00 
   6  12   2   28.93    2.85 
  -7  13   2   90.95    5.08 
  -6  13   2   51.19    3.69 
  -5  13   2   23.27    2.57 
  -4  13   2    7.06    1.81 
  -3  13   2    1.52    1.50 
  -2  13   2    8.70    1.89 
  -1  13   2   14.48    2.03 
   0  13   2   27.24    2.70 
   1  13   2    2.47    1.38 
   2  13   2    0.24    1.09 
   3  13   2   22.95    2.31 
  -5  14   2    0.78    1.47 
  -4  14   2    5.73    1.74 
  -3  14   2    7.66    1.91 
  -2  14   2    5.60    1.70 
  -1  14   2    0.86    1.45 
   0  14   2    3.18    1.53 
   1  14   2   29.10    2.86 
   2  14   2   76.54    4.25 
   0  12  -3    2.03    1.36 
  -1  12  -3   22.58    2.52 
  -2  12  -3    1.21    1.46 
  -3  12  -3    0.82    1.33 
  -4  12  -3   13.96    2.33 
  -5  12  -3   30.45    3.18 
  -6  12  -3   53.87    4.01 
   0  11  -3   -0.24    1.10 
  -1  11  -3   -0.75    1.16 
  -2  11  -3   18.98    2.23 
  -3  11  -3   50.37    3.48 
  -4  11  -3   80.14    4.35 
  -5  11  -3  113.46    5.51 
  -6  11  -3   88.52    4.82 
  -7  11  -3   20.28    2.45 
  -8  11  -3   11.93    2.16 
   1  10  -3   18.01    1.98 
   0  10  -3   41.26    2.78 
  -1  10  -3   70.43    3.76 
  -2  10  -3  139.00    5.90 
  -3  10  -3  127.32    5.54 
  -4  10  -3  130.63    5.78 
  -5  10  -3   65.65    3.75 
  -6  10  -3   13.97    1.99 
  -7  10  -3    0.65    1.14 
  -8  10  -3    1.76    1.30 
  -9  10  -3    0.95    1.28 
 -10  10  -3    8.04    1.99 
   2   9  -3   98.69    4.26 
   1   9  -3  193.74    7.18 
   0   9  -3  204.29    7.56 
  -1   9  -3  167.22    6.49 
  -2   9  -3  129.98    5.43 
  -3   9  -3   76.45    3.80 
  -4   9  -3   34.59    2.56 
  -5   9  -3    0.39    1.15 
  -6   9  -3    0.11    0.97 
  -7   9  -3   -0.42    1.04 
  -8   9  -3   -0.88    1.13 
  -9   9  -3    4.21    1.67 
 -10   9  -3    8.72    1.91 
 -11   9  -3   51.96    3.73 
   7   8  -3   -0.58    1.43 
   2   8  -3  242.60    8.39 
   1   8  -3  171.18    6.35 
   0   8  -3  129.81    5.14 
  -1   8  -3   52.07    2.88 
  -2   8  -3   17.95    1.89 
  -3   8  -3   -0.09    1.05 
  -4   8  -3   19.45    2.02 
  -5   8  -3   51.43    3.06 
  -6   8  -3   11.59    1.64 
  -7   8  -3    0.85    1.01 
  -8   8  -3   28.70    2.44 
  -9   8  -3   28.54    2.53 
 -10   8  -3   61.06    3.76 
  10  -8   3   61.83    3.59 
 -11   8  -3   72.67    4.23 
  11  -8   3   76.98    4.00 
 -12   8  -3   73.66    4.30 
   8   7  -3   -1.85    1.36 
   7   7  -3   36.88    2.99 
   6   7  -3   29.15    2.64 
   5   7  -3   50.16    3.19 
   2   7  -3   43.78    2.29 
   1   7  -3    8.29    1.20 
   0   7  -3    0.58    0.78 
  -1   7  -3   29.25    1.96 
  -2   7  -3   41.18    2.49 
  -3   7  -3   31.45    2.25 
  -4   7  -3   17.19    1.75 
  -5   7  -3    1.33    0.90 
  -6   7  -3    0.89    0.96 
  -7   7  -3   18.44    1.92 
  -8   7  -3  183.24    7.00 
  -9   7  -3   25.66    2.39 
 -10   7  -3   64.94    3.72 
  10  -7   3   65.23    3.53 
 -11   7  -3   39.22    3.04 
  11  -7   3   42.76    2.97 
 -12   7  -3    7.63    1.64 
  12  -7   3    5.17    1.53 
   9   6  -3   29.46    3.03 
  -9  -6   3   27.92    2.65 
   8   6  -3   26.16    2.72 
  -8  -6   3   19.78    2.16 
   7   6  -3  120.08    5.61 
  -7  -6   3  122.35    5.09 
   6   6  -3   87.35    4.42 
  -6  -6   3   81.08    3.81 
   5   6  -3   74.17    3.91 
  -5  -6   3   74.30    3.31 
   4   6  -3   44.50    2.87 
  -4  -6   3   45.82    2.44 
   3   6  -3    1.69    0.69 
  -3  -6   3    1.88    0.89 
   2   6  -3    5.32    0.89 
  -2  -6   3    5.30    0.88 
   1   6  -3   17.21    1.47 
  -1  -6   3   18.66    1.19 
   0   6  -3   36.73    2.09 
  -1   6  -3   27.47    1.86 
  -2   6  -3   -0.38    0.84 
  -3   6  -3   71.48    3.20 
  -4   6  -3   24.91    1.89 
  -5   6  -3   -0.35    0.37 
  -6   6  -3  364.22   12.12 
  -7   6  -3  284.98    9.85 
  -8   6  -3  180.23    6.81 
  -9   6  -3   34.70    2.54 
   9  -6   3   33.38    2.42 
 -10   6  -3   40.71    2.68 
  10  -6   3   43.13    2.78 
 -11   6  -3    3.64    1.32 
  11  -6   3    6.46    1.54 
 -12   6  -3   -0.27    1.23 
  12  -6   3   -0.57    1.18 
 -13   6  -3    8.95    1.99 
  13  -6   3    7.39    1.80 
  10   5  -3   50.84    3.88 
 -10  -5   3   41.58    3.38 
   9   5  -3   76.18    4.54 
  -9  -5   3   77.28    4.12 
   8   5  -3   57.26    3.72 
  -8  -5   3   45.22    3.13 
   7   5  -3   51.47    3.45 
  -7  -5   3   51.48    3.04 
   6   5  -3   27.79    2.42 
  -6  -5   3   25.78    2.20 
   5   5  -3    5.24    1.35 
  -5  -5   3    4.07    1.19 
   4   5  -3   10.45    1.55 
  -4  -5   3    8.83    1.25 
   3   5  -3   17.64    1.19 
   2   5  -3   26.48    1.50 
   1   5  -3   63.51    2.74 
  -1  -5   3   67.79    2.43 
   0   5  -3   26.20    1.65 
   0  -5   3   28.19    1.15 
  -1   5  -3    4.15    0.89 
  -2   5  -3   81.10    3.34 
  -3   5  -3  246.10    8.28 
  -4   5  -3  177.62    5.46 
  -4   5  -3  183.12    6.36 
  -5   5  -3  263.07    8.09 
  -6   5  -3  164.56    6.05 
  -6   5  -3  167.38    5.42 
  -7   5  -3  111.60    4.55 
  -7   5  -3  116.23    4.08 
  -8   5  -3   37.02    2.48 
  -8   5  -3   37.87    2.06 
  -9   5  -3   -0.37    0.96 
  -9   5  -3    0.92    0.79 
   9  -5   3    0.43    0.90 
 -10   5  -3    0.57    1.05 
 -10   5  -3    1.12    0.90 
  10  -5   3    0.55    1.06 
 -11   5  -3    5.98    1.29 
 -11   5  -3    5.63    1.33 
  11  -5   3    4.68    1.35 
 -12   5  -3    8.15    1.60 
 -12   5  -3    8.83    1.63 
  12  -5   3    8.59    1.64 
 -13   5  -3    2.98    1.40 
  13  -5   3    6.00    1.65 
  10   4  -3   64.65    4.18 
 -10  -4   3   61.67    3.89 
   9   4  -3   47.65    3.52 
  -9  -4   3   49.61    3.29 
   8   4  -3   12.77    1.92 
  -8  -4   3   12.71    1.87 
   7   4  -3    0.82    1.31 
  -7  -4   3    0.79    1.20 
   6   4  -3    2.03    1.32 
  -6  -4   3    2.48    1.22 
   5   4  -3   14.61    1.69 
  -5  -4   3   11.43    1.41 
   4   4  -3   31.47    2.32 
   4   4  -3   26.65    1.24 
  -4  -4   3   27.63    1.87 
   3   4  -3    7.39    1.19 
   3   4  -3   10.31    0.89 
  -3  -4   3    7.82    1.06 
   2   4  -3    1.07    0.53 
  -2  -4   3    0.12    0.65 
  -1  -4   3   76.85    2.73 
   0   4  -3  118.89    4.24 
   0  -4   3  120.55    3.79 
  -1   4  -3   77.71    3.06 
  -2   4  -3  456.00   14.36 
  -3   4  -3  391.05   12.66 
  -3   4  -3  405.10   11.77 
  -5   4  -3  104.46    4.14 
  -5   4  -3  113.45    3.67 
  -6   4  -3    3.91    0.88 
  -6   4  -3    0.02    0.37 
  -7   4  -3    2.95    0.76 
  -7   4  -3    2.13    1.00 
  -8   4  -3    9.09    1.34 
  -8   4  -3   11.73    1.24 
   8  -4   3    7.99    1.33 
  -9   4  -3   24.29    1.90 
  -9   4  -3   29.42    2.12 
   9  -4   3   21.05    1.89 
 -10   4  -3    2.65    1.16 
 -10   4  -3    2.61    1.00 
  10  -4   3    1.84    1.15 
 -11   4  -3    0.69    1.02 
 -11   4  -3    1.56    1.10 
  11  -4   3    0.36    1.19 
 -12   4  -3    7.98    1.50 
 -12   4  -3    8.10    1.50 
  12  -4   3    6.63    1.55 
 -13   4  -3   13.17    1.95 
  13  -4   3   17.18    2.19 
  11   3  -3   23.34    2.70 
 -11  -3   3   22.45    2.64 
  10   3  -3   13.93    2.09 
 -10  -3   3   13.77    2.16 
   9   3  -3    1.76    1.26 
  -9  -3   3   -1.34    1.31 
   8   3  -3    2.94    1.41 
  -8  -3   3    2.00    1.37 
   7   3  -3    4.67    1.41 
  -7  -3   3    4.72    1.37 
   6   3  -3    8.83    1.45 
  -6  -3   3    8.45    1.44 
   5   3  -3    0.95    0.97 
  -5  -3   3    1.02    1.00 
   4   3  -3   -0.51    0.91 
   4   3  -3    0.99    0.30 
  -4  -3   3    1.12    0.89 
   3   3  -3   77.30    3.57 
   3   3  -3   86.59    2.86 
  -3  -3   3   83.71    3.18 
   2   3  -3  306.12    9.51 
   2   3  -3  303.46   10.11 
  -2  -3   3  304.71    9.46 
   1   3  -3  429.75   13.18 
  -1  -3   3  422.59   12.87 
   0   3  -3  245.02    8.09 
   0  -3   3  262.86    7.72 
   1  -3   3  311.11    9.24 
  -2   3  -3  468.54   14.32 
   2  -3   3  450.45   13.51 
  -3   3  -3  169.28    5.16 
  -4   3  -3   48.69    1.75 
  -4   3  -3   42.31    2.12 
  -5   3  -3    9.34    1.10 
  -5   3  -3    9.01    0.79 
  -6   3  -3    0.24    0.55 
  -6   3  -3    0.49    0.66 
  -7   3  -3    1.16    0.83 
  -7   3  -3    0.14    0.65 
  -8   3  -3    6.15    1.11 
  -8   3  -3    8.65    1.15 
   8  -3   3    9.08    1.22 
  -9   3  -3    0.62    0.96 
  -9   3  -3    1.65    0.88 
   9  -3   3    0.80    1.00 
 -10   3  -3   36.39    2.30 
 -10   3  -3   34.20    2.31 
  10  -3   3   33.91    2.45 
 -11   3  -3   60.17    3.16 
 -11   3  -3   62.81    3.08 
  11  -3   3   55.87    3.32 
 -12   3  -3  120.41    5.19 
  12  -3   3  129.93    5.55 
 -13   3  -3   92.88    4.51 
  13  -3   3   92.62    4.73 
 -14   3  -3   57.42    3.66 
  14  -3   3   53.61    3.74 
  11   2  -3   -0.34    1.36 
 -11  -2   3    0.24    1.66 
  10   2  -3    6.80    1.72 
 -10  -2   3    7.47    1.69 
   9   2  -3   11.77    1.83 
  -9  -2   3   13.64    2.01 
   8   2  -3   12.38    1.72 
  -8  -2   3   10.00    1.73 
   7   2  -3    1.49    1.16 
  -7  -2   3    0.91    1.13 
   6   2  -3   11.14    1.54 
  -6  -2   3    8.81    1.30 
   5   2  -3   26.87    1.92 
  -5  -2   3   27.22    1.85 
   4   2  -3   69.75    3.18 
  -4  -2   3   75.84    3.06 
   3   2  -3  462.86   14.15 
   3   2  -3  473.60   14.95 
  -3  -2   3  464.37   14.33 
   2   2  -3  406.88   12.19 
   2   2  -3  397.85   12.78 
  -2  -2   3  389.48   12.17 
   1   2  -3  183.27    5.77 
  -1  -2   3  178.46    5.72 
   0   2  -3   11.33    0.93 
   0  -2   3   11.64    0.82 
  -1   2  -3   83.45    2.95 
   1  -2   3   80.29    2.61 
  -2   2  -3   -0.45    0.42 
   2  -2   3    2.55    0.36 
  -4   2  -3  159.68    5.40 
  -5   2  -3   61.76    2.33 
  -6   2  -3   24.39    1.44 
  -6   2  -3   26.27    1.60 
  -7   2  -3   -0.54    0.62 
  -7   2  -3   -0.20    0.68 
   7  -2   3    0.59    0.81 
  -8   2  -3   12.64    1.29 
  -8   2  -3    9.87    1.18 
   8  -2   3   12.17    1.40 
  -9   2  -3   72.33    3.10 
  -9   2  -3   66.97    3.19 
   9  -2   3   69.76    3.36 
 -10   2  -3  162.97    5.79 
 -10   2  -3  150.39    5.85 
  10  -2   3  160.28    6.17 
 -11   2  -3  149.04    5.64 
 -11   2  -3  149.46    5.85 
  11  -2   3  154.42    6.14 
 -12   2  -3   87.70    4.12 
  12  -2   3   80.76    4.26 
 -13   2  -3   54.22    3.41 
  13  -2   3   51.60    3.48 
 -14   2  -3   20.96    2.48 
  14  -2   3   19.17    2.51 
 -12  -1   3    8.94    2.26 
  11   1  -3    2.54    1.46 
 -11  -1   3    4.77    1.77 
  10   1  -3    2.71    1.42 
 -10  -1   3    1.32    1.49 
   9   1  -3   -1.35    1.09 
  -9  -1   3    0.96    1.26 
   8   1  -3   18.52    1.89 
  -8  -1   3   16.38    1.87 
   7   1  -3   48.12    2.79 
  -7  -1   3   46.60    2.73 
   6   1  -3  115.84    4.76 
  -6  -1   3  124.79    4.73 
   5   1  -3  120.62    4.63 
  -5  -1   3  117.98    4.50 
   4   1  -3  331.15   10.76 
  -4  -1   3  325.08   10.40 
   3   1  -3  425.37   12.77 
   3   1  -3  426.68   13.49 
  -3  -1   3  416.20   13.01 
   2   1  -3  146.49    5.20 
   2   1  -3  150.98    4.73 
  -2  -1   3  152.70    4.97 
   1   1  -3   53.21    1.97 
  -1  -1   3   54.90    2.09 
   0   1  -3   90.28    3.09 
   0  -1   3   90.02    2.98 
  -1   1  -3  115.00    3.91 
   1  -1   3  115.60    3.65 
  -2   1  -3  142.09    4.85 
   2  -1   3  152.78    4.60 
  -3   1  -3  103.90    3.66 
   3  -1   3  105.41    3.39 
  -4   1  -3   11.37    0.99 
   4  -1   3   10.09    0.80 
  -5   1  -3    1.65    0.61 
  -6   1  -3  101.49    3.68 
  -6   1  -3  102.91    3.68 
   6  -1   3  100.55    3.87 
  -7   1  -3  134.44    4.72 
  -7   1  -3  136.77    4.78 
   7  -1   3  131.34    4.95 
  -8   1  -3  126.25    4.81 
  -8   1  -3  136.18    4.75 
   8  -1   3  132.80    5.06 
  -9   1  -3  113.01    4.63 
  -9   1  -3  121.28    4.44 
   9  -1   3  122.39    4.81 
 -10   1  -3  139.95    5.50 
 -10   1  -3  144.16    5.21 
  10  -1   3  142.95    5.71 
 -11   1  -3   73.61    3.65 
  11  -1   3   68.31    3.71 
 -12   1  -3    6.08    1.44 
  12  -1   3    6.18    1.46 
 -13   1  -3    2.12    1.41 
  13  -1   3    1.17    1.34 
 -14   1  -3    0.79    1.46 
  14  -1   3    3.06    1.54 
  12   0  -3    2.55    1.53 
 -12   0   3    1.41    1.70 
  11   0  -3    0.77    1.26 
 -11   0   3    4.52    1.73 
  10   0  -3   27.28    2.43 
 -10   0   3   20.23    2.23 
   9   0  -3   46.59    2.91 
  -9   0   3   46.13    2.98 
   8   0  -3  124.91    5.24 
  -8   0   3  135.49    5.36 
   7   0  -3  156.84    5.91 
  -7   0   3  155.87    5.90 
   6   0  -3  153.31    5.76 
  -6   0   3  162.96    5.79 
   5   0  -3   64.38    2.88 
  -5   0   3   66.97    2.99 
   4   0  -3  108.30    4.15 
   4   0  -3  117.00    3.53 
  -4   0   3  111.35    4.16 
   3   0  -3   50.95    2.24 
   3   0  -3   52.87    1.80 
  -3   0   3   54.02    2.28 
   2   0  -3    2.42    0.71 
   2   0  -3    3.10    0.42 
  -2   0   3    3.42    0.80 
   1   0  -3  105.71    3.35 
  -1   0   3   95.53    3.41 
   0   0  -3  287.19    8.99 
   0   0   3  291.54    8.81 
  -1   0  -3    3.53    0.67 
   1   0   3    4.26    0.55 
  -2   0  -3   -0.04    0.17 
   2   0   3    0.49    0.44 
  -3   0  -3    2.22    0.61 
   3   0   3    3.50    0.59 
  -4   0  -3  193.24    6.13 
   4   0   3  181.67    5.93 
  -5   0  -3  374.17   11.73 
   5   0   3  382.15   11.54 
   5   0   3  369.67   11.91 
  -6   0  -3  350.32   11.01 
   6   0   3  348.38   11.27 
  -7   0  -3  263.76    8.58 
  -7   0  -3  268.45    8.68 
   7   0   3  267.61    8.94 
  -8   0  -3  112.77    4.04 
  -8   0  -3  107.86    4.24 
   8   0   3  114.09    4.44 
  -9   0  -3   43.65    2.55 
  -9   0  -3   39.88    2.10 
   9   0   3   46.20    2.58 
 -10   0  -3   16.03    1.38 
 -10   0  -3   16.40    1.77 
  10   0   3   18.51    1.97 
 -11   0  -3    2.57    1.18 
  11   0   3    2.93    1.38 
 -12   0  -3    6.21    1.64 
  12   0   3    7.94    1.60 
 -13   0  -3    4.30    1.64 
  13   0   3    6.83    1.85 
 -14   0  -3    2.48    1.64 
  14   0   3    5.37    1.89 
  12  -1  -3   17.06    2.17 
 -12   1   3   15.58    2.37 
  11  -1  -3   59.31    3.54 
 -11   1   3   57.89    3.54 
  10  -1  -3  108.16    4.84 
 -10   1   3  101.19    4.83 
   9  -1  -3  105.18    4.60 
  -9   1   3  106.90    4.61 
   8  -1  -3  131.19    5.25 
  -8   1   3  136.05    5.28 
   7  -1  -3   69.97    3.21 
   6  -1  -3   38.78    2.17 
  -6   1   3   41.31    1.52 
   5  -1  -3    8.29    1.02 
  -5   1   3    7.16    1.04 
  -5   1   3    6.33    0.54 
   4  -1  -3   24.94    1.47 
  -4   1   3   22.38    1.01 
  -4   1   3   21.83    1.67 
   3  -1  -3   48.81    2.08 
  -3   1   3   53.51    2.33 
  -3   1   3   48.57    1.78 
   2  -1  -3  223.60    6.91 
  -2   1   3  206.39    6.69 
  -2   1   3  216.88    6.88 
   1  -1  -3  465.31   14.03 
  -1   1   3  457.27   13.79 
  -1   1   3  446.91   13.88 
   0  -1  -3   54.12    1.98 
   0   1   3   55.85    2.08 
  -1  -1  -3  252.42    7.87 
   1   1   3  251.37    7.71 
  -2  -1  -3   37.41    1.60 
   2   1   3   38.61    1.58 
  -3  -1  -3  316.29    9.93 
   3   1   3  318.18    9.70 
   3   1   3  317.20    9.95 
  -4  -1  -3  208.91    6.87 
   4   1   3  219.38    6.81 
  -5  -1  -3  447.41   14.25 
   5   1   3  475.52   14.12 
  -6  -1  -3  347.92   10.83 
   6   1   3  334.81   11.14 
   6   1   3  351.76   10.82 
  -7  -1  -3   76.68    2.89 
  -7  -1  -3   75.06    3.12 
   7   1   3   77.89    3.27 
  -8  -1  -3   19.83    1.34 
  -8  -1  -3   14.96    1.49 
   8   1   3   19.50    1.76 
  -9  -1  -3   -1.09    0.61 
  -9  -1  -3   -0.25    0.89 
   9   1   3    0.55    0.93 
 -10  -1  -3    9.32    1.46 
  10   1   3    8.09    1.56 
 -11  -1  -3   16.18    1.98 
  11   1   3   15.83    2.04 
 -12  -1  -3    5.93    1.70 
  12   1   3    4.82    1.58 
 -13  -1  -3   -1.47    1.35 
  13   1   3    1.86    1.36 
 -14  -1  -3    7.11    1.79 
  14   1   3    6.85    1.96 
  12  -2  -3   56.96    3.61 
 -12   2   3   54.74    3.68 
  11  -2  -3   69.32    3.73 
 -11   2   3   66.01    3.81 
  10  -2  -3   52.09    3.04 
 -10   2   3   50.55    3.15 
   9  -2  -3   29.61    2.25 
  -9   2   3   30.04    2.56 
   8  -2  -3   30.74    2.14 
  -8   2   3   31.61    2.29 
   7  -2  -3    5.87    1.03 
  -7   2   3    5.28    0.72 
   6  -2  -3   28.76    1.77 
  -6   2   3   26.84    1.37 
   5  -2  -3   44.60    1.99 
  -5   2   3   43.26    1.75 
  -5   2   3   35.10    1.98 
   4  -2  -3   27.78    1.46 
  -4   2   3   25.22    1.29 
   3  -2  -3   41.53    1.76 
  -3   2   3   44.34    1.75 
   2  -2  -3    1.16    0.44 
  -2   2   3    1.40    0.51 
  -1   2   3   23.20    1.17 
   0   2   3   90.75    3.07 
   1   2   3   69.58    2.44 
   2   2   3  157.69    5.02 
  -3  -2  -3  260.42    8.29 
   3   2   3  267.01    8.37 
  -5  -2  -3   69.03    2.49 
   5   2   3   60.21    2.51 
  -6  -2  -3    0.55    0.50 
   6   2   3   -0.16    0.15 
   6   2   3    0.75    0.64 
  -7  -2  -3    3.78    0.76 
  -7  -2  -3    4.73    0.70 
   7   2   3    4.86    0.90 
   8   2   3    6.41    1.14 
  -9  -2  -3   13.13    1.21 
  -9  -2  -3   14.38    1.64 
   9   2   3   14.48    1.74 
 -10  -2  -3    2.12    1.11 
  10   2   3    2.66    1.34 
 -11  -2  -3    2.72    1.34 
  11   2   3    0.04    1.26 
 -12  -2  -3   -0.47    1.14 
  12   2   3    2.22    1.51 
 -13  -2  -3   33.73    2.87 
  13   2   3   31.96    3.08 
 -14  -2  -3   48.55    3.72 
  14   2   3   41.81    3.66 
 -12   3   3   44.63    3.56 
  11  -3  -3   16.03    1.93 
 -11   3   3   16.11    2.22 
  10  -3  -3    2.36    1.19 
 -10   3   3    3.65    1.41 
   9  -3  -3    1.13    1.01 
  -9   3   3    2.18    1.30 
   8  -3  -3   12.05    1.37 
  -8   3   3    8.83    1.47 
   7  -3  -3   10.71    1.23 
  -7   3   3   12.43    1.07 
  -7   3   3    9.37    1.40 
   6  -3  -3    8.62    1.03 
  -6   3   3   11.65    1.00 
  -6   3   3    8.89    1.26 
   5  -3  -3    6.12    0.80 
  -5   3   3    5.35    0.77 
  -5   3   3    8.28    1.20 
   4  -3  -3   32.76    1.50 
  -4   3   3   30.66    1.76 
  -4   3   3   29.23    1.52 
   3  -3  -3   98.12    3.24 
  -3   3   3   95.33    3.42 
  -3   3   3   94.70    3.48 
   2  -3  -3  229.32    6.97 
  -2   3   3  221.59    7.23 
  -1   3   3  404.01   12.24 
  -1   3   3  399.70   12.46 
   0   3   3  522.98   16.43 
   0   3   3  552.46   16.80 
   0   3   3  566.28   16.55 
   1   3   3  426.85   13.02 
   1   3   3  433.02   13.15 
   2   3   3  173.51    5.73 
   2   3   3  182.88    5.70 
   2   3   3  179.08    5.73 
   3   3   3   28.53    1.46 
   3   3   3   34.66    1.45 
  -4  -3  -3   19.02    1.08 
   4   3   3   14.36    1.14 
  -5  -3  -3   12.51    0.96 
   5   3   3   11.03    1.11 
   5   3   3   13.75    1.16 
  -6  -3  -3   27.13    1.39 
   6   3   3   26.63    1.57 
   6   3   3   24.84    1.72 
  -7  -3  -3    3.63    0.64 
   7   3   3    0.04    0.37 
  -8  -3  -3    1.25    0.58 
  -8  -3  -3    0.46    0.56 
   8   3   3   -0.18    0.53 
  -9  -3  -3    8.22    1.38 
   9   3   3    8.74    1.52 
 -10  -3  -3   33.24    2.52 
  10   3   3   29.13    2.59 
 -11  -3  -3  102.81    4.70 
  11   3   3  102.21    4.95 
 -12  -3  -3  118.14    5.37 
  12   3   3  121.09    5.69 
 -13  -3  -3   44.84    3.46 
  13   3   3   46.42    3.42 
 -12   4   3   -0.05    1.59 
 -11   4   3    0.50    1.31 
  10  -4  -3    9.16    1.48 
 -10   4   3    6.96    1.55 
   9  -4  -3   11.77    1.46 
  -9   4   3   13.61    1.85 
   8  -4  -3    0.03    0.76 
  -8   4   3    0.25    0.75 
  -8   4   3    1.33    1.08 
   7  -4  -3    3.00    0.85 
  -7   4   3    2.23    1.16 
  -7   4   3    1.95    0.80 
   6  -4  -3   29.53    1.70 
  -6   4   3   33.43    2.19 
  -6   4   3   32.33    1.77 
   5  -4  -3  170.85    5.62 
  -5   4   3  164.40    5.75 
  -5   4   3  169.27    5.87 
   4  -4  -3  231.15    7.32 
  -4   4   3  234.84    7.59 
  -4   4   3  224.79    7.50 
   3  -4  -3  474.88   14.77 
  -3   4   3  486.93   15.06 
  -3   4   3  487.15   14.82 
   2  -4  -3  304.37    9.25 
  -2   4   3  301.38    9.66 
  -1   4   3  146.89    4.95 
  -1   4   3  141.83    4.74 
   0   4   3  136.64    4.50 
   0   4   3  135.69    4.28 
   1   4   3   44.47    1.85 
   1   4   3   45.90    1.71 
   1   4   3   41.95    1.94 
   2   4   3    0.01    0.48 
   2   4   3    0.00    0.50 
   2   4   3    0.39    0.48 
   3   4   3   21.95    1.37 
   3   4   3   24.54    1.27 
   4   4   3  103.54    3.89 
   4   4   3  107.32    3.77 
   4   4   3  104.28    3.62 
  -5  -4  -3   72.46    2.77 
   5   4   3   74.36    2.98 
   5   4   3   77.20    3.14 
  -6  -4  -3    0.54    0.51 
   6   4   3    0.97    0.78 
   6   4   3    0.26    0.72 
  -7  -4  -3   10.02    0.91 
   7   4   3    4.45    1.02 
  -8  -4  -3    5.64    0.74 
  -8  -4  -3    5.03    1.26 
  -9  -4  -3  186.18    6.77 
   9   4   3  182.86    7.05 
 -10  -4  -3  103.87    4.73 
  10   4   3  111.44    4.96 
 -11  -4  -3  103.45    4.81 
  11   4   3  102.21    4.98 
 -12  -4  -3   72.70    4.00 
  12   4   3   71.38    4.17 
 -13  -4  -3   22.22    2.63 
  13   4   3   24.89    2.91 
 -12   5   3    2.79    1.62 
 -11   5   3    3.25    1.41 
 -10   5   3    1.12    1.35 
  -9   5   3    3.76    1.40 
   8  -5  -3   73.42    3.18 
  -8   5   3   70.78    3.21 
  -8   5   3   71.42    3.55 
   7  -5  -3   32.61    1.83 
  -7   5   3   29.62    2.12 
  -7   5   3   31.60    2.03 
   6  -5  -3  192.44    6.30 
  -6   5   3  184.75    6.51 
  -6   5   3  185.29    6.54 
   5  -5  -3  300.01    9.76 
  -5   5   3  311.45    9.96 
  -5   5   3  315.61   10.10 
   4  -5  -3  359.67   11.29 
  -4   5   3  371.00   11.69 
  -4   5   3  359.80   11.44 
   3  -5  -3  214.46    6.60 
  -3   5   3  210.53    7.11 
  -3   5   3  207.86    6.88 
  -2   5   3    0.73    0.75 
  -2   5   3   -0.22    0.47 
  -1   5   3    0.08    0.64 
  -1   5   3    0.22    0.52 
   0   5   3   -0.12    0.52 
   0   5   3    0.06    0.35 
   1   5   3   58.89    2.30 
   1   5   3   60.27    2.28 
   2   5   3   64.24    2.54 
   3   5   3  122.56    4.84 
   3   5   3  159.66    4.81 
   4   5   3    9.39    0.99 
   4   5   3   10.32    1.13 
   5   5   3   33.47    2.04 
   5   5   3   35.13    1.88 
  -6  -5  -3   27.93    1.52 
   6   5   3   28.34    1.92 
   6   5   3   31.15    1.88 
  -7  -5  -3   80.48    3.03 
   7   5   3   80.42    3.72 
  -8  -5  -3   68.98    3.32 
   8   5   3   63.60    3.34 
  -9  -5  -3  243.22    8.54 
   9   5   3  240.06    8.85 
 -10  -5  -3   64.47    3.50 
  10   5   3   68.73    3.66 
 -11  -5  -3   21.28    2.24 
  11   5   3   21.77    2.43 
 -12  -5  -3    2.76    1.70 
  12   5   3    2.64    1.42 
 -13  -5  -3   -0.03    1.50 
  13   5   3    0.15    1.58 
 -12   6   3    1.07    1.64 
 -11   6   3    5.05    1.61 
 -10   6   3   32.14    2.69 
  -9   6   3   57.94    3.03 
  -9   6   3   57.59    3.30 
  -8   6   3  151.02    5.62 
  -8   6   3  144.92    5.72 
   7  -6  -3   89.90    3.51 
  -7   6   3   92.60    3.87 
  -7   6   3   88.69    3.90 
   6  -6  -3  163.04    5.46 
  -6   6   3  160.62    5.83 
  -6   6   3  156.09    5.85 
   5  -6  -3  140.05    4.78 
  -5   6   3  143.95    5.31 
  -5   6   3  145.13    5.17 
   4  -6  -3   14.91    0.96 
  -4   6   3   15.40    1.38 
  -4   6   3   16.49    1.46 
  -3   6   3    4.26    0.81 
  -3   6   3    4.23    0.96 
  -2   6   3    0.25    0.52 
  -2   6   3    0.29    0.71 
  -1   6   3    1.08    0.45 
   0   6   3   32.21    1.59 
   1   6   3   12.03    1.02 
   1   6   3   12.78    1.21 
   2   6   3    0.76    0.51 
   2   6   3    1.13    0.67 
   2   6   3    0.08    0.51 
   3   6   3   26.74    1.66 
   3   6   3   28.31    1.63 
   3   6   3   27.38    1.54 
   4   6   3  367.05   11.45 
   4   6   3  371.25   11.60 
   4   6   3  359.50   11.92 
   5   6   3  213.48    6.81 
   5   6   3  202.81    6.88 
   5   6   3  202.51    7.24 
   6   6   3  215.08    7.70 
   6   6   3  216.93    7.26 
   6   6   3  214.91    7.04 
  -7  -6  -3  141.87    4.93 
   7   6   3  145.41    5.72 
  -8  -6  -3   81.91    3.74 
   8   6   3   79.19    3.88 
  -9  -6  -3   84.12    3.92 
   9   6   3   84.39    4.17 
 -10  -6  -3    4.68    1.54 
  10   6   3    5.76    1.45 
 -11  -6  -3    1.03    1.48 
  11   6   3   -2.01    0.88 
 -12  -6  -3    1.29    1.53 
  12   6   3    2.90    1.50 
 -11   7   3   86.27    4.46 
 -10   7   3  112.74    5.07 
  -9   7   3   63.80    3.34 
  -9   7   3   67.10    3.55 
  -8   7   3   43.02    2.81 
  -8   7   3   44.32    2.69 
  -7   7   3   56.68    2.95 
  -7   7   3   48.24    2.78 
  -6   7   3    9.87    1.32 
  -6   7   3   11.83    1.52 
   5  -7  -3    3.90    0.67 
  -5   7   3    4.88    1.04 
  -5   7   3    3.37    1.01 
  -4   7   3   40.83    2.32 
  -4   7   3   38.71    2.09 
  -3   7   3   60.04    2.56 
  -3   7   3   63.74    2.94 
  -2   7   3   32.60    1.66 
  -2   7   3   30.00    1.99 
  -1   7   3    4.35    0.83 
   0   7   3   14.02    1.36 
   2   7   3  118.44    4.17 
   2   7   3  121.26    4.43 
   2   7   3  118.85    4.44 
   3   7   3  281.90    9.31 
   3   7   3  280.77    8.87 
   3   7   3  273.45    9.14 
   4   7   3  289.69    9.35 
   4   7   3  277.00    9.14 
   4   7   3  292.07    9.67 
   5   7   3  158.09    5.40 
   5   7   3  154.43    5.45 
   5   7   3  155.48    5.84 
   6   7   3   98.79    4.19 
   6   7   3   88.63    3.43 
   6   7   3   92.34    3.72 
   7   7   3    8.84    1.59 
  -8  -7  -3    3.99    1.25 
   8   7   3    5.14    1.46 
  -9  -7  -3    1.57    1.28 
   9   7   3    4.90    1.57 
 -10  -7  -3   11.69    1.92 
  10   7   3   11.87    2.00 
 -11  -7  -3    1.77    1.51 
  11   7   3    2.51    1.52 
 -12  -7  -3    4.57    1.83 
  12   7   3    2.43    1.54 
 -11   8   3   64.31    3.90 
 -10   8   3   51.78    3.20 
 -10   8   3   45.71    3.19 
  -9   8   3   67.47    3.67 
  -9   8   3   67.13    3.61 
  -8   8   3    9.23    1.52 
  -8   8   3    6.31    1.42 
  -7   8   3    5.65    1.23 
  -7   8   3    4.25    1.30 
  -6   8   3   15.32    1.59 
  -6   8   3   16.96    1.85 
  -5   8   3   27.75    1.92 
  -5   8   3   28.76    2.28 
  -4   8   3    7.15    1.28 
  -4   8   3    8.64    1.05 
  -3   8   3    0.82    0.90 
  -3   8   3    1.10    0.65 
  -1   8   3   91.65    3.83 
  -1   8   3   90.39    3.35 
   0   8   3  176.82    5.98 
   0   8   3  144.54    5.24 
   1   8   3  185.62    6.11 
   1   8   3  185.80    6.63 
   2   8   3  202.97    6.94 
   2   8   3  199.40    6.48 
   2   8   3  189.94    6.85 
   3   8   3  245.35    8.38 
   3   8   3  243.83    7.99 
   3   8   3  254.36    8.53 
   4   8   3   75.99    3.52 
   4   8   3   78.91    3.28 
   4   8   3   79.10    3.13 
   5   8   3   19.61    1.66 
   5   8   3   20.76    1.83 
   5   8   3   19.25    1.44 
   6   8   3    2.64    0.71 
   6   8   3    1.93    1.14 
   6   8   3    0.63    0.86 
  -7  -8  -3   23.94    1.98 
   7   8   3   19.67    2.02 
  -8  -8  -3    4.56    1.35 
   8   8   3    6.13    1.55 
  -9  -8  -3    8.52    1.58 
   9   8   3    8.55    1.70 
 -10  -8  -3   11.02    1.87 
  10   8   3   10.73    1.91 
 -11  -8  -3    2.33    1.52 
  11   8   3    0.31    1.44 
 -11   9   3    4.79    1.70 
 -10   9   3   -0.50    1.23 
 -10   9   3    2.44    1.34 
  -9   9   3    1.48    1.24 
  -9   9   3   -0.32    1.21 
  -8   9   3    5.92    1.53 
  -8   9   3    5.79    1.37 
  -7   9   3    3.41    1.12 
  -7   9   3    2.56    1.17 
  -6   9   3    3.73    1.22 
  -6   9   3    3.21    0.99 
  -5   9   3    1.13    0.77 
  -5   9   3    1.73    1.21 
  -4   9   3   48.26    2.30 
  -4   9   3   42.98    2.73 
  -3   9   3   70.81    3.42 
  -3   9   3   68.66    2.85 
  -2   9   3  198.62    6.56 
  -1   9   3  247.62    8.64 
  -1   9   3  242.69    7.87 
   0   9   3  246.36    8.55 
   0   9   3  238.66    7.78 
   1   9   3  108.36    3.83 
   1   9   3  103.06    4.42 
   2   9   3   12.22    1.42 
   2   9   3   12.20    1.11 
   2   9   3   13.22    1.53 
   3   9   3    1.24    0.72 
   3   9   3    2.33    1.00 
   3   9   3    2.46    0.92 
   4   9   3    1.91    0.92 
   4   9   3    3.96    1.16 
   4   9   3    2.41    0.83 
   5   9   3    5.59    1.35 
   5   9   3    5.45    0.99 
   5   9   3    5.14    0.99 
   6   9   3   49.23    2.93 
   6   9   3   46.80    2.31 
  -7  -9  -3    3.61    1.20 
   7   9   3    2.68    1.21 
  -8  -9  -3   -0.15    1.09 
   8   9   3   -0.11    1.11 
  -9  -9  -3    5.80    1.49 
   9   9   3    1.13    1.29 
 -10  -9  -3   14.47    2.06 
  10   9   3   11.24    2.19 
 -10  10   3    4.75    1.57 
  -9  10   3    6.35    1.72 
  -8  10   3    2.48    1.47 
  -7  10   3    6.48    1.48 
  -6  10   3   38.94    2.91 
  -5  10   3  120.00    5.26 
  -5  10   3  125.17    4.63 
  -4  10   3  176.77    6.01 
  -4  10   3  171.62    6.77 
  -3  10   3  190.26    7.25 
  -3  10   3  195.32    6.49 
  -2  10   3  167.06    6.57 
  -2  10   3  171.72    5.76 
  -1  10   3   88.44    3.28 
  -1  10   3   82.81    4.03 
   0  10   3   75.84    3.69 
   0  10   3   71.28    2.87 
   1  10   3   17.79    1.84 
   1  10   3   19.08    1.34 
   2  10   3    2.19    1.09 
   2  10   3    2.70    0.70 
   3  10   3   35.59    1.91 
   3  10   3   34.75    2.32 
   3  10   3   38.99    2.46 
   4  10   3  103.01    4.27 
   4  10   3   96.61    3.82 
   4  10   3  100.08    4.47 
   5  10   3   15.46    1.44 
   5  10   3   13.46    1.46 
   5  10   3   15.02    1.95 
   6  10   3    0.34    1.20 
  -7 -10  -3    8.97    1.51 
   7  10   3    7.84    1.74 
  -8 -10  -3   25.65    2.34 
   8  10   3   31.76    2.71 
  -9 -10  -3   43.70    3.22 
   9  10   3   51.84    3.66 
  -9  11   3    9.77    1.99 
  -8  11   3   12.50    1.98 
  -7  11   3   58.35    3.57 
  -6  11   3  100.13    4.91 
  -5  11   3  160.88    6.60 
  -4  11   3   79.87    4.03 
  -3  11   3   71.77    3.72 
  -2  11   3   17.11    2.08 
  -1  11   3   -0.56    1.02 
   0  11   3   -0.08    1.02 
   1  11   3   82.35    3.96 
   2  11   3   21.53    2.04 
   3  11   3    8.18    1.41 
   4  11   3    0.26    0.93 
   4  11   3   -1.23    1.03 
   5  11   3    6.18    1.51 
   5  11   3    5.47    1.16 
   6  11   3   16.84    2.14 
   7  11   3   48.47    3.44 
   8  11   3   67.86    4.25 
  -8  12   3   57.11    3.75 
  -7  12   3   95.10    4.88 
  -6  12   3   76.35    4.24 
  -5  12   3   61.83    3.83 
  -4  12   3   -0.50    1.15 
  -3  12   3    4.72    1.50 
  -2  12   3    7.46    1.57 
  -1  12   3    0.89    1.28 
   0  12   3    3.74    1.39 
   1  12   3    5.73    1.36 
   2  12   3   15.40    1.94 
   3  12   3   54.56    3.20 
   4  12   3  108.28    4.80 
   5  12   3   88.08    4.55 
   6  12   3   93.81    4.86 
   7  12   3   97.91    5.14 
  -7  13   3   32.10    3.20 
  -6  13   3    8.60    2.03 
  -5  13   3    0.83    1.19 
  -4  13   3   21.61    2.53 
  -3  13   3    5.67    1.58 
  -2  13   3    4.22    1.43 
  -1  13   3    0.57    1.30 
   0  13   3    5.54    1.51 
   1  13   3   44.53    3.18 
   2  13   3  111.32    5.17 
   3  13   3  137.94    5.86 
   4  13   3  105.49    5.23 
  -5  14   3   12.97    2.14 
  -4  14   3    0.40    1.30 
  -3  14   3    3.61    1.53 
  -2  14   3   16.95    2.32 
  -1  14   3   56.51    3.84 
   0  14   3   61.22    3.93 
   1  14   3  127.65    5.81 
   2  14   3  141.07    6.21 
   3  14   3   43.96    3.14 
  -2  12  -4   44.66    3.41 
  -3  12  -4   67.99    4.28 
  -4  12  -4   68.30    4.42 
   0  11  -4   53.41    3.42 
  -1  11  -4   40.90    3.05 
  -2  11  -4   95.89    4.88 
  -3  11  -4   70.37    4.19 
  -4  11  -4   54.56    3.60 
  -5  11  -4   33.36    2.97 
  -6  11  -4    0.10    1.32 
  -7  11  -4    4.51    1.76 
   0  10  -4   92.28    4.40 
  -1  10  -4   88.37    4.38 
  -2  10  -4   69.05    3.75 
  -3  10  -4   24.35    2.52 
  -4  10  -4    5.98    1.55 
  -5  10  -4    0.06    1.32 
  -6  10  -4   10.62    2.00 
  -7  10  -4   10.40    1.94 
  -8  10  -4    4.64    1.54 
  -9  10  -4   -0.58    1.26 
   1   9  -4  102.53    4.45 
   0   9  -4   40.12    2.66 
  -1   9  -4    4.79    1.37 
  -2   9  -4    0.12    1.10 
  -3   9  -4    9.07    1.54 
  -4   9  -4   31.85    2.82 
  -5   9  -4   34.37    2.67 
  -6   9  -4    7.89    1.75 
  -7   9  -4   -0.05    1.02 
  -8   9  -4    5.50    1.63 
  -9   9  -4   51.29    3.47 
 -10   9  -4   51.09    3.53 
   1   8  -4    5.84    1.15 
   0   8  -4    0.00    0.91 
  -1   8  -4   11.25    1.61 
  -2   8  -4    6.23    1.33 
  -3   8  -4   13.69    1.73 
  -4   8  -4    6.48    1.36 
  -5   8  -4    0.72    1.01 
  -6   8  -4   16.29    1.98 
  -7   8  -4   73.65    3.81 
  -8   8  -4   98.88    4.70 
  -9   8  -4  107.29    5.04 
 -10   8  -4   68.03    4.02 
 -11   8  -4   39.36    3.08 
  11  -8   4   40.26    3.06 
   7   7  -4  127.30    6.16 
   2   7  -4   25.78    1.82 
   1   7  -4    0.77    0.83 
   0   7  -4    0.16    0.89 
  -1   7  -4    2.16    1.05 
  -2   7  -4   44.04    2.64 
  -3   7  -4   75.72    3.63 
  -4   7  -4  274.40    9.60 
  -5   7  -4  256.52    9.09 
  -6   7  -4  159.83    6.22 
  -7   7  -4  298.75   10.47 
  -8   7  -4  211.63    7.98 
  -9   7  -4   40.31    2.94 
 -10   7  -4   44.01    3.12 
 -11   7  -4   -0.59    1.28 
  11  -7   4    2.06    1.40 
 -12   7  -4    0.76    1.42 
  12  -7   4   -0.57    1.25 
   8   6  -4   35.67    3.19 
  -8  -6   4   38.86    2.96 
   7   6  -4   79.57    4.39 
  -7  -6   4   73.37    3.86 
   6   6  -4   12.78    2.11 
  -6  -6   4    8.65    1.50 
  -5  -6   4    4.58    1.26 
   2   6  -4   10.44    1.14 
   1   6  -4   18.31    1.55 
   0   6  -4   -0.89    0.75 
  -1   6  -4   14.40    1.49 
  -2   6  -4  126.46    4.92 
  -3   6  -4  194.88    6.98 
  -4   6  -4  160.89    6.05 
  -5   6  -4  256.95    8.95 
  -6   6  -4  238.76    8.44 
  -7   6  -4   59.65    3.17 
  -8   6  -4    2.82    1.21 
  -9   6  -4    9.38    1.57 
 -10   6  -4    6.03    1.48 
  10  -6   4    6.73    1.50 
 -11   6  -4   15.03    1.95 
  11  -6   4   14.68    1.96 
 -12   6  -4   11.31    1.91 
  12  -6   4   12.27    1.95 
 -13   6  -4    3.35    1.58 
  13  -6   4    5.82    1.74 
   9   5  -4   28.92    3.01 
  -9  -5   4   23.00    2.46 
   8   5  -4    2.73    1.66 
  -8  -5   4    3.07    1.53 
   7   5  -4    2.48    1.44 
  -7  -5   4    3.08    1.39 
   6   5  -4   16.84    2.08 
  -6  -5   4   17.46    1.82 
   5   5  -4   17.27    2.16 
  -5  -5   4   18.37    1.77 
   4   5  -4   20.58    2.12 
  -4  -5   4   21.37    1.89 
  -3  -5   4    4.90    1.07 
   2   5  -4    0.19    0.61 
  -2  -5   4    0.58    0.78 
   1   5  -4    2.30    0.75 
  -1  -5   4    1.97    0.66 
   0   5  -4   57.33    2.58 
   0  -5   4   55.52    2.01 
  -1   5  -4  164.41    5.84 
  -2   5  -4  200.72    6.95 
  -3   5  -4  134.81    5.07 
  -4   5  -4   77.51    3.36 
  -6   5  -4    0.47    0.83 
  -6   5  -4    0.14    0.48 
  -7   5  -4    5.59    0.81 
  -7   5  -4    3.66    1.12 
  -8   5  -4   24.38    1.59 
  -8   5  -4   24.11    2.02 
  -9   5  -4   41.71    2.74 
  -9   5  -4   48.29    2.38 
 -10   5  -4    9.20    1.49 
 -10   5  -4    9.21    1.30 
  10  -5   4    6.22    1.45 
 -11   5  -4    2.40    1.04 
 -11   5  -4    2.66    1.29 
  11  -5   4    0.41    1.23 
 -12   5  -4   -1.96    1.09 
  12  -5   4   -1.20    1.19 
 -13   5  -4   16.11    2.08 
  13  -5   4   14.43    2.16 
  10   4  -4    2.48    1.76 
 -10  -4   4    5.78    1.89 
   9   4  -4    0.99    1.56 
  -9  -4   4    0.85    1.47 
   8   4  -4    7.44    1.84 
  -8  -4   4    4.47    1.51 
   7   4  -4    9.98    1.71 
  -7  -4   4    9.23    1.63 
   6   4  -4   16.56    2.02 
  -6  -4   4   16.38    1.76 
   5   4  -4    1.83    1.30 
  -5  -4   4    1.88    1.14 
   4   4  -4    0.90    1.04 
  -4  -4   4    1.69    1.04 
   3   4  -4   33.40    1.58 
  -3  -4   4   33.01    2.01 
  -2  -4   4  146.49    4.98 
   1   4  -4  385.48   12.01 
  -1  -4   4  374.93   11.60 
   0   4  -4  285.82    8.94 
   0  -4   4  264.80    8.37 
  -1   4  -4  151.88    5.07 
   1  -4   4  135.24    4.35 
  -2   4  -4  187.54    6.43 
  -3   4  -4   41.10    2.11 
  -4   4  -4   17.06    1.51 
  -4   4  -4   17.49    0.84 
  -5   4  -4    5.80    0.62 
  -5   4  -4    4.85    0.92 
  -7   4  -4    9.48    1.32 
  -7   4  -4    9.67    1.01 
  -8   4  -4   15.75    1.37 
  -8   4  -4   14.58    1.55 
  -9   4  -4   -0.59    0.85 
  -9   4  -4    0.05    0.80 
   9  -4   4    0.31    0.96 
 -10   4  -4   31.23    2.35 
 -10   4  -4   29.44    2.14 
  10  -4   4   32.23    2.45 
 -11   4  -4   59.95    3.09 
 -11   4  -4   55.48    3.15 
  11  -4   4   53.43    3.27 
 -12   4  -4   62.47    3.50 
 -12   4  -4   66.80    3.52 
  12  -4   4   71.80    3.82 
 -13   4  -4   83.00    4.26 
  13  -4   4   88.46    4.55 
  10   3  -4    8.11    2.00 
 -10  -3   4    6.31    1.93 
   9   3  -4   17.70    2.34 
  -9  -3   4   21.20    2.37 
   8   3  -4    1.60    1.39 
  -8  -3   4    0.84    1.32 
   7   3  -4    0.32    1.14 
  -7  -3   4   -0.43    1.17 
   6   3  -4    2.97    1.32 
  -6  -3   4    1.39    1.23 
   5   3  -4   39.17    2.66 
  -5  -3   4   36.79    2.39 
   4   3  -4   76.71    3.53 
  -4  -3   4   72.32    3.24 
   3   3  -4  254.71    8.83 
   3   3  -4  252.77    7.99 
  -3  -3   4  255.98    8.24 
   2   3  -4  347.22   10.88 
  -2  -3   4  350.30   10.85 
   1   3  -4  153.85    5.14 
   0   3  -4   65.03    2.54 
  -1   3  -4   57.28    2.36 
   1  -3   4   51.66    1.85 
  -2   3  -4   24.16    1.53 
   2  -3   4   23.38    0.93 
  -3   3  -4   13.89    1.22 
   3  -3   4   10.96    0.65 
  -4   3  -4   -0.63    0.17 
  -5   3  -4   38.03    1.60 
  -5   3  -4   38.08    2.02 
  -6   3  -4    2.49    0.57 
  -6   3  -4    6.96    1.02 
  -7   3  -4   17.74    1.53 
  -7   3  -4   18.91    1.32 
  -8   3  -4   51.74    2.44 
  -8   3  -4   53.08    2.69 
   8  -3   4   50.36    2.77 
  -9   3  -4  124.83    4.94 
  -9   3  -4  132.67    4.82 
   9  -3   4  124.56    5.10 
 -10   3  -4  132.08    5.01 
 -10   3  -4  125.20    5.09 
  10  -3   4  131.76    5.32 
 -11   3  -4  134.08    5.30 
 -11   3  -4  131.11    5.21 
  11  -3   4  128.70    5.52 
 -12   3  -4  148.10    5.86 
 -12   3  -4  143.62    5.78 
  12  -3   4  151.01    6.21 
 -13   3  -4   59.60    3.48 
  13  -3   4   65.76    3.87 
 -14   3  -4   15.30    2.16 
  14  -3   4   16.38    2.33 
  11   2  -4    6.51    1.76 
 -11  -2   4    4.51    1.74 
  10   2  -4    7.40    1.72 
 -10  -2   4    7.39    1.91 
   9   2  -4    0.86    1.33 
  -9  -2   4   -0.17    1.42 
   8   2  -4   15.42    1.89 
  -8  -2   4   13.91    1.93 
   7   2  -4   96.12    4.38 
  -7  -2   4   89.94    4.19 
   6   2  -4  130.94    5.44 
  -6  -2   4  143.17    5.35 
   5   2  -4  164.99    6.27 
  -5  -2   4  168.87    5.99 
   4   2  -4  206.98    6.43 
   4   2  -4  205.57    7.39 
  -4  -2   4  216.84    7.07 
   3   2  -4  375.35   12.61 
   3   2  -4  389.18   11.82 
  -3  -2   4  393.60   12.08 
   2   2  -4  173.16    5.63 
  -2  -2   4  178.48    5.81 
   1   2  -4   13.55    0.98 
  -1  -2   4   13.10    1.12 
   0   2  -4    1.33    0.57 
   0  -2   4    1.30    0.52 
  -2   2  -4    8.93    0.95 
   2  -2   4    7.09    0.63 
  -3   2  -4   82.84    3.15 
   3  -2   4   79.96    2.69 
  -4   2  -4   34.66    1.78 
   4  -2   4   36.02    1.47 
  -5   2  -4   33.60    1.80 
   5  -2   4   32.16    1.52 
  -6   2  -4  229.46    7.56 
  -6   2  -4  221.72    7.19 
  -7   2  -4   96.46    3.59 
  -7   2  -4   95.73    3.74 
  -8   2  -4  229.64    7.65 
  -8   2  -4  231.57    7.83 
   8  -2   4  230.98    8.01 
  -9   2  -4  177.60    6.32 
  -9   2  -4  177.03    6.25 
   9  -2   4  176.81    6.56 
 -10   2  -4  178.81    6.35 
 -10   2  -4  174.60    6.38 
  10  -2   4  173.37    6.62 
 -11   2  -4   49.15    2.88 
 -11   2  -4   49.48    2.73 
  11  -2   4   50.65    3.14 
 -12   2  -4   11.81    1.68 
 -12   2  -4   10.96    1.68 
  12  -2   4   11.80    1.76 
 -13   2  -4    3.55    1.35 
  13  -2   4    2.40    1.39 
 -14   2  -4    1.02    1.37 
  14  -2   4    0.91    1.42 
  11   1  -4    3.50    1.62 
 -11  -1   4    4.44    1.88 
  10   1  -4    5.46    1.58 
 -10  -1   4    5.97    1.89 
   9   1  -4   57.51    3.46 
  -9  -1   4   56.89    3.56 
   8   1  -4  114.75    5.05 
  -8  -1   4  117.56    5.05 
   7   1  -4  154.09    6.09 
  -7  -1   4  159.06    5.95 
   6   1  -4  112.39    4.71 
  -6  -1   4  118.02    4.69 
   5   1  -4  113.71    4.58 
  -5  -1   4  115.73    4.48 
   4   1  -4  138.65    4.14 
   4   1  -4  129.15    5.04 
  -4  -1   4  132.08    4.86 
   3   1  -4   44.69    2.35 
   3   1  -4   46.31    1.70 
  -3  -1   4   47.46    2.28 
   2   1  -4   -0.60    0.65 
   2   1  -4    0.12    0.41 
  -2  -1   4   -0.10    0.65 
   1   1  -4   33.21    1.53 
  -1  -1   4   36.69    1.73 
   0   1  -4   53.87    2.19 
   0  -1   4   54.90    2.09 
  -1   1  -4  115.13    4.02 
   1  -1   4  115.23    3.74 
  -2   1  -4   -0.14    0.39 
   2  -1   4    0.72    0.43 
  -4   1  -4  129.38    4.46 
   4  -1   4  124.98    4.15 
  -5   1  -4  141.40    4.84 
   5  -1   4  131.77    4.50 
  -6   1  -4  376.46   11.94 
   6  -1   4  372.49   11.57 
  -7   1  -4  221.53    7.27 
  -7   1  -4  211.62    7.37 
   7  -1   4  231.74    7.65 
  -8   1  -4  159.85    5.56 
  -8   1  -4  156.03    5.54 
   8  -1   4  154.23    5.74 
  -9   1  -4   48.16    2.59 
  -9   1  -4   48.01    2.45 
   9  -1   4   51.00    2.79 
 -10   1  -4   22.94    1.80 
 -10   1  -4   20.92    1.91 
  10  -1   4   25.15    2.08 
 -11   1  -4    1.89    1.17 
 -11   1  -4    2.25    0.99 
  11  -1   4    1.43    1.27 
 -12   1  -4    5.49    1.46 
  12  -1   4    1.47    1.38 
 -13   1  -4    7.23    1.64 
  13  -1   4    6.54    1.57 
 -14   1  -4    8.48    1.88 
  14  -1   4    8.54    1.97 
  11   0  -4   45.25    3.23 
 -11   0   4   39.53    3.28 
  10   0  -4   58.86    3.56 
 -10   0   4   62.21    3.84 
   9   0  -4   96.55    4.52 
  -9   0   4   99.03    4.71 
   8   0  -4  103.44    4.58 
  -8   0   4  107.76    4.73 
   7   0  -4   67.59    3.34 
  -7   0   4   70.18    3.55 
   6   0  -4   15.07    1.52 
  -6   0   4   14.80    1.61 
   5   0  -4    0.79    0.77 
  -5   0   4    1.02    0.92 
   4   0  -4   13.11    1.30 
   4   0  -4   13.20    0.70 
  -4   0   4   13.31    1.40 
   3   0  -4  133.50    4.23 
   3   0  -4  128.39    4.71 
  -3   0   4  131.48    4.62 
   2   0  -4   34.58    1.78 
   2   0  -4   32.97    1.42 
  -2   0   4   32.54    1.80 
   1   0  -4   33.96    1.51 
  -1   0   4   34.50    1.69 
   0   0  -4    3.13    0.59 
   0   0   4    2.21    0.63 
  -1   0  -4  480.31   15.02 
   1   0   4  493.82   14.63 
  -2   0  -4   12.85    0.97 
  -3   0  -4  164.59    5.47 
  -4   0  -4  518.10   16.08 
   4   0   4  518.74   15.65 
  -5   0  -4  551.47   16.69 
   5   0   4  520.45   16.22 
  -6   0  -4  332.60   10.67 
   6   0   4  336.78   10.86 
   6   0   4  337.40   10.49 
  -7   0  -4   44.65    2.15 
   7   0   4   45.47    2.29 
  -8   0  -4   11.82    1.19 
  -8   0  -4   11.91    1.27 
   8   0   4   11.81    1.36 
  -9   0  -4    0.32    0.80 
  -9   0  -4   -0.06    0.91 
   9   0   4    1.35    1.03 
 -10   0  -4    3.23    1.17 
 -10   0  -4    4.63    0.97 
  10   0   4    5.01    1.36 
 -11   0  -4    8.67    1.23 
 -11   0  -4    7.97    1.50 
  11   0   4   10.37    1.73 
 -12   0  -4    3.56    1.47 
  12   0   4    2.84    1.40 
 -13   0  -4    0.51    1.23 
  13   0   4   -1.25    1.22 
 -14   0  -4    5.74    1.78 
  14   0   4    7.17    1.78 
  11  -1  -4   81.57    4.23 
 -11   1   4   73.36    4.19 
  10  -1  -4   64.55    3.58 
 -10   1   4   64.84    3.87 
   9  -1  -4   35.77    2.52 
  -9   1   4   33.57    2.67 
   8  -1  -4    8.76    1.41 
  -8   1   4    8.21    1.68 
   7  -1  -4    0.53    0.91 
  -7   1   4    1.81    1.33 
   6  -1  -4   22.91    1.77 
  -6   1   4   22.25    1.99 
   5  -1  -4   77.32    3.29 
  -5   1   4   80.74    3.39 
   4  -1  -4    5.74    0.91 
  -4   1   4    5.31    1.13 
   3  -1  -4   20.82    1.35 
  -3   1   4   19.91    1.49 
   2  -1  -4  133.37    4.55 
   2  -1  -4  143.37    4.78 
  -2   1   4  147.71    4.84 
   1  -1  -4   75.03    2.66 
  -1   1   4   77.18    2.86 
   0  -1  -4  280.78    8.84 
   0   1   4  284.80    8.75 
  -1  -1  -4  599.79   18.33 
   1   1   4  597.47   17.95 
  -3  -1  -4  281.81    9.07 
   3   1   4  288.31    8.82 
  -4  -1  -4  153.94    5.20 
   4   1   4  154.51    5.06 
  -5  -1  -4  158.93    5.50 
   5   1   4  169.29    5.45 
  -6  -1  -4    4.93    0.79 
   6   1   4    4.48    0.85 
  -7  -1  -4   13.54    1.21 
   7   1   4    9.77    1.10 
   7   1   4   15.68    1.34 
  -8  -1  -4    2.58    0.88 
  -8  -1  -4    5.49    0.87 
   8   1   4    2.24    0.87 
  -9  -1  -4    9.39    1.11 
  -9  -1  -4    7.33    1.22 
   9   1   4    9.51    1.45 
 -10  -1  -4    8.11    1.40 
 -10  -1  -4    6.68    1.06 
  10   1   4   10.70    1.60 
 -11  -1  -4   -0.54    1.13 
  11   1   4   -0.02    1.22 
 -12  -1  -4   10.23    1.77 
  12   1   4   11.47    1.78 
 -13  -1  -4   33.87    2.94 
  13   1   4   27.97    2.77 
 -14  -1  -4   55.14    3.79 
  14   1   4   52.83    3.72 
 -12   2   4   36.88    3.31 
  11  -2  -4   14.11    1.96 
 -11   2   4   12.13    2.10 
  10  -2  -4    1.32    1.12 
 -10   2   4    0.54    1.35 
   9  -2  -4    1.11    1.05 
  -9   2   4   -0.30    1.19 
   8  -2  -4    2.60    1.05 
  -8   2   4    3.62    1.22 
   7  -2  -4   14.42    1.46 
  -7   2   4   13.86    1.70 
   5  -2  -4    1.58    0.70 
  -5   2   4   -0.60    0.62 
  -5   2   4    0.41    0.44 
   4  -2  -4   33.80    1.70 
  -4   2   4   32.98    1.45 
  -4   2   4   30.73    1.88 
   3  -2  -4   62.89    2.48 
  -3   2   4   63.24    2.36 
  -3   2   4   69.33    2.71 
   2  -2  -4  174.06    5.57 
  -2   2   4  176.21    5.73 
  -2   2   4  165.99    5.51 
  -1   2   4  227.98    7.18 
  -1   2   4  222.23    7.12 
   0   2   4  331.31   10.32 
   0   2   4  332.80   10.22 
   1   2   4  231.48    7.27 
  -2  -2  -4  113.62    3.87 
  -3  -2  -4   56.18    2.20 
   3   2   4   54.30    2.13 
   3   2   4   53.77    2.17 
  -4  -2  -4   50.98    2.16 
   4   2   4   50.77    2.16 
  -5  -2  -4    0.22    0.57 
   5   2   4   -0.72    0.59 
   5   2   4    0.06    0.70 
  -6  -2  -4   63.95    2.59 
   6   2   4   66.02    2.76 
   6   2   4   64.31    2.74 
  -7  -2  -4   17.02    1.29 
   7   2   4   16.21    1.42 
  -8  -2  -4    0.21    0.67 
   8   2   4    0.43    0.50 
  -9  -2  -4   21.09    1.48 
  -9  -2  -4   24.50    2.02 
   9   2   4   17.12    1.73 
 -10  -2  -4   78.35    3.21 
 -10  -2  -4   81.42    3.72 
  10   2   4   79.21    3.84 
 -11  -2  -4   35.06    2.76 
  11   2   4   37.99    2.87 
 -12  -2  -4   77.22    4.17 
  12   2   4   80.95    4.39 
 -13  -2  -4   87.51    4.55 
  13   2   4   98.12    5.03 
 -14  -2  -4   45.62    3.63 
  14   2   4   43.64    3.45 
 -12   3   4    2.29    1.77 
 -11   3   4    5.47    1.64 
  10  -3  -4   15.12    1.77 
 -10   3   4   12.78    2.03 
   9  -3  -4   22.55    2.02 
  -9   3   4   20.46    2.16 
   8  -3  -4   14.03    1.50 
  -8   3   4   12.09    1.77 
   7  -3  -4    0.01    0.76 
  -7   3   4   -0.45    1.12 
   6  -3  -4    2.93    0.81 
  -6   3   4    0.95    0.68 
  -6   3   4    1.76    0.63 
   5  -3  -4   87.40    3.28 
  -5   3   4   85.84    3.60 
  -5   3   4   86.32    3.18 
   4  -3  -4  221.62    7.10 
  -4   3   4  214.51    7.26 
  -4   3   4  219.89    7.08 
   3  -3  -4  413.80   12.44 
  -3   3   4  371.55   12.46 
  -3   3   4  416.13   12.52 
   2  -3  -4  295.60    8.89 
  -2   3   4  278.44    9.08 
   1   3   4   62.01    2.31 
   1   3   4   59.83    2.07 
   2   3   4    0.16    0.47 
   2   3   4   -0.08    0.41 
   2   3   4   -0.05    0.12 
   3   3   4    8.57    0.81 
  -5  -3  -4    8.57    0.90 
   5   3   4    8.29    1.01 
  -6  -3  -4    0.15    0.56 
   6   3   4    0.18    0.21 
   6   3   4    0.19    0.74 
  -7  -3  -4   16.18    1.26 
   7   3   4   18.58    1.63 
  -9  -3  -4   81.22    3.67 
  -9  -3  -4   81.45    3.21 
   9   3   4   82.42    3.81 
 -10  -3  -4  151.34    5.90 
  10   3   4  152.63    6.16 
 -11  -3  -4  234.44    8.35 
  11   3   4  224.04    8.64 
 -12  -3  -4  108.11    4.95 
  12   3   4  103.49    5.09 
 -13  -3  -4   20.73    2.30 
  13   3   4   18.37    2.55 
 -14  -3  -4   11.18    2.21 
  14   3   4   16.30    2.51 
 -12   4   4   -0.03    1.64 
 -11   4   4    9.44    1.85 
 -10   4   4    1.02    1.27 
  -9   4   4    2.66    1.26 
   8  -4  -4   35.90    2.14 
  -8   4   4   29.59    2.54 
   7  -4  -4   29.98    1.82 
  -7   4   4   32.17    2.41 
  -7   4   4   27.52    1.70 
   6  -4  -4  134.60    4.72 
  -6   4   4  126.50    4.69 
  -6   4   4  137.98    5.13 
   5  -4  -4  199.23    6.65 
  -5   4   4  207.63    6.78 
  -5   4   4  201.68    6.93 
   4  -4  -4  281.96    8.91 
  -4   4   4  289.63    9.22 
  -4   4   4  277.06    9.12 
   3  -4  -4  347.29   10.57 
  -3   4   4  349.56   10.83 
  -3   4   4  330.59   10.85 
   2  -4  -4    4.24    0.39 
  -2   4   4    4.91    0.86 
  -2   4   4    4.37    0.73 
  -1   4   4   12.85    1.12 
   0   4   4    0.72    0.23 
   0   4   4    0.31    0.52 
   0   4   4    1.23    0.64 
   1   4   4   20.31    1.30 
   3   4   4   -0.04    0.45 
   3   4   4    0.97    0.56 
   3   4   4    1.04    0.54 
   4   4   4   19.76    1.33 
   4   4   4   23.49    1.44 
  -5  -4  -4    9.10    0.92 
   5   4   4    8.13    0.95 
   5   4   4    9.21    1.08 
  -6  -4  -4  138.05    4.90 
   6   4   4  147.43    5.05 
   6   4   4  142.06    5.23 
  -7  -4  -4   97.42    3.62 
   7   4   4   93.27    3.99 
   7   4   4  100.12    3.89 
  -8  -4  -4   95.65    3.21 
   8   4   4   64.86    3.55 
  -9  -4  -4  151.19    5.41 
  -9  -4  -4  162.78    5.96 
   9   4   4  161.61    6.21 
 -10  -4  -4   69.23    3.56 
  10   4   4   68.29    3.67 
 -11  -4  -4   48.26    3.03 
  11   4   4   54.48    3.37 
 -12  -4  -4    8.37    1.66 
  12   4   4    9.08    1.85 
 -13  -4  -4    2.86    1.50 
  13   4   4   -2.82    1.22 
 -12   5   4   -0.12    1.56 
 -11   5   4   -0.26    1.45 
 -10   5   4   19.45    2.18 
  -9   5   4   97.63    4.56 
  -8   5   4  165.28    6.06 
  -8   5   4  174.47    6.50 
   7  -5  -4   44.88    2.24 
  -7   5   4   49.03    2.74 
  -7   5   4   50.22    2.46 
   6  -5  -4  166.83    5.75 
  -6   5   4  173.60    6.01 
  -6   5   4  171.04    6.21 
   5  -5  -4   99.41    3.53 
  -5   5   4  100.63    3.87 
  -5   5   4  102.69    4.09 
   4  -5  -4  113.32    3.77 
  -4   5   4  114.50    4.29 
  -4   5   4  112.52    4.22 
   3  -5  -4    6.06    0.54 
  -3   5   4    7.68    1.03 
  -3   5   4    7.11    0.95 
  -2   5   4  146.17    5.13 
  -2   5   4  144.05    5.00 
  -1   5   4    0.90    0.66 
  -1   5   4    0.42    0.75 
   0   5   4    8.95    0.60 
   0   5   4    8.91    1.02 
   2   5   4   22.15    1.18 
   2   5   4   15.30    1.26 
   2   5   4   21.14    1.33 
   3   5   4   12.07    1.11 
   3   5   4   11.90    1.11 
   4   5   4  271.58    8.64 
   4   5   4  257.13    8.37 
   4   5   4  255.55    8.40 
   5   5   4  256.45    8.23 
   5   5   4  250.40    8.52 
  -6  -5  -4  192.43    6.53 
   6   5   4  195.46    6.65 
   6   5   4  202.26    7.01 
  -7  -5  -4  121.97    4.49 
   7   5   4  125.91    4.73 
   7   5   4  132.64    5.08 
  -8  -5  -4   48.63    2.28 
   8   5   4   52.53    2.79 
   8   5   4   53.02    2.96 
  -9  -5  -4   70.81    3.59 
   9   5   4   74.38    3.68 
 -10  -5  -4    1.17    1.32 
  10   5   4    0.63    1.14 
 -11  -5  -4    0.38    1.39 
  11   5   4   -0.54    1.09 
 -12  -5  -4    7.08    1.84 
  12   5   4    7.82    1.68 
 -13  -5  -4    8.08    2.01 
  13   5   4    6.23    1.83 
 -11   6   4   42.84    3.29 
 -10   6   4   82.07    4.25 
  -9   6   4  118.95    5.16 
  -8   6   4  106.88    4.34 
  -8   6   4  109.59    4.71 
  -7   6   4    6.39    1.36 
  -7   6   4    8.20    1.23 
  -6   6   4   49.79    2.55 
  -6   6   4   46.98    2.59 
   5  -6  -4   -0.23    0.47 
  -5   6   4   -0.67    0.78 
  -5   6   4    0.04    0.91 
   4  -6  -4   32.32    1.33 
  -4   6   4   31.47    1.99 
  -4   6   4   29.78    1.96 
   3  -6  -4   39.60    1.42 
  -3   6   4   41.27    2.20 
  -3   6   4   37.18    1.96 
   2  -6  -4    9.74    0.49 
  -2   6   4    8.57    0.99 
  -2   6   4    8.38    1.15 
  -1   6   4    1.01    0.65 
  -1   6   4    0.77    0.81 
   1   6   4   72.88    2.84 
   1   6   4   72.22    2.67 
   1   6   4   74.18    3.01 
   2   6   4   89.87    3.36 
   2   6   4   95.11    3.44 
   2   6   4   94.12    3.61 
   3   6   4  275.40    8.83 
   3   6   4  269.68    8.80 
   3   6   4  264.17    8.62 
   4   6   4  395.05   12.62 
   4   6   4  401.02   12.50 
   4   6   4  402.87   12.86 
   5   6   4  215.30    7.50 
   5   6   4  222.65    7.26 
   5   6   4  215.06    7.16 
   6   6   4  172.25    6.30 
   6   6   4  171.99    6.02 
  -7  -6  -4   33.95    1.80 
   7   6   4   34.52    2.35 
   7   6   4   30.44    2.12 
  -8  -6  -4    2.31    0.74 
   8   6   4    0.55    1.08 
   8   6   4    0.90    0.93 
  -9  -6  -4    0.46    1.24 
   9   6   4    0.54    1.14 
 -10  -6  -4   10.89    1.71 
  10   6   4   10.92    1.84 
 -11  -6  -4    1.30    1.45 
  11   6   4    3.00    1.44 
 -12  -6  -4    0.41    1.58 
  12   6   4    1.06    1.37 
 -13  -6  -4    1.93    1.85 
  13   6   4    2.98    1.62 
 -11   7   4  107.86    5.25 
 -10   7   4   70.93    3.99 
  -9   7   4   21.47    2.30 
  -8   7   4    2.38    1.04 
  -8   7   4    1.88    1.14 
  -7   7   4    1.29    0.98 
  -7   7   4    1.76    1.13 
  -6   7   4    3.62    1.09 
  -6   7   4    4.57    1.20 
  -5   7   4   36.07    2.27 
  -5   7   4   34.04    2.20 
   4  -7  -4   28.69    1.28 
  -4   7   4   28.24    2.02 
  -4   7   4   30.57    1.92 
   3  -7  -4   25.96    1.10 
  -3   7   4   26.51    1.94 
  -3   7   4   26.61    1.70 
  -2   7   4    7.04    1.19 
  -2   7   4    8.07    1.01 
  -1   7   4  108.11    3.89 
  -1   7   4  103.43    4.12 
   0   7   4  212.51    6.84 
   0   7   4  204.21    7.18 
   1   7   4  204.57    6.80 
   1   7   4  207.10    7.14 
   1   7   4  212.31    6.83 
   2   7   4  212.37    7.34 
   2   7   4  219.04    7.08 
   3   7   4  201.18    6.79 
   3   7   4  196.47    6.58 
   3   7   4  196.81    6.79 
   4   7   4   77.61    3.35 
   4   7   4   82.99    3.24 
   4   7   4   79.24    3.21 
   5   7   4   28.98    1.69 
   5   7   4   32.20    2.08 
   5   7   4   32.12    1.92 
   6   7   4    4.61    0.81 
   6   7   4    5.48    1.08 
   6   7   4    4.65    1.16 
  -7  -7  -4    6.58    0.94 
   7   7   4    6.00    1.22 
   7   7   4    7.17    1.26 
   8   7   4    6.96    1.50 
  -9  -7  -4    5.67    1.49 
   9   7   4    8.53    1.60 
 -10  -7  -4    0.84    1.36 
  10   7   4    0.85    1.17 
 -11  -7  -4    7.36    1.76 
  11   7   4    4.99    1.74 
 -12  -7  -4   10.86    2.11 
  12   7   4   15.13    2.40 
 -11   8   4    4.79    1.73 
 -10   8   4    6.12    1.60 
  -9   8   4    4.69    1.37 
  -9   8   4    3.05    1.35 
  -8   8   4   20.53    2.07 
  -8   8   4   19.35    1.98 
  -7   8   4   14.96    1.68 
  -7   8   4   15.71    1.79 
  -6   8   4    4.22    1.17 
  -6   8   4    3.08    1.09 
  -5   8   4    0.63    0.94 
  -5   8   4   -0.04    0.83 
  -4   8   4   23.48    2.04 
  -4   8   4   19.45    1.63 
  -3   8   4   29.53    2.20 
  -3   8   4   32.43    1.89 
  -2   8   4   87.82    4.09 
  -2   8   4  116.41    3.94 
   0   8   4  163.83    6.15 
   0   8   4  173.56    5.75 
   1   8   4  105.55    4.32 
   1   8   4  109.78    3.95 
   2   8   4   42.27    2.31 
   2   8   4   45.39    2.17 
   2   8   4   45.44    2.18 
   3   8   4   14.41    1.27 
   3   8   4   17.64    1.45 
   3   8   4   14.04    1.37 
   4   8   4    2.31    0.86 
   4   8   4    3.42    0.90 
   4   8   4    2.65    0.91 
   5   8   4    5.28    1.16 
   5   8   4    7.55    1.10 
   5   8   4    7.70    1.06 
   6   8   4   27.06    1.92 
   6   8   4   27.28    1.73 
   6   8   4   28.26    2.18 
   7   8   4    9.29    1.32 
   7   8   4    9.42    1.60 
   7   8   4    8.87    1.05 
   8   8   4    2.47    1.18 
  -9  -8  -4    6.81    1.58 
   9   8   4    9.14    1.65 
 -10  -8  -4   13.01    1.96 
  10   8   4   11.47    2.01 
 -11  -8  -4   36.54    3.11 
  11   8   4   31.60    3.14 
 -10   9   4    5.31    1.65 
  -9   9   4    9.57    1.63 
  -9   9   4    8.83    1.75 
  -8   9   4    1.21    1.19 
  -8   9   4   -0.73    1.07 
  -7   9   4   13.23    1.65 
  -7   9   4   13.24    1.81 
  -6   9   4   31.36    2.51 
  -6   9   4   31.99    2.21 
  -5   9   4   90.05    3.76 
  -5   9   4   84.99    4.10 
  -4   9   4  150.12    5.41 
  -4   9   4  149.68    5.93 
  -3   9   4  143.68    5.63 
  -3   9   4  142.72    5.13 
   0   9   4   43.21    2.11 
   0   9   4   45.74    2.57 
   1   9   4    0.94    0.97 
   1   9   4    0.72    0.67 
   2   9   4   32.39    1.85 
   2   9   4   32.15    1.92 
   2   9   4   32.51    2.19 
   3   9   4   13.51    1.48 
   3   9   4   14.22    1.32 
   3   9   4   15.11    1.57 
   4   9   4    3.93    1.13 
   4   9   4    5.99    1.09 
   4   9   4    5.83    0.99 
   5   9   4    9.04    1.20 
   5   9   4    7.31    1.38 
   5   9   4    7.88    1.15 
   6   9   4    1.11    0.91 
   6   9   4    1.15    0.74 
   6   9   4    1.90    1.09 
   7   9   4   44.41    2.61 
   7   9   4   42.67    2.78 
  -8  -9  -4   51.95    3.03 
   8   9   4   46.47    3.21 
  -9  -9  -4   84.31    4.21 
   9   9   4   79.88    4.41 
 -10  -9  -4   83.28    4.35 
  10   9   4   88.29    4.77 
 -11  -9  -4   88.22    4.55 
  11   9   4   75.82    4.59 
 -10  10   4    1.58    1.38 
 -10  10   4   -0.60    1.42 
  -9  10   4   -0.23    1.19 
  -9  10   4   -0.44    1.17 
  -8  10   4   14.21    1.87 
  -8  10   4   16.73    2.13 
  -7  10   4   62.82    3.31 
  -7  10   4   64.81    3.70 
  -6  10   4  127.22    5.43 
  -6  10   4  119.36    4.85 
  -5  10   4  157.15    5.76 
  -5  10   4  157.45    6.30 
  -4  10   4  132.11    4.83 
  -4  10   4  126.80    5.38 
  -3  10   4   64.90    3.52 
  -3  10   4   68.12    2.95 
  -2  10   4   10.58    1.14 
  -2  10   4    9.54    1.44 
  -1  10   4    0.49    0.62 
  -1  10   4   -0.34    0.90 
   0  10   4    2.75    0.78 
   0  10   4    3.94    1.18 
   1  10   4   59.30    3.15 
   1  10   4   63.29    2.72 
   2  10   4    1.27    0.74 
   2  10   4    1.35    0.91 
   3  10   4   39.53    2.47 
   3  10   4   40.83    2.13 
   3  10   4   38.92    2.38 
   4  10   4   10.27    1.53 
   4  10   4    9.84    1.37 
   4  10   4    9.39    1.18 
   5  10   4   34.62    2.48 
   5  10   4   30.68    2.07 
   5  10   4   35.68    2.17 
   6  10   4   39.68    2.23 
   6  10   4   42.69    2.84 
   6  10   4   41.08    2.36 
   7  10   4   94.06    4.62 
  -8 -10  -4   77.31    3.76 
   8  10   4   72.37    4.05 
  -9 -10  -4   81.20    4.07 
   9  10   4   78.32    4.50 
 -10 -10  -4   40.12    3.14 
  10  10   4   40.74    3.30 
  -9  11   4   48.44    3.44 
  -8  11   4   70.74    3.96 
  -7  11   4   90.65    4.54 
  -6  11   4   83.87    4.39 
  -5  11   4   45.22    3.02 
  -4  11   4    8.49    1.58 
  -3  11   4    0.20    1.06 
  -2  11   4   10.07    1.57 
  -1  11   4   11.56    1.66 
   0  11   4    1.05    0.68 
   0  11   4    0.48    1.12 
   1  11   4   23.07    1.56 
   1  11   4   23.31    2.15 
   2  11   4   26.64    1.70 
   2  11   4   28.53    2.34 
   3  11   4   29.25    1.83 
   3  11   4   34.18    2.37 
   3  11   4   30.24    2.23 
   4  11   4   97.90    3.80 
   4  11   4   91.14    4.29 
   5  11   4   87.45    3.62 
   5  11   4   87.19    3.84 
   5  11   4   80.55    4.12 
   6  11   4   52.77    3.31 
   6  11   4   48.60    2.64 
   7  11   4   64.42    3.85 
  -8 -11  -4   37.48    2.75 
   8  11   4   40.20    3.22 
  -9 -11  -4   20.95    2.26 
   9  11   4   14.37    2.34 
  -8  12   4   34.77    3.19 
  -7  12   4   22.25    2.58 
  -6  12   4    2.53    1.37 
  -5  12   4   -0.11    1.33 
  -4  12   4   39.92    3.00 
  -3  12   4   33.34    2.59 
  -2  12   4   10.16    1.69 
  -1  12   4    0.89    1.26 
   0  12   4    8.68    1.70 
   1  12   4   13.89    1.84 
   2  12   4   93.24    4.42 
   3  12   4  122.67    5.18 
   4  12   4  130.83    5.60 
   4  12   4  134.21    5.52 
   5  12   4   46.26    2.71 
   5  12   4   39.81    2.98 
   6  12   4   27.87    2.66 
   7  12   4    7.28    1.74 
   8  12   4    2.62    1.42 
  -7  13   4    2.92    1.47 
  -6  13   4    4.52    1.61 
  -5  13   4   16.87    2.35 
  -4  13   4   14.84    2.18 
  -3  13   4    1.00    1.33 
  -2  13   4   10.96    1.86 
  -1  13   4   44.95    3.32 
   0  13   4   56.34    3.61 
   1  13   4   92.93    4.66 
   2  13   4  107.46    5.01 
   3  13   4   64.85    3.64 
   4  13   4   21.67    2.19 
   6  13   4    0.31    1.35 
  -5  14   4   -2.13    1.17 
  -4  14   4   26.27    2.73 
  -3  14   4   57.98    3.92 
  -2  14   4   98.53    5.17 
  -1  14   4   87.61    4.78 
   0  14   4   53.54    3.66 
   1  14   4   72.88    4.20 
   2  14   4   25.85    2.67 
   3  14   4    2.88    1.39 
   4  14   4    0.76    1.22 
  -1  15   4   31.85    3.12 
   0  15   4    8.82    1.96 
  -1  11  -5   53.73    3.57 
  -2  11  -5   48.59    3.51 
  -3  11  -5    9.79    1.97 
  -4  11  -5    4.60    1.75 
  -5  11  -5   -1.07    1.40 
  -6  11  -5   14.31    2.30 
  -1  10  -5    9.08    1.70 
  -2  10  -5   -0.41    1.20 
  -3  10  -5    4.20    1.58 
  -4  10  -5   15.81    2.15 
  -5  10  -5   13.05    2.20 
  -6  10  -5    1.40    1.57 
  -7  10  -5    0.97    1.35 
  -8  10  -5    8.93    1.96 
   0   9  -5   -0.42    1.07 
  -1   9  -5    8.66    1.62 
  -2   9  -5    9.22    1.66 
  -3   9  -5    9.90    1.80 
  -4   9  -5    8.14    1.73 
  -5   9  -5    3.26    1.36 
  -6   9  -5   24.68    2.55 
  -7   9  -5   50.69    3.38 
  -8   9  -5   64.64    3.86 
  -9   9  -5  101.62    5.12 
 -10   9  -5   74.67    4.35 
   1   8  -5    4.14    1.10 
   0   8  -5    5.88    1.24 
  -1   8  -5    1.24    1.05 
  -2   8  -5    3.22    1.27 
  -3   8  -5    9.54    1.65 
  -4   8  -5   50.89    3.19 
  -5   8  -5   81.56    4.08 
  -6   8  -5   91.37    4.54 
  -7   8  -5  132.63    5.72 
  -8   8  -5   40.24    2.88 
  -9   8  -5   43.32    3.27 
 -10   8  -5    1.72    1.51 
 -11   8  -5    1.17    1.54 
  11  -8   5    1.66    1.52 
   1   7  -5   10.61    1.33 
   0   7  -5   -0.26    0.88 
  -1   7  -5   15.21    1.69 
  -2   7  -5   76.01    3.66 
  -3   7  -5  121.86    5.09 
  -4   7  -5  274.08    9.69 
  -5   7  -5   83.42    4.07 
  -6   7  -5   39.57    2.80 
  -7   7  -5   61.59    3.45 
  -8   7  -5   -1.57    0.95 
  -9   7  -5    4.64    1.40 
 -10   7  -5   20.85    2.38 
 -11   7  -5   32.34    2.93 
  11  -7   5   28.41    2.71 
 -12   7  -5    9.54    1.90 
  12  -7   5    9.48    1.85 
   2   6  -5   13.96    1.35 
   1   6  -5   27.36    1.90 
   0   6  -5  135.91    5.18 
  -1   6  -5  191.46    6.88 
  -2   6  -5  294.38   10.01 
  -3   6  -5  143.24    5.59 
  -4   6  -5  111.46    4.66 
  -5   6  -5  102.67    4.44 
  -6   6  -5   47.34    2.76 
  -7   6  -5    0.39    1.01 
  -8   6  -5   10.65    1.64 
  -9   6  -5    5.40    1.37 
 -10   6  -5    2.50    1.22 
 -11   6  -5    1.49    1.38 
  11  -6   5   -0.55    1.27 
 -12   6  -5   12.72    2.01 
  12  -6   5    9.97    1.93 
   8   5  -5    0.70    1.61 
  -8  -5   5   -0.13    1.52 
   7   5  -5    2.83    1.62 
  -7  -5   5    0.02    1.32 
   6   5  -5    4.28    1.54 
  -6  -5   5    2.72    1.41 
  -5  -5   5    1.04    1.22 
  -4  -5   5   18.71    1.71 
  -3  -5   5   77.00    3.26 
   2   5  -5  134.34    4.81 
  -2  -5   5  132.82    4.71 
   1   5  -5  170.47    5.97 
   0   5  -5  261.10    8.75 
  -1   5  -5  256.62    8.68 
  -2   5  -5   92.33    3.80 
  -3   5  -5   17.82    1.63 
  -4   5  -5    3.68    1.00 
  -5   5  -5   19.63    1.71 
  -6   5  -5   27.82    2.01 
  -7   5  -5    9.07    1.44 
  -8   5  -5    2.96    1.20 
  -9   5  -5    0.85    1.18 
 -10   5  -5   27.29    2.30 
  10  -5   5   26.22    2.29 
 -11   5  -5   46.05    3.04 
  11  -5   5   44.07    2.94 
 -12   5  -5   65.57    3.70 
  12  -5   5   64.01    3.77 
 -13   5  -5   98.40    4.81 
  13  -5   5   99.62    5.02 
   9   4  -5    2.41    1.73 
  -9  -4   5    0.85    1.67 
   8   4  -5    1.62    1.54 
  -8  -4   5   -1.11    1.44 
   7   4  -5    2.49    1.40 
  -7  -4   5    1.81    1.34 
   6   4  -5   21.61    2.33 
  -6  -4   5   19.51    2.04 
   5   4  -5   82.96    4.22 
  -5  -4   5   81.60    3.70 
  -4  -4   5  123.47    4.72 
  -3  -4   5  149.78    5.33 
   2   4  -5  260.37    8.52 
  -2  -4   5  265.95    8.46 
   1   4  -5  312.23    9.96 
  -1  -4   5  304.47    9.61 
   0   4  -5  103.46    3.93 
   0  -4   5  103.49    3.50 
  -1   4  -5   14.66    1.31 
   1  -4   5   13.47    0.84 
  -2   4  -5    0.55    0.74 
   2  -4   5    0.27    0.27 
  -3   4  -5    7.43    1.06 
   3  -4   5    5.99    0.44 
  -4   4  -5   17.39    1.59 
  -4   4  -5   18.76    0.84 
  -7   4  -5    7.61    0.90 
  -7   4  -5    8.01    1.38 
  -8   4  -5   39.01    2.39 
  -8   4  -5   38.47    2.04 
  -9   4  -5  110.46    4.63 
  -9   4  -5  104.93    4.12 
 -10   4  -5  125.17    5.15 
 -10   4  -5  126.70    4.82 
  10  -4   5  125.15    5.32 
 -11   4  -5  114.26    4.99 
 -11   4  -5  120.74    4.77 
  11  -4   5  120.08    5.15 
 -12   4  -5   78.11    3.79 
 -12   4  -5   75.33    3.92 
  12  -4   5   80.98    4.10 
 -13   4  -5   50.74    3.23 
 -13   4  -5   47.09    3.06 
  13  -4   5   53.15    3.56 
   9   3  -5    0.57    1.36 
  -9  -3   5   -1.10    1.44 
   8   3  -5   17.46    2.28 
  -8  -3   5   16.46    2.14 
   7   3  -5   43.69    3.20 
  -7  -3   5   42.19    2.98 
   6   3  -5   97.17    4.64 
  -6  -3   5   97.17    4.27 
   5   3  -5  138.29    5.75 
  -5  -3   5  139.38    5.31 
   4   3  -5  121.29    5.09 
  -4  -3   5  125.43    4.77 
   3   3  -5  121.51    4.12 
  -3  -3   5  121.61    4.52 
   2   3  -5   25.24    1.33 
   1   3  -5    0.01    0.54 
  -1  -3   5    1.31    0.70 
   0   3  -5    5.62    0.84 
   0  -3   5    4.59    0.69 
  -1   3  -5   92.94    3.51 
   1  -3   5   88.93    3.03 
  -2   3  -5   25.72    1.68 
   2  -3   5   25.03    1.08 
  -3   3  -5   21.50    1.55 
   3  -3   5   22.70    0.99 
  -4   3  -5   26.99    1.70 
   4  -3   5   25.68    1.16 
  -5   3  -5   -0.20    0.31 
   5  -3   5    1.36    0.50 
  -7   3  -5  119.32    4.18 
  -7   3  -5  117.36    4.59 
  -8   3  -5  215.21    7.39 
  -8   3  -5  203.61    6.95 
  -9   3  -5  160.52    6.05 
  -9   3  -5  160.42    5.73 
   9  -3   5  163.32    6.22 
 -10   3  -5   72.65    3.24 
 -10   3  -5   67.56    3.37 
  10  -3   5   68.19    3.58 
 -11   3  -5   53.57    2.82 
 -11   3  -5   44.69    2.84 
  11  -3   5   47.34    3.09 
 -12   3  -5   17.77    1.97 
 -12   3  -5   22.85    2.13 
  12  -3   5   16.89    2.15 
 -13   3  -5    0.83    1.23 
 -13   3  -5   -0.39    1.09 
  13  -3   5   -1.87    1.29 
 -14   3  -5    3.74    1.47 
  14  -3   5    3.62    1.66 
  10   2  -5    4.25    1.77 
 -10  -2   5   -1.43    1.59 
   9   2  -5   27.24    2.76 
  -9  -2   5   24.20    2.55 
   8   2  -5   53.54    3.46 
  -8  -2   5   53.98    3.43 
   7   2  -5  100.66    4.71 
  -7  -2   5  112.24    4.75 
   6   2  -5   90.26    4.23 
  -6  -2   5   96.20    4.20 
   5   2  -5   54.99    3.05 
  -5  -2   5   60.02    3.06 
   4   2  -5   12.30    1.52 
  -4  -2   5   14.26    1.51 
   3   2  -5    5.24    0.63 
  -3  -2   5    2.92    0.99 
   2   2  -5   22.16    1.24 
  -2  -2   5   22.99    1.64 
   1   2  -5   48.69    2.03 
   0   2  -5   40.12    1.99 
   0  -2   5   51.77    1.95 
  -1   2  -5   55.03    2.38 
   1  -2   5   51.79    1.99 
  -2   2  -5    3.23    0.79 
   2  -2   5    2.19    0.48 
  -3   2  -5    5.80    0.94 
   3  -2   5    4.62    0.55 
  -4   2  -5   44.03    2.08 
   4  -2   5   42.15    1.70 
  -5   2  -5  186.64    6.47 
   5  -2   5  186.70    5.94 
  -6   2  -5  229.70    7.97 
   6  -2   5  243.47    7.52 
  -7   2  -5  148.26    5.24 
  -7   2  -5  161.23    5.61 
  -8   2  -5  124.59    4.75 
  -8   2  -5  123.85    4.53 
   8  -2   5  124.94    4.89 
  -9   2  -5   30.07    2.16 
  -9   2  -5   32.46    2.04 
   9  -2   5   33.30    2.25 
 -10   2  -5   11.05    1.46 
 -10   2  -5    9.63    1.35 
  10  -2   5   10.14    1.56 
 -11   2  -5   12.45    1.55 
 -11   2  -5   11.84    1.61 
  11  -2   5   13.05    1.78 
 -12   2  -5    7.85    1.40 
 -12   2  -5    5.61    1.42 
  12  -2   5    4.60    1.50 
 -13   2  -5   12.33    1.84 
  13  -2   5   12.50    2.06 
 -14   2  -5   13.79    1.98 
  14  -2   5   15.45    2.30 
  10   1  -5   40.19    3.21 
 -10  -1   5   41.73    3.44 
   9   1  -5  106.04    5.09 
  -9  -1   5  111.10    5.15 
   8   1  -5   69.77    3.66 
  -8  -1   5   58.63    3.63 
   7   1  -5   41.91    2.80 
  -7  -1   5   38.61    2.87 
   6   1  -5    8.66    1.50 
  -6  -1   5    8.77    1.61 
   5   1  -5    6.68    1.32 
  -5  -1   5    6.76    1.38 
   4   1  -5    2.64    0.42 
   4   1  -5    1.83    0.98 
  -4  -1   5    5.54    1.17 
   3   1  -5    0.51    0.88 
   3   1  -5    0.43    0.42 
  -3  -1   5    1.91    0.89 
   2   1  -5    1.48    0.50 
  -2  -1   5    1.60    0.82 
   1   1  -5    6.44    0.79 
  -1  -1   5    6.70    0.89 
  -2   1  -5  432.98   13.98 
   2  -1   5  457.15   13.44 
  -3   1  -5  960.03   29.75 
   3  -1   5  985.28   28.88 
  -5   1  -5  291.00    9.70 
   5  -1   5  305.61    9.28 
  -6   1  -5  382.92   12.05 
   6  -1   5  365.76   11.55 
  -7   1  -5  102.91    3.90 
   7  -1   5   99.58    3.98 
   7  -1   5   96.21    3.66 
  -8   1  -5   17.80    1.63 
  -8   1  -5   18.68    1.53 
   8  -1   5   19.02    1.72 
  -9   1  -5    1.91    0.88 
  -9   1  -5    0.96    0.88 
   9  -1   5    0.03    0.98 
 -10   1  -5    6.77    1.19 
 -10   1  -5    6.89    1.22 
  10  -1   5    6.79    1.32 
 -11   1  -5   17.03    1.75 
 -11   1  -5   15.64    1.55 
  11  -1   5   16.60    1.93 
 -12   1  -5    0.60    1.16 
 -12   1  -5   -0.66    0.87 
  12  -1   5   -1.26    1.18 
 -13   1  -5    2.08    1.27 
  13  -1   5    2.02    1.49 
 -14   1  -5    2.92    1.47 
  14  -1   5    2.60    1.54 
  11   0  -5   55.07    3.66 
 -11   0   5   55.87    4.04 
  10   0  -5   40.35    3.05 
 -10   0   5   40.21    3.15 
   9   0  -5   37.58    2.77 
  -9   0   5   40.17    2.98 
   8   0  -5    3.86    1.30 
  -8   0   5    3.43    1.55 
   7   0  -5    1.66    1.04 
  -7   0   5    2.10    1.41 
   6   0  -5   18.04    1.78 
  -6   0   5   16.19    1.86 
   5   0  -5   12.94    1.43 
  -5   0   5   13.51    1.58 
   4   0  -5   56.87    2.74 
   4   0  -5   58.00    2.06 
  -4   0   5   57.95    2.85 
   3   0  -5    5.45    0.59 
   3   0  -5    3.36    0.89 
  -3   0   5    4.11    0.98 
   2   0  -5   58.43    2.24 
  -2   0   5   60.41    2.61 
   1   0  -5   83.03    2.99 
  -1   0   5   82.58    3.13 
   0   0  -5  254.77    8.12 
   0   0   5  252.82    7.99 
  -2   0  -5  497.72   15.80 
   2   0   5  519.16   15.35 
  -4   0  -5  328.24   10.41 
   4   0   5  321.02   10.00 
  -5   0  -5  184.97    6.15 
   5   0   5  175.75    5.85 
  -6   0  -5   21.45    1.49 
   6   0   5   21.97    1.39 
  -7   0  -5   22.03    1.58 
   7   0   5   17.91    1.46 
   7   0   5   19.90    1.46 
   8   0   5   13.73    1.43 
  -9   0  -5   23.11    1.91 
  -9   0  -5   22.81    1.77 
   9   0   5   29.06    2.17 
 -10   0  -5    9.43    1.25 
 -10   0  -5    9.57    1.39 
  10   0   5   10.15    1.60 
 -11   0  -5    1.37    0.90 
 -11   0  -5    1.29    1.14 
  11   0   5    1.94    1.13 
 -12   0  -5   27.05    2.30 
  12   0   5   22.49    2.44 
 -13   0  -5   22.81    2.43 
  13   0   5   17.84    2.21 
 -14   0  -5   49.60    3.47 
  14   0   5   48.73    3.48 
 -11   1   5   17.70    2.49 
  10  -1  -5    6.33    1.52 
 -10   1   5    1.44    1.68 
   9  -1  -5   -0.59    1.09 
  -9   1   5   -1.78    1.20 
   8  -1  -5    8.77    1.49 
  -8   1   5    9.53    1.82 
   7  -1  -5   12.79    1.54 
  -7   1   5   11.86    1.74 
   6  -1  -5   15.39    1.57 
  -6   1   5   16.31    1.84 
   5  -1  -5   -0.26    0.75 
   5  -1  -5    0.67    0.35 
  -5   1   5    0.90    1.09 
   4  -1  -5   57.50    2.59 
   4  -1  -5   54.37    2.05 
  -4   1   5   56.72    2.80 
   3  -1  -5   89.30    3.43 
   3  -1  -5   87.16    3.06 
  -3   1   5   90.16    3.56 
   2  -1  -5   66.46    2.51 
  -2   1   5   73.48    2.93 
   1  -1  -5  354.51   11.01 
  -1   1   5  349.83   10.97 
   0  -1  -5  428.85   13.35 
   0   1   5  429.75   13.14 
   1   1   5  223.79    7.09 
  -4  -1  -5    7.49    0.94 
   4   1   5    6.41    0.83 
  -5  -1  -5    7.15    0.96 
   5   1   5    9.65    1.00 
   5   1   5    7.88    0.94 
  -6  -1  -5   77.15    3.12 
   6   1   5   75.60    2.99 
   6   1   5   79.85    3.14 
  -7  -1  -5   27.96    1.70 
   7   1   5   29.71    1.82 
  -8  -1  -5    6.22    1.00 
   8   1   5    6.16    1.08 
  -9  -1  -5   -0.17    0.92 
  -9  -1  -5    0.81    0.81 
   9   1   5    0.02    0.95 
 -10  -1  -5   10.70    1.55 
 -10  -1  -5   10.09    1.26 
  10   1   5    9.75    1.60 
 -11  -1  -5   58.28    2.84 
 -11  -1  -5   62.83    3.35 
  11   1   5   63.84    3.43 
 -12  -1  -5   86.96    4.22 
  12   1   5   92.25    4.42 
 -13  -1  -5   80.17    4.14 
  13   1   5   79.84    4.47 
 -14  -1  -5   54.94    3.76 
  14   1   5   56.93    3.78 
 -11   2   5    2.45    1.72 
 -10   2   5    5.01    1.66 
   9  -2  -5    3.76    1.23 
  -9   2   5    0.69    1.35 
   8  -2  -5    0.52    0.94 
  -8   2   5    2.15    1.27 
   7  -2  -5    0.40    0.95 
  -7   2   5    0.26    1.20 
   6  -2  -5   32.39    2.03 
  -6   2   5   35.05    2.51 
   5  -2  -5  167.03    5.52 
  -5   2   5  124.87    5.45 
  -5   2   5  163.90    5.02 
   4  -2  -5  269.36    8.62 
  -4   2   5  253.67    8.23 
  -4   2   5  264.06    8.67 
   3  -2  -5  500.86   15.82 
  -3   2   5  520.12   15.75 
  -3   2   5  500.51   15.56 
  -2   2   5  624.89   18.79 
  -2   2   5  607.28   18.82 
  -1   2   5  357.43   11.12 
   0   2   5  184.91    6.04 
   1   2   5    9.02    0.91 
   2   2   5    6.32    0.79 
  -3  -2  -5    8.66    0.94 
   3   2   5    8.65    0.93 
  -4  -2  -5    0.38    0.60 
   4   2   5   -0.03    0.64 
   4   2   5    0.10    0.58 
  -5  -2  -5   35.07    1.83 
   5   2   5   38.17    1.84 
   5   2   5   36.60    1.81 
  -6  -2  -5    0.06    0.61 
   6   2   5    1.06    0.72 
   6   2   5    0.86    0.68 
  -7  -2  -5   30.83    1.74 
   7   2   5   29.34    1.81 
   7   2   5   31.11    1.91 
  -8  -2  -5  114.91    4.29 
   8   2   5  120.32    4.51 
  -9  -2  -5  193.34    6.02 
   9   2   5  145.96    6.22 
 -10  -2  -5  168.66    6.30 
 -10  -2  -5  167.60    5.87 
  10   2   5  165.09    6.45 
 -11  -2  -5  118.13    5.07 
  11   2   5  120.44    5.27 
 -12  -2  -5  114.97    5.06 
  12   2   5  116.28    5.41 
 -13  -2  -5   43.79    3.33 
  13   2   5   50.40    3.60 
 -14  -2  -5    2.49    1.70 
  14   2   5    2.74    1.56 
 -11   3   5    5.27    1.79 
 -10   3   5    3.11    1.60 
  -9   3   5    0.17    1.15 
   8  -3  -5   19.74    1.78 
  -8   3   5   22.88    2.22 
   7  -3  -5   94.66    3.90 
  -7   3   5   99.14    4.22 
   6  -3  -5  138.67    5.08 
  -6   3   5  141.20    4.77 
   5  -3  -5  225.65    7.43 
  -5   3   5  220.04    7.22 
   4  -3  -5  168.51    5.74 
  -4   3   5  174.56    5.69 
   3  -3  -5  240.88    7.66 
  -3   3   5  238.36    7.70 
  -2   3   5  158.70    5.28 
  -1   3   5   21.27    1.28 
   0   3   5    6.33    0.74 
   0   3   5    4.22    0.71 
   1   3   5   40.05    1.84 
   2   3   5   57.45    2.10 
   2   3   5   54.49    2.33 
  -3  -3  -5   13.61    1.11 
   3   3   5   15.14    1.00 
   3   3   5   14.96    1.25 
  -4  -3  -5    7.06    0.84 
   4   3   5    7.60    0.94 
   4   3   5    7.00    0.77 
  -5  -3  -5   17.41    1.35 
   5   3   5   18.67    1.43 
   5   3   5   18.47    1.30 
  -6  -3  -5  179.49    6.29 
   6   3   5  188.49    6.45 
   6   3   5  189.62    6.27 
  -7  -3  -5  269.44    8.94 
   7   3   5  280.28    8.97 
   7   3   5  273.17    9.28 
  -8  -3  -5  308.20    9.97 
  -9  -3  -5   65.28    2.84 
   9   3   5   66.04    3.21 
 -10  -3  -5  173.11    6.50 
 -10  -3  -5  167.75    5.98 
  10   3   5  179.91    6.76 
 -11  -3  -5  144.60    5.71 
  11   3   5  137.00    5.85 
 -12  -3  -5   14.66    1.94 
  12   3   5   14.27    1.98 
 -13  -3  -5    0.53    1.26 
  13   3   5    0.82    1.51 
 -14  -3  -5   -0.25    1.65 
  14   3   5    0.29    1.63 
 -11   4   5   -1.61    1.46 
 -10   4   5   12.30    1.98 
  -9   4   5   68.27    3.83 
  -8   4   5   82.66    3.97 
   7  -4  -5   89.40    3.59 
  -7   4   5   87.57    3.99 
   6  -4  -5   76.11    3.08 
  -6   4   5   76.85    3.04 
  -6   4   5   74.00    3.47 
   5  -4  -5   44.72    1.99 
  -5   4   5   44.30    2.08 
  -5   4   5   39.30    2.48 
   4  -4  -5   17.10    1.11 
  -4   4   5   17.90    1.34 
  -4   4   5   14.98    1.46 
   3  -4  -5    5.20    0.56 
  -3   4   5    4.74    1.00 
  -3   4   5    3.88    0.75 
  -2   4   5  127.62    4.51 
  -2   4   5  129.61    4.60 
  -1   4   5   27.24    1.63 
  -1   4   5   26.14    1.54 
   0   4   5  125.21    3.90 
   0   4   5  126.44    4.39 
   1   4   5   45.26    1.98 
   1   4   5   44.03    1.61 
   2   4   5   -0.08    0.48 
   2   4   5   -0.31    0.39 
   2   4   5   -0.23    0.31 
   3   4   5   28.32    1.56 
   3   4   5   26.33    1.36 
  -4  -4  -5    6.35    0.86 
   4   4   5    8.84    0.93 
  -5  -4  -5  229.67    7.34 
   5   4   5  238.80    7.49 
   5   4   5  195.85    7.18 
  -6  -4  -5  297.54    9.66 
   6   4   5  298.34    9.85 
  -7  -4  -5  146.96    5.28 
   7   4   5  153.75    5.64 
  -8  -4  -5  133.50    4.83 
   8   4   5  136.38    5.28 
  -9  -4  -5    3.64    0.87 
   9   4   5    4.60    1.29 
   9   4   5    5.74    1.21 
 -10  -4  -5   -0.05    1.01 
  10   4   5    1.22    1.02 
 -11  -4  -5    0.04    1.16 
  11   4   5    0.13    1.09 
 -12  -4  -5   10.91    1.88 
  12   4   5   13.98    1.95 
 -13  -4  -5    7.50    1.86 
  13   4   5    9.49    1.96 
 -14  -4  -5    3.32    1.80 
 -11   5   5   18.67    2.41 
 -10   5   5   68.65    3.99 
  -9   5   5  130.57    5.50 
  -8   5   5   85.24    4.13 
  -7   5   5   21.16    2.12 
  -7   5   5   20.47    1.63 
   6  -5  -5   20.10    1.41 
  -6   5   5   23.11    1.66 
  -6   5   5   19.00    1.87 
   5  -5  -5    0.81    0.54 
  -5   5   5    1.35    0.75 
  -5   5   5    1.95    1.05 
   4  -5  -5    1.14    0.44 
  -4   5   5    1.92    0.76 
  -4   5   5    0.26    0.81 
   3  -5  -5   68.41    2.25 
  -3   5   5   65.99    2.84 
  -3   5   5   67.71    2.92 
  -2   5   5   60.97    2.60 
  -2   5   5   56.82    2.62 
  -1   5   5   32.43    1.76 
  -1   5   5   32.50    1.83 
   0   5   5   23.97    1.51 
   0   5   5   25.86    1.56 
   1   5   5  254.82    7.81 
   1   5   5  245.77    8.04 
   2   5   5  183.57    6.17 
   2   5   5  178.93    6.08 
   2   5   5  186.32    5.94 
   3   5   5  525.10   16.09 
   3   5   5  513.02   16.10 
   3   5   5  511.54   15.86 
   4   5   5  514.86   15.72 
   4   5   5  509.86   16.01 
   4   5   5  503.54   15.87 
   5   5   5  345.02   10.88 
   5   5   5  339.12   11.11 
  -6  -5  -5  166.23    5.94 
   6   5   5  178.40    6.27 
   6   5   5  178.38    6.08 
  -7  -5  -5   65.61    2.77 
   7   5   5   61.51    3.05 
   7   5   5   65.11    3.00 
  -8  -5  -5    3.94    0.91 
   8   5   5    2.56    1.01 
   8   5   5    4.34    1.17 
  -9  -5  -5    2.23    0.81 
   9   5   5    3.55    1.13 
   9   5   5    2.34    1.11 
 -10  -5  -5   13.53    1.83 
  10   5   5   14.30    1.94 
 -11  -5  -5   12.18    1.77 
  11   5   5    9.64    1.65 
 -12  -5  -5    7.34    1.81 
  12   5   5    9.21    1.80 
 -13  -5  -5    2.55    1.48 
  13   5   5    1.23    1.37 
 -11   6   5   55.64    3.86 
 -10   6   5   56.07    3.67 
  -9   6   5   33.16    2.86 
  -8   6   5    1.42    1.31 
  -7   6   5   17.95    1.63 
  -7   6   5   16.02    1.82 
  -6   6   5   -0.25    1.04 
  -6   6   5   -0.97    0.75 
  -5   6   5   39.84    2.47 
  -5   6   5   39.48    2.24 
   4  -6  -5   44.09    1.71 
  -4   6   5   44.25    2.32 
  -4   6   5   41.63    2.42 
  -3   6   5    0.68    0.81 
  -3   6   5    1.41    0.83 
  -2   6   5   12.04    1.22 
  -2   6   5   12.41    1.19 
  -1   6   5  108.67    4.21 
  -1   6   5  112.99    4.09 
   0   6   5  296.23    9.80 
   0   6   5  304.81    9.61 
   1   6   5  400.18   12.50 
   1   6   5  401.64   12.88 
   1   6   5  411.54   12.63 
   2   6   5  366.34   11.64 
   2   6   5  366.73   11.42 
   2   6   5  356.11   11.38 
   3   6   5  336.58   11.00 
   3   6   5  349.19   10.86 
   4   6   5   93.01    3.59 
   4   6   5   92.21    3.60 
   4   6   5   97.22    3.65 
   5   6   5   54.99    2.55 
   5   6   5   55.49    2.43 
   5   6   5   56.72    2.56 
  -6  -6  -5   11.72    1.15 
   6   6   5   12.42    1.40 
   6   6   5   13.94    1.45 
  -7  -6  -5    3.30    0.78 
   7   6   5    3.17    0.95 
   7   6   5    3.06    0.98 
  -8  -6  -5   19.89    1.58 
   8   6   5   17.50    1.89 
   8   6   5   16.76    1.68 
   9   6   5    5.12    1.23 
   9   6   5    6.74    1.47 
 -10  -6  -5   -0.12    1.24 
  10   6   5    0.53    1.23 
 -11  -6  -5    5.24    1.49 
  11   6   5    4.37    1.58 
 -12  -6  -5    9.26    1.98 
  12   6   5    8.58    1.90 
 -13  -6  -5   24.02    2.67 
  13   6   5   34.01    3.19 
 -11   7   5   29.01    2.91 
 -10   7   5    1.65    1.56 
  -9   7   5    2.80    1.50 
  -8   7   5   14.26    1.78 
  -8   7   5   14.48    1.63 
  -7   7   5   22.06    2.14 
  -7   7   5   18.97    1.76 
  -6   7   5    4.44    1.16 
  -6   7   5    2.48    1.18 
  -5   7   5    1.58    0.99 
  -5   7   5    2.48    0.98 
  -4   7   5    4.83    1.03 
  -4   7   5    5.31    1.11 
  -3   7   5   17.40    1.52 
  -3   7   5   17.38    1.57 
  -2   7   5  134.21    4.88 
  -2   7   5  136.14    5.07 
  -1   7   5  243.59    8.05 
  -1   7   5  247.91    8.37 
   1   7   5  148.03    4.89 
   1   7   5  146.97    5.15 
   1   7   5  146.44    5.34 
   2   7   5   99.93    3.74 
   2   7   5   96.71    3.84 
   2   7   5   97.37    3.56 
   3   7   5    1.98    0.76 
   3   7   5    2.63    0.72 
   3   7   5    2.48    0.86 
   4   7   5    9.87    1.19 
   4   7   5   10.99    1.15 
   4   7   5    9.68    1.07 
   5   7   5   12.24    1.27 
   5   7   5   15.07    1.33 
   5   7   5   14.35    1.44 
   6   7   5   31.27    2.09 
   6   7   5   36.14    2.14 
   6   7   5   35.05    1.95 
  -7  -7  -5   13.54    1.32 
   7   7   5   13.34    1.58 
   7   7   5   15.21    1.58 
  -8  -7  -5    2.80    0.82 
   8   7   5    2.96    1.18 
   8   7   5    1.62    1.14 
   9   7   5    7.05    1.48 
   9   7   5    4.66    1.22 
 -10  -7  -5   50.77    3.27 
  10   7   5   49.96    3.33 
 -11  -7  -5   52.20    3.46 
  11   7   5   48.36    3.51 
 -12  -7  -5   58.32    3.83 
  12   7   5   54.87    3.74 
 -10   8   5   -0.09    1.38 
  -9   8   5    0.16    1.34 
  -8   8   5    8.75    1.48 
  -8   8   5    8.27    1.69 
  -7   8   5    5.82    1.44 
  -7   8   5    6.89    1.40 
  -6   8   5   40.83    2.55 
  -6   8   5   38.64    2.55 
  -5   8   5   96.94    4.10 
  -5   8   5   95.86    4.14 
  -4   8   5  179.55    6.36 
  -4   8   5  176.63    6.59 
  -3   8   5  183.87    6.43 
  -3   8   5  184.94    6.75 
  -2   8   5  220.32    7.46 
  -2   8   5  226.04    7.88 
  -1   8   5  113.14    4.27 
   0   8   5   16.61    1.54 
   1   8   5   24.69    1.34 
   1   8   5   22.30    1.73 
   1   8   5   24.25    1.60 
   2   8   5    0.01    0.67 
   2   8   5    0.31    0.55 
   2   8   5   -0.18    0.71 
   3   8   5    6.12    1.02 
   3   8   5    6.98    1.10 
   3   8   5    7.29    1.02 
   4   8   5    6.45    1.02 
   4   8   5    8.85    1.20 
   4   8   5    5.44    0.99 
   5   8   5    3.94    1.02 
   5   8   5    2.62    0.91 
   5   8   5    2.06    0.82 
   6   8   5   -0.75    0.86 
   6   8   5    0.49    0.70 
   6   8   5    0.72    0.88 
   7   8   5   30.82    2.18 
   7   8   5   30.93    2.36 
   8   8   5   90.61    4.03 
   8   8   5   93.15    4.37 
   9   8   5  115.24    5.24 
 -10  -8  -5   93.66    4.38 
  10   8   5   91.25    4.74 
 -11  -8  -5   84.20    4.26 
  11   8   5   79.22    4.46 
 -12  -8  -5   64.07    4.04 
  12   8   5   58.59    4.14 
 -10   9   5    2.92    1.60 
  -9   9   5   -0.42    1.13 
  -9   9   5   -0.21    1.27 
  -8   9   5   27.33    2.52 
  -8   9   5   21.10    2.16 
  -7   9   5   68.80    3.52 
  -7   9   5   63.46    3.40 
  -6   9   5  104.81    4.39 
  -6   9   5   95.97    4.40 
  -5   9   5  136.03    5.18 
  -5   9   5  128.03    5.33 
  -4   9   5  109.21    4.41 
  -4   9   5  113.06    4.72 
  -3   9   5   91.48    3.74 
  -3   9   5   91.69    4.17 
  -2   9   5   35.52    2.06 
  -2   9   5   37.62    2.51 
  -1   9   5    0.16    0.50 
  -1   9   5   -0.18    0.68 
   0   9   5   17.25    1.68 
   0   9   5   18.99    1.56 
   1   9   5   25.44    1.66 
   1   9   5   22.27    1.86 
   2   9   5   48.22    2.74 
   2   9   5   52.65    2.42 
   2   9   5   53.81    2.50 
   3   9   5    0.96    0.79 
   3   9   5   -0.24    0.85 
   3   9   5    0.49    0.78 
   4   9   5   13.93    1.46 
   4   9   5    9.89    1.28 
   4   9   5   11.80    1.42 
   5   9   5   24.45    1.82 
   5   9   5   24.91    1.84 
   5   9   5   23.07    1.96 
   6   9   5   94.13    4.24 
   6   9   5   98.88    3.99 
   6   9   5  101.14    4.04 
   7   9   5  159.52    6.37 
   7   9   5  157.14    5.97 
   7   9   5  165.87    5.80 
   8   9   5  113.00    4.68 
   8   9   5  111.38    5.05 
   9   9   5  133.51    5.83 
 -10  -9  -5   84.36    4.25 
  10   9   5   78.53    4.34 
 -11  -9  -5   38.40    3.21 
  11   9   5   35.75    3.21 
  -9  10   5   25.02    2.59 
  -9  10   5   20.54    2.27 
  -8  10   5   81.39    4.11 
  -8  10   5   78.61    4.15 
  -7  10   5   97.21    4.44 
  -7  10   5   85.78    4.23 
  -6  10   5   84.67    3.88 
  -6  10   5   82.70    4.19 
  -5  10   5   41.86    2.55 
  -5  10   5   41.58    2.91 
  -4  10   5   34.06    2.16 
  -4  10   5   35.76    2.56 
  -3  10   5   -0.44    0.73 
  -3  10   5   -1.03    0.97 
  -2  10   5   18.51    1.94 
  -2  10   5   16.26    1.48 
  -1  10   5   11.54    1.54 
  -1  10   5   12.16    1.30 
   0  10   5   30.34    2.41 
   0  10   5   32.27    1.88 
   1  10   5    1.05    0.79 
   1  10   5    1.95    0.99 
   2  10   5   18.11    1.55 
   2  10   5   19.62    1.86 
   2  10   5   17.47    1.54 
   3  10   5    0.92    0.85 
   3  10   5   -0.69    0.76 
   3  10   5    0.91    0.80 
   4  10   5   80.66    3.69 
   4  10   5   74.84    3.35 
   4  10   5   83.60    3.62 
   5  10   5  191.13    7.09 
   5  10   5  189.91    6.86 
   5  10   5  187.76    6.66 
   6  10   5   96.78    4.04 
   6  10   5   97.18    4.46 
   6  10   5   97.44    4.06 
   7  10   5   79.73    3.47 
   7  10   5   79.72    4.07 
   7  10   5   83.27    3.76 
   8  10   5   31.04    2.69 
   8  10   5   32.75    2.45 
  -9 -10  -5   16.90    2.08 
   9  10   5   17.59    2.29 
 -10 -10  -5    1.60    1.48 
  10  10   5    1.10    1.47 
  -9  11   5   47.50    3.38 
  -8  11   5   52.47    3.51 
  -7  11   5   19.71    2.28 
  -7  11   5   13.98    1.84 
  -6  11   5    2.38    1.25 
  -6  11   5    4.25    1.20 
  -5  11   5    4.51    1.10 
  -5  11   5    6.65    1.65 
  -4  11   5    5.10    1.41 
  -4  11   5    3.97    1.01 
  -3  11   5   16.38    1.57 
  -3  11   5   17.57    2.00 
  -2  11   5   15.34    1.44 
  -2  11   5   14.44    1.79 
  -1  11   5   -0.29    0.66 
  -1  11   5   -0.06    0.93 
   0  11   5   17.48    1.52 
   0  11   5   17.30    1.90 
   1  11   5   31.45    1.92 
   1  11   5   29.08    2.43 
   2  11   5  121.56    4.49 
   2  11   5  114.62    4.95 
   3  11   5  125.49    4.84 
   3  11   5  134.04    5.16 
   3  11   5  130.69    5.36 
   4  11   5  173.79    6.62 
   4  11   5  178.19    6.61 
   4  11   5  168.76    6.13 
   5  11   5   57.49    2.89 
   5  11   5   62.42    3.14 
   5  11   5   61.41    3.35 
   6  11   5   12.73    1.50 
   6  11   5   15.55    1.94 
   6  11   5   14.16    1.55 
   7  11   5    5.19    1.27 
   7  11   5    6.23    1.56 
   8  11   5    0.81    1.32 
  -9 -11  -5    3.92    1.46 
   9  11   5    2.21    1.38 
  -8  12   5    0.94    1.50 
  -7  12   5    4.66    1.67 
  -6  12   5    4.37    1.48 
  -5  12   5    9.92    1.80 
  -4  12   5   24.44    2.48 
  -3  12   5   -1.51    1.06 
  -2  12   5   15.46    1.93 
  -1  12   5   71.10    3.95 
   0  12   5  115.79    5.22 
   1  12   5   86.02    4.28 
   2  12   5  131.74    5.61 
   3  12   5  109.81    4.91 
   4  12   5   53.72    3.17 
   4  12   5   59.70    3.23 
   5  12   5    7.42    1.53 
   5  12   5    7.05    1.34 
   6  12   5   -0.12    1.17 
   7  12   5    3.24    1.46 
   8  12   5    6.19    1.77 
  -7  13   5    9.06    2.06 
  -6  13   5    3.63    1.53 
  -5  13   5   -1.09    1.34 
  -4  13   5   12.49    2.02 
  -3  13   5   45.01    3.12 
  -2  13   5   68.18    4.01 
  -1  13   5   88.24    4.63 
   0  13   5   67.88    3.95 
   1  13   5   34.36    2.85 
   2  13   5   18.83    2.16 
   3  13   5   -1.14    0.91 
   4  13   5    3.44    1.30 
   5  13   5    5.65    1.42 
   5  13   5    6.93    1.61 
   6  13   5    9.31    1.78 
   7  13   5    1.48    1.47 
  -5  14   5   44.90    3.41 
  -4  14   5   82.55    4.54 
  -3  14   5   86.15    4.72 
  -2  14   5   68.15    4.06 
  -1  14   5   23.45    2.57 
   0  14   5    8.11    1.69 
   1  14   5    2.90    1.46 
   2  14   5   12.20    1.98 
   3  14   5   19.50    2.36 
   4  14   5    4.23    1.44 
  -2  15   5   10.05    2.10 
  -1  15   5   -0.85    1.41 
   0  15   5    0.75    1.37 
   1  15   5   16.96    2.42 
   2  15   5    1.91    1.41 
  -1  10  -6    1.32    1.31 
  -2  10  -6    9.03    1.85 
  -3  10  -6    3.41    1.59 
  -4  10  -6    4.08    1.52 
  -5  10  -6    4.51    1.61 
  -6  10  -6   22.43    2.69 
  -7  10  -6   30.93    3.21 
  -1   9  -6    3.45    1.38 
  -2   9  -6   -0.78    1.00 
  -3   9  -6    2.56    1.41 
  -4   9  -6   14.08    2.01 
  -5   9  -6   73.14    4.24 
  -6   9  -6   67.66    4.10 
  -7   9  -6   61.23    3.84 
  -8   9  -6   40.56    3.35 
  -9   9  -6   38.81    3.18 
   0   8  -6    0.06    1.02 
  -1   8  -6   16.26    1.95 
  -2   8  -6   27.12    2.39 
  -3   8  -6   56.65    3.37 
  -4   8  -6   95.72    4.66 
  -5   8  -6   68.94    3.80 
  -6   8  -6   35.13    2.95 
  -7   8  -6   19.09    2.39 
  -8   8  -6   -0.60    1.18 
  -9   8  -6    1.71    1.27 
 -10   8  -6   33.02    2.92 
   0   7  -6   55.06    2.94 
  -1   7  -6   96.69    4.28 
  -2   7  -6  121.05    5.10 
  -3   7  -6  139.79    5.73 
  -4   7  -6  138.26    5.76 
  -5   7  -6   11.33    1.83 
  -6   7  -6    1.95    1.28 
  -7   7  -6    1.48    1.11 
  -8   7  -6   17.09    2.07 
  -9   7  -6    1.28    1.22 
 -10   7  -6   11.64    2.01 
 -11   7  -6   -1.85    1.25 
   1   6  -6   69.96    3.15 
   0   6  -6  120.09    4.78 
  -1   6  -6  120.59    4.86 
  -2   6  -6   58.68    3.10 
  -3   6  -6    2.12    1.16 
  -4   6  -6    1.10    1.03 
  -5   6  -6    0.01    1.03 
  -6   6  -6    9.94    1.65 
  -7   6  -6   25.37    2.29 
  -8   6  -6    3.85    1.31 
  -9   6  -6    7.37    1.69 
 -10   6  -6   11.45    1.91 
 -11   6  -6   46.64    3.17 
  11  -6   6   48.44    3.35 
 -12   6  -6   50.78    3.58 
  12  -6   6   54.75    3.48 
   1   5  -6  100.35    3.98 
   0   5  -6  100.71    4.08 
  -1   5  -6   26.54    1.98 
  -2   5  -6    5.00    1.20 
  -3   5  -6    4.87    1.22 
  -4   5  -6    9.99    1.46 
  -5   5  -6   37.87    2.54 
  -6   5  -6    2.92    1.04 
  -7   5  -6    4.00    1.14 
  -8   5  -6   49.54    2.93 
  -9   5  -6   99.53    4.50 
 -10   5  -6  105.18    4.85 
 -11   5  -6   92.00    4.56 
  11  -5   6   93.70    4.64 
 -12   5  -6   76.19    4.07 
  12  -5   6   69.32    4.09 
 -13   5  -6   46.15    3.31 
  13  -5   6   43.71    3.47 
   8   4  -6   11.06    2.17 
  -8  -4   6   12.54    2.09 
   7   4  -6   35.76    3.16 
  -7  -4   6   34.64    2.85 
  -6  -4   6   81.86    4.04 
  -5  -4   6  146.24    5.66 
  -4  -4   6  133.87    5.13 
  -3  -4   6   72.19    3.24 
   2   4  -6   72.47    2.95 
  -2  -4   6   69.72    3.07 
   1   4  -6   18.81    1.45 
  -1  -4   6   19.84    1.50 
   0   4  -6    1.10    0.80 
   0  -4   6    1.33    0.63 
  -1   4  -6   18.64    1.63 
   1  -4   6   17.98    1.08 
  -2   4  -6   53.76    2.61 
  -3   4  -6    0.52    0.90 
  -4   4  -6    0.95    0.84 
  -5   4  -6    0.92    0.98 
  -6   4  -6   18.84    1.61 
  -7   4  -6   87.59    4.02 
  -7   4  -6   92.07    3.50 
  -8   4  -6  150.79    5.90 
  -9   4  -6  149.18    5.85 
 -10   4  -6   78.15    3.83 
  10  -4   6   82.62    3.99 
 -11   4  -6   44.48    3.00 
  11  -4   6   45.26    3.12 
 -12   4  -6    9.61    1.72 
  12  -4   6   10.55    1.84 
 -13   4  -6   -0.50    1.16 
  13  -4   6   -1.19    1.37 
   9   3  -6   33.55    3.00 
  -9  -3   6   27.22    2.75 
   8   3  -6   67.50    3.99 
  -8  -3   6   69.70    3.96 
   7   3  -6   69.63    4.09 
  -7  -3   6   75.25    3.90 
   6   3  -6   85.99    4.37 
  -6  -3   6   79.73    3.96 
  -5  -3   6   55.71    3.15 
  -4  -3   6   32.02    2.36 
  -3  -3   6    1.96    1.07 
   2   3  -6    2.62    0.70 
  -2  -3   6    2.17    0.97 
   1   3  -6   23.18    1.52 
  -1  -3   6   22.15    1.56 
   0   3  -6   19.49    1.47 
   0  -3   6   17.69    1.28 
  -1   3  -6   49.47    2.39 
   1  -3   6   47.37    1.93 
  -2   3  -6    3.40    0.94 
   2  -3   6    3.33    0.54 
  -3   3  -6   42.65    2.21 
   3  -3   6   38.72    1.56 
  -4   3  -6   77.98    3.39 
   4  -3   6   76.72    2.65 
  -6   3  -6    0.12    0.45 
  -7   3  -6  192.21    6.89 
  -7   3  -6  187.93    6.23 
  -8   3  -6  126.68    5.10 
  -8   3  -6  132.79    4.66 
  -9   3  -6   29.85    1.91 
  -9   3  -6   30.27    2.30 
 -10   3  -6    1.26    0.85 
 -10   3  -6    0.47    0.97 
  10  -3   6    2.78    1.31 
 -11   3  -6    0.84    0.97 
 -11   3  -6    0.98    1.12 
  11  -3   6    2.37    1.28 
 -12   3  -6    2.94    1.19 
 -12   3  -6    3.02    1.25 
  12  -3   6    1.24    1.41 
 -13   3  -6    4.72    1.45 
 -13   3  -6    6.08    1.49 
  13  -3   6    3.32    1.43 
 -14   3  -6    0.94    1.33 
   9   2  -6   53.09    3.74 
  -9  -2   6   52.62    3.67 
   8   2  -6   55.51    3.69 
  -8  -2   6   60.53    3.65 
   7   2  -6   48.79    3.24 
  -7  -2   6   49.90    3.24 
   6   2  -6    8.33    1.53 
  -6  -2   6    8.09    1.63 
   5   2  -6    0.69    1.12 
  -5  -2   6    1.16    1.13 
  -4  -2   6    0.78    1.07 
   3   2  -6    3.52    0.64 
  -3  -2   6    3.51    1.13 
  -2  -2   6    9.43    1.21 
   1   2  -6    3.24    0.74 
  -1  -2   6    3.25    0.85 
   0   2  -6   35.69    1.93 
   0  -2   6   35.51    1.75 
  -1   2  -6   14.35    1.35 
   1  -2   6   12.72    1.06 
  -2   2  -6  260.01    9.12 
   2  -2   6  293.77    8.59 
  -3   2  -6  202.54    7.16 
   3  -2   6  213.63    6.53 
  -4   2  -6  292.32    9.68 
   4  -2   6  290.97    8.98 
  -6   2  -6   78.58    3.47 
   6  -2   6   80.50    2.96 
  -7   2  -6   64.48    3.12 
   7  -2   6   66.24    2.68 
  -8   2  -6    2.12    0.94 
  -8   2  -6    2.05    0.76 
  -9   2  -6    4.94    1.17 
  -9   2  -6    5.07    1.03 
   9  -2   6    4.35    1.31 
 -10   2  -6   16.33    1.59 
 -10   2  -6   14.76    1.61 
  10  -2   6   14.22    1.73 
 -11   2  -6   27.80    2.09 
 -11   2  -6   28.04    2.12 
  11  -2   6   26.88    2.34 
 -12   2  -6    0.14    1.05 
 -12   2  -6    0.98    1.12 
  12  -2   6    0.18    1.33 
 -13   2  -6   -1.08    1.11 
 -13   2  -6   -1.21    1.06 
  13  -2   6    0.56    1.25 
 -14   2  -6    2.61    1.40 
  14  -2   6    2.60    1.66 
  10   1  -6   30.99    3.00 
 -10  -1   6   24.06    2.78 
   9   1  -6   30.89    2.85 
  -9  -1   6   31.05    2.79 
   8   1  -6    4.05    1.49 
  -8  -1   6    1.37    1.53 
   7   1  -6    3.53    1.38 
  -7  -1   6    0.65    1.23 
   6   1  -6   23.81    2.25 
  -6  -1   6   29.38    2.52 
   5   1  -6   14.96    1.75 
  -5  -1   6   15.39    1.68 
   4   1  -6   34.25    2.32 
  -4  -1   6   31.20    2.27 
   3   1  -6    2.05    0.56 
  -3  -1   6    1.46    1.01 
   2   1  -6   18.44    1.17 
  -2  -1   6   18.11    1.61 
   0   1  -6  240.44    8.02 
   0  -1   6  249.40    7.81 
  -1   1  -6  113.42    4.33 
   1  -1   6  125.22    4.09 
  -2   1  -6  417.13   14.27 
   2  -1   6  486.89   13.76 
  -3   1  -6  279.34    9.41 
   3  -1   6  294.56    8.90 
  -4   1  -6   45.95    2.35 
   4  -1   6   52.22    2.03 
  -5   1  -6   12.39    1.27 
   5  -1   6   11.78    1.06 
  -6   1  -6   -0.05    0.75 
   6  -1   6    0.15    0.60 
  -7   1  -6   21.50    1.81 
   7  -1   6   19.53    1.42 
  -8   1  -6   59.80    2.87 
   8  -1   6   56.23    2.55 
   8  -1   6   51.75    2.79 
  -9   1  -6   53.60    2.77 
  -9   1  -6   51.71    2.59 
   9  -1   6   49.55    2.80 
 -10   1  -6   21.97    1.88 
 -10   1  -6   18.23    1.73 
  10  -1   6   21.51    2.05 
 -11   1  -6   -0.13    0.95 
 -11   1  -6   -0.39    0.94 
  11  -1   6   -0.89    0.98 
 -12   1  -6   22.36    2.03 
 -12   1  -6   20.07    2.07 
  12  -1   6   19.90    2.34 
 -13   1  -6   12.47    1.89 
  13  -1   6   16.83    2.24 
 -14   1  -6   52.43    3.44 
  14  -1   6   48.49    3.73 
  10   0  -6    0.65    1.35 
 -10   0   6    3.11    1.80 
   9   0  -6    1.47    1.31 
  -9   0   6   -0.98    1.33 
   8   0  -6    5.69    1.46 
  -8   0   6   10.46    1.89 
   7   0  -6   10.41    1.59 
  -7   0   6   10.01    1.80 
   6   0  -6   11.71    1.55 
  -6   0   6    7.08    1.44 
   5   0  -6   -0.04    0.98 
  -5   0   6    2.03    1.22 
   4   0  -6    0.20    0.43 
   4   0  -6   -0.46    0.85 
  -4   0   6    1.76    1.11 
   3   0  -6  133.96    4.44 
  -3   0   6  129.65    4.91 
   2   0  -6  239.82    7.64 
  -2   0   6  234.94    7.82 
   0   0  -6  323.88   10.27 
   0   0   6  320.46   10.08 
  -1   0  -6  255.56    8.28 
   1   0   6  251.94    8.02 
  -2   0  -6  138.85    4.78 
   2   0   6  130.16    4.47 
  -3   0  -6   13.22    1.24 
   3   0   6   11.62    1.04 
  -4   0  -6    0.23    0.17 
   4   0   6   -0.17    0.54 
  -5   0  -6    8.21    1.05 
   5   0   6    8.57    0.93 
  -6   0  -6   24.16    1.66 
   6   0   6   19.54    1.40 
  -7   0  -6   31.19    1.98 
   7   0   6   29.18    1.73 
  -8   0  -6   12.31    1.39 
   8   0   6   11.98    1.30 
  -9   0  -6   -0.51    0.85 
   9   0   6   -0.20    0.82 
 -10   0  -6   22.16    1.81 
 -10   0  -6   19.57    1.80 
  10   0   6   19.63    2.03 
 -11   0  -6   80.77    3.57 
 -11   0  -6   78.05    3.75 
  11   0   6   81.74    3.98 
 -12   0  -6   92.18    4.32 
 -12   0  -6   94.51    4.01 
  12   0   6   90.54    4.58 
 -13   0  -6   64.73    3.71 
  13   0   6   65.02    3.88 
 -14   0  -6   69.75    3.96 
  14   0   6   62.84    4.10 
 -10   1   6    4.25    1.77 
   9  -1  -6    1.22    1.23 
  -9   1   6    2.87    1.68 
   8  -1  -6   -0.41    1.02 
  -8   1   6    0.43    1.48 
   7  -1  -6   10.66    1.54 
  -7   1   6   14.17    1.95 
   6  -1  -6   34.11    2.32 
  -6   1   6   39.12    2.75 
   5  -1  -6  120.03    4.71 
  -5   1   6  121.24    4.86 
   4  -1  -6  300.42    9.65 
   4  -1  -6  305.14   10.19 
  -4   1   6  319.26   10.18 
   3  -1  -6  249.64    8.06 
  -3   1   6  256.77    8.43 
   2  -1  -6  105.05    3.68 
   0  -1  -6  112.64    4.37 
   0   1   6  141.01    4.46 
  -1  -1  -6   11.17    1.04 
   1   1   6   11.39    1.06 
  -2  -1  -6    8.85    0.98 
   2   1   6   10.30    0.96 
  -3  -1  -6   85.31    3.26 
   3   1   6   81.35    3.05 
  -4  -1  -6   33.57    1.77 
   4   1   6   30.18    1.63 
  -5  -1  -6   10.79    1.15 
   5   1   6   13.07    1.10 
  -6  -1  -6    0.49    0.65 
   6   1   6    0.70    0.67 
   6   1   6   -0.20    0.66 
  -7  -1  -6   28.84    1.72 
   7   1   6   20.92    1.61 
   7   1   6   27.44    1.72 
  -8  -1  -6   86.36    3.53 
   8   1   6   81.30    3.45 
  -9  -1  -6  125.43    4.76 
   9   1   6  127.57    4.84 
   9   1   6  125.66    5.02 
 -10  -1  -6  104.40    4.19 
 -10  -1  -6  103.85    4.33 
  10   1   6   99.26    4.43 
 -11  -1  -6  122.69    5.19 
 -11  -1  -6  134.19    4.96 
  11   1   6  129.13    5.44 
 -12  -1  -6   82.47    4.11 
  12   1   6   87.21    4.47 
 -13  -1  -6   39.10    3.04 
  13   1   6   38.91    3.15 
 -14  -1  -6    7.84    1.89 
  14   1   6    6.59    1.82 
 -10   2   6   -1.16    1.44 
  -9   2   6    3.70    1.51 
   8  -2  -6   29.05    2.26 
  -8   2   6   34.01    2.86 
   7  -2  -6   91.85    3.92 
  -7   2   6   85.80    4.25 
   6  -2  -6  175.86    6.46 
  -6   2   6  181.27    6.67 
   5  -2  -6  195.61    6.41 
   5  -2  -6  203.64    6.93 
  -5   2   6  196.54    7.05 
   4  -2  -6  194.06    6.75 
  -4   2   6  200.86    6.98 
  -3   2   6  215.69    7.30 
   1  -2  -6    0.04    0.48 
  -1   2   6    0.60    0.80 
   0  -2  -6   30.12    1.56 
   0   2   6   29.69    1.67 
  -1  -2  -6   46.01    2.11 
   1   2   6   49.66    2.20 
  -2  -2  -6   78.32    3.02 
   2   2   6   72.84    2.89 
  -4  -2  -6    4.46    0.85 
   4   2   6    3.10    0.74 
  -5  -2  -6    1.76    0.70 
   5   2   6    1.34    0.72 
   5   2   6    0.82    0.67 
  -6  -2  -6  135.83    4.90 
   6   2   6  133.38    4.93 
   6   2   6  138.78    4.83 
  -7  -2  -6  181.79    6.46 
   7   2   6  199.56    6.46 
   7   2   6  182.41    6.58 
  -8  -2  -6  317.18   10.51 
   8   2   6  326.73   10.44 
  -9  -2  -6  259.77    8.57 
   9   2   6  246.06    8.84 
   9   2   6  254.50    8.57 
 -10  -2  -6   70.69    3.21 
  10   2   6   74.85    3.61 
 -11  -2  -6   36.54    2.71 
 -11  -2  -6   38.38    2.35 
  11   2   6   45.98    2.88 
 -12  -2  -6   14.23    1.84 
  12   2   6   12.94    1.78 
 -13  -2  -6   -0.43    1.34 
  13   2   6    0.08    1.35 
 -14  -2  -6   12.93    2.20 
  14   2   6   11.72    2.22 
 -10   3   6   10.84    1.86 
  -9   3   6   32.44    2.87 
  -8   3   6   78.25    4.03 
   7  -3  -6  183.99    6.48 
  -7   3   6  173.10    6.66 
   6  -3  -6   87.98    3.57 
  -6   3   6   83.55    3.95 
   5  -3  -6   37.51    2.10 
  -5   3   6   40.70    1.83 
   4  -3  -6    8.35    0.98 
  -4   3   6    8.36    0.88 
  -3   3   6    1.52    0.58 
  -3   3   6    0.79    0.91 
  -2   3   6    6.83    0.80 
  -2   3   6    7.09    1.09 
  -1   3   6   57.32    2.34 
  -1   3   6   56.83    2.61 
   0   3   6  102.61    3.68 
   0   3   6  102.86    3.84 
  -1  -3  -6   10.85    1.03 
   1   3   6   15.84    1.38 
  -2  -3  -6   13.33    1.12 
   2   3   6   10.42    1.04 
  -3  -3  -6   25.00    1.46 
   3   3   6   25.44    1.53 
   3   3   6   18.14    1.17 
  -4  -3  -6   55.82    2.46 
   4   3   6   55.74    2.42 
   4   3   6   56.21    2.33 
  -5  -3  -6  201.64    6.77 
   5   3   6  195.48    6.67 
   5   3   6  198.82    6.61 
  -6  -3  -6  343.11   11.25 
   6   3   6  349.79   11.33 
   6   3   6  352.24   11.07 
  -7  -3  -6  260.28    8.93 
   7   3   6  271.20    8.88 
   7   3   6  282.37    9.20 
  -8  -3  -6  144.01    5.25 
   8   3   6  149.01    5.38 
   8   3   6  143.84    5.51 
  -9  -3  -6    1.56    0.85 
   9   3   6    0.92    0.97 
   9   3   6    1.62    1.07 
 -10  -3  -6   52.89    2.59 
  10   3   6   51.01    2.92 
 -11  -3  -6    4.87    1.35 
  11   3   6    2.32    1.11 
 -12  -3  -6   19.09    2.20 
  12   3   6   13.59    1.97 
 -13  -3  -6    5.09    1.67 
  13   3   6    6.82    1.69 
 -14  -3  -6    2.69    1.68 
  14   3   6    4.09    1.68 
 -11   4   6   37.05    3.37 
 -10   4   6   70.88    4.17 
  -9   4   6  106.61    5.01 
  -8   4   6   67.77    3.72 
  -7   4   6   91.15    4.26 
   6  -4  -6    2.43    0.78 
  -6   4   6    2.72    0.76 
  -6   4   6    3.99    1.26 
   5  -4  -6    1.20    0.67 
  -5   4   6    0.10    0.68 
  -5   4   6    1.29    0.69 
   4  -4  -6    0.74    0.58 
  -4   4   6   -0.40    0.46 
  -4   4   6    0.24    0.59 
  -3   4   6   23.31    1.39 
  -3   4   6   15.77    1.43 
  -2   4   6   15.27    1.22 
  -1   4   6    0.10    0.26 
  -1   4   6    0.89    0.65 
   1   4   6  406.76   12.80 
   2   4   6  656.09   18.36 
   2   4   6  537.24   18.43 
   3   4   6  522.25   16.18 
  -4  -4  -6  238.89    7.87 
   4   4   6  235.94    7.74 
  -5  -4  -6  460.41   14.61 
   5   4   6  466.01   14.67 
  -6  -4  -6  202.93    6.63 
   6   4   6  162.44    6.39 
   6   4   6  209.53    6.73 
  -7  -4  -6   41.66    2.23 
   7   4   6   43.23    2.41 
  -8  -4  -6   16.93    1.54 
   8   4   6   17.30    1.65 
  -9  -4  -6   38.63    2.13 
   9   4   6   39.83    2.58 
   9   4   6   36.84    2.42 
 -10  -4  -6    3.51    0.89 
  10   4   6    1.47    1.01 
  10   4   6    3.61    1.30 
 -11  -4  -6   17.32    2.03 
  11   4   6   21.78    2.24 
 -12  -4  -6    2.59    1.31 
  12   4   6    1.82    1.30 
 -13  -4  -6    1.01    1.46 
  13   4   6    1.10    1.38 
 -14  -4  -6    9.97    1.94 
  14   4   6    9.90    2.11 
 -10   5   6   47.71    3.56 
  -9   5   6   39.71    3.18 
  -8   5   6    1.64    1.25 
  -7   5   6    0.73    1.21 
  -6   5   6   25.82    2.25 
  -6   5   6   25.90    1.75 
  -5   5   6    8.66    1.49 
  -5   5   6    8.25    1.09 
   4  -5  -6    2.17    0.54 
  -4   5   6    1.30    1.06 
  -4   5   6    1.64    0.80 
  -3   5   6    2.21    0.99 
  -3   5   6    2.38    0.78 
  -2   5   6   26.12    1.68 
  -2   5   6   29.07    1.88 
  -1   5   6  147.01    5.16 
  -1   5   6  146.38    5.17 
   0   5   6  342.11   10.86 
   0   5   6  339.75   10.74 
   0   5   6  333.19   10.27 
   1   5   6  651.49   19.44 
   1   5   6  628.02   19.69 
   1   5   6  626.41   19.35 
   2   5   6  460.91   14.43 
   2   5   6  473.23   14.51 
   3   5   6  581.52   18.33 
   3   5   6  602.07   18.19 
   3   5   6  595.43   18.44 
   4   5   6  115.45    4.29 
   4   5   6  120.31    4.23 
   4   5   6  118.30    4.30 
  -5  -5  -6   67.55    2.86 
   5   5   6   66.67    2.83 
   5   5   6   69.91    2.90 
  -6  -5  -6    0.16    0.62 
   6   5   6    1.62    0.74 
   6   5   6    1.27    0.83 
  -7  -5  -6   17.02    1.53 
   7   5   6   17.62    1.65 
  -8  -5  -6   27.61    1.93 
   8   5   6   29.10    2.18 
  -9  -5  -6   29.38    1.94 
   9   5   6   36.20    2.50 
   9   5   6   33.53    2.31 
  10   5   6    1.77    1.19 
  10   5   6   -1.53    0.98 
 -11  -5  -6   -0.24    1.12 
  11   5   6    1.61    1.33 
 -12  -5  -6    9.61    1.67 
  12   5   6    8.48    1.80 
 -13  -5  -6   15.35    2.23 
  13   5   6   11.14    1.96 
 -10   6   6   -0.32    1.49 
  -9   6   6    5.79    1.76 
  -8   6   6   30.60    2.71 
  -7   6   6   36.76    2.56 
  -7   6   6   31.77    2.12 
  -6   6   6   12.41    1.38 
  -6   6   6   10.72    1.53 
  -5   6   6    4.99    1.33 
  -5   6   6    5.51    1.07 
  -4   6   6   20.51    1.82 
  -4   6   6   18.62    1.62 
  -3   6   6  114.65    4.46 
  -3   6   6  113.89    4.38 
  -2   6   6  143.04    5.18 
  -2   6   6  141.93    5.16 
  -1   6   6  242.56    7.97 
  -1   6   6  229.61    7.81 
   0   6   6  267.33    8.72 
   0   6   6  257.44    8.58 
   1   6   6  228.81    7.64 
   1   6   6  234.69    7.27 
   2   6   6  146.57    5.36 
   2   6   6  157.18    5.07 
   2   6   6  155.56    5.39 
   3   6   6    1.13    0.52 
   3   6   6    1.71    0.70 
   3   6   6    3.30    0.82 
   4   6   6   27.10    1.80 
   4   6   6   26.45    1.66 
   4   6   6   27.11    1.58 
   5   6   6    0.90    0.68 
   5   6   6    0.95    0.77 
   5   6   6   -0.09    0.71 
  -6  -6  -6   38.31    2.12 
   6   6   6   37.94    2.17 
   6   6   6   41.50    2.28 
  -7  -6  -6   35.20    2.01 
   7   6   6   31.41    2.19 
   7   6   6   38.15    2.32 
  -8  -6  -6   13.00    1.36 
   8   6   6   12.59    1.48 
   8   6   6   18.44    1.87 
  -9  -6  -6    6.84    1.11 
   9   6   6    7.35    1.40 
   9   6   6    5.40    1.31 
  10   6   6   60.10    3.31 
  10   6   6   56.19    3.35 
 -11  -6  -6   63.02    3.72 
  11   6   6   64.97    3.84 
 -12  -6  -6   56.34    3.50 
  12   6   6   53.31    3.70 
 -13  -6  -6   49.22    3.72 
  13   6   6   58.64    3.94 
 -10   7   6   11.21    2.07 
  -9   7   6   17.87    2.16 
  -8   7   6    1.94    1.39 
  -7   7   6    0.49    0.90 
  -7   7   6   -0.18    1.19 
  -6   7   6   22.62    1.89 
  -6   7   6   24.89    2.14 
  -5   7   6   83.07    3.72 
  -5   7   6   80.86    3.60 
  -4   7   6  130.36    5.13 
  -4   7   6  144.41    5.30 
  -3   7   6  173.37    6.23 
  -3   7   6  174.98    6.29 
  -2   7   6  219.11    7.48 
  -2   7   6  210.01    7.28 
  -1   7   6  134.18    5.09 
  -1   7   6  135.49    4.94 
   0   7   6   26.42    1.81 
   0   7   6   27.96    1.79 
   1   7   6    4.49    0.55 
   1   7   6    2.91    0.88 
   1   7   6    4.26    0.75 
   2   7   6    3.76    0.92 
   2   7   6    3.66    0.60 
   2   7   6    4.32    0.90 
   3   7   6  108.86    4.15 
   3   7   6  104.67    4.04 
   4   7   6   35.73    2.10 
   4   7   6   38.38    1.94 
   4   7   6   35.53    2.05 
   5   7   6    6.06    0.99 
   5   7   6    5.23    0.99 
   5   7   6    6.72    1.04 
   6   7   6    2.99    0.95 
   6   7   6    3.39    1.05 
  -7  -7  -6    3.74    0.95 
   7   7   6    3.00    1.00 
   7   7   6    1.84    1.00 
  -8  -7  -6   17.35    1.51 
   8   7   6   15.72    1.70 
   8   7   6   13.32    1.65 
  -9  -7  -6  112.43    4.49 
   9   7   6  116.57    4.82 
   9   7   6  113.04    5.03 
  10   7   6  140.17    5.97 
  10   7   6  135.57    5.54 
 -11  -7  -6   63.40    3.74 
  11   7   6   60.80    3.71 
 -12  -7  -6   50.72    3.55 
  12   7   6   40.76    3.44 
 -13  -7  -6   16.80    2.34 
 -10   8   6    1.29    1.56 
  -9   8   6    2.38    1.51 
  -8   8   6   22.71    2.38 
  -8   8   6   18.83    1.89 
  -7   8   6   89.54    4.08 
  -7   8   6   90.90    4.33 
  -6   8   6  143.63    5.66 
  -6   8   6  148.41    5.81 
  -5   8   6  183.91    6.76 
  -5   8   6  180.87    6.68 
  -4   8   6  160.84    6.01 
  -4   8   6  162.59    6.06 
  -3   8   6  133.98    5.19 
  -3   8   6  141.57    5.38 
  -2   8   6   40.92    2.44 
  -2   8   6   36.17    2.19 
  -1   8   6    0.54    0.77 
  -1   8   6    1.14    0.86 
   1   8   6   13.47    1.37 
   1   8   6   14.25    0.97 
   1   8   6   13.44    1.42 
   2   8   6   21.99    1.36 
   2   8   6   27.97    1.78 
   2   8   6   24.76    1.80 
   3   8   6    8.60    1.19 
   3   8   6    9.77    1.26 
   3   8   6    9.10    1.00 
   4   8   6   11.89    1.26 
   4   8   6   11.14    1.27 
   4   8   6   14.51    1.42 
   5   8   6   40.36    2.36 
   5   8   6   43.73    2.33 
   5   8   6   43.90    2.35 
   6   8   6  118.65    4.57 
   6   8   6  111.16    4.64 
   6   8   6  114.92    4.42 
   7   8   6  150.25    5.54 
   7   8   6  140.98    5.72 
  -8  -8  -6  179.34    6.39 
   8   8   6  177.87    6.55 
   8   8   6  174.24    6.84 
   9   8   6  126.81    5.59 
   9   8   6  133.81    5.34 
  10   8   6   52.89    3.45 
 -11  -8  -6   26.15    2.56 
  11   8   6   24.17    2.71 
 -12  -8  -6    7.60    1.91 
  12   8   6   10.91    2.15 
  -9   9   6   66.80    3.99 
  -8   9   6  146.76    6.12 
  -8   9   6  146.11    5.92 
  -7   9   6  141.74    5.77 
  -7   9   6  142.50    5.89 
  -6   9   6  114.11    4.90 
  -6   9   6  115.09    4.92 
  -5   9   6   66.71    3.40 
  -5   9   6   60.82    3.24 
  -4   9   6   32.30    2.29 
  -4   9   6   31.90    2.24 
  -3   9   6   14.83    1.80 
  -3   9   6   14.15    1.53 
  -2   9   6    5.01    1.07 
  -2   9   6    4.14    1.11 
  -1   9   6   15.87    1.50 
  -1   9   6    8.39    1.39 
   1   9   6    0.20    0.77 
   1   9   6   -0.65    0.90 
   2   9   6    0.00    0.76 
   2   9   6   -0.07    0.55 
   2   9   6   -1.05    0.86 
   3   9   6   88.83    3.65 
   3   9   6   85.51    3.51 
   3   9   6   88.63    3.77 
   4   9   6  158.03    5.69 
   4   9   6  153.74    5.74 
   4   9   6  152.94    5.63 
   5   9   6  208.38    7.37 
   5   9   6  207.12    7.24 
   5   9   6  202.77    7.18 
   6   9   6  287.63    9.55 
   6   9   6  283.51    9.55 
   6   9   6  282.71    9.89 
   7   9   6  123.36    5.22 
   7   9   6  126.99    4.85 
   7   9   6  129.59    5.03 
  -8  -9  -6   73.22    3.39 
   8   9   6   72.62    3.82 
   8   9   6   75.32    3.62 
   9   9   6   46.78    2.95 
   9   9   6   46.10    3.15 
  10   9   6   13.09    2.06 
 -11  -9  -6    0.92    1.38 
  11   9   6    0.84    1.38 
  -9  10   6   44.16    3.37 
  -8  10   6   66.04    3.70 
  -8  10   6   59.39    3.76 
  -7  10   6   16.08    2.05 
  -7  10   6   14.15    1.92 
  -6  10   6    1.86    1.18 
  -6  10   6    0.00    1.16 
  -5  10   6    7.65    1.57 
  -5  10   6    4.89    1.24 
  -4  10   6    4.43    1.17 
  -4  10   6    3.85    1.27 
  -3  10   6   36.29    2.67 
  -3  10   6   37.18    2.30 
  -2  10   6   28.08    2.04 
  -2  10   6   28.19    2.25 
  -1  10   6    3.37    0.96 
  -1  10   6    3.86    1.09 
   0  10   6    1.69    1.11 
   0  10   6    0.96    0.88 
   1  10   6  203.97    7.05 
   1  10   6  205.06    7.49 
   2  10   6   37.07    2.23 
   2  10   6   39.13    2.00 
   2  10   6   37.21    2.44 
   3  10   6   46.45    2.80 
   3  10   6   49.66    2.59 
   3  10   6   52.80    2.56 
   4  10   6  197.03    6.95 
   4  10   6  188.44    6.75 
   4  10   6  191.40    7.02 
   5  10   6  146.46    5.57 
   5  10   6  148.24    5.69 
   5  10   6  155.29    5.84 
   6  10   6   42.80    2.71 
   6  10   6   46.11    2.58 
   6  10   6   42.02    2.55 
   7  10   6    3.99    1.01 
   7  10   6    2.42    1.17 
   7  10   6    4.25    1.17 
   8  10   6    1.51    1.22 
   8  10   6    0.28    1.06 
   9  10   6    1.64    1.32 
   9  10   6    2.20    1.35 
 -10 -10  -6    7.18    1.77 
  10  10   6    9.03    1.87 
 -11 -10  -6    4.76    1.82 
  -8  11   6    2.05    1.40 
  -8  11   6    2.03    1.37 
  -7  11   6   10.88    1.76 
  -7  11   6    9.91    1.74 
  -6  11   6   23.44    2.26 
  -6  11   6   23.88    2.48 
  -5  11   6   27.58    2.60 
  -5  11   6   27.24    2.26 
  -4  11   6   -0.11    0.89 
  -4  11   6    2.09    1.20 
  -3  11   6    1.99    1.29 
  -3  11   6    0.20    0.91 
  -2  11   6   16.01    1.60 
  -2  11   6   16.21    1.90 
  -1  11   6  106.11    4.73 
  -1  11   6  109.91    4.37 
   0  11   6  200.61    7.48 
   0  11   6  194.31    6.88 
   1  11   6  242.49    8.20 
   1  11   6  239.90    8.73 
   2  11   6  163.22    6.39 
   2  11   6  164.59    5.95 
   3  11   6  183.66    6.99 
   3  11   6  183.75    6.68 
   3  11   6  189.78    6.63 
   4  11   6   86.60    3.88 
   4  11   6   85.66    3.95 
   4  11   6   91.23    3.81 
   5  11   6   13.54    1.68 
   5  11   6   12.10    1.52 
   5  11   6   10.29    1.42 
   6  11   6    0.60    0.95 
   6  11   6    0.83    1.02 
   6  11   6   -0.15    0.84 
   7  11   6    4.80    1.12 
   7  11   6    5.21    1.41 
   7  11   6    4.49    1.29 
   8  11   6    5.70    1.58 
   8  11   6    5.41    1.37 
   9  11   6    1.42    1.42 
 -10 -11  -6    3.71    1.48 
  10  11   6    0.65    1.32 
  -7  12   6   17.40    2.29 
  -6  12   6    3.39    1.41 
  -5  12   6    0.63    1.22 
  -4  12   6    6.64    1.42 
  -4  12   6    7.65    1.64 
  -3  12   6   35.38    2.31 
  -3  12   6   43.31    3.11 
  -2  12   6  122.29    4.79 
  -2  12   6  119.88    5.38 
  -1  12   6  151.11    6.34 
  -1  12   6  159.51    5.76 
   0  12   6  173.60    7.02 
   0  12   6  178.12    6.35 
   1  12   6   60.16    3.57 
   1  12   6   65.52    3.03 
   2  12   6   33.53    2.52 
   2  12   6   31.23    2.05 
   3  12   6   15.52    1.53 
   3  12   6   16.74    2.02 
   4  12   6    0.03    0.92 
   4  12   6    0.29    1.03 
   4  12   6   -0.65    0.77 
   5  12   6    2.31    1.04 
   5  12   6    2.45    1.10 
   5  12   6    1.46    1.09 
   6  12   6    9.00    1.67 
   6  12   6   10.15    1.51 
   6  12   6    8.43    1.41 
   7  12   6    3.02    1.45 
   7  12   6    0.87    1.12 
   8  12   6    1.35    1.35 
   8  12   6   -0.31    1.23 
  -6  13   6   13.37    2.22 
  -5  13   6   53.92    3.71 
  -4  13   6   83.06    4.57 
  -3  13   6   67.51    3.85 
  -2  13   6   60.69    3.59 
  -1  13   6   39.70    2.94 
   0  13   6   14.55    2.01 
   1  13   6    2.52    1.44 
   2  13   6   11.56    1.79 
   3  13   6   22.65    2.36 
   4  13   6   15.33    1.96 
   5  13   6    1.07    1.07 
   6  13   6    0.58    1.26 
   6  13   6    1.21    1.06 
   7  13   6   20.36    2.42 
  -5  14   6   98.37    5.24 
  -4  14   6   64.48    4.12 
  -3  14   6   33.33    2.85 
  -2  14   6    6.92    1.68 
  -1  14   6    0.96    1.25 
   0  14   6   -0.17    1.22 
   1  14   6   12.04    1.99 
   2  14   6   14.69    2.15 
   3  14   6   -1.23    1.21 
   4  14   6    7.88    1.66 
   5  14   6   24.23    2.44 
  -2  15   6   11.97    2.10 
  -1  15   6   13.05    2.25 
   0  15   6   10.90    2.05 
   1  15   6    5.70    1.80 
   2  15   6   23.34    2.68 
  -3  10  -7    6.63    1.84 
  -4  10  -7   21.92    2.72 
  -5  10  -7   62.09    4.26 
  -1   9  -7    2.55    1.36 
  -2   9  -7   18.75    2.29 
  -3   9  -7   37.89    3.09 
  -4   9  -7   55.21    3.71 
  -5   9  -7   78.53    4.50 
  -6   9  -7   34.49    3.22 
  -7   9  -7   10.65    2.07 
  -8   9  -7    2.48    1.75 
  -1   8  -7   74.49    3.95 
  -2   8  -7   68.62    3.78 
  -3   8  -7  101.64    4.77 
  -4   8  -7   48.53    3.34 
  -5   8  -7   13.72    2.01 
  -6   8  -7   -0.80    1.29 
  -7   8  -7    0.89    1.43 
  -8   8  -7    6.51    1.66 
  -9   8  -7    4.56    1.59 
 -10   8  -7   21.18    2.60 
   0   7  -7   69.01    3.48 
  -1   7  -7   67.63    3.57 
  -2   7  -7   52.40    3.14 
  -3   7  -7   48.38    3.10 
  -4   7  -7    4.15    1.43 
  -5   7  -7    5.37    1.42 
  -6   7  -7    4.33    1.39 
  -7   7  -7    7.14    1.60 
  -8   7  -7    0.50    1.17 
  -9   7  -7   12.67    1.99 
 -10   7  -7    0.43    1.36 
 -11   7  -7   35.14    3.22 
   0   6  -7   27.56    2.13 
  -1   6  -7    8.70    1.43 
  -2   6  -7    2.68    1.14 
  -3   6  -7   21.46    2.13 
  -4   6  -7    2.65    1.30 
  -5   6  -7   -0.15    0.99 
  -6   6  -7    0.11    1.02 
  -7   6  -7    3.22    1.23 
  -8   6  -7   51.41    3.18 
  -9   6  -7   81.44    4.31 
 -10   6  -7   81.69    4.31 
 -11   6  -7  121.86    5.60 
 -12   6  -7   77.03    4.43 
  12  -6   7   78.26    4.47 
   1   5  -7    3.49    0.94 
   0   5  -7   -0.11    0.84 
  -1   5  -7   25.93    2.02 
  -2   5  -7   61.73    3.15 
  -3   5  -7    3.52    1.19 
  -4   5  -7    3.74    1.20 
  -5   5  -7    1.87    1.08 
  -6   5  -7   36.17    2.63 
  -7   5  -7   71.88    3.59 
  -8   5  -7  119.07    5.10 
  -9   5  -7   98.53    4.66 
 -10   5  -7   59.21    3.55 
 -11   5  -7   30.52    2.82 
  11  -5   7   38.50    3.08 
 -12   5  -7   13.12    2.10 
  12  -5   7   18.85    2.39 
  -7  -4   7   52.33    3.72 
  -6  -4   7   62.12    3.58 
  -5  -4   7   45.61    2.93 
  -4  -4   7   16.45    1.86 
   1   4  -7    0.61    0.76 
   0   4  -7   11.81    1.35 
  -1   4  -7    6.95    1.21 
  -2   4  -7    0.17    0.80 
  -3   4  -7   71.22    3.39 
  -4   4  -7   75.19    3.58 
  -5   4  -7  108.20    4.54 
  -6   4  -7  116.26    4.86 
  -7   4  -7  130.19    5.29 
  -8   4  -7  113.37    4.82 
  -9   4  -7   32.05    2.41 
 -10   4  -7    7.68    1.49 
 -11   4  -7    0.55    1.09 
  11  -4   7    1.36    1.41 
 -12   4  -7    2.93    1.43 
  12  -4   7    3.08    1.55 
 -13   4  -7    4.14    1.41 
  13  -4   7    5.13    1.60 
  -8  -3   7   38.96    3.20 
  -7  -3   7   30.55    2.68 
  -6  -3   7   14.72    1.95 
  -5  -3   7   -0.84    1.25 
  -4  -3   7    0.10    1.14 
  -3  -3   7   14.87    1.63 
   2   3  -7    3.16    0.79 
  -2  -3   7    4.07    1.10 
   1   3  -7    2.60    0.85 
  -1  -3   7    4.61    1.00 
   0   3  -7    5.97    1.07 
   0  -3   7    6.51    0.92 
  -1   3  -7   10.52    1.25 
   1  -3   7    9.40    0.93 
  -2   3  -7   95.93    4.10 
   2  -3   7  106.64    3.51 
  -3   3  -7  158.25    6.15 
   3  -3   7  181.86    5.47 
  -4   3  -7  177.67    6.59 
   4  -3   7  184.67    5.74 
  -5   3  -7  164.90    6.21 
   5  -3   7  168.33    5.36 
  -6   3  -7   45.09    2.58 
   6  -3   7   44.77    1.94 
  -7   3  -7   76.52    3.58 
  -8   3  -7    4.78    0.83 
  -8   3  -7    4.80    1.32 
  -9   3  -7   10.59    1.21 
  -9   3  -7   12.19    1.68 
 -10   3  -7   14.43    1.76 
 -10   3  -7   14.99    1.50 
  10  -3   7   12.63    1.75 
 -11   3  -7    0.78    1.20 
 -11   3  -7    1.38    0.90 
  11  -3   7    0.81    1.28 
 -12   3  -7    3.67    1.29 
 -12   3  -7    2.37    1.20 
  12  -3   7    3.72    1.40 
 -13   3  -7    1.47    1.36 
  13  -3   7    1.63    1.53 
   8   2  -7    8.51    1.94 
  -8  -2   7    4.82    1.68 
   7   2  -7   -1.13    1.25 
  -7  -2   7    0.03    1.37 
  -6  -2   7    1.41    1.41 
  -5  -2   7    9.36    1.64 
  -4  -2   7    8.55    1.54 
  -3  -2   7    1.36    1.16 
   2   2  -7   15.85    1.29 
  -2  -2   7   18.08    1.62 
   1   2  -7   65.42    2.80 
  -1  -2   7   67.54    2.91 
   0   2  -7  121.32    4.52 
   0  -2   7  119.96    4.27 
  -1   2  -7   67.98    3.09 
   1  -2   7   73.33    2.76 
  -2   2  -7  165.09    6.81 
   2  -2   7  229.67    6.42 
  -3   2  -7   86.48    3.98 
   3  -2   7  110.18    3.49 
  -4   2  -7   57.45    2.93 
   4  -2   7   58.82    2.26 
  -5   2  -7   -0.23    0.46 
   5  -2   7    2.03    0.62 
   6  -2   7    9.30    0.93 
  -7   2  -7   -0.36    0.93 
   7  -2   7    0.13    0.67 
  -8   2  -7   36.95    2.52 
  -9   2  -7   17.74    1.57 
  -9   2  -7   15.30    1.73 
 -10   2  -7   19.45    1.93 
 -10   2  -7   19.71    1.72 
  10  -2   7   21.25    2.07 
 -11   2  -7    0.12    0.91 
 -11   2  -7    0.87    0.98 
  11  -2   7    0.32    1.11 
 -12   2  -7   23.01    2.13 
 -12   2  -7   20.61    2.01 
  12  -2   7   23.32    2.41 
 -13   2  -7   45.98    3.04 
 -13   2  -7   42.67    2.88 
  13  -2   7   38.00    3.05 
 -14   2  -7   51.64    3.34 
  14  -2   7   51.27    3.78 
   9   1  -7   -0.80    1.41 
  -9  -1   7   -0.68    1.51 
   8   1  -7    2.93    1.53 
  -8  -1   7    1.70    1.52 
   7   1  -7    5.78    1.61 
  -7  -1   7    4.43    1.54 
   6   1  -7   -0.11    1.22 
  -6  -1   7    0.78    1.40 
  -5  -1   7   -0.21    1.22 
  -4  -1   7    1.18    1.17 
  -3  -1   7   80.13    3.58 
   2   1  -7  139.39    4.82 
  -2  -1   7  139.84    5.12 
   1   1  -7  228.05    7.41 
  -1  -1   7  217.48    7.38 
   0   1  -7  230.84    7.55 
   0  -1   7  219.77    7.32 
  -1   1  -7   58.35    2.63 
   1  -1   7   53.61    2.35 
  -2   1  -7  290.28    9.73 
   2  -1   7  300.73    9.26 
  -3   1  -7   11.57    1.29 
   3  -1   7   12.92    1.05 
  -4   1  -7   19.83    1.59 
   4  -1   7   22.16    1.31 
  -6   1  -7    0.75    0.69 
   6  -1   7    5.61    0.83 
  -7   1  -7    2.24    0.96 
   7  -1   7    2.40    0.77 
  -8   1  -7    2.79    1.04 
   8  -1   7    2.24    0.87 
  -9   1  -7    1.36    1.11 
   9  -1   7    0.80    1.10 
 -10   1  -7   34.23    2.40 
 -10   1  -7   34.99    2.27 
  10  -1   7   33.84    2.60 
 -11   1  -7  109.44    4.58 
 -11   1  -7  113.39    4.68 
  11  -1   7  111.76    4.94 
 -12   1  -7   89.11    4.16 
 -12   1  -7   91.63    4.15 
  12  -1   7   94.45    4.54 
 -13   1  -7   74.47    3.73 
 -13   1  -7   79.66    3.92 
  13  -1   7   71.89    4.27 
 -14   1  -7   79.45    4.18 
  14  -1   7   74.17    4.51 
   9   0  -7    2.56    1.52 
  -9   0   7    0.20    1.61 
   8   0  -7    0.10    1.24 
  -8   0   7   -0.01    1.42 
   7   0  -7    3.86    1.34 
  -7   0   7    4.63    1.55 
   6   0  -7   21.77    2.07 
  -6   0   7   20.82    2.17 
   5   0  -7   32.64    2.35 
  -5   0   7   35.93    2.64 
  -4   0   7   52.26    3.01 
   2   0  -7  126.89    4.42 
  -2   0   7  124.47    4.72 
   1   0  -7   94.29    3.53 
  -1   0   7   95.47    3.70 
   0   0  -7   27.33    1.61 
   0   0   7   27.08    1.67 
  -1   0  -7   -0.09    0.58 
   1   0   7    0.73    0.68 
  -2   0  -7    2.14    0.75 
   2   0   7    1.87    0.68 
  -3   0  -7   47.03    2.31 
   3   0   7   47.74    2.08 
  -4   0  -7   21.09    1.53 
   4   0   7   19.13    1.33 
  -5   0  -7    7.56    1.04 
   5   0   7   13.59    1.19 
  -6   0  -7    0.68    0.76 
   6   0   7    1.79    0.70 
  -7   0  -7   37.64    2.29 
   7   0   7   36.01    1.94 
  -8   0  -7   63.31    3.03 
   8   0   7   58.09    2.72 
  -9   0  -7  114.35    4.53 
   9   0   7  103.52    4.20 
   9   0   7  108.47    4.55 
 -10   0  -7  157.97    5.92 
  10   0   7  156.16    6.10 
 -11   0  -7  134.90    5.23 
 -11   0  -7  129.01    5.23 
  11   0   7  132.49    5.54 
 -12   0  -7   57.18    3.07 
 -12   0  -7   58.79    3.24 
  12   0   7   58.04    3.59 
 -13   0  -7   28.35    2.57 
  13   0   7   29.74    2.89 
 -14   0  -7   10.59    1.91 
  14   0   7    8.55    1.90 
  -9   1   7   -0.12    1.40 
   8  -1  -7   14.21    1.87 
  -8   1   7   13.57    2.08 
   7  -1  -7   63.66    3.43 
  -7   1   7   68.81    3.81 
   6  -1  -7  140.83    5.56 
  -6   1   7  142.23    5.78 
   5  -1  -7  198.23    7.00 
  -5   1   7  182.34    6.93 
  -4   1   7  157.34    5.93 
   2  -1  -7    8.56    0.93 
  -2   1   7    8.71    1.17 
   1  -1  -7   11.52    1.08 
  -1   1   7   12.29    1.31 
   0  -1  -7   21.57    1.42 
   0   1   7   22.32    1.60 
  -1  -1  -7   27.20    1.68 
   1   1   7   28.33    1.67 
  -2  -1  -7   50.26    2.37 
   2   1   7   49.12    2.23 
  -3  -1  -7   31.40    1.78 
   3   1   7   31.84    1.69 
  -4  -1  -7    2.80    0.60 
   4   1   7    1.71    0.68 
  -5  -1  -7   12.60    1.25 
   5   1   7   11.67    1.14 
  -6  -1  -7  135.73    4.99 
   6   1   7  129.87    4.69 
  -7  -1  -7  187.51    6.56 
   7   1   7  184.69    6.28 
   7   1   7  181.53    6.55 
  -8  -1  -7  187.36    6.59 
   8   1   7  180.46    6.32 
  -9  -1  -7  185.22    6.58 
   9   1   7  184.62    6.76 
   9   1   7  177.11    6.40 
 -10  -1  -7   53.11    2.88 
  10   1   7   61.85    3.16 
 -11  -1  -7   33.10    2.35 
 -11  -1  -7   29.11    2.14 
  11   1   7   28.61    2.30 
 -12  -1  -7    2.50    1.09 
 -12  -1  -7    1.26    1.24 
  12   1   7    1.52    1.27 
 -13  -1  -7    1.33    1.34 
  13   1   7    0.79    1.24 
 -14  -1  -7   13.54    2.08 
  14   1   7    8.41    1.87 
 -10   2   7   13.12    2.24 
  -9   2   7   34.39    2.98 
  -8   2   7   63.19    3.86 
   7  -2  -7  111.42    4.75 
  -7   2   7  116.08    5.13 
   6  -2  -7  154.51    5.70 
  -6   2   7  141.74    5.83 
   5  -2  -7   45.13    2.41 
  -5   2   7   38.89    2.81 
   4  -2  -7   11.55    0.93 
   3  -2  -7   21.06    1.28 
  -3   2   7   24.15    1.90 
   2  -2  -7    0.97    0.52 
  -2   2   7    0.32    0.94 
   1  -2  -7   54.53    2.39 
  -1   2   7   58.97    2.70 
   0  -2  -7   35.12    1.78 
   0   2   7   37.90    1.96 
  -1  -2  -7    4.19    0.77 
   1   2   7    3.79    0.83 
  -2  -2  -7   14.69    1.27 
   2   2   7   15.06    1.24 
  -3  -2  -7  113.08    4.25 
   3   2   7  113.57    4.09 
  -4  -2  -7   71.71    2.97 
  -5  -2  -7  114.38    4.27 
   5   2   7  106.97    4.05 
  -6  -2  -7  241.66    8.20 
   6   2   7  245.38    7.95 
   6   2   7  240.32    8.18 
  -7  -2  -7  162.43    5.86 
   7   2   7  165.49    5.75 
   7   2   7  164.33    5.91 
  -8  -2  -7  142.75    5.38 
   8   2   7  150.18    5.28 
   8   2   7  142.37    5.46 
  -9  -2  -7   58.80    2.91 
   9   2   7   59.83    2.91 
   9   2   7   62.98    3.16 
 -10  -2  -7    1.33    0.94 
  10   2   7    0.04    0.95 
  10   2   7    1.18    1.13 
 -11  -2  -7    1.44    0.89 
 -11  -2  -7    0.17    1.08 
  11   2   7    0.01    0.88 
 -12  -2  -7    3.74    1.18 
 -12  -2  -7    6.69    1.50 
  12   2   7    4.87    1.38 
 -13  -2  -7   11.12    1.83 
  13   2   7   10.40    1.86 
 -14  -2  -7    7.67    1.91 
  14   2   7    6.59    1.78 
 -10   3   7   45.40    3.63 
  -9   3   7   47.48    3.49 
  -8   3   7   57.89    3.63 
  -7   3   7   71.65    3.89 
   6  -3  -7    5.74    1.14 
  -6   3   7    3.65    1.43 
   5  -3  -7    1.48    0.85 
  -5   3   7    1.53    1.24 
  -4   3   7    5.68    1.25 
  -3   3   7    5.90    1.29 
  -2   3   7   -0.44    0.87 
   1  -3  -7    3.65    0.72 
  -1   3   7    2.17    0.87 
   0  -3  -7   23.83    1.50 
   0   3   7   25.48    1.77 
  -1  -3  -7  112.60    4.20 
   1   3   7  120.03    4.27 
  -2  -3  -7  285.45    9.37 
   2   3   7  291.04    9.25 
  -3  -3  -7  238.37    8.00 
   3   3   7  244.67    7.87 
  -4  -3  -7  248.01    8.31 
   4   3   7  245.69    8.08 
   4   3   7  253.01    8.15 
  -5  -3  -7  115.61    4.43 
   5   3   7  113.08    4.27 
   5   3   7  118.93    4.26 
  -6  -3  -7   79.78    3.40 
   6   3   7   85.76    3.36 
   6   3   7   80.04    3.29 
  -7  -3  -7   22.96    1.77 
   7   3   7   23.12    1.77 
   7   3   7   24.50    1.72 
  -8  -3  -7   22.65    1.77 
   8   3   7   24.13    1.92 
   8   3   7   23.28    1.91 
  -9  -3  -7   35.03    2.17 
   9   3   7   34.97    2.30 
   9   3   7   38.74    2.43 
 -10  -3  -7    0.15    0.81 
  10   3   7   -0.30    1.04 
  10   3   7    1.36    1.01 
 -11  -3  -7   13.17    1.47 
  11   3   7   15.36    1.92 
 -12  -3  -7    6.31    1.61 
  12   3   7    3.49    1.25 
 -13  -3  -7    5.24    1.65 
  13   3   7    3.30    1.37 
 -14  -3  -7    7.57    1.93 
  14   3   7    4.05    1.72 
 -10   4   7   34.55    3.13 
  -9   4   7   15.23    2.25 
  -8   4   7   -1.43    1.29 
  -7   4   7   -1.06    1.16 
  -6   4   7   53.75    3.14 
  -5   4   7   14.82    1.75 
  -5   4   7   11.55    1.15 
  -4   4   7    0.07    0.63 
  -4   4   7    3.86    0.81 
  -3   4   7    0.32    0.58 
  -3   4   7    1.16    0.67 
  -2   4   7   27.23    1.88 
  -2   4   7   33.51    1.72 
  -1   4   7   20.81    1.42 
  -1   4   7   22.10    1.60 
   0   4   7  184.92    6.14 
   0   4   7  174.90    6.16 
   1   4   7  354.55   11.30 
   1   4   7  356.55   11.36 
  -2  -4  -7  343.54   10.91 
   2   4   7  332.13   10.72 
  -4  -4  -7   28.16    1.72 
   4   4   7   31.35    1.88 
   4   4   7   30.46    1.56 
  -5  -4  -7    4.24    0.88 
   5   4   7    4.04    0.74 
   5   4   7    5.94    1.05 
  -6  -4  -7   17.74    1.47 
   6   4   7   17.30    1.49 
   6   4   7   16.70    1.36 
  -7  -4  -7   38.40    2.22 
   7   4   7   39.78    2.23 
   7   4   7   36.87    2.16 
  -8  -4  -7   53.70    2.72 
   8   4   7   54.17    2.73 
   8   4   7   54.84    2.79 
  -9  -4  -7   94.91    3.96 
   9   4   7  100.90    4.18 
   9   4   7   93.90    4.19 
 -10  -4  -7    2.11    0.92 
  10   4   7    3.54    1.21 
  10   4   7    2.46    1.10 
 -11  -4  -7    0.46    0.83 
  11   4   7    0.81    1.19 
 -12  -4  -7   36.28    2.71 
  12   4   7   32.53    2.67 
 -13  -4  -7   41.46    3.06 
  13   4   7   40.53    3.06 
 -14  -4  -7   49.26    3.69 
  14   4   7   46.01    3.61 
 -10   5   7    0.49    1.63 
  -9   5   7   -0.63    1.41 
  -8   5   7   13.85    2.07 
  -7   5   7    5.75    1.44 
  -6   5   7   31.13    2.56 
  -5   5   7   14.99    1.37 
  -5   5   7   15.16    1.73 
  -4   5   7   37.98    1.98 
  -4   5   7   31.02    2.16 
  -2   5   7  242.81    7.71 
  -2   5   7  215.27    7.74 
  -1   5   7  247.43    8.26 
  -1   5   7  251.81    8.32 
   0   5   7  347.85   11.02 
   0   5   7  342.11   10.93 
   0   5   7  334.86   10.44 
   1   5   7  144.62    5.48 
   1   5   7  163.64    5.07 
   1   5   7  167.26    5.57 
   2   5   7   93.53    3.24 
   2   5   7   95.56    3.61 
   3   5   7   54.93    2.41 
   3   5   7   51.39    2.11 
  -4  -5  -7    3.23    0.81 
   4   5   7    2.84    0.65 
  -5  -5  -7    2.53    0.86 
   5   5   7    3.01    0.76 
  -6  -5  -7   13.89    1.40 
   6   5   7   12.80    1.35 
  -7  -5  -7    3.18    0.99 
   7   5   7    5.49    1.11 
  -8  -5  -7   -0.81    0.81 
   8   5   7    0.26    0.88 
   8   5   7    1.08    0.73 
  -9  -5  -7    4.41    1.07 
   9   5   7    4.47    1.15 
   9   5   7    4.32    1.12 
 -10  -5  -7   96.54    3.96 
  10   5   7   92.42    4.11 
  10   5   7   96.96    4.48 
  11   5   7   81.38    4.26 
 -12  -5  -7   94.29    4.60 
  12   5   7   95.36    4.78 
 -13  -5  -7   63.81    3.73 
  13   5   7   62.87    4.05 
 -10   6   7    1.75    1.71 
  -9   6   7    1.02    1.60 
  -8   6   7   -1.19    1.30 
  -7   6   7    6.64    1.50 
  -6   6   7   12.96    1.88 
  -6   6   7   12.92    1.36 
  -5   6   7   91.52    4.23 
  -5   6   7   94.07    3.81 
  -4   6   7  226.42    8.02 
  -4   6   7  230.18    7.81 
  -3   6   7  299.43    9.83 
  -3   6   7  295.37    9.92 
  -2   6   7  162.19    5.82 
  -2   6   7  163.50    5.90 
  -1   6   7  151.83    5.54 
  -1   6   7  154.46    5.50 
   0   6   7   69.34    3.02 
   0   6   7   73.86    3.16 
   1   6   7    5.69    0.98 
   1   6   7    5.57    0.94 
   1   6   7    6.14    0.52 
   2   6   7    1.86    0.47 
   2   6   7    2.82    0.82 
   3   6   7   69.31    2.80 
   3   6   7   49.94    2.29 
   3   6   7   64.67    2.69 
   4   6   7   23.02    1.61 
   4   6   7   24.70    1.48 
   4   6   7   24.44    1.80 
  -5  -6  -7    5.39    1.01 
   5   6   7    6.30    1.02 
   5   6   7    5.18    0.92 
  -6  -6  -7    5.76    1.07 
   6   6   7    3.85    0.96 
   6   6   7    5.11    0.99 
  -7  -6  -7   33.07    2.08 
   7   6   7   35.36    2.19 
   7   6   7   32.10    2.19 
  -8  -6  -7   45.43    2.49 
   8   6   7   42.63    2.57 
   8   6   7   41.75    2.59 
  -9  -6  -7  140.56    5.41 
   9   6   7  147.63    5.54 
   9   6   7  138.88    5.73 
 -10  -6  -7  204.90    7.24 
  10   6   7  206.05    7.46 
  10   6   7  203.84    7.89 
  11   6   7   93.00    4.70 
 -12  -6  -7   67.42    3.82 
  12   6   7   58.11    3.73 
 -13  -6  -7   31.50    2.96 
  13   6   7   24.57    2.73 
 -10   7   7    0.71    1.63 
  -9   7   7   10.57    2.10 
  -8   7   7   57.95    3.68 
  -7   7   7   82.10    4.23 
  -6   7   7  171.39    6.58 
  -6   7   7  165.20    6.18 
  -5   7   7  211.54    7.69 
  -5   7   7  215.04    7.54 
  -4   7   7  131.11    5.10 
  -4   7   7  122.93    4.90 
  -3   7   7  103.93    4.24 
  -3   7   7  103.65    4.25 
  -2   7   7   41.99    2.39 
  -2   7   7   40.49    2.43 
  -1   7   7    5.23    1.10 
  -1   7   7    5.68    1.07 
   0   7   7    4.75    1.09 
   0   7   7    4.42    1.00 
   1   7   7   19.77    0.92 
   1   7   7   20.53    1.66 
   1   7   7   15.24    1.43 
   2   7   7   28.36    1.75 
   2   7   7   28.50    1.37 
   2   7   7   28.51    1.94 
   3   7   7   30.71    1.99 
   3   7   7   27.95    1.81 
   4   7   7   16.15    1.57 
   4   7   7   17.56    1.33 
   4   7   7   16.37    1.42 
   5   7   7   61.10    2.93 
   5   7   7   66.32    2.95 
   5   7   7   63.01    2.83 
  -6  -7  -7  138.66    5.24 
   6   7   7  137.15    5.26 
   6   7   7  141.83    5.24 
  -7  -7  -7  132.42    5.12 
   7   7   7  136.03    5.29 
   7   7   7  133.79    5.13 
  -8  -7  -7  111.12    4.42 
   8   7   7  106.67    4.47 
   8   7   7  111.74    4.72 
  -9  -7  -7  158.24    5.86 
   9   7   7  157.85    6.28 
   9   7   7  156.74    6.06 
  10   7   7   53.37    3.18 
  10   7   7   54.22    3.34 
  11   7   7    5.89    1.62 
 -12  -7  -7    3.72    1.62 
  12   7   7    3.40    1.56 
 -13  -7  -7    3.64    1.78 
  13   7   7    2.48    1.65 
  -9   8   7   51.88    3.50 
  -8   8   7  104.60    5.06 
  -7   8   7  111.15    5.02 
  -7   8   7  107.67    4.61 
  -6   8   7  101.58    4.36 
  -6   8   7  101.33    4.65 
  -5   8   7   55.68    3.20 
  -5   8   7   58.84    3.04 
  -4   8   7    5.80    1.30 
  -4   8   7    8.53    1.46 
  -3   8   7   -0.39    0.86 
  -3   8   7   -0.60    0.95 
  -2   8   7   30.10    2.13 
  -2   8   7   31.43    2.23 
  -1   8   7   41.12    2.43 
  -1   8   7   43.98    2.55 
   0   8   7   26.05    1.90 
   0   8   7   26.93    1.84 
   1   8   7    8.26    1.24 
   1   8   7    7.60    0.69 
   2   8   7    2.95    0.91 
   2   8   7    3.55    0.60 
   2   8   7    2.26    0.84 
   3   8   7   45.43    2.36 
   3   8   7   40.44    1.94 
   3   8   7   42.56    2.37 
   4   8   7  114.91    4.53 
   4   8   7  114.69    4.52 
   4   8   7  116.09    4.31 
   5   8   7  141.70    5.22 
   5   8   7  138.57    5.29 
   5   8   7  139.04    5.19 
   6   8   7  220.44    7.51 
   6   8   7  215.39    7.62 
   6   8   7  209.15    7.49 
  -7  -8  -7  114.44    4.64 
   7   8   7  117.56    4.73 
   7   8   7  116.45    4.79 
  -8  -8  -7   71.95    3.34 
   8   8   7   72.07    3.51 
   8   8   7   70.96    3.59 
  -9  -8  -7    7.22    1.25 
   9   8   7    7.45    1.51 
   9   8   7    8.23    1.48 
  10   8   7    2.21    1.30 
  10   8   7    3.05    1.27 
  11   8   7    5.14    1.52 
 -12  -8  -7    7.50    1.91 
  12   8   7    7.93    1.92 
  -9   9   7   59.49    3.86 
  -8   9   7   36.12    3.02 
  -7   9   7    5.83    1.40 
  -7   9   7    6.23    1.64 
  -6   9   7   -0.90    1.16 
  -6   9   7    1.95    1.14 
  -5   9   7   26.27    2.29 
  -5   9   7   23.45    2.13 
  -4   9   7   41.50    2.64 
  -4   9   7   38.13    2.47 
  -3   9   7   45.14    2.63 
  -3   9   7   42.31    2.71 
  -2   9   7   61.70    3.08 
  -2   9   7   62.68    3.27 
  -1   9   7   10.72    1.33 
  -1   9   7   14.29    1.61 
   0   9   7    0.30    0.61 
   0   9   7    0.39    0.81 
   1   9   7   32.71    2.12 
   2   9   7   45.11    2.40 
   2   9   7   45.54    2.46 
   2   9   7   33.59    1.76 
   3   9   7  141.51    5.38 
   3   9   7  135.14    4.93 
   3   9   7  138.98    5.19 
   4   9   7   83.87    3.59 
   4   9   7   79.30    3.57 
   4   9   7   76.61    3.30 
   5   9   7   82.97    3.68 
   5   9   7   84.25    3.65 
   5   9   7   84.91    3.74 
   6   9   7   55.15    2.85 
   6   9   7   57.37    3.02 
   6   9   7   60.49    3.03 
   7   9   7    0.51    1.06 
   7   9   7    0.01    0.93 
  -8  -9  -7    0.06    0.86 
   8   9   7   -1.02    0.92 
   8   9   7   -0.08    1.06 
   9   9   7    6.08    1.51 
   9   9   7    7.88    1.60 
  10   9   7    8.34    1.66 
  10   9   7   13.57    1.98 
  11   9   7   17.97    2.23 
 -12  -9  -7    1.64    1.55 
  -8  10   7    4.32    1.40 
  -8  10   7    1.09    1.47 
  -7  10   7    3.61    1.47 
  -7  10   7    0.95    1.21 
  -6  10   7   13.92    1.76 
  -6  10   7   14.27    1.96 
  -5  10   7    6.34    1.39 
  -5  10   7    7.23    1.49 
  -4  10   7    0.30    0.97 
  -4  10   7   -0.02    1.02 
  -3  10   7    2.00    1.05 
  -3  10   7    2.98    1.27 
  -2  10   7   40.44    2.50 
  -2  10   7   43.90    2.81 
  -1  10   7  109.09    4.49 
  -1  10   7  113.11    4.83 
   0  10   7  297.86   10.36 
   0  10   7  299.80    9.99 
   1  10   7  615.29   19.21 
   1  10   7  615.72   19.82 
   2  10   7   89.57    4.01 
   2  10   7   87.39    3.79 
   3  10   7  151.64    5.63 
   3  10   7  146.93    5.77 
   3  10   7  150.50    5.40 
   4  10   7  108.08    4.60 
   4  10   7  113.99    4.54 
   4  10   7  110.30    4.36 
   5  10   7   21.43    1.96 
   5  10   7   25.89    1.89 
   5  10   7   25.16    2.00 
   6  10   7    0.75    0.87 
   6  10   7    1.01    1.01 
   6  10   7    0.31    0.89 
   7  10   7   15.87    1.62 
   7  10   7   11.65    1.54 
   7  10   7   14.23    1.76 
  -8 -10  -7    4.12    1.14 
   8  10   7    4.54    1.40 
   8  10   7    6.81    1.52 
   9  10   7    1.18    1.24 
   9  10   7    1.31    1.21 
  10  10   7   -1.31    1.16 
  10  10   7   -1.86    1.24 
 -11 -10  -7    8.35    1.89 
  11  10   7    6.26    1.88 
  -8  11   7    6.50    1.78 
  -8  11   7    6.01    1.67 
  -7  11   7   11.17    1.91 
  -7  11   7   12.97    1.87 
  -6  11   7    1.49    1.25 
  -6  11   7    0.55    1.09 
  -5  11   7    8.54    1.64 
  -5  11   7    6.93    1.47 
  -4  11   7   67.69    3.49 
  -4  11   7   72.65    3.85 
  -3  11   7   79.32    3.68 
  -3  11   7   73.49    3.96 
  -2  11   7  182.64    6.71 
  -2  11   7  184.04    7.16 
  -1  11   7  250.55    8.83 
  -1  11   7  267.07    9.36 
   0  11   7  281.69    9.83 
   0  11   7  267.41    9.27 
   1  11   7  192.01    7.31 
   1  11   7  193.59    6.88 
   2  11   7   52.51    2.76 
   2  11   7   49.69    3.06 
   3  11   7   55.78    3.09 
   3  11   7   58.95    2.97 
   4  11   7    0.89    1.01 
   4  11   7    1.03    0.96 
   4  11   7    0.87    0.82 
   5  11   7    6.73    1.35 
   5  11   7    6.67    1.32 
   5  11   7    4.98    1.14 
   6  11   7   13.44    1.64 
   6  11   7   13.68    1.74 
   6  11   7   14.84    1.66 
   7  11   7    4.87    1.19 
   7  11   7    5.28    1.38 
   7  11   7    4.41    1.27 
   8  11   7    1.59    1.22 
   8  11   7    3.38    1.34 
   9  11   7    9.46    1.80 
   9  11   7    9.24    1.70 
  10  11   7   24.14    2.69 
  -7  12   7    0.95    1.35 
  -7  12   7    1.20    1.38 
  -6  12   7   32.80    2.92 
  -6  12   7   36.26    2.84 
  -5  12   7   60.09    3.34 
  -5  12   7   55.67    3.63 
  -4  12   7   93.10    4.67 
  -4  12   7   94.59    4.33 
  -3  12   7   93.40    4.57 
  -3  12   7   86.66    4.05 
  -2  12   7  101.27    4.30 
  -2  12   7  102.99    4.85 
  -1  12   7   59.42    3.44 
  -1  12   7   58.57    3.07 
   0  12   7   27.23    2.08 
   0  12   7   29.12    2.43 
   1  12   7    3.78    1.07 
   1  12   7    4.82    1.50 
   2  12   7   11.22    1.45 
   2  12   7   12.21    1.75 
   3  12   7    6.06    1.38 
   3  12   7    6.61    1.29 
   4  12   7   10.96    1.60 
   4  12   7   12.87    1.54 
   5  12   7    2.84    1.11 
   5  12   7    1.98    1.06 
   5  12   7    0.71    0.99 
   6  12   7    0.62    0.99 
   6  12   7    0.00    0.94 
   6  12   7   -0.51    1.04 
   7  12   7   13.96    1.95 
   7  12   7   13.76    1.75 
   7  12   7   11.62    1.61 
   8  12   7   43.68    3.14 
   8  12   7   40.52    2.88 
   9  12   7   57.47    3.78 
   9  12   7   55.51    3.42 
  -6  13   7   77.72    4.45 
  -5  13   7  130.72    6.01 
  -4  13   7   77.96    4.25 
  -3  13   7   22.80    2.51 
  -2  13   7    5.36    1.53 
  -1  13   7    2.20    1.22 
   0  13   7    7.59    1.73 
   1  13   7   30.13    2.64 
   1  13   7   37.74    2.64 
   2  13   7   26.74    2.43 
   2  13   7   24.18    2.04 
   3  13   7    1.96    1.02 
   3  13   7    3.17    1.28 
   4  13   7    4.73    1.23 
   4  13   7    5.12    1.47 
   5  13   7   22.43    2.02 
   5  13   7   24.11    2.29 
   6  13   7   35.76    2.50 
   6  13   7   37.95    2.64 
   7  13   7   99.36    4.44 
   7  13   7   92.90    4.83 
  -4  14   7    1.33    1.50 
  -3  14   7    1.35    1.24 
  -2  14   7   19.23    2.31 
  -1  14   7   10.73    2.00 
   0  14   7    7.55    1.72 
   1  14   7    6.77    1.63 
   2  14   7    6.09    1.59 
   3  14   7   51.51    3.46 
   4  14   7   51.06    3.39 
   5  14   7   79.77    4.18 
   6  14   7   68.22    3.73 
  -2  15   7    7.64    1.75 
  -1  15   7    2.51    1.61 
   0  15   7    1.40    1.57 
   1  15   7   38.37    3.15 
   2  15   7  113.43    5.60 
   3  15   7   83.45    4.56 
  -2   9  -8   89.03    4.67 
  -3   9  -8   89.85    4.81 
  -4   9  -8   66.31    4.14 
  -5   9  -8   32.91    3.19 
  -6   9  -8    5.82    1.82 
  -2   8  -8   42.53    3.06 
  -3   8  -8   30.59    2.78 
  -4   8  -8    1.80    1.45 
  -5   8  -8   -0.10    1.45 
  -6   8  -8    6.93    1.92 
  -7   8  -8   11.02    2.19 
  -8   8  -8   -0.08    1.31 
  -9   8  -8    0.81    1.33 
  -1   7  -8    8.32    1.57 
  -2   7  -8    1.84    1.28 
  -3   7  -8   -1.98    1.03 
  -4   7  -8   10.50    1.73 
  -5   7  -8    2.04    1.41 
  -6   7  -8   -0.06    1.22 
  -7   7  -8    3.58    1.59 
  -8   7  -8   30.80    2.93 
  -9   7  -8   58.00    3.82 
 -10   7  -8   60.10    3.97 
   0   6  -8    2.10    1.08 
  -1   6  -8   12.35    1.61 
  -2   6  -8   42.26    2.80 
  -3   6  -8   33.96    2.48 
  -4   6  -8    0.18    1.13 
  -5   6  -8   11.49    1.84 
  -6   6  -8   21.36    2.25 
  -7   6  -8   76.39    4.05 
  -8   6  -8  106.15    4.99 
  -9   6  -8  105.18    5.02 
 -10   6  -8   80.09    4.36 
 -11   6  -8   42.22    3.27 
   0   5  -8    8.24    1.35 
  -1   5  -8   11.39    1.49 
  -2   5  -8   -0.30    0.99 
  -3   5  -8    8.86    1.44 
  -4   5  -8   18.63    2.04 
  -5   5  -8   81.04    4.02 
  -6   5  -8  150.54    6.17 
  -7   5  -8  109.77    4.92 
  -8   5  -8   91.98    4.47 
  -9   5  -8   38.07    2.76 
 -10   5  -8    6.74    1.73 
 -11   5  -8    0.25    1.24 
 -12   5  -8   -0.56    1.19 
  12  -5   8    1.78    1.70 
   1   4  -8    0.84    0.79 
   0   4  -8    0.37    0.89 
  -1   4  -8   34.82    2.26 
  -2   4  -8   63.05    3.18 
  -3   4  -8  164.25    6.25 
  -4   4  -8  144.98    5.74 
  -5   4  -8  136.98    5.57 
  -6   4  -8   77.61    3.85 
  -7   4  -8   39.53    2.59 
  -8   4  -8   10.19    1.63 
  -9   4  -8    1.44    1.24 
 -10   4  -8    0.66    1.15 
 -11   4  -8    3.35    1.47 
  11  -4   8    4.99    1.69 
 -12   4  -8    1.58    1.27 
  12  -4   8    2.38    1.49 
 -13   4  -8   -0.38    1.36 
  13  -4   8    0.65    1.59 
  -7  -3   8   -0.45    1.60 
  -6  -3   8    1.16    1.52 
  -5  -3   8    5.14    1.60 
  -4  -3   8    4.83    1.39 
  -3  -3   8    3.72    1.31 
  -2  -3   8    6.66    1.27 
   1   3  -8   52.86    2.60 
  -1  -3   8   57.61    2.69 
   0   3  -8   72.96    3.30 
   0  -3   8   75.97    3.08 
  -1   3  -8  179.42    6.46 
  -2   3  -8  127.57    5.02 
  -3   3  -8  105.18    4.42 
  -4   3  -8   67.71    3.37 
  -5   3  -8   16.09    1.75 
  -6   3  -8   -0.61    0.86 
  -7   3  -8    0.31    0.92 
  -8   3  -8   19.44    1.96 
  -9   3  -8   13.41    1.85 
 -10   3  -8    1.84    1.28 
 -11   3  -8    1.41    1.18 
  11  -3   8    1.30    1.46 
 -12   3  -8    4.89    1.41 
  12  -3   8    5.54    1.60 
 -13   3  -8   49.97    3.31 
  13  -3   8   41.76    3.46 
  -7  -2   8    2.63    1.66 
  -6  -2   8    0.60    1.45 
  -5  -2   8   -0.78    1.30 
  -4  -2   8   11.18    1.72 
  -3  -2   8   32.64    2.48 
  -2  -2   8  113.38    4.50 
   1   2  -8  156.40    5.54 
  -1  -2   8  154.60    5.57 
   0   2  -8  115.67    4.50 
   0  -2   8  118.27    4.32 
  -1   2  -8  120.12    4.64 
   1  -2   8  117.98    4.24 
  -2   2  -8   74.73    3.44 
   2  -2   8   75.72    2.89 
  -3   2  -8    9.83    1.45 
   3  -2   8   12.15    1.09 
  -4   2  -8    0.39    0.99 
   4  -2   8    1.45    0.59 
  -5   2  -8   21.54    1.95 
   5  -2   8   26.58    1.44 
  -6   2  -8   36.10    2.46 
   6  -2   8   36.91    1.79 
  -7   2  -8    8.14    1.44 
   7  -2   8    8.56    1.01 
  -8   2  -8    4.57    1.27 
   8  -2   8    5.78    0.96 
  -9   2  -8    6.99    1.44 
 -10   2  -8   10.30    1.28 
 -10   2  -8    8.01    1.44 
  10  -2   8    7.67    1.53 
 -11   2  -8   60.92    3.37 
 -11   2  -8   61.05    3.08 
  11  -2   8   58.40    3.60 
 -12   2  -8   65.20    3.36 
 -12   2  -8   62.21    3.38 
  12  -2   8   62.94    3.69 
 -13   2  -8   82.46    4.07 
 -13   2  -8   81.56    4.01 
  13  -2   8   80.77    4.42 
 -14   2  -8   54.41    3.45 
  -8  -1   8   -0.85    1.66 
  -7  -1   8    0.54    1.58 
  -6  -1   8   14.90    2.10 
  -5  -1   8   30.17    2.60 
  -4  -1   8   92.77    4.19 
  -3  -1   8  136.24    5.30 
   2   1  -8  147.92    5.16 
  -2  -1   8  145.49    5.44 
   1   1  -8   91.49    3.55 
  -1  -1   8   87.89    3.72 
   0   1  -8   19.96    1.57 
   0  -1   8   20.87    1.67 
  -1   1  -8   17.26    1.57 
   1  -1   8   18.57    1.48 
  -2   1  -8   42.37    2.34 
   2  -1   8   39.87    1.99 
  -3   1  -8   31.84    2.10 
   3  -1   8   32.95    1.73 
  -4   1  -8   33.91    2.22 
   4  -1   8   36.35    1.77 
  -5   1  -8    5.65    1.03 
   5  -1   8    4.57    0.80 
  -6   1  -8    0.20    0.41 
   6  -1   8    3.01    0.78 
  -7   1  -8   35.56    2.39 
   7  -1   8   32.33    1.81 
  -8   1  -8   42.18    2.62 
   8  -1   8   41.10    2.13 
  -9   1  -8  104.02    4.37 
   9  -1   8   97.63    4.37 
   9  -1   8  100.82    3.95 
 -10   1  -8  196.00    7.07 
  10  -1   8  179.71    7.10 
 -11   1  -8  150.82    5.77 
 -11   1  -8  149.61    5.98 
  11  -1   8  157.04    6.32 
 -12   1  -8   55.41    3.11 
 -12   1  -8   51.28    3.09 
  12  -1   8   52.21    3.47 
 -13   1  -8   44.92    2.94 
 -13   1  -8   45.01    2.91 
  13  -1   8   42.36    3.20 
 -14   1  -8   14.09    2.01 
  14  -1   8   11.57    2.18 
  -8   0   8   15.47    2.32 
  -7   0   8   40.89    3.22 
  -6   0   8   80.10    4.13 
  -5   0   8   80.36    3.99 
  -4   0   8   76.09    3.70 
  -3   0   8   90.49    4.02 
   2   0  -8   17.49    1.35 
  -2   0   8   17.48    1.67 
   1   0  -8    5.15    0.89 
  -1   0   8    4.63    1.12 
   0   0  -8   23.89    1.65 
   0   0   8   25.87    1.83 
  -1   0  -8   20.95    1.60 
   1   0   8   19.09    1.55 
  -2   0  -8   11.44    1.27 
   2   0   8   11.73    1.15 
  -3   0  -8   18.09    1.64 
   3   0   8   17.07    1.33 
  -4   0  -8    7.20    1.15 
   4   0   8    7.35    0.92 
  -7   0  -8  169.99    6.23 
   7   0   8  164.20    5.73 
  -8   0  -8  152.73    5.70 
   8   0   8  147.50    5.31 
  -9   0  -8  188.34    6.89 
   9   0   8  189.31    6.56 
   9   0   8  187.89    7.00 
 -10   0  -8  152.83    6.01 
  10   0   8  158.90    6.14 
  10   0   8  157.48    5.76 
 -11   0  -8   37.64    2.45 
 -11   0  -8   32.77    2.44 
  11   0   8   36.84    2.56 
 -12   0  -8    5.64    1.29 
 -12   0  -8    4.50    1.21 
  12   0   8    7.38    1.65 
 -13   0  -8    0.14    1.08 
 -13   0  -8    2.59    1.21 
  13   0   8   -0.46    1.36 
 -14   0  -8    1.95    1.40 
  14   0   8   -0.45    1.49 
  -9   1   8   24.49    2.87 
  -8   1   8   50.40    3.45 
   7  -1  -8   61.76    3.44 
  -7   1   8   63.16    3.83 
  -6   1   8   80.21    4.15 
  -5   1   8   66.99    3.62 
  -4   1   8   14.55    1.85 
   3  -1  -8    3.51    0.71 
  -3   1   8    5.28    1.34 
   2  -1  -8   11.76    1.11 
  -2   1   8   10.54    1.36 
   1  -1  -8   40.29    2.03 
  -1   1   8   39.92    2.32 
   0  -1  -8   73.70    3.04 
   0   1   8   71.19    3.10 
  -1  -1  -8    5.63    0.92 
   1   1   8    4.72    0.96 
  -2  -1  -8    3.17    0.87 
   2   1   8    5.66    0.93 
  -3  -1  -8   11.02    1.22 
   3   1   8   10.33    1.11 
  -4  -1  -8  104.42    4.05 
   4   1   8   98.60    3.75 
  -6  -1  -8  205.84    7.18 
   6   1   8  201.97    6.82 
  -7  -1  -8  127.25    4.89 
   7   1   8  124.83    4.62 
  -8  -1  -8   83.99    3.75 
   8   1   8   78.74    3.42 
   8   1   8   86.45    3.72 
  -9  -1  -8   37.64    2.47 
   9   1   8   40.81    2.34 
   9   1   8   39.19    2.54 
 -10  -1  -8   -0.27    0.97 
  10   1   8    0.28    0.88 
  10   1   8    0.87    0.97 
 -11  -1  -8    2.90    1.17 
  11   1   8    3.02    1.20 
 -12  -1  -8    7.14    1.35 
 -12  -1  -8    8.01    1.51 
  12   1   8    9.91    1.74 
 -13  -1  -8    5.87    1.36 
 -13  -1  -8    7.72    1.60 
  13   1   8    6.11    1.54 
 -14  -1  -8   10.11    1.88 
  14   1   8    3.95    1.72 
  -9   2   8   46.93    3.51 
  -8   2   8   40.68    3.39 
  -7   2   8   31.56    2.74 
  -6   2   8   13.33    1.99 
  -5   2   8    4.46    1.37 
  -4   2   8    0.84    1.13 
   3  -2  -8    0.78    0.57 
  -3   2   8    1.27    1.15 
   2  -2  -8    1.65    0.67 
  -2   2   8    0.44    1.03 
   1  -2  -8    3.15    0.75 
  -1   2   8    2.75    1.01 
   0  -2  -8    5.41    0.90 
   0   2   8    4.28    1.02 
  -1  -2  -8   83.51    3.35 
   1   2   8   78.61    3.30 
  -2  -2  -8  180.25    6.35 
   2   2   8  182.08    6.19 
  -3  -2  -8  220.18    7.51 
   3   2   8  218.04    7.27 
  -4  -2  -8  247.13    8.21 
   4   2   8  235.01    7.87 
  -5  -2  -8  164.37    6.01 
   5   2   8  173.23    5.84 
  -6  -2  -8   52.84    2.71 
   6   2   8   49.93    2.45 
  -7  -2  -8   29.84    2.05 
   7   2   8   26.16    1.86 
   7   2   8   26.72    1.87 
  -8  -2  -8    4.33    1.07 
   8   2   8    4.24    1.08 
   8   2   8    5.14    1.10 
  -9  -2  -8    0.55    0.96 
   9   2   8    0.48    0.93 
   9   2   8   -0.01    0.86 
 -10  -2  -8   33.08    2.27 
  10   2   8   32.41    2.44 
  10   2   8   30.28    2.29 
 -11  -2  -8    1.01    0.98 
  11   2   8    0.98    1.19 
  11   2   8    2.44    1.19 
 -12  -2  -8    1.84    1.23 
 -12  -2  -8   -0.22    0.98 
  12   2   8    0.10    1.16 
 -13  -2  -8    2.63    1.34 
  13   2   8    1.63    1.37 
 -14  -2  -8   19.72    2.27 
  14   2   8   19.96    2.49 
  -9   3   8    6.88    1.83 
  -8   3   8    5.68    1.79 
  -7   3   8   -1.61    1.42 
  -6   3   8   15.27    1.97 
  -5   3   8   37.38    2.64 
   4  -3  -8   10.44    1.02 
  -4   3   8    9.70    1.63 
   3  -3  -8    5.90    0.87 
  -3   3   8    6.15    1.31 
   2  -3  -8   56.36    2.50 
  -2   3   8   60.13    2.91 
   1  -3  -8   31.55    1.77 
  -1   3   8   32.80    2.15 
   0  -3  -8  176.71    6.24 
   0   3   8  188.18    6.35 
  -1  -3  -8  253.18    8.45 
   1   3   8  256.59    8.43 
  -2  -3  -8  201.11    6.98 
   2   3   8  206.91    6.91 
  -3  -3  -8   77.11    3.24 
   3   3   8   75.04    3.18 
   4   3   8   82.30    3.34 
  -5  -3  -8    2.46    0.96 
   5   3   8    2.04    0.79 
   5   3   8    3.02    0.80 
  -6  -3  -8    2.35    0.89 
   6   3   8    2.45    0.84 
   6   3   8    1.46    0.81 
  -7  -3  -8   20.66    1.69 
   7   3   8   17.90    1.64 
   7   3   8   21.47    1.77 
  -8  -3  -8  111.00    4.59 
   8   3   8  117.28    4.68 
   8   3   8  119.58    4.52 
  -9  -3  -8    4.22    1.03 
   9   3   8    3.79    1.16 
   9   3   8    3.41    1.18 
 -10  -3  -8    0.30    0.79 
  10   3   8    0.17    1.09 
  10   3   8   -0.76    0.98 
 -11  -3  -8    2.88    1.05 
  11   3   8    1.65    1.24 
  11   3   8    2.07    1.26 
 -12  -3  -8   45.75    2.92 
 -12  -3  -8   40.48    2.58 
  12   3   8   43.46    3.09 
 -13  -3  -8   72.41    4.04 
  13   3   8   67.55    3.98 
 -14  -3  -8   58.87    3.85 
  14   3   8   55.73    3.69 
  -9   4   8   -0.05    1.49 
  -8   4   8    0.48    1.40 
  -7   4   8    3.68    1.55 
  -6   4   8   17.92    2.12 
  -5   4   8    3.36    1.42 
  -4   4   8   17.50    1.80 
  -4   4   8   16.05    1.45 
  -3   4   8   97.87    4.28 
  -3   4   8  102.39    3.86 
  -2   4   8  210.79    7.42 
  -2   4   8  211.59    7.12 
  -1   4   8  101.13    4.12 
   0  -4  -8  262.81    8.75 
   0   4   8  266.58    8.79 
  -1  -4  -8  173.46    6.13 
   1   4   8  177.11    6.13 
  -2  -4  -8   57.46    2.63 
   2   4   8   60.48    2.75 
  -3  -4  -8    4.22    0.82 
   3   4   8    3.87    0.98 
  -4  -4  -8    0.45    0.57 
   4   4   8    0.27    0.56 
   4   4   8    1.60    0.87 
  -5  -4  -8   50.02    2.53 
   5   4   8   47.53    2.46 
   5   4   8   45.10    2.19 
  -6  -4  -8   40.37    2.37 
   6   4   8   37.55    2.29 
   6   4   8   42.98    2.18 
  -7  -4  -8    1.12    0.94 
   7   4   8    3.77    0.89 
   7   4   8    4.63    1.13 
  -8  -4  -8    1.32    1.00 
   8   4   8    2.67    0.95 
   8   4   8    2.22    1.11 
  -9  -4  -8    0.53    0.86 
   9   4   8   -0.08    1.03 
   9   4   8   -0.47    0.82 
 -10  -4  -8   17.71    1.67 
  10   4   8   23.86    2.11 
  10   4   8   21.05    2.13 
 -11  -4  -8   79.00    3.56 
  11   4   8   78.06    4.07 
  11   4   8   77.31    3.84 
  12   4   8  138.88    6.08 
 -13  -4  -8   68.08    4.05 
  13   4   8   76.21    4.17 
 -14  -4  -8   40.10    3.39 
  14   4   8   40.27    3.41 
  -9   5   8    2.17    1.48 
  -8   5   8   -0.21    1.31 
  -7   5   8   10.06    1.82 
  -6   5   8    5.65    1.50 
  -5   5   8   98.89    3.91 
  -5   5   8  102.89    4.45 
  -4   5   8  119.90    4.49 
  -4   5   8  120.59    4.94 
  -3   5   8  191.04    6.61 
   0   5   8   65.73    2.89 
   1   5   8    5.11    0.99 
   1   5   8    2.25    0.72 
   2   5   8    9.48    1.06 
   2   5   8   12.15    0.84 
  -4  -5  -8   44.46    2.38 
   4   5   8   44.92    2.04 
   4   5   8   45.14    2.32 
  -5  -5  -8   14.01    1.43 
   5   5   8   12.04    1.15 
  -6  -5  -8    4.18    1.03 
   6   5   8    3.62    0.86 
  -7  -5  -8   45.09    2.50 
   7   5   8   38.44    2.23 
  -8  -5  -8   86.71    3.81 
   8   5   8   81.40    3.80 
   8   5   8   87.59    3.71 
  -9  -5  -8   89.84    3.94 
   9   5   8   89.32    4.04 
   9   5   8   91.46    3.99 
 -10  -5  -8  141.30    5.42 
  10   5   8  141.71    5.58 
  10   5   8  139.29    5.79 
 -11  -5  -8   92.41    4.02 
  11   5   8   97.46    4.38 
  11   5   8   94.81    4.60 
  12   5   8   50.29    3.43 
 -13  -5  -8   13.02    2.06 
  13   5   8   14.20    2.28 
  -9   6   8    6.29    1.95 
  -8   6   8   37.43    3.21 
  -7   6   8   85.83    4.46 
  -6   6   8   65.40    3.69 
  -5   6   8  152.28    5.60 
  -5   6   8  154.83    6.03 
  -4   6   8  121.26    5.10 
  -4   6   8  132.56    4.84 
  -3   6   8   59.68    3.15 
  -3   6   8   56.73    2.76 
  -2   6   8    2.45    0.95 
  -2   6   8    3.11    0.91 
  -1   6   8    0.23    0.80 
  -1   6   8    1.22    0.80 
   0   6   8    7.82    1.08 
   0   6   8    9.40    1.28 
   0   6   8    6.98    0.42 
   1   6   8   17.75    1.46 
   1   6   8   18.65    1.66 
   1   6   8   16.73    0.85 
   2   6   8   46.18    2.36 
   2   6   8   52.14    2.59 
   2   6   8   51.67    1.96 
   3   6   8   25.53    1.64 
   4   6   8   12.39    1.12 
  -5  -6  -8   67.03    3.09 
   5   6   8   68.47    2.87 
  -6  -6  -8  133.51    5.21 
   6   6   8  144.10    5.18 
  -7  -6  -8  198.13    7.01 
   7   6   8  191.07    6.93 
  -8  -6  -8  155.72    5.99 
   8   6   8  165.21    6.18 
   8   6   8  164.23    6.02 
  -9  -6  -8  157.85    6.00 
   9   6   8  163.20    6.03 
   9   6   8  154.16    6.20 
 -10  -6  -8   91.92    4.09 
  10   6   8   97.33    4.51 
  10   6   8   95.68    4.27 
  11   6   8   22.12    2.35 
  11   6   8   16.25    1.87 
  12   6   8    0.64    1.25 
 -13  -6  -8    1.02    1.25 
  13   6   8   -0.57    1.32 
  -9   7   8   53.71    3.66 
  -8   7   8   93.09    4.68 
  -7   7   8   78.16    4.22 
  -6   7   8   91.60    4.42 
  -6   7   8   87.70    3.86 
  -5   7   8   47.23    2.60 
  -5   7   8   50.81    3.13 
  -4   7   8    0.38    0.88 
  -4   7   8    0.54    1.02 
  -3   7   8    3.44    1.06 
  -3   7   8    2.52    1.09 
  -2   7   8   27.18    2.17 
  -2   7   8   24.10    1.93 
  -1   7   8   24.98    1.93 
  -1   7   8   26.03    1.91 
   0   7   8    7.60    1.21 
   0   7   8   10.53    1.32 
   1   7   8    1.99    0.97 
   1   7   8    0.19    0.86 
   1   7   8    1.73    0.34 
   2   7   8    5.68    0.64 
   2   7   8    6.51    1.19 
   3   7   8   50.78    2.65 
   3   7   8   50.86    2.49 
   4   7   8  157.19    5.63 
   4   7   8  146.89    5.55 
   4   7   8  151.45    5.30 
   5   7   8  160.05    5.89 
   5   7   8  163.02    5.74 
  -6  -7  -8  190.42    6.86 
   6   7   8  195.82    6.86 
   6   7   8  186.46    6.75 
  -7  -7  -8  112.11    4.54 
   7   7   8  113.51    4.67 
   7   7   8  115.16    4.63 
  -8  -7  -8   69.83    3.32 
   8   7   8   67.26    3.41 
   8   7   8   68.46    3.41 
  -9  -7  -8   19.23    1.84 
   9   7   8   22.23    2.16 
   9   7   8   19.55    2.01 
 -10  -7  -8    0.54    0.90 
  10   7   8    1.18    1.20 
  10   7   8    0.84    1.20 
  11   7   8    6.71    1.52 
  11   7   8    6.85    1.60 
  12   7   8   15.95    2.24 
 -13  -7  -8    6.33    1.65 
  13   7   8    7.77    1.83 
  -9   8   8   47.20    3.45 
  -8   8   8   38.32    3.20 
  -7   8   8   19.92    2.34 
  -6   8   8    7.18    1.34 
  -6   8   8    5.99    1.63 
  -5   8   8   -0.17    0.90 
  -5   8   8    1.49    1.29 
  -4   8   8   11.85    1.51 
  -4   8   8   14.16    1.79 
  -3   8   8   21.17    2.03 
  -3   8   8   15.24    1.67 
  -2   8   8   16.73    1.65 
  -2   8   8   16.12    1.77 
  -1   8   8    1.82    0.93 
  -1   8   8    0.96    1.00 
   0   8   8   31.93    2.13 
   0   8   8   33.46    2.28 
   2   8   8  264.52    8.40 
   2   8   8  262.00    8.92 
   3   8   8  260.33    8.94 
   3   8   8  263.20    8.86 
   4   8   8  177.82    6.15 
   4   8   8  172.46    6.41 
   4   8   8  183.31    6.49 
   5   8   8  104.29    4.10 
   5   8   8  108.30    4.40 
   5   8   8  102.54    4.27 
   6   8   8   74.15    3.43 
   6   8   8   71.98    3.29 
  -7  -8  -8   18.36    1.75 
   7   8   8   19.54    1.80 
   7   8   8   19.42    1.95 
  -8  -8  -8    0.87    0.87 
   8   8   8    1.10    1.11 
   8   8   8    0.57    0.90 
  -9  -8  -8   17.71    1.75 
   9   8   8   21.60    2.13 
   9   8   8   16.77    1.81 
  10   8   8    5.01    1.36 
  10   8   8   11.25    1.78 
  11   8   8    1.78    1.39 
  11   8   8    1.80    1.22 
  12   8   8    2.01    1.48 
  -8   9   8   -1.28    1.23 
  -7   9   8   -1.49    1.34 
  -7   9   8    0.33    1.07 
  -6   9   8    5.63    1.59 
  -6   9   8    5.58    1.31 
  -5   9   8    4.00    1.43 
  -5   9   8    4.34    1.28 
  -4   9   8   -0.16    1.10 
  -4   9   8   -0.19    1.02 
  -3   9   8   21.37    2.00 
  -3   9   8   25.40    2.19 
  -2   9   8   56.88    3.05 
  -2   9   8   57.55    3.14 
  -1   9   8  129.58    5.39 
  -1   9   8  141.84    5.38 
   0   9   8  216.83    7.52 
   0   9   8  207.14    7.60 
   1   9   8  242.03    8.37 
   2   9   8  263.94    9.03 
   2   9   8  267.72    9.19 
   3   9   8  146.87    5.52 
   3   9   8  150.13    5.66 
   3   9   8  142.83    5.09 
   4   9   8   23.21    1.57 
   4   9   8   22.49    1.87 
   4   9   8   25.75    1.96 
   5   9   8    9.82    1.24 
   5   9   8   11.89    1.59 
   5   9   8    7.23    1.21 
   6   9   8    0.81    1.03 
   6   9   8    1.21    0.88 
   6   9   8    0.57    0.78 
  -7  -9  -8   40.72    2.49 
   7   9   8   36.33    2.55 
   7   9   8   34.32    2.37 
  -8  -9  -8   11.51    1.52 
   8   9   8    7.36    1.49 
   8   9   8    7.30    1.37 
  -9  -9  -8    5.58    1.20 
   9   9   8    4.07    1.29 
   9   9   8    6.60    1.47 
  10   9   8   -0.14    1.13 
  10   9   8    3.20    1.39 
  11   9   8    2.64    1.46 
  11   9   8    2.19    1.28 
  12   9   8   34.17    3.19 
  -8  10   8   25.32    2.85 
  -7  10   8   10.64    1.72 
  -7  10   8   15.31    2.14 
  -6  10   8    4.32    1.48 
  -6  10   8    5.70    1.40 
  -5  10   8    6.19    1.51 
  -5  10   8    5.69    1.46 
  -4  10   8   21.66    2.17 
  -4  10   8   23.30    2.17 
  -3  10   8   80.45    3.82 
  -3  10   8   78.32    3.93 
  -2  10   8   96.48    4.33 
  -2  10   8  102.71    4.55 
  -1  10   8   93.62    4.26 
  -1  10   8   94.40    4.15 
   0  10   8  195.60    7.21 
   0  10   8  207.85    7.48 
   1  10   8   89.02    4.01 
   1  10   8   91.16    3.99 
   2  10   8   12.11    1.51 
   2  10   8   15.26    1.75 
   3  10   8    1.02    1.04 
   3  10   8    1.44    0.98 
   4  10   8   38.73    2.10 
   4  10   8   38.08    2.50 
   4  10   8   37.47    2.48 
   5  10   8   67.60    3.37 
   5  10   8   68.41    3.17 
   5  10   8   68.07    3.40 
   6  10   8   70.06    3.43 
   6  10   8   63.20    3.23 
   6  10   8   62.56    3.22 
   7  10   8   60.07    3.17 
   7  10   8   59.10    3.13 
   7  10   8   64.92    3.33 
  -8 -10  -8    6.13    1.32 
   8  10   8    5.60    1.38 
   8  10   8    5.62    1.38 
   9  10   8    0.56    1.25 
   9  10   8    1.76    1.14 
  10  10   8   14.88    2.02 
  10  10   8   18.71    2.13 
  11  10   8   35.78    2.89 
  11  10   8   28.94    2.71 
  -7  11   8    0.88    1.44 
  -7  11   8   -1.14    1.14 
  -6  11   8   12.85    2.01 
  -6  11   8    9.39    1.74 
  -5  11   8   61.61    3.55 
  -5  11   8   61.64    3.61 
  -4  11   8  106.04    4.92 
  -4  11   8  106.04    4.73 
  -3  11   8   83.29    3.97 
  -3  11   8   82.69    4.20 
  -2  11   8   76.51    3.80 
  -2  11   8   80.05    4.04 
  -1  11   8   39.99    2.75 
  -1  11   8   46.19    2.66 
   0  11   8    4.64    1.30 
   0  11   8    6.30    1.29 
   1  11   8    0.50    0.97 
   1  11   8   -0.19    0.89 
   2  11   8    9.98    1.53 
   2  11   8   12.52    1.61 
   3  11   8   15.11    1.73 
   3  11   8   11.53    1.59 
   4  11   8   39.83    2.69 
   4  11   8   44.83    2.67 
   5  11   8    3.36    1.21 
   5  11   8    3.90    1.01 
   5  11   8    2.07    1.13 
   6  11   8    0.21    0.86 
   6  11   8    1.01    1.04 
   6  11   8   -0.21    0.90 
   7  11   8   15.52    1.86 
   7  11   8   14.63    1.72 
   7  11   8   14.78    1.79 
   8  11   8   53.11    3.18 
   8  11   8   52.81    3.22 
   9  11   8   59.55    3.34 
   9  11   8   55.73    3.50 
  10  11   8   77.48    4.12 
  10  11   8   73.98    4.28 
  -7  12   8   61.60    3.83 
  -6  12   8   97.90    4.95 
  -6  12   8  106.53    4.99 
  -5  12   8   87.74    4.31 
  -5  12   8   82.68    4.45 
  -4  12   8   63.20    3.58 
  -4  12   8   64.21    3.68 
  -3  12   8   26.47    2.53 
  -3  12   8   29.46    2.45 
  -2  12   8    5.74    1.29 
  -2  12   8    6.11    1.53 
  -1  12   8   -0.34    1.06 
  -1  12   8    1.62    1.02 
   0  12   8   10.83    1.77 
   0  12   8   12.88    1.59 
   1  12   8   30.75    2.48 
   1  12   8   27.46    2.15 
   2  12   8   12.94    1.86 
   2  12   8   15.82    1.74 
   3  12   8   -0.36    1.10 
   3  12   8    1.76    1.03 
   4  12   8   27.37    2.21 
   4  12   8   25.26    2.20 
   5  12   8   73.51    3.69 
   5  12   8   80.22    3.89 
   6  12   8   92.83    4.29 
   6  12   8   92.83    4.25 
   7  12   8  110.73    5.07 
   7  12   8  112.64    4.92 
   7  12   8  119.03    4.96 
   8  12   8  107.22    4.91 
   8  12   8  111.73    5.15 
   9  12   8   81.56    4.19 
   9  12   8   81.06    4.43 
  -5  13   8   44.20    3.37 
  -5  13   8   42.03    3.32 
  -4  13   8    4.06    1.36 
  -4  13   8    2.58    1.40 
  -3  13   8    0.83    1.24 
  -3  13   8    2.17    1.13 
  -2  13   8    7.84    1.46 
  -2  13   8    8.19    1.65 
  -1  13   8    8.44    1.71 
  -1  13   8   10.24    1.54 
   0  13   8    3.10    1.46 
   0  13   8    1.53    1.05 
   1  13   8    0.86    1.31 
   1  13   8    1.03    1.04 
   2  13   8    9.67    1.77 
   2  13   8   10.99    1.60 
   3  13   8   61.30    3.29 
   3  13   8   63.94    3.58 
   4  13   8  118.21    5.23 
   4  13   8  112.59    4.81 
   5  13   8  114.19    5.16 
   5  13   8  117.31    4.95 
   6  13   8  108.37    4.83 
   6  13   8  111.09    4.97 
   7  13   8   94.84    4.47 
   7  13   8   96.30    4.42 
   8  13   8   36.33    3.20 
   8  13   8   30.65    2.68 
  -4  14   8    6.89    1.83 
  -3  14   8    5.20    1.61 
  -2  14   8    2.14    1.44 
  -1  14   8   15.30    2.09 
   0  14   8   19.33    2.43 
   1  14   8   53.93    3.51 
   2  14   8  126.11    5.80 
   3  14   8  138.25    6.04 
   4  14   8   80.83    4.29 
   5  14   8   67.80    3.83 
   6  14   8   12.92    1.93 
  -1  15   8   52.25    3.76 
   0  15   8   30.39    3.14 
   1  15   8  123.06    5.95 
   2  15   8   81.04    4.60 
   3  15   8   19.65    2.41 
  -2   8  -9    5.59    1.65 
  -3   8  -9   -0.42    1.33 
  -4   8  -9    2.39    1.61 
  -5   8  -9   -3.01    1.08 
  -6   8  -9    0.08    1.32 
  -7   8  -9    7.30    2.03 
  -2   7  -9    1.01    1.25 
  -3   7  -9   -2.39    1.12 
  -4   7  -9   -1.05    1.20 
  -5   7  -9   19.49    2.32 
  -6   7  -9   40.74    3.12 
  -7   7  -9   67.84    4.11 
  -8   7  -9   96.87    5.20 
  -9   7  -9   80.43    4.56 
  -1   6  -9    4.80    1.34 
  -2   6  -9    2.47    1.30 
  -3   6  -9    3.51    1.41 
  -4   6  -9   54.15    3.45 
  -5   6  -9   72.72    4.05 
  -6   6  -9   62.31    3.68 
  -7   6  -9   95.80    4.87 
  -8   6  -9   50.77    3.53 
  -9   6  -9   31.93    2.78 
 -10   6  -9    8.77    1.89 
  -1   5  -9   33.43    2.40 
  -2   5  -9  105.34    4.65 
  -3   5  -9   77.44    3.92 
  -4   5  -9   80.26    4.05 
  -5   5  -9   95.37    4.57 
  -6   5  -9   72.11    3.94 
  -7   5  -9   24.41    2.54 
  -8   5  -9    9.43    1.69 
  -9   5  -9   -0.16    1.02 
 -10   5  -9    4.18    1.62 
 -11   5  -9    3.68    1.67 
   0   4  -9   78.27    3.55 
  -1   4  -9  149.95    5.77 
  -2   4  -9  128.47    5.22 
  -3   4  -9  136.67    5.53 
  -4   4  -9   68.53    3.49 
  -5   4  -9   13.85    1.79 
  -6   4  -9   -0.84    1.13 
  -7   4  -9    4.66    1.33 
  -8   4  -9    6.34    1.41 
  -9   4  -9    4.95    1.47 
 -10   4  -9    1.54    1.40 
 -11   4  -9   -0.31    1.26 
 -12   4  -9   12.67    2.03 
  12  -4   9   16.41    2.42 
   0   3  -9   81.80    3.60 
  -1   3  -9   99.88    4.20 
  -2   3  -9   11.33    1.50 
  -3   3  -9   23.19    2.14 
  -4   3  -9    1.94    1.14 
  -5   3  -9   20.93    2.07 
  -6   3  -9   20.49    2.04 
  -7   3  -9   27.00    2.22 
  -8   3  -9    7.86    1.54 
  -9   3  -9   -0.22    1.03 
 -10   3  -9   16.05    2.04 
 -11   3  -9   34.08    2.78 
  11  -3   9   33.02    2.99 
 -12   3  -9   50.77    3.28 
  12  -3   9   56.65    3.59 
 -13   3  -9   86.00    4.48 
  13  -3   9   84.99    4.79 
  -6  -2   9    6.05    1.76 
  -5  -2   9   29.47    2.56 
  -4  -2   9   88.58    4.20 
  -3  -2   9   85.59    4.00 
  -2  -2   9  133.71    5.18 
   1   2  -9  113.56    4.42 
  -1  -2   9  116.55    4.50 
   0   2  -9   31.42    2.08 
   0  -2   9   27.03    1.99 
  -1   2  -9   22.05    1.91 
   1  -2   9   18.41    1.59 
  -2   2  -9    1.41    0.96 
   2  -2   9    0.99    0.74 
  -3   2  -9    1.10    1.08 
   3  -2   9   -0.05    0.67 
  -4   2  -9    6.65    1.32 
   4  -2   9    6.26    0.87 
  -5   2  -9    9.94    1.54 
   5  -2   9   11.20    1.06 
  -6   2  -9   -0.58    0.92 
   6  -2   9    0.64    0.64 
  -7   2  -9   17.70    1.95 
  -8   2  -9   75.03    3.68 
  -9   2  -9   96.31    4.48 
 -10   2  -9   78.89    3.90 
 -11   2  -9  119.41    5.25 
  11  -2   9  119.37    5.45 
 -12   2  -9   56.65    3.44 
  12  -2   9   58.96    3.77 
 -13   2  -9   37.42    2.97 
  13  -2   9   41.30    3.36 
  -7  -1   9   28.50    2.76 
  -6  -1   9   50.17    3.44 
  -5  -1   9   64.58    3.69 
  -4  -1   9  113.39    4.99 
  -3  -1   9   58.81    3.21 
  -2  -1   9   39.67    2.54 
   1   1  -9    2.60    0.87 
  -1  -1   9    4.27    1.16 
   0   1  -9    9.33    1.25 
   0  -1   9   10.47    1.32 
  -1   1  -9    1.56    0.96 
   1  -1   9    2.86    0.90 
  -2   1  -9    2.08    1.02 
   2  -1   9    3.52    0.89 
  -3   1  -9    4.90    1.16 
   3  -1   9    4.71    0.92 
  -4   1  -9    2.07    1.07 
   4  -1   9    0.83    0.72 
  -5   1  -9   42.24    2.58 
   5  -1   9   38.85    1.99 
  -6   1  -9   92.16    4.09 
   6  -1   9   92.08    3.49 
  -7   1  -9  166.46    6.39 
   7  -1   9  173.10    5.82 
  -8   1  -9  149.41    5.89 
   8  -1   9  146.45    5.24 
  -9   1  -9  143.42    5.83 
   9  -1   9  149.57    5.34 
 -10   1  -9  129.95    5.46 
  10  -1   9  136.53    5.69 
  10  -1   9  136.77    5.12 
 -11   1  -9   38.63    2.46 
 -11   1  -9   34.74    2.72 
  11  -1   9   39.55    2.88 
 -12   1  -9    2.99    1.33 
 -12   1  -9    5.67    1.31 
  12  -1   9    3.16    1.46 
 -13   1  -9    1.58    1.32 
 -13   1  -9    2.73    1.24 
  13  -1   9    4.47    1.69 
  -7   0   9   60.23    3.86 
  -6   0   9   47.90    3.39 
  -5   0   9   39.12    3.00 
  -4   0   9   13.82    1.85 
  -3   0   9    0.20    1.17 
   2   0  -9    6.51    0.98 
  -2   0   9    7.37    1.42 
   1   0  -9   31.83    1.93 
  -1   0   9   28.49    2.23 
   0   0  -9   27.25    1.84 
   0   0   9   27.14    2.03 
  -1   0  -9   25.73    1.86 
   1   0   9   24.87    1.78 
  -2   0  -9    2.91    0.89 
   2   0   9    1.60    0.83 
  -3   0  -9   34.15    2.21 
   3   0   9   35.32    1.97 
  -4   0  -9  105.32    4.25 
   4   0   9   97.91    3.76 
  -5   0  -9  164.22    6.22 
   5   0   9  170.92    5.74 
  -6   0  -9  142.17    6.04 
   6   0   9  187.00    5.78 
  -7   0  -9  141.24    5.53 
   7   0   9  138.78    4.99 
  -8   0  -9   79.91    3.71 
   8   0   9   79.95    3.37 
  -9   0  -9   42.70    2.77 
   9   0   9   44.82    2.41 
   9   0   9   47.45    2.77 
 -10   0  -9    7.63    1.46 
  10   0   9    7.19    1.26 
  10   0   9   10.03    1.52 
 -11   0  -9    5.68    1.39 
  11   0   9    5.19    1.27 
 -12   0  -9    3.17    1.17 
 -12   0  -9    2.48    1.27 
  12   0   9    4.11    1.41 
 -13   0  -9    3.64    1.37 
 -13   0  -9    5.95    1.37 
  13   0   9    4.30    1.57 
 -14   0  -9   -0.11    1.27 
 -14   0  -9    1.55    1.29 
  14   0   9    1.01    1.53 
  -8   1   9   48.30    3.73 
  -7   1   9   23.10    2.64 
  -6   1   9   15.58    2.02 
  -5   1   9    7.70    1.73 
  -4   1   9    8.19    1.61 
  -3   1   9   24.17    2.19 
   2  -1  -9    3.62    0.85 
  -2   1   9    2.54    1.26 
   1  -1  -9    0.26    0.68 
  -1   1   9    0.52    0.98 
   0  -1  -9    7.23    1.11 
   0   1   9    5.12    1.16 
  -1  -1  -9   29.08    1.81 
   1   1   9   27.02    1.88 
  -2  -1  -9   72.59    3.23 
   2   1   9   71.70    3.09 
  -3  -1  -9  199.73    6.93 
   3   1   9  191.74    6.62 
  -4  -1  -9  214.45    7.33 
   4   1   9  202.33    6.93 
  -7  -1  -9   42.50    2.49 
   7   1   9   41.32    2.31 
  -8  -1  -9   16.58    1.78 
   8   1   9   18.28    1.60 
   8   1   9   14.08    1.63 
  -9  -1  -9   -0.35    0.96 
   9   1   9    0.31    0.92 
   9   1   9    0.60    0.94 
 -10  -1  -9   11.62    1.63 
  10   1   9   10.13    1.53 
  10   1   9   12.76    1.57 
 -11  -1  -9    8.63    1.54 
  11   1   9    7.78    1.48 
  11   1   9    7.17    1.40 
 -12  -1  -9   -0.53    1.07 
 -12  -1  -9    1.05    1.11 
  12   1   9    3.02    1.24 
 -13  -1  -9    3.62    1.33 
 -13  -1  -9    5.65    1.48 
  13   1   9    5.43    1.57 
 -14  -1  -9    8.96    1.84 
  14   1   9    8.71    1.75 
  -8   2   9    1.72    1.76 
  -7   2   9    1.12    1.54 
  -6   2   9   12.40    2.06 
  -5   2   9   33.91    2.67 
  -4   2   9    7.15    1.52 
   3  -2  -9   -0.18    0.58 
  -3   2   9   -0.46    1.15 
   2  -2  -9    3.87    0.87 
  -2   2   9    4.38    1.33 
   1  -2  -9   81.18    3.39 
  -1   2   9   84.49    3.68 
   0  -2  -9  133.28    4.83 
   0   2   9  122.89    4.80 
  -1  -2  -9  151.00    5.49 
   1   2   9  148.69    5.43 
  -2  -2  -9  199.13    7.00 
   2   2   9  201.17    6.86 
  -3  -2  -9  159.92    5.95 
   3   2   9  166.01    5.75 
  -4  -2  -9   84.09    3.61 
   4   2   9   80.27    3.32 
  -6  -2  -9    2.55    0.96 
   6   2   9    5.33    1.04 
  -7  -2  -9   -0.17    0.78 
   7   2   9    0.53    0.86 
   7   2   9    0.72    0.95 
  -8  -2  -9    1.05    1.01 
   8   2   9    0.64    1.00 
   8   2   9    0.28    0.93 
  -9  -2  -9   -0.55    0.85 
   9   2   9    0.82    0.95 
   9   2   9   -0.23    0.99 
 -10  -2  -9    7.36    1.40 
  10   2   9    9.38    1.53 
  10   2   9    9.88    1.45 
 -11  -2  -9   13.15    1.60 
  11   2   9   11.89    1.52 
  11   2   9   14.74    1.88 
 -12  -2  -9   40.82    2.70 
  12   2   9   38.86    2.82 
 -13  -2  -9   67.14    3.49 
 -13  -2  -9   73.24    3.84 
  13   2   9   61.95    3.80 
 -14  -2  -9  100.95    4.88 
  14   2   9   94.34    4.99 
  -8   3   9   -0.57    1.71 
  -7   3   9   12.74    2.01 
  -6   3   9    1.85    1.55 
  -5   3   9    6.77    1.67 
  -4   3   9    4.02    1.50 
   3  -3  -9   70.07    2.95 
  -3   3   9   66.77    3.43 
   2  -3  -9  149.68    5.49 
  -2   3   9  158.61    5.84 
   1  -3  -9  183.69    6.53 
  -1   3   9  193.06    6.77 
   0  -3  -9  230.82    8.00 
   0   3   9  242.30    8.09 
  -1  -3  -9  137.00    5.14 
   1   3   9  140.78    5.19 
  -2  -3  -9   55.41    2.66 
   2   3   9   56.63    2.75 
  -3  -3  -9   10.88    1.28 
   3   3   9   11.42    1.32 
  -4  -3  -9    0.84    0.52 
   4   3   9    0.67    0.82 
  -6  -3  -9   15.26    1.60 
   6   3   9   15.42    1.47 
   6   3   9   17.14    1.53 
  -7  -3  -9   26.75    1.99 
   7   3   9   29.05    1.90 
   7   3   9   27.07    1.86 
  -8  -3  -9    9.64    1.40 
   8   3   9   10.18    1.39 
   8   3   9    9.82    1.32 
  -9  -3  -9   64.37    3.32 
   9   3   9   67.35    3.37 
   9   3   9   69.01    3.28 
 -10  -3  -9    6.00    1.31 
  10   3   9    6.17    1.28 
  10   3   9    6.70    1.40 
 -11  -3  -9   69.57    3.48 
  11   3   9   66.04    3.69 
  11   3   9   71.14    3.46 
 -12  -3  -9  126.20    5.16 
  12   3   9  128.27    5.68 
  12   3   9  121.87    5.31 
 -13  -3  -9   76.27    4.12 
  13   3   9   75.31    4.17 
 -14  -3  -9   54.42    3.59 
  14   3   9   49.40    3.59 
  -8   4   9   -0.53    1.50 
  -7   4   9    1.61    1.54 
  -6   4   9   24.45    2.59 
  -5   4   9   59.81    3.57 
   4  -4  -9   93.64    3.67 
  -4   4   9   89.23    4.31 
   3  -4  -9  137.70    5.10 
  -3   4   9  142.99    5.61 
   2  -4  -9  115.92    4.39 
  -2   4   9  113.86    4.76 
   1  -4  -9   78.02    3.30 
  -1   4   9   78.23    3.61 
   0  -4  -9   73.53    3.17 
   0   4   9   73.44    3.37 
  -1  -4  -9    1.70    0.80 
   1   4   9    1.39    0.98 
  -2  -4  -9    0.17    0.76 
   2   4   9    2.48    0.91 
  -3  -4  -9   24.99    1.83 
   3   4   9   24.50    1.90 
   4   4   9   14.36    1.39 
   5   4   9   58.03    2.87 
   5   4   9   59.50    2.63 
  -6  -4  -9   -0.12    0.78 
   6   4   9   -1.17    0.85 
   6   4   9    1.11    0.74 
  -7  -4  -9   35.95    2.29 
   7   4   9   32.99    2.23 
   7   4   9   32.00    2.08 
  -8  -4  -9   65.80    3.17 
   8   4   9   60.18    3.08 
   8   4   9   62.21    3.14 
  -9  -4  -9   50.97    2.87 
   9   4   9   52.01    2.91 
   9   4   9   49.70    2.87 
 -10  -4  -9   36.75    2.39 
  10   4   9   32.06    2.48 
  10   4   9   35.39    2.57 
 -11  -4  -9  131.65    5.31 
  11   4   9  131.71    5.66 
  11   4   9  135.98    5.41 
 -12  -4  -9   56.30    3.23 
  12   4   9   61.06    3.66 
  12   4   9   59.17    3.45 
 -13  -4  -9   11.09    1.97 
  13   4   9   11.01    1.97 
 -14  -4  -9    0.87    1.38 
  14   4   9    0.61    1.45 
  -8   5   9   27.94    2.81 
  -7   5   9   49.38    3.29 
  -6   5   9   78.76    4.05 
  -5   5   9  144.00    5.83 
  -4   5   9   98.12    4.57 
  -4   5   9  108.41    4.15 
  -3   5   9   56.79    2.69 
  -3   5   9   53.11    3.11 
  -2   5   9    9.24    1.23 
  -2   5   9    9.03    1.50 
  -1   5   9    0.20    0.80 
  -1   5   9   -1.07    0.80 
   0   5   9    5.05    1.10 
  -1  -5  -9   36.12    2.08 
   1   5   9   25.41    2.08 
  -2  -5  -9    3.30    0.90 
   2   5   9    3.18    0.94 
  -3  -5  -9    0.30    0.54 
   3   5   9    1.40    0.56 
   3   5   9   -0.05    0.80 
   4   5   9    4.27    0.76 
   4   5   9    4.36    0.99 
  -5  -5  -9   30.31    2.10 
   5   5   9   25.91    2.05 
   5   5   9   26.40    1.64 
  -6  -5  -9  147.20    5.58 
   6   5   9  143.76    5.32 
   6   5   9  147.23    5.50 
  -7  -5  -9  202.02    7.36 
   7   5   9  203.27    7.23 
   7   5   9  208.03    7.24 
  -8  -5  -9  246.72    8.55 
   8   5   9  233.63    8.45 
   8   5   9  241.62    8.36 
  -9  -5  -9  128.31    5.29 
   9   5   9  132.57    5.40 
   9   5   9  137.05    5.33 
 -10  -5  -9   74.77    3.59 
  10   5   9   79.70    3.89 
  10   5   9   75.53    3.76 
 -11  -5  -9   36.00    2.51 
  11   5   9   38.40    2.82 
  11   5   9   42.65    2.77 
  12   5   9    0.89    1.21 
  12   5   9    2.20    1.38 
  13   5   9    0.72    1.23 
  -8   6   9   58.60    3.90 
  -7   6   9   60.48    3.79 
  -6   6   9   35.41    2.71 
  -5   6   9   56.39    2.76 
  -5   6   9   54.33    3.33 
  -4   6   9    5.03    1.28 
  -4   6   9    4.94    1.07 
  -3   6   9    9.09    1.23 
  -3   6   9    9.86    1.47 
  -2   6   9   38.02    2.20 
  -2   6   9   35.53    2.45 
  -1   6   9   51.90    2.63 
   1   6   9    5.86    0.57 
   1   6   9    6.56    1.09 
   2   6   9    3.66    0.56 
   2   6   9    2.90    0.95 
  -3  -6  -9    0.59    0.37 
   3   6   9   -0.25    0.34 
   3   6   9    0.16    0.38 
  -5  -6  -9  137.98    5.28 
   5   6   9  133.53    4.89 
  -6  -6  -9  189.62    6.77 
   6   6   9  180.53    6.51 
  -7  -6  -9  107.69    4.64 
   7   6   9  115.27    4.53 
   7   6   9  111.88    4.54 
  -8  -6  -9   77.18    3.61 
   8   6   9   73.93    3.44 
   8   6   9   70.14    3.44 
  -9  -6  -9   33.50    2.34 
   9   6   9   29.82    2.17 
   9   6   9   30.97    2.34 
 -10  -6  -9    4.64    1.21 
  10   6   9    4.00    1.25 
  10   6   9    4.13    1.33 
 -11  -6  -9    0.47    0.96 
  11   6   9   -0.12    1.13 
  11   6   9    1.82    1.21 
  12   6   9    2.55    1.30 
  12   6   9    1.50    1.38 
  13   6   9    4.26    1.72 
  -8   7   9   29.31    3.02 
  -7   7   9    9.84    1.83 
  -6   7   9    9.33    1.91 
  -5   7   9   -0.08    1.19 
  -5   7   9    1.59    0.94 
  -4   7   9   21.13    1.91 
  -4   7   9   19.68    2.04 
  -3   7   9   22.24    2.11 
  -3   7   9   24.79    1.94 
  -2   7   9   11.84    1.57 
  -2   7   9   10.81    1.32 
  -1   7   9   -0.03    0.90 
  -1   7   9    0.89    0.91 
   0   7   9   12.64    1.50 
   0   7   9   11.16    1.54 
   1   7   9   37.64    2.17 
   1   7   9   34.89    2.37 
   2   7   9  134.98    4.26 
   2   7   9  113.69    4.88 
   4   7   9  151.60    5.26 
  -5  -7  -9  113.97    4.56 
   5   7   9   96.10    4.30 
   5   7   9  115.50    4.17 
  -6  -7  -9   45.83    2.65 
   6   7   9   42.36    2.28 
   6   7   9   37.58    2.53 
  -7  -7  -9    9.12    1.41 
   7   7   9    8.00    1.39 
   7   7   9    8.48    1.24 
  -8  -7  -9   -0.48    0.94 
   8   7   9    0.37    0.91 
   8   7   9    1.30    0.90 
  -9  -7  -9   10.98    1.53 
   9   7   9    8.81    1.43 
   9   7   9    9.40    1.55 
 -10  -7  -9   13.39    1.69 
  10   7   9   13.03    1.76 
  10   7   9   11.40    1.66 
  11   7   9    2.17    1.32 
  11   7   9    0.86    1.26 
  12   7   9    2.10    1.48 
  12   7   9   -0.82    1.28 
  13   7   9    7.99    1.95 
  -8   8   9   -3.01    1.39 
  -7   8   9    1.61    1.35 
  -6   8   9    2.52    1.11 
  -6   8   9    1.21    1.45 
  -5   8   9    1.22    1.05 
  -5   8   9    2.11    1.45 
  -4   8   9    1.60    1.26 
  -4   8   9   -0.23    0.95 
  -3   8   9    3.18    1.07 
  -3   8   9    4.60    1.27 
  -2   8   9   45.02    2.64 
  -2   8   9   46.57    2.75 
  -1   8   9  108.12    4.48 
  -1   8   9  102.17    4.32 
   0   8   9  147.74    5.63 
   0   8   9  138.49    5.49 
   1   8   9  158.26    5.81 
   1   8   9  145.32    5.67 
   2   8   9  349.55   11.58 
   3   8   9   84.69    3.67 
   4   8   9   42.70    2.61 
   4   8   9   35.90    2.31 
   4   8   9   43.73    2.05 
   5   8   9    7.44    1.38 
   5   8   9    7.92    1.07 
  -6  -8  -9   -0.98    0.88 
   6   8   9   -0.04    0.70 
   6   8   9   -0.21    1.05 
  -7  -8  -9   -0.22    0.83 
   7   8   9   -0.31    0.80 
   7   8   9   -0.85    0.90 
  -8  -8  -9   18.83    1.87 
   8   8   9   17.18    1.93 
   8   8   9   18.94    1.89 
  -9  -8  -9   16.84    1.85 
   9   8   9   17.42    1.96 
   9   8   9   16.28    1.95 
 -10  -8  -9    2.99    1.11 
  10   8   9    2.44    1.24 
  10   8   9    3.30    1.44 
  11   8   9   18.82    2.19 
  11   8   9   13.30    1.95 
  12   8   9   24.57    2.61 
  12   8   9   24.38    2.52 
  -8   9   9   15.40    2.37 
  -7   9   9    4.35    1.75 
  -6   9   9    3.41    1.20 
  -6   9   9    1.30    1.53 
  -5   9   9    0.35    1.03 
  -5   9   9    3.05    1.49 
  -4   9   9   25.94    2.33 
  -4   9   9   25.76    2.07 
  -3   9   9  103.79    4.73 
  -3   9   9  109.09    4.62 
  -2   9   9  147.45    5.86 
  -2   9   9  148.83    5.83 
  -1   9   9  121.45    5.09 
  -1   9   9  125.41    5.10 
   0   9   9   90.55    3.97 
   0   9   9   87.13    4.02 
   1   9   9   33.21    2.26 
   1   9   9   32.62    2.21 
   2   9   9   47.74    2.80 
   2   9   9   48.49    2.63 
   3   9   9   13.38    1.68 
   3   9   9   11.60    1.58 
   4   9   9   27.01    2.08 
   4   9   9   25.49    1.96 
   4   9   9   25.94    1.61 
   5   9   9   22.05    1.60 
   5   9   9   19.29    1.85 
   5   9   9   22.83    2.01 
   6   9   9   32.80    2.53 
   6   9   9   40.00    2.23 
  -7  -9  -9   23.43    2.14 
   7   9   9   20.13    2.09 
   7   9   9   19.09    1.83 
  -8  -9  -9    2.00    1.04 
   8   9   9   -0.47    0.87 
   8   9   9    0.61    1.06 
  -9  -9  -9    9.29    1.56 
   9   9   9   10.78    1.57 
   9   9   9   11.56    1.80 
 -10  -9  -9   44.14    2.82 
  10   9   9   40.92    2.99 
  10   9   9   42.61    3.06 
  11   9   9   63.68    3.83 
  11   9   9   61.25    3.74 
  12   9   9   94.24    5.05 
  12   9   9   94.39    4.85 
  -7  10   9    8.48    1.97 
  -6  10   9   27.30    2.36 
  -6  10   9   29.61    2.80 
  -5  10   9   72.62    3.72 
  -5  10   9   78.68    4.14 
  -4  10   9   96.96    4.58 
  -4  10   9   93.50    4.32 
  -3  10   9  178.01    6.90 
  -3  10   9  180.03    6.91 
  -2  10   9   79.15    3.94 
  -2  10   9   82.00    3.98 
  -1  10   9   60.37    3.31 
  -1  10   9   59.25    3.31 
   0  10   9   65.55    3.31 
   0  10   9   61.98    3.30 
   1  10   9    0.26    1.00 
   1  10   9    1.33    0.91 
   2  10   9   18.09    1.85 
   2  10   9   21.20    1.98 
   3  10   9   19.83    1.88 
   3  10   9   16.74    1.76 
   4  10   9   19.46    1.88 
   4  10   9   19.39    1.97 
   5  10   9    0.35    0.68 
   5  10   9   -0.08    0.98 
   5  10   9    0.54    1.08 
   6  10   9    6.15    1.12 
   6  10   9    5.18    1.36 
   6  10   9    6.57    1.37 
   7  10   9   16.48    1.85 
   7  10   9   16.98    1.81 
  -8 -10  -9   55.63    3.13 
   8  10   9   50.02    3.07 
   8  10   9   54.65    3.21 
  -9 -10  -9   64.99    3.44 
   9  10   9   62.46    3.48 
   9  10   9   68.02    3.68 
  10  10   9  100.24    4.97 
  10  10   9  105.81    4.90 
  11  10   9   86.40    4.48 
  11  10   9   84.28    4.64 
  -7  11   9   50.98    3.35 
  -7  11   9   55.14    3.78 
  -6  11   9   59.10    3.79 
  -6  11   9   57.85    3.47 
  -5  11   9   83.03    4.31 
  -5  11   9   78.06    4.14 
  -4  11   9   53.85    3.30 
  -4  11   9   46.62    3.16 
  -3  11   9   23.40    2.31 
  -3  11   9   26.06    2.40 
  -2  11   9    1.24    1.16 
  -2  11   9    1.92    1.31 
  -1  11   9    4.14    1.22 
  -1  11   9    4.37    1.30 
   0  11   9   30.80    2.39 
   0  11   9   31.79    2.36 
   1  11   9    5.73    1.34 
   1  11   9    5.96    1.28 
   2  11   9    2.74    1.16 
   2  11   9    3.55    1.27 
   3  11   9    7.18    1.37 
   3  11   9    4.18    1.24 
   4  11   9    3.28    1.20 
   4  11   9    2.63    1.19 
   5  11   9   52.06    3.16 
   5  11   9   62.95    3.26 
   6  11   9   94.57    4.20 
   6  11   9   94.27    4.13 
   6  11   9   88.77    4.21 
   7  11   9  109.67    4.80 
   7  11   9  109.37    4.82 
   7  11   9  111.59    4.86 
  -8 -11  -9   90.00    4.22 
   8  11   9   82.41    4.19 
   8  11   9   86.32    4.24 
   9  11   9   58.11    3.44 
   9  11   9   50.53    3.32 
  10  11   9   34.96    2.98 
  10  11   9   36.43    2.98 
  -6  12   9   38.07    3.26 
  -6  12   9   36.90    3.03 
  -5  12   9    7.89    1.73 
  -5  12   9    6.11    1.66 
  -4  12   9   -0.89    1.18 
  -4  12   9    1.90    1.33 
  -3  12   9    8.99    1.79 
  -3  12   9    9.70    1.72 
  -2  12   9   24.25    2.41 
  -2  12   9   25.75    2.37 
  -1  12   9   26.07    2.31 
  -1  12   9   26.42    2.59 
   0  12   9   20.49    2.20 
   0  12   9   22.35    2.18 
   1  12   9    1.51    1.10 
   1  12   9    2.55    1.08 
   2  12   9    2.36    1.16 
   2  12   9    1.60    1.13 
   3  12   9   40.40    2.71 
   3  12   9   36.39    2.62 
   4  12   9  121.63    5.11 
   4  12   9  110.86    4.92 
   5  12   9  116.97    5.12 
   5  12   9  115.34    4.99 
   6  12   9  115.48    4.99 
   6  12   9  110.58    4.93 
   7  12   9   49.74    3.09 
   7  12   9   52.84    3.20 
   8  12   9   24.02    2.40 
   8  12   9   28.54    2.48 
   9  12   9    4.46    1.58 
   9  12   9    6.26    1.62 
  -5  13   9    0.75    1.29 
  -5  13   9   -1.44    1.28 
  -4  13   9   12.07    1.97 
  -4  13   9   12.38    1.94 
  -3  13   9   14.19    1.95 
  -3  13   9   17.25    2.17 
  -2  13   9    4.23    1.32 
  -2  13   9    5.16    1.66 
  -1  13   9    0.54    1.14 
  -1  13   9   -0.76    1.05 
   0  13   9   27.05    2.40 
   0  13   9   25.54    2.48 
   1  13   9   44.55    3.17 
   1  13   9   44.16    2.81 
   2  13   9   65.44    3.70 
   2  13   9   64.65    3.53 
   3  13   9   98.28    4.78 
   3  13   9  108.14    4.66 
   4  13   9   84.89    4.15 
   4  13   9   90.88    4.44 
   5  13   9   41.90    2.76 
   5  13   9   35.14    2.80 
   6  13   9   24.41    2.35 
   6  13   9   24.55    2.31 
   7  13   9    1.66    1.23 
   7  13   9    3.06    1.36 
   8  13   9   -1.29    1.13 
  -3  14   9    0.63    1.37 
  -2  14   9   28.18    2.82 
  -1  14   9   73.52    4.13 
  -1  14   9   72.80    4.15 
   0  14   9   81.18    4.07 
   0  14   9   82.90    4.39 
   1  14   9  114.11    5.01 
   1  14   9  117.44    5.53 
   2  14   9  103.57    5.06 
   2  14   9   96.33    4.55 
   3  14   9   41.20    3.14 
   3  14   9   39.47    2.85 
   4  14   9    9.63    1.80 
   4  14   9    9.26    1.65 
   5  14   9   -0.45    1.15 
   5  14   9    0.17    1.19 
   6  14   9   10.24    1.72 
   6  14   9   10.51    1.71 
  -1  15   9  100.93    5.26 
   0  15   9   63.02    4.12 
   1  15   9  102.92    5.18 
   2  15   9    7.37    1.84 
   3  15   9   -0.30    1.20 
  -3   7 -10   12.69    1.97 
  -4   7 -10   34.11    2.99 
  -5   7 -10   71.62    4.30 
  -6   7 -10   62.30    4.11 
  -7   7 -10   53.82    3.93 
  -2   6 -10   45.93    3.10 
  -3   6 -10   72.91    4.01 
  -4   6 -10  110.40    5.25 
  -5   6 -10   68.31    4.04 
  -6   6 -10   25.30    2.78 
  -7   6 -10   15.99    2.27 
  -8   6 -10   -0.54    1.43 
  -9   6 -10    1.88    1.38 
  -1   5 -10  100.47    4.57 
  -2   5 -10  117.04    5.14 
  -3   5 -10   24.05    2.33 
  -4   5 -10   25.59    2.49 
  -5   5 -10   13.27    2.03 
  -6   5 -10   -0.09    1.27 
  -7   5 -10   10.14    1.83 
  -8   5 -10   14.60    2.08 
  -9   5 -10   11.18    1.92 
 -10   5 -10    0.10    1.18 
 -11   5 -10   -1.24    1.23 
  -1   4 -10   67.72    3.41 
  -2   4 -10   21.23    2.06 
  -3   4 -10    8.56    1.57 
  -4   4 -10    0.07    1.16 
  -5   4 -10    8.96    1.58 
  -6   4 -10    9.64    1.79 
  -7   4 -10   25.67    2.52 
  -8   4 -10    0.17    1.18 
  -9   4 -10   11.14    1.87 
 -10   4 -10   25.38    2.57 
 -11   4 -10   34.70    3.11 
   0   3 -10   39.07    2.39 
  -1   3 -10   13.39    1.67 
  -2   3 -10    6.59    1.37 
  -3   3 -10   -0.64    1.03 
  -4   3 -10    0.85    1.04 
  -5   3 -10    0.96    1.13 
  -6   3 -10    3.54    1.26 
  -7   3 -10    6.68    1.50 
  -8   3 -10   72.17    3.78 
  -9   3 -10   89.64    4.37 
 -10   3 -10  101.35    4.79 
 -11   3 -10   69.59    3.86 
 -12   3 -10   70.02    4.05 
  12  -3  10   82.40    4.43 
   0   2 -10    0.00    0.82 
  -1   2 -10    2.31    1.06 
  -2   2 -10   38.05    2.50 
  -3   2 -10    2.69    1.07 
  -4   2 -10    2.65    1.15 
  -5   2 -10   24.15    2.12 
  -6   2 -10   73.24    3.78 
  -7   2 -10  120.96    5.21 
  -8   2 -10  174.03    6.83 
  -9   2 -10   76.44    3.90 
 -10   2 -10   46.18    3.16 
 -11   2 -10   22.47    2.36 
  11  -2  10   22.55    2.35 
 -12   2 -10    2.93    1.47 
  12  -2  10   -0.05    1.22 
 -13   2 -10   -1.21    1.29 
  13  -2  10   -1.55    1.39 
  -6  -1  10   29.18    2.91 
  -5  -1  10   14.38    2.09 
  -4  -1  10    6.17    1.63 
  -3  -1  10    0.80    1.25 
  -2  -1  10    0.33    1.22 
   1   1 -10   26.66    1.78 
  -1  -1  10   22.62    2.00 
   0   1 -10   17.72    1.62 
   0  -1  10   14.56    1.60 
  -1   1 -10   -0.26    0.87 
   1  -1  10    0.06    0.88 
  -2   1 -10    0.68    0.94 
   2  -1  10   -0.36    0.79 
  -3   1 -10   37.63    2.49 
   3  -1  10   37.19    2.12 
  -4   1 -10   82.11    3.73 
   4  -1  10   73.75    3.12 
  -5   1 -10  141.97    5.50 
   5  -1  10  134.59    4.87 
  -6   1 -10  179.72    6.72 
   6  -1  10  175.81    6.04 
  -7   1 -10  131.88    5.30 
   7  -1  10  125.67    4.66 
  -8   1 -10   51.94    3.15 
   8  -1  10   49.88    2.48 
  -9   1 -10   28.00    2.52 
   9  -1  10   24.59    1.85 
 -10   1 -10    2.49    1.20 
  10  -1  10    3.01    1.01 
 -11   1 -10   12.65    1.90 
  11  -1  10    8.79    1.63 
 -12   1 -10   10.94    1.73 
 -12   1 -10   12.50    1.72 
  12  -1  10   11.24    1.95 
 -13   1 -10    6.29    1.64 
  13  -1  10   12.22    1.98 
  -6   0  10   -0.56    1.44 
  -5   0  10    0.71    1.50 
  -4   0  10   11.14    1.83 
  -3   0  10   28.94    2.52 
  -2   0  10   22.40    2.14 
   1   0 -10    6.82    1.08 
  -1   0  10    4.15    1.27 
   0   0 -10   10.27    1.32 
   0   0  10    8.62    1.36 
  -1   0 -10   18.17    1.65 
   1   0  10   17.61    1.65 
  -2   0 -10   69.13    3.33 
   2   0  10   73.86    3.21 
  -3   0 -10  181.21    6.39 
   3   0  10  160.41    5.91 
  -4   0 -10  120.05    4.75 
   4   0  10  112.26    4.31 
  -5   0 -10  132.00    5.30 
   5   0  10  129.49    4.75 
  -6   0 -10   71.07    3.58 
   6   0  10   68.50    3.02 
  -7   0 -10   10.27    1.48 
   7   0  10   12.26    1.32 
  -8   0 -10    0.50    1.01 
   8   0  10   -0.29    0.82 
  -9   0 -10    7.01    1.36 
   9   0  10    6.05    1.19 
 -10   0 -10   12.89    1.83 
  10   0  10   15.05    1.97 
  10   0  10   15.28    1.61 
 -11   0 -10   25.26    2.42 
  11   0  10   29.43    2.57 
  11   0  10   24.90    2.23 
 -12   0 -10    3.57    1.19 
 -12   0 -10    2.61    1.35 
  12   0  10    2.02    1.25 
 -13   0 -10   -0.47    1.06 
 -13   0 -10    0.16    1.24 
  13   0  10    1.51    1.40 
  -7   1  10   -0.81    1.57 
  -6   1  10   -2.77    1.50 
  -5   1  10    1.10    1.49 
  -4   1  10   13.96    1.96 
  -3   1  10    0.63    1.23 
   2  -1 -10   21.41    1.58 
  -2   1  10   18.01    2.00 
   1  -1 -10   71.09    3.11 
  -1   1  10   68.47    3.42 
   0  -1 -10  154.96    5.63 
   0   1  10  151.95    5.72 
  -1  -1 -10  177.33    6.37 
   1   1  10  175.29    6.34 
  -2  -1 -10  175.49    6.26 
   2   1  10  165.19    6.03 
  -3  -1 -10  146.20    5.47 
   3   1  10  139.80    5.19 
  -4  -1 -10   78.45    3.56 
   4   1  10   74.34    3.24 
  -5  -1 -10   31.52    2.18 
   5   1  10   31.93    1.95 
  -6  -1 -10   -0.21    0.94 
   6   1  10    0.91    0.85 
  -7  -1 -10   -0.05    0.87 
   7   1  10    0.97    0.87 
  -8  -1 -10    4.56    1.22 
   8   1  10    5.22    1.09 
  -9  -1 -10   10.22    1.55 
   9   1  10    9.03    1.48 
   9   1  10   11.49    1.39 
 -10  -1 -10   -0.24    0.94 
  10   1  10   -0.34    0.90 
  10   1  10    0.24    1.13 
 -11  -1 -10    2.81    1.20 
  11   1  10    3.42    1.26 
  11   1  10    4.30    1.26 
 -12  -1 -10   39.53    2.82 
  12   1  10   35.06    2.76 
 -13  -1 -10   50.59    3.13 
 -13  -1 -10   50.88    3.16 
  13   1  10   45.49    3.22 
 -14  -1 -10   50.46    3.33 
 -14  -1 -10   53.10    3.41 
  -7   2  10    0.31    1.53 
  -6   2  10   -0.17    1.57 
  -5   2  10    7.29    1.75 
  -4   2  10   49.24    3.29 
  -3   2  10  103.57    4.70 
   2  -2 -10  155.00    5.53 
  -2   2  10  147.98    5.84 
   1  -2 -10  283.10    9.49 
  -1   2  10  283.63    9.65 
   0  -2 -10  234.28    7.98 
   0   2  10  226.72    7.99 
  -1  -2 -10  223.90    7.78 
   1   2  10  221.44    7.70 
  -2  -2 -10  108.28    4.49 
   2   2  10  116.04    4.45 
  -3  -2 -10   36.74    2.34 
   3   2  10   37.81    2.22 
  -4  -2 -10    0.88    0.83 
   4   2  10    0.29    0.81 
  -5  -2 -10    7.38    1.26 
   5   2  10    5.60    1.05 
  -6  -2 -10   16.51    1.72 
   6   2  10   14.52    1.45 
  -7  -2 -10    1.17    1.06 
   7   2  10   -0.44    0.85 
  -8  -2 -10    7.68    1.36 
   8   2  10    8.35    1.34 
   8   2  10    5.71    1.21 
  -9  -2 -10   41.60    2.68 
   9   2  10   38.32    2.41 
   9   2  10   38.04    2.62 
 -10  -2 -10   62.29    3.39 
  10   2  10   55.80    3.19 
  10   2  10   60.21    3.10 
 -11  -2 -10  117.44    4.97 
  11   2  10  107.77    5.03 
  11   2  10  118.81    4.84 
 -12  -2 -10  111.68    4.92 
  12   2  10  116.44    5.22 
  12   2  10  110.75    4.84 
 -13  -2 -10  123.11    5.45 
 -13  -2 -10  123.30    5.39 
  13   2  10  131.48    5.90 
 -14  -2 -10  101.61    4.92 
  -7   3  10   -2.26    1.56 
  -6   3  10   28.44    2.76 
  -5   3  10   20.29    2.38 
  -4   3  10   84.16    4.27 
   3  -3 -10  147.98    5.44 
  -3   3  10  152.46    6.09 
   2  -3 -10  111.07    4.39 
  -2   3  10  115.76    4.77 
   1  -3 -10   89.66    3.78 
  -1   3  10   93.55    4.13 
   0  -3 -10   13.11    1.39 
   0   3  10   13.73    1.58 
  -1  -3 -10   -0.73    0.79 
   1   3  10    0.95    0.91 
  -2  -3 -10    2.80    0.99 
   2   3  10    1.58    0.96 
  -3  -3 -10    9.74    1.41 
   3   3  10   11.95    1.44 
  -4  -3 -10   33.89    2.34 
   4   3  10   36.83    2.22 
   5   3  10   27.46    1.99 
  -6  -3 -10    0.03    0.92 
   6   3  10    1.50    0.93 
  -7  -3 -10    0.43    1.02 
   7   3  10    1.17    0.96 
   7   3  10    0.53    0.93 
  -8  -3 -10   51.66    2.95 
   8   3  10   46.55    2.69 
   8   3  10   46.88    2.64 
  -9  -3 -10  176.30    6.71 
   9   3  10  180.59    6.44 
   9   3  10  174.04    6.70 
 -10  -3 -10   41.71    2.71 
  10   3  10   40.17    2.62 
  10   3  10   39.77    2.76 
 -11  -3 -10  118.64    5.07 
  11   3  10  130.33    5.14 
  11   3  10  116.71    5.24 
 -12  -3 -10   56.23    3.22 
  12   3  10   57.92    3.44 
  12   3  10   57.07    3.19 
 -13  -3 -10   16.20    1.87 
  13   3  10   16.06    2.17 
 -14  -3 -10    5.42    1.58 
  -8   4  10   16.08    2.53 
  -7   4  10   31.19    3.09 
  -6   4  10  112.93    5.36 
  -5   4  10   55.89    3.43 
  -4   4  10   94.08    4.42 
   3  -4 -10   52.65    2.58 
  -3   4  10   54.20    3.14 
   2  -4 -10    9.51    1.20 
  -2   4  10   11.32    1.72 
   1  -4 -10    0.20    0.71 
  -1   4  10    1.39    1.06 
   0  -4 -10   11.26    1.35 
   0   4  10   12.45    1.61 
  -1  -4 -10   12.81    1.38 
   1   4  10   10.13    1.42 
  -2  -4 -10    4.09    1.00 
   2   4  10    2.29    0.97 
  -3  -4 -10   -0.35    0.73 
   3   4  10    0.87    0.95 
  -4  -4 -10   12.37    1.53 
   4   4  10   12.21    1.41 
   5   4  10   14.18    1.34 
   5   4  10   11.62    1.50 
  -6  -4 -10  146.10    5.83 
   6   4  10  156.98    5.71 
   6   4  10  154.73    5.61 
  -7  -4 -10  247.69    8.76 
   7   4  10  236.47    8.47 
   7   4  10  254.68    8.47 
  -8  -4 -10  143.20    5.75 
   8   4  10  149.97    5.60 
   8   4  10  147.27    5.66 
  -9  -4 -10   76.20    3.73 
   9   4  10   76.72    3.62 
   9   4  10   73.59    3.64 
 -10  -4 -10   35.02    2.51 
  10   4  10   40.20    2.64 
  10   4  10   37.79    2.66 
 -11  -4 -10   59.39    3.33 
  11   4  10   66.39    3.63 
  11   4  10   61.27    3.29 
 -12  -4 -10    0.89    1.02 
  12   4  10    0.09    1.12 
  12   4  10   -0.76    1.17 
 -13  -4 -10    2.07    1.21 
  13   4  10    2.19    1.35 
  -8   5  10   56.41    3.97 
  -7   5  10   50.84    3.65 
  -6   5  10   54.81    3.61 
  -5   5  10   13.79    1.97 
   4  -5 -10   10.28    1.24 
  -4   5  10    8.77    1.67 
   3  -5 -10    0.80    0.75 
  -3   5  10    0.12    1.27 
   2  -5 -10   17.94    1.63 
  -2   5  10   13.07    1.71 
   1  -5 -10   42.10    2.39 
  -1   5  10   40.72    2.73 
   0  -5 -10   47.65    2.55 
   0   5  10   43.84    2.62 
  -1  -5 -10    4.19    1.05 
   1   5  10    2.38    1.07 
  -2  -5 -10   26.76    1.89 
   2   5  10   24.43    2.08 
  -3  -5 -10   81.90    3.61 
   3   5  10   79.19    3.57 
   4   5  10  116.16    4.64 
   4   5  10  115.25    4.24 
  -5  -5 -10  136.73    5.77 
   5   5  10  164.83    5.82 
   5   5  10  158.43    5.49 
  -6  -5 -10  291.45   10.02 
   6   5  10  287.88    9.69 
   6   5  10  292.32    9.78 
  -7  -5 -10  166.20    6.37 
   7   5  10  166.02    6.11 
   7   5  10  166.78    6.19 
  -8  -5 -10   85.54    4.05 
   8   5  10   92.96    3.99 
   8   5  10   92.03    4.00 
  -9  -5 -10   24.55    2.07 
   9   5  10   23.87    1.95 
   9   5  10   22.35    2.02 
 -10  -5 -10    1.62    1.11 
  10   5  10    3.08    1.28 
  10   5  10    2.35    1.17 
 -11  -5 -10   -0.59    0.97 
  11   5  10   -0.38    1.06 
  11   5  10    1.25    1.31 
 -12  -5 -10   12.65    1.70 
  12   5  10   11.93    1.88 
  12   5  10   12.13    1.82 
  13   5  10    9.65    1.94 
  13   5  10   13.32    2.14 
  -8   6  10   31.46    3.12 
  -7   6  10    7.27    1.91 
  -6   6  10    1.15    1.43 
  -5   6  10    0.67    1.30 
  -4   6  10    8.03    1.53 
  -4   6  10    9.23    1.38 
  -3   6  10   31.57    2.51 
  -3   6  10   34.68    2.21 
  -2   6  10   16.77    1.80 
  -2   6  10   21.59    1.87 
  -1   6  10    3.60    1.09 
  -1   6  10    4.35    1.22 
   0   6  10    4.74    1.14 
   1   6  10   28.39    2.16 
  -2  -6 -10   54.34    2.77 
   2   6  10   46.93    2.00 
  -3  -6 -10  188.25    6.87 
   3   6  10  190.77    6.32 
   4   6  10  135.36    4.81 
   4   6  10  136.13    5.19 
  -5  -6 -10  120.71    4.81 
   5   6  10  120.99    4.44 
   5   6  10  113.41    4.70 
  -6  -6 -10   59.95    3.24 
   6   6  10   59.09    3.16 
   6   6  10   63.11    2.87 
  -7  -6 -10    0.77    1.00 
   7   6  10    0.98    0.98 
   7   6  10    3.07    0.97 
  -8  -6 -10   -0.54    1.00 
   8   6  10   -0.52    1.04 
   8   6  10   -0.17    0.76 
  -9  -6 -10    9.27    1.54 
   9   6  10   12.92    1.65 
   9   6  10   10.45    1.52 
 -10  -6 -10    7.88    1.39 
  10   6  10    9.91    1.66 
  10   6  10    8.56    1.49 
 -11  -6 -10    3.61    1.15 
  11   6  10    1.47    1.19 
  11   6  10    2.51    1.32 
 -12  -6 -10    1.54    1.08 
  12   6  10    0.69    1.38 
  12   6  10   -0.58    1.21 
  13   6  10    0.60    1.51 
  13   6  10   -0.41    1.36 
  -7   7  10    0.52    1.64 
  -6   7  10    4.34    1.69 
  -5   7  10    9.26    1.74 
  -4   7  10    2.18    1.04 
  -4   7  10    4.26    1.46 
  -3   7  10    1.86    0.98 
  -3   7  10   -0.03    1.04 
  -2   7  10   39.24    2.72 
  -2   7  10   39.99    2.43 
  -1   7  10   82.39    3.85 
  -1   7  10   86.41    3.76 
   0   7  10  127.08    5.07 
   0   7  10  118.32    4.80 
   1   7  10  161.61    5.91 
   1   7  10  149.37    5.86 
   2   7  10  138.44    5.36 
  -4  -7 -10   32.07    2.12 
   4   7  10   33.14    1.69 
   4   7  10   25.21    2.00 
  -5  -7 -10   12.66    1.56 
   5   7  10   15.97    1.66 
   5   7  10   15.14    1.36 
  -6  -7 -10    1.04    0.97 
   6   7  10    0.26    0.93 
   6   7  10    2.24    0.82 
  -7  -7 -10    1.80    1.03 
   7   7  10    2.54    1.00 
   7   7  10    2.98    0.94 
  -8  -7 -10   15.68    1.76 
   8   7  10   15.46    1.63 
   8   7  10   16.67    1.80 
  -9  -7 -10   17.78    1.96 
   9   7  10   16.35    1.84 
   9   7  10   15.29    1.77 
 -10  -7 -10    1.33    1.05 
  10   7  10    1.56    1.11 
  10   7  10    0.00    1.00 
 -11  -7 -10   14.35    1.77 
  11   7  10   12.05    1.75 
  11   7  10   10.75    1.66 
  12   7  10   23.44    2.49 
  12   7  10   22.92    2.42 
  13   7  10   79.87    4.63 
  13   7  10   74.72    4.29 
  -7   8  10    4.13    1.85 
  -6   8  10   -2.03    1.33 
  -5   8  10    1.84    1.08 
  -5   8  10   -1.58    1.34 
  -4   8  10   17.53    1.75 
  -4   8  10   18.46    2.21 
  -3   8  10   60.83    3.11 
  -3   8  10   58.26    3.35 
  -2   8  10  159.21    6.06 
  -2   8  10  162.18    6.28 
  -1   8  10  148.27    5.60 
  -1   8  10  138.66    5.66 
   0   8  10   87.40    4.00 
   0   8  10   92.67    4.21 
   1   8  10   68.40    3.35 
   1   8  10   65.51    3.22 
   2   8  10   87.76    4.07 
   2   8  10   92.20    4.02 
   3   8  10    0.05    0.92 
   3   8  10   -0.04    0.84 
   4   8  10    8.32    0.97 
   4   8  10   12.92    1.64 
  -5  -8 -10   11.27    1.54 
   5   8  10   13.33    1.28 
   5   8  10   12.12    1.62 
  -6  -8 -10    2.28    1.10 
   6   8  10    3.01    0.88 
   6   8  10    3.84    1.15 
  -7  -8 -10    0.92    1.11 
   7   8  10    1.99    1.13 
   7   8  10    2.23    0.95 
  -8  -8 -10    2.07    1.09 
   8   8  10    1.78    1.01 
   8   8  10    4.27    1.33 
  -9  -8 -10   18.35    1.96 
   9   8  10   23.60    2.23 
   9   8  10   23.13    2.21 
 -10  -8 -10   75.59    3.83 
  10   8  10   68.77    3.84 
  10   8  10   72.08    3.71 
 -11  -8 -10  101.21    4.62 
  11   8  10   98.74    4.91 
  11   8  10  101.53    4.77 
  12   8  10   74.87    4.05 
  12   8  10   78.82    4.42 
  -7   9  10    3.17    1.80 
  -6   9  10   13.11    2.16 
  -5   9  10   39.60    3.01 
  -5   9  10   44.10    2.70 
  -4   9  10   92.56    4.14 
  -4   9  10   85.66    4.46 
  -3   9  10  142.20    5.71 
  -3   9  10  146.57    6.03 
  -2   9  10  116.02    5.02 
  -2   9  10  110.82    4.77 
  -1   9  10   40.32    2.82 
  -1   9  10   40.39    2.53 
   0   9  10    9.75    1.51 
   0   9  10    7.46    1.38 
   1   9  10    0.26    1.04 
   1   9  10   -0.81    0.94 
   2   9  10    2.18    1.17 
   2   9  10    1.76    0.99 
   3   9  10   74.84    3.67 
   3   9  10   74.25    3.55 
   4   9  10   14.58    1.71 
   4   9  10   18.86    1.94 
   5   9  10    0.52    0.97 
   5   9  10    1.00    1.11 
   5   9  10    1.23    0.70 
  -6  -9 -10    1.67    1.01 
   6   9  10    1.01    1.03 
   6   9  10    0.16    0.71 
  -7  -9 -10   40.10    2.74 
   7   9  10   39.21    2.76 
   7   9  10   34.72    2.36 
  -8  -9 -10   63.40    3.44 
   8   9  10   69.21    3.55 
   8   9  10   65.10    3.39 
  -9  -9 -10  106.81    4.80 
   9   9  10  108.63    4.87 
   9   9  10  105.44    4.80 
 -10  -9 -10   82.45    4.15 
  10   9  10   85.12    4.27 
  10   9  10   83.09    4.26 
  11   9  10   81.17    4.19 
  11   9  10   80.70    4.27 
  12   9  10   48.26    3.51 
  12   9  10   46.34    3.24 
  -6  10  10   58.51    3.43 
  -6  10  10   62.57    3.80 
  -5  10  10   64.97    3.92 
  -5  10  10   62.24    3.46 
  -4  10  10   51.52    3.15 
  -4  10  10   55.51    3.52 
  -3  10  10   55.55    3.13 
  -3  10  10   57.70    3.49 
  -2  10  10    1.14    1.19 
  -2  10  10    1.46    1.14 
  -1  10  10    1.02    1.09 
  -1  10  10    1.95    1.07 
   0  10  10   -0.36    0.94 
   0  10  10    1.25    1.00 
   1  10  10   30.64    2.37 
   1  10  10   27.55    2.24 
   2  10  10    0.86    0.90 
   2  10  10    1.97    1.15 
   3  10  10    9.51    1.56 
   3  10  10    7.99    1.37 
   4  10  10    6.44    1.39 
   4  10  10    5.05    1.31 
   5  10  10   39.46    2.66 
   5  10  10   44.49    2.67 
   6  10  10   85.19    3.75 
   6  10  10   88.78    4.23 
  -7 -10 -10   89.61    4.32 
   7  10  10   91.61    4.23 
   7  10  10   90.82    4.08 
  -8 -10 -10   72.89    3.76 
   8  10  10   73.97    3.87 
   8  10  10   68.86    3.65 
  -9 -10 -10   63.09    3.42 
   9  10  10   58.77    3.43 
   9  10  10   55.73    3.35 
 -10 -10 -10   36.14    2.66 
  10  10  10   29.55    2.67 
  10  10  10   31.97    2.81 
  11  10  10    8.08    1.85 
  11  10  10    8.10    1.75 
  -6  11  10   36.06    3.23 
  -6  11  10   34.25    2.77 
  -5  11  10   19.89    2.26 
  -5  11  10   20.64    2.45 
  -4  11  10    0.05    1.17 
  -4  11  10    1.24    1.36 
  -3  11  10   -0.13    1.15 
  -3  11  10    1.31    1.31 
  -2  11  10   13.52    1.98 
  -2  11  10   14.23    1.80 
  -1  11  10   24.80    2.26 
  -1  11  10   26.33    2.46 
   0  11  10   13.16    1.82 
   0  11  10    8.58    1.63 
   1  11  10   31.05    2.29 
   1  11  10   24.94    2.38 
   2  11  10   40.13    2.58 
   2  11  10   36.63    2.67 
   3  11  10   23.53    2.15 
   3  11  10   23.64    2.24 
   4  11  10  128.71    5.31 
   4  11  10  124.48    5.35 
   5  11  10  168.65    6.49 
   5  11  10  159.07    6.38 
   6  11  10  180.42    6.77 
   6  11  10  162.65    6.65 
   7  11  10   90.65    4.43 
  -8 -11 -10   28.52    2.51 
   8  11  10   35.54    2.53 
   8  11  10   32.79    2.57 
  -9 -11 -10   12.23    1.77 
   9  11  10   15.86    2.00 
   9  11  10   12.57    1.81 
  10  11  10   -0.57    1.39 
  10  11  10   -0.13    1.18 
  -5  12  10    7.38    1.60 
  -5  12  10   10.64    2.00 
  -4  12  10   10.34    1.80 
  -4  12  10    8.14    1.88 
  -3  12  10   19.28    2.26 
  -3  12  10   19.22    2.36 
  -2  12  10   17.61    2.13 
  -2  12  10   18.90    2.17 
  -1  12  10    0.05    1.09 
  -1  12  10    1.57    1.31 
   0  12  10    5.03    1.49 
   0  12  10    4.85    1.43 
   1  12  10   38.59    2.75 
   1  12  10   42.22    2.77 
   2  12  10   48.17    3.02 
   2  12  10   47.47    2.97 
   3  12  10   91.14    4.48 
   3  12  10   95.34    4.41 
   4  12  10  115.65    5.03 
   4  12  10  111.45    5.02 
   5  12  10   49.48    3.17 
   5  12  10   52.92    3.24 
   6  12  10   25.13    2.38 
   6  12  10   22.23    2.32 
   7  12  10    0.50    1.28 
   7  12  10   -0.11    1.04 
  -8 -12 -10   -0.39    1.10 
   8  12  10    1.89    1.29 
  -9 -12 -10    2.43    1.20 
   9  12  10    2.96    1.48 
  -4  13  10    1.23    1.42 
  -4  13  10    1.03    1.38 
  -3  13  10    0.42    1.18 
  -3  13  10    0.86    1.29 
  -2  13  10   17.07    2.10 
  -2  13  10   13.96    2.14 
  -1  13  10   43.90    3.21 
  -1  13  10   42.45    2.99 
   0  13  10   91.93    4.64 
   0  13  10  103.14    4.70 
   1  13  10   70.97    3.79 
   1  13  10   77.94    4.12 
   2  13  10   49.32    3.37 
   2  13  10   55.73    3.27 
   3  13  10   37.30    2.77 
   3  13  10   34.35    2.69 
   4  13  10    9.59    1.76 
   4  13  10    8.35    1.68 
   5  13  10    1.46    1.28 
   5  13  10    0.49    1.19 
   6  13  10    1.67    1.34 
   6  13  10    4.82    1.48 
   7  13  10   14.06    2.02 
   7  13  10    9.86    1.73 
   8  13  10    8.64    1.74 
  -3  14  10   63.23    4.05 
  -2  14  10  103.36    4.93 
  -2  14  10  104.71    5.17 
  -1  14  10   76.64    4.05 
  -1  14  10   77.11    4.23 
   0  14  10   86.06    4.55 
   0  14  10   81.12    4.14 
   1  14  10   51.96    3.24 
   1  14  10   49.22    3.35 
   2  14  10   11.64    1.95 
   2  14  10   10.24    1.73 
   3  14  10   -0.84    1.09 
   3  14  10   -0.45    1.23 
   4  14  10    1.26    1.27 
   4  14  10    3.46    1.47 
   5  14  10   13.17    1.84 
   5  14  10   15.39    2.20 
   6  14  10   12.02    1.89 
   6  14  10    8.73    1.79 
   1  15  10   -0.35    1.30 
   2  15  10   21.21    2.48 
  -3   6 -11   46.40    3.29 
  -4   6 -11   25.24    2.69 
  -5   6 -11    1.65    1.57 
  -6   6 -11   -1.94    1.13 
  -7   6 -11    1.78    1.45 
  -2   5 -11   28.02    2.52 
  -3   5 -11   -0.50    1.19 
  -4   5 -11   -1.11    1.23 
  -5   5 -11    2.39    1.31 
  -6   5 -11   12.79    2.16 
  -7   5 -11    2.94    1.42 
  -8   5 -11    0.39    1.32 
  -9   5 -11    1.63    1.52 
  -2   4 -11    0.97    1.16 
  -3   4 -11    3.34    1.31 
  -4   4 -11    2.40    1.39 
  -5   4 -11    3.74    1.34 
  -6   4 -11   -0.37    1.08 
  -7   4 -11    2.41    1.49 
  -8   4 -11   33.67    2.81 
  -9   4 -11   62.71    3.74 
 -10   4 -11   57.58    3.76 
 -11   4 -11   53.82    3.79 
  -1   3 -11   22.46    2.10 
  -2   3 -11   26.68    2.31 
  -3   3 -11    1.18    1.16 
  -4   3 -11    0.11    1.17 
  -5   3 -11    8.40    1.64 
  -6   3 -11   34.81    2.65 
  -7   3 -11   49.32    3.17 
  -8   3 -11  106.96    5.00 
  -9   3 -11   61.94    3.74 
 -10   3 -11   28.37    2.72 
 -11   3 -11    5.62    1.72 
  -1   2 -11   -0.26    0.99 
  -2   2 -11    2.17    1.15 
  -3   2 -11   69.41    3.58 
  -4   2 -11   69.77    3.69 
  -5   2 -11  110.65    4.87 
  -6   2 -11  125.69    5.43 
  -7   2 -11  133.87    5.67 
  -8   2 -11   95.89    4.62 
  -9   2 -11    8.34    1.71 
 -10   2 -11    1.72    1.21 
 -11   2 -11    0.88    1.19 
 -12   2 -11    4.42    1.51 
  12  -2  11    2.70    1.41 
  -5  -1  11   -1.56    1.46 
  -4  -1  11   -1.18    1.43 
  -3  -1  11    8.02    1.77 
  -2  -1  11    5.03    1.52 
  -1  -1  11    0.62    1.13 
   0   1 -11   15.30    1.61 
   0  -1  11   16.10    1.73 
  -1   1 -11   60.26    3.05 
   1  -1  11   57.77    3.01 
  -2   1 -11   89.11    3.87 
   2  -1  11   83.45    3.62 
  -3   1 -11  193.05    7.16 
  -4   1 -11  140.08    5.64 
  -5   1 -11  115.10    4.95 
  -6   1 -11   72.70    3.75 
  -7   1 -11   15.28    1.87 
  -8   1 -11   -0.17    0.97 
  -9   1 -11    1.21    1.24 
 -10   1 -11   11.46    1.85 
 -11   1 -11    7.80    1.60 
  11  -1  11    7.34    1.76 
 -12   1 -11    0.02    1.31 
  12  -1  11   -1.13    1.31 
 -13   1 -11   -0.90    1.13 
  -5   0  11   -2.13    1.46 
  -4   0  11   -0.63    1.41 
  -3   0  11   -0.20    1.36 
  -2   0  11   18.16    2.06 
  -1   0  11   72.90    3.70 
   0   0 -11  133.31    5.12 
   0   0  11  127.37    5.11 
  -1   0 -11  129.93    5.19 
   1   0  11  133.42    5.13 
  -2   0 -11  206.78    7.28 
   2   0  11  194.56    6.99 
  -3   0 -11  147.07    5.68 
   3   0  11  141.39    5.32 
  -4   0 -11   43.09    2.60 
   4   0  11   36.69    2.15 
  -5   0 -11   11.78    1.61 
   5   0  11   12.42    1.33 
  -6   0 -11    1.24    1.09 
   6   0  11   -0.19    0.81 
  -7   0 -11    8.09    1.47 
   7   0  11    9.68    1.19 
  -8   0 -11   12.17    1.66 
   8   0  11   10.54    1.35 
  -9   0 -11   14.09    1.83 
   9   0  11   14.49    1.53 
 -10   0 -11   -0.73    1.27 
  10   0  11   -0.58    1.16 
  10   0  11    2.05    1.00 
 -11   0 -11    3.86    1.54 
  11   0  11    0.58    1.26 
  11   0  11    2.75    1.19 
 -12   0 -11   16.80    2.06 
  12   0  11   16.54    2.24 
 -13   0 -11   39.53    2.70 
 -13   0 -11   37.12    2.95 
  13   0  11   30.04    3.03 
  -6   1  11    1.86    1.74 
  -5   1  11   11.02    2.02 
  -4   1  11   11.16    2.00 
  -3   1  11   58.80    3.54 
  -2   1  11  118.48    5.07 
   1  -1 -11  145.72    5.54 
  -1   1  11  154.70    5.92 
   0  -1 -11  128.91    4.99 
   0   1  11  128.00    5.14 
  -1  -1 -11   48.33    2.68 
   1   1  11   50.29    2.85 
  -2  -1 -11   25.19    2.08 
   2   1  11   28.52    2.15 
  -3  -1 -11    0.81    1.05 
   3   1  11    1.95    0.96 
  -4  -1 -11    8.30    1.42 
   4   1  11    8.45    1.22 
  -5  -1 -11   33.54    2.32 
   5   1  11   31.89    2.12 
  -6  -1 -11   52.74    2.93 
   6   1  11   49.59    2.65 
  -7  -1 -11   15.43    1.71 
   7   1  11   17.32    1.61 
  -8  -1 -11    3.30    1.18 
   8   1  11    2.65    1.02 
  -9  -1 -11    0.76    1.16 
   9   1  11    1.31    0.98 
   9   1  11    0.74    1.22 
 -10  -1 -11   42.34    2.81 
  10   1  11   42.19    3.08 
  10   1  11   48.59    2.67 
 -11  -1 -11   49.75    3.16 
  11   1  11   48.20    2.84 
  11   1  11   44.05    3.07 
 -12  -1 -11   79.50    4.19 
  12   1  11   80.59    4.23 
  12   1  11   78.19    3.85 
 -13  -1 -11   48.40    3.05 
 -13  -1 -11   43.89    3.17 
  13   1  11   44.28    3.26 
  -6   2  11    7.24    1.97 
  -5   2  11   40.99    3.38 
  -4   2  11   59.89    3.58 
  -3   2  11   64.55    3.75 
  -2   2  11   62.42    3.53 
   1  -2 -11   49.05    2.56 
  -1   2  11   45.63    2.95 
   0  -2 -11    1.05    0.83 
   0   2  11    2.99    1.20 
  -1  -2 -11    3.94    1.09 
   1   2  11    6.33    1.31 
  -2  -2 -11   27.30    2.12 
   2   2  11   29.40    2.17 
  -3  -2 -11   44.97    2.62 
   3   2  11   47.80    2.62 
  -4  -2 -11   72.35    3.55 
   4   2  11   72.89    3.29 
  -5  -2 -11   37.66    2.46 
   5   2  11   37.83    2.30 
  -6  -2 -11   15.40    1.77 
   6   2  11   15.31    1.57 
  -7  -2 -11    6.01    1.26 
   7   2  11    4.17    1.10 
  -8  -2 -11   46.15    2.83 
   8   2  11   47.64    2.65 
   8   2  11   49.69    2.81 
  -9  -2 -11   63.88    3.42 
   9   2  11   65.60    3.41 
   9   2  11   66.33    3.20 
 -10  -2 -11  117.55    5.08 
  10   2  11  111.60    4.70 
  10   2  11  117.71    5.13 
 -11  -2 -11   68.54    3.64 
  11   2  11   70.65    3.51 
  11   2  11   70.30    3.88 
 -12  -2 -11   53.46    3.26 
  12   2  11   52.53    3.51 
  12   2  11   49.06    3.08 
 -13  -2 -11   35.03    2.89 
  13   2  11   37.01    3.02 
  -6   3  11   87.47    4.81 
  -5   3  11   43.11    3.37 
  -4   3  11   70.03    4.08 
  -3   3  11   66.72    3.79 
   2  -3 -11   24.91    1.86 
  -2   3  11   28.09    2.40 
   1  -3 -11    8.77    1.24 
  -1   3  11    7.97    1.60 
   0  -3 -11   16.01    1.67 
   0   3  11   14.92    1.77 
  -1  -3 -11    9.97    1.42 
   1   3  11    9.23    1.49 
  -2  -3 -11    2.19    1.05 
   2   3  11    2.29    1.17 
  -3  -3 -11    7.91    1.44 
   3   3  11    9.42    1.45 
  -4  -3 -11   22.81    1.97 
   4   3  11   22.62    1.98 
  -5  -3 -11  113.50    4.66 
   5   3  11  105.86    4.42 
  -6  -3 -11  101.83    4.30 
   6   3  11   94.37    4.08 
  -7  -3 -11  131.13    5.31 
   7   3  11  131.49    5.16 
   7   3  11  124.74    5.01 
  -8  -3 -11  293.94   10.04 
   8   3  11  277.62    9.56 
   8   3  11  284.04    9.89 
  -9  -3 -11  165.64    6.48 
   9   3  11  164.08    6.40 
   9   3  11  162.64    6.15 
 -10  -3 -11   48.74    2.96 
  10   3  11   47.09    2.87 
  10   3  11   54.00    3.16 
 -11  -3 -11   47.10    3.11 
  11   3  11   49.30    2.89 
  11   3  11   52.32    3.26 
 -12  -3 -11    4.99    1.45 
  12   3  11    2.26    1.26 
  12   3  11    4.26    1.55 
 -13  -3 -11   -0.85    1.12 
  13   3  11    0.24    1.38 
  13   3  11   -0.50    1.26 
  -7   4  11   64.69    4.31 
  -6   4  11   85.68    4.78 
  -5   4  11   10.19    2.01 
  -4   4  11    9.99    1.93 
  -3   4  11    1.08    1.26 
   2  -4 -11    3.06    0.94 
  -2   4  11    3.25    1.36 
   1  -4 -11    5.39    1.13 
  -1   4  11    3.52    1.44 
   0  -4 -11   11.26    1.39 
   0   4  11    9.73    1.57 
  -1  -4 -11    4.07    1.13 
   1   4  11    4.87    1.42 
  -2  -4 -11   40.18    2.44 
   2   4  11   42.81    2.55 
  -3  -4 -11  138.25    5.42 
   3   4  11  137.97    5.38 
  -4  -4 -11  195.03    7.11 
   4   4  11  188.27    6.87 
  -5  -4 -11  254.24    8.92 
   5   4  11  249.12    8.65 
  -6  -4 -11  346.51   11.74 
   6   4  11  339.74   11.34 
   6   4  11  346.61   11.45 
  -7  -4 -11  250.36    9.15 
   7   4  11  264.91    8.91 
   7   4  11  258.86    8.94 
  -8  -4 -11   61.36    3.24 
   8   4  11   57.47    3.11 
   8   4  11   62.90    3.13 
  -9  -4 -11    4.85    1.31 
   9   4  11    5.79    1.36 
   9   4  11    4.61    1.16 
 -10  -4 -11   -0.52    0.97 
  10   4  11    1.08    1.09 
  10   4  11    0.37    1.02 
 -11  -4 -11    1.35    1.14 
  11   4  11   -0.96    1.19 
  11   4  11    0.04    1.18 
 -12  -4 -11   12.03    1.71 
  12   4  11   14.02    1.93 
  12   4  11   12.44    1.84 
 -13  -4 -11    6.64    1.51 
  13   4  11    3.72    1.52 
  13   4  11   11.74    2.11 
  -7   5  11    9.64    2.12 
  -6   5  11    1.00    1.68 
  -5   5  11    6.10    1.86 
  -4   5  11    2.17    1.42 
   3  -5 -11   14.53    1.47 
  -3   5  11   16.63    2.11 
   2  -5 -11    3.11    0.95 
  -2   5  11    4.38    1.50 
   1  -5 -11    1.68    0.90 
  -1   5  11   -0.89    1.02 
   0  -5 -11    3.82    1.05 
   0   5  11    5.45    1.32 
  -1  -5 -11   84.46    3.77 
   1   5  11   84.50    4.00 
  -2  -5 -11  170.21    6.30 
   2   5  11  162.92    6.21 
  -3  -5 -11  182.67    6.89 
   3   5  11  192.77    6.87 
  -4  -5 -11  195.35    7.27 
   4   5  11  201.29    7.18 
  -5  -5 -11  159.27    6.10 
   5   5  11  158.37    6.01 
   5   5  11  156.93    5.69 
  -6  -5 -11   78.27    3.82 
   6   5  11   75.37    3.31 
   6   5  11   74.82    3.56 
  -7  -5 -11   24.31    2.27 
   7   5  11   22.50    1.79 
   7   5  11   18.93    1.84 
  -8  -5 -11    1.25    1.09 
   8   5  11   -0.82    1.04 
   8   5  11    2.32    1.01 
  -9  -5 -11   10.89    1.61 
   9   5  11    9.60    1.65 
   9   5  11   13.38    1.64 
 -10  -5 -11   22.43    2.21 
  10   5  11   21.19    2.13 
  10   5  11   17.74    2.02 
 -11  -5 -11    9.15    1.59 
  11   5  11    8.22    1.57 
  11   5  11    6.91    1.57 
 -12  -5 -11    4.94    1.39 
  12   5  11    4.20    1.37 
  12   5  11    3.89    1.42 
 -13  -5 -11    2.03    1.30 
  13   5  11    0.45    1.33 
  13   5  11    3.55    1.49 
  -7   6  11   -0.93    1.53 
  -6   6  11    9.67    2.07 
  -5   6  11    9.13    1.87 
  -4   6  11    1.16    1.24 
   3  -6 -11    0.13    0.81 
  -3   6  11   -1.50    1.05 
   2  -6 -11   21.80    1.85 
  -2   6  11   17.46    1.98 
   1  -6 -11   83.15    3.79 
  -1   6  11   85.46    4.08 
   0  -6 -11  180.68    6.77 
   0   6  11  186.71    6.91 
  -1  -6 -11  154.07    5.96 
   1   6  11  160.97    6.12 
  -2  -6 -11   96.89    4.18 
   2   6  11   96.44    4.27 
  -3  -6 -11  117.87    4.86 
   3   6  11  124.15    5.02 
   3   6  11  118.85    4.31 
  -4  -6 -11   29.48    2.23 
   4   6  11   29.89    1.69 
   4   6  11   29.53    2.35 
  -5  -6 -11    2.61    1.02 
   5   6  11    4.75    1.35 
   5   6  11    4.82    0.89 
  -6  -6 -11    5.85    1.29 
   6   6  11    8.11    1.13 
   6   6  11    7.50    1.43 
  -7  -6 -11   18.97    2.02 
   7   6  11   27.49    2.34 
   7   6  11   27.08    1.91 
  -8  -6 -11   16.94    1.95 
   8   6  11   16.73    1.89 
   8   6  11   20.29    1.81 
  -9  -6 -11   15.74    1.99 
   9   6  11   18.63    2.05 
   9   6  11   19.85    1.93 
 -10  -6 -11    1.78    1.23 
  10   6  11   -0.84    1.18 
  10   6  11    0.21    1.09 
 -11  -6 -11    5.83    1.46 
  11   6  11    5.66    1.41 
  11   6  11    9.12    1.73 
 -12  -6 -11   21.68    2.17 
  12   6  11   20.55    2.22 
  12   6  11   22.81    2.40 
  13   6  11   36.48    3.09 
  13   6  11   39.46    3.24 
  -7   7  11    2.69    1.63 
  -6   7  11    2.30    1.42 
  -5   7  11   -0.25    1.17 
  -4   7  11   18.47    2.14 
  -4   7  11   20.30    1.93 
  -3   7  11   49.73    3.13 
  -3   7  11   53.88    2.92 
  -2   7  11  131.32    5.18 
  -2   7  11  125.18    5.36 
  -1   7  11  151.47    6.07 
  -1   7  11  153.59    5.88 
   0   7  11  128.84    5.28 
   1   7  11   83.04    3.93 
  -2  -7 -11   14.08    1.65 
   2   7  11   13.28    1.55 
  -3  -7 -11    0.90    0.94 
   3   7  11    0.51    1.00 
  -4  -7 -11   19.54    1.77 
   4   7  11   19.25    1.34 
   4   7  11   17.11    1.74 
  -5  -7 -11   29.96    2.34 
   5   7  11   28.14    2.28 
   5   7  11   31.02    1.80 
  -6  -7 -11   26.84    2.24 
   6   7  11   36.48    2.47 
   6   7  11   33.85    1.98 
  -7  -7 -11    1.25    1.18 
   7   7  11    3.63    1.00 
   7   7  11    5.11    1.29 
  -8  -7 -11    1.82    1.22 
   8   7  11    1.23    0.92 
   8   7  11    1.65    1.13 
  -9  -7 -11   11.17    1.73 
   9   7  11    6.65    1.37 
   9   7  11    7.80    1.53 
 -10  -7 -11   49.07    3.18 
  10   7  11   52.61    3.17 
  10   7  11   47.75    2.94 
 -11  -7 -11   58.74    3.43 
  11   7  11   62.30    3.56 
  11   7  11   62.17    3.62 
 -12  -7 -11   72.72    3.76 
  12   7  11   73.52    3.87 
  12   7  11   65.07    3.89 
  -6   8  11   28.14    2.83 
  -5   8  11   58.03    3.65 
  -4   8  11   88.70    3.99 
  -4   8  11   82.94    4.47 
  -3   8  11   89.74    4.10 
  -3   8  11   93.84    4.61 
  -2   8  11  119.17    4.93 
  -2   8  11  125.03    5.35 
  -1   8  11   43.34    2.70 
  -1   8  11   40.90    2.76 
   0   8  11    9.35    1.50 
   0   8  11    6.91    1.52 
   1   8  11    2.33    1.17 
   1   8  11    2.26    1.19 
   2   8  11    5.27    1.23 
   2   8  11    5.73    1.27 
   3   8  11   31.39    2.30 
  -4  -8 -11   22.34    2.09 
   4   8  11   26.72    2.10 
  -5  -8 -11    6.09    1.38 
   5   8  11    9.80    1.55 
   5   8  11    9.94    1.12 
  -6  -8 -11   11.75    1.73 
   6   8  11   11.49    1.31 
   6   8  11   12.62    1.71 
  -7  -8 -11   55.94    3.26 
   7   8  11   56.05    3.22 
   7   8  11   57.35    2.87 
  -8  -8 -11   49.66    2.94 
   8   8  11   42.03    2.60 
   8   8  11   43.08    2.73 
  -9  -8 -11  152.51    6.26 
   9   8  11  157.72    6.24 
   9   8  11  155.09    6.19 
 -10  -8 -11  121.26    5.35 
  10   8  11  119.77    5.18 
  10   8  11  117.79    5.28 
 -11  -8 -11   94.24    4.58 
  11   8  11   99.99    4.57 
  11   8  11   89.79    4.67 
  12   8  11   36.79    3.07 
  12   8  11   33.73    2.93 
  -6   9  11   55.52    3.94 
  -5   9  11   65.66    4.12 
  -5   9  11   68.65    3.57 
  -4   9  11   70.39    4.01 
  -4   9  11   77.27    3.78 
  -3   9  11   41.23    3.11 
  -3   9  11   40.06    2.73 
  -2   9  11   13.02    1.94 
  -2   9  11    8.62    1.53 
  -1   9  11    2.74    1.22 
  -1   9  11    2.13    1.20 
   0   9  11   13.41    1.77 
   0   9  11   13.82    1.63 
   1   9  11   12.90    1.62 
   1   9  11   16.34    1.91 
   2   9  11    2.20    1.29 
   2   9  11    2.91    1.08 
   3   9  11   10.87    1.50 
   3   9  11   11.87    1.62 
   4   9  11   15.22    1.87 
  -5  -9 -11   24.66    2.19 
   5   9  11   26.59    2.38 
  -6  -9 -11   69.15    3.70 
   6   9  11   65.94    3.64 
   6   9  11   70.30    3.18 
  -7  -9 -11  164.95    6.56 
   7   9  11  163.49    6.20 
   7   9  11  162.18    6.41 
  -8  -9 -11  127.24    5.35 
   8   9  11  119.77    5.22 
   8   9  11  118.45    5.08 
  -9  -9 -11  105.41    4.88 
   9   9  11   99.07    4.72 
   9   9  11  110.09    4.94 
 -10  -9 -11   33.10    2.68 
  10   9  11   35.11    2.91 
  10   9  11   35.49    2.75 
 -11  -9 -11   14.18    1.93 
  11   9  11   20.74    2.38 
  11   9  11   15.11    2.10 
  -6  10  11   40.56    3.54 
  -5  10  11   13.21    1.80 
  -5  10  11   14.38    2.14 
  -4  10  11    4.28    1.68 
  -4  10  11    4.56    1.31 
  -3  10  11    1.48    1.12 
  -3  10  11    1.04    1.35 
  -2  10  11   14.46    1.95 
  -2  10  11   15.49    1.80 
  -1  10  11    2.19    1.23 
  -1  10  11    4.03    1.53 
   0  10  11    1.18    1.29 
   0  10  11    2.18    1.13 
   1  10  11    0.62    1.17 
   1  10  11   -0.49    0.98 
   2  10  11   61.84    3.45 
   2  10  11   57.83    3.16 
   3  10  11   46.95    3.01 
   3  10  11   46.51    2.77 
   4  10  11  153.71    6.25 
   4  10  11  160.64    6.24 
   5  10  11  174.27    6.54 
   5  10  11  148.49    6.25 
  -6 -10 -11  163.44    6.70 
   6  10  11  172.95    6.70 
  -7 -10 -11  106.24    4.85 
   7  10  11  100.01    4.76 
  -8 -10 -11   27.29    2.47 
   8  10  11   28.16    2.23 
   8  10  11   28.55    2.68 
  -9 -10 -11   12.02    1.85 
   9  10  11    9.53    1.81 
   9  10  11   12.32    1.79 
 -10 -10 -11    2.34    1.28 
  10  10  11    0.26    1.07 
  10  10  11    1.79    1.44 
  11  10  11    4.76    1.60 
  11  10  11    3.69    1.47 
  -5  11  11    3.84    1.34 
  -5  11  11    4.53    1.74 
  -4  11  11   17.74    2.34 
  -4  11  11    9.26    1.58 
  -3  11  11    8.30    1.85 
  -3  11  11    7.63    1.56 
  -2  11  11   12.89    1.74 
  -2  11  11   17.94    2.14 
  -1  11  11    3.40    1.45 
  -1  11  11    3.91    1.34 
   0  11  11   16.62    1.94 
   0  11  11   17.82    2.12 
   1  11  11  129.83    5.54 
   1  11  11  136.47    5.71 
   2  11  11  104.65    4.80 
   2  11  11  114.96    4.97 
   3  11  11  101.33    4.65 
   3  11  11   99.75    4.59 
   4  11  11  172.47    6.68 
   4  11  11  160.90    6.60 
   5  11  11   92.62    4.46 
   5  11  11   90.95    4.32 
   6  11  11   53.68    3.39 
  -7 -11 -11    1.82    1.28 
   7  11  11    1.54    1.34 
  -8 -11 -11    0.82    1.13 
   8  11  11    2.80    1.49 
  -9 -11 -11    3.91    1.41 
   9  11  11    4.36    1.37 
   9  11  11    4.05    1.57 
 -10 -11 -11   11.49    1.87 
  10  11  11   12.87    2.00 
  10  11  11   10.49    1.79 
  -4  12  11   -0.76    1.09 
  -4  12  11    1.00    1.50 
  -3  12  11   -0.49    1.30 
  -3  12  11    2.38    1.40 
  -2  12  11    9.23    1.90 
  -2  12  11    9.86    1.78 
  -1  12  11   47.42    3.19 
  -1  12  11   45.42    3.04 
   0  12  11   82.46    4.21 
   0  12  11   76.45    4.12 
   1  12  11   93.54    4.49 
   1  12  11   87.92    4.42 
   2  12  11   64.75    3.59 
   2  12  11   61.71    3.47 
   3  12  11   62.46    3.67 
   3  12  11   64.64    3.62 
   4  12  11   23.49    2.40 
   4  12  11   25.43    2.42 
   5  12  11    0.47    1.09 
   5  12  11    0.94    1.32 
   6  12  11    2.71    1.45 
   6  12  11    3.91    1.37 
   7  12  11   20.89    2.34 
  -8 -12 -11    4.49    1.50 
   8  12  11    3.98    1.54 
  -9 -12 -11    0.30    1.14 
   9  12  11    3.12    1.45 
  -3  13  11   43.31    3.34 
  -3  13  11   47.99    3.46 
  -2  13  11   86.77    4.64 
  -2  13  11   90.53    4.60 
  -1  13  11   91.86    4.61 
  -1  13  11   91.38    4.60 
   0  13  11   85.06    4.46 
   0  13  11   85.28    4.40 
   1  13  11   20.33    2.27 
   1  13  11   23.53    2.46 
   2  13  11    3.14    1.27 
   2  13  11    2.64    1.34 
   3  13  11    0.09    1.21 
   3  13  11    1.74    1.27 
   4  13  11    6.18    1.57 
   4  13  11    4.34    1.52 
   5  13  11   14.90    2.09 
   5  13  11   14.58    1.96 
   6  13  11    6.29    1.61 
   6  13  11    2.28    1.42 
   7  13  11    2.98    1.49 
  -1  14  11   11.69    1.95 
  -1  14  11   11.65    1.96 
   0  14  11   11.95    1.96 
   0  14  11    9.39    1.84 
   1  14  11    0.86    1.34 
   1  14  11    0.47    1.24 
   2  14  11   11.37    1.84 
   2  14  11    5.41    1.58 
   3  14  11   17.69    2.22 
   3  14  11   15.21    2.21 
   4  14  11    3.42    1.43 
   4  14  11    4.21    1.52 
   5  14  11    6.87    1.64 
   5  14  11    5.32    1.69 
   6  14  11    5.85    1.66 
   6  14  11    3.45    1.54 
  -3   5 -12   10.07    1.87 
  -4   5 -12    2.14    1.56 
  -5   5 -12    2.15    1.54 
  -6   5 -12   -1.63    1.37 
  -7   5 -12    4.47    1.79 
  -2   4 -12   -2.40    1.02 
  -3   4 -12    2.59    1.27 
  -4   4 -12   -0.60    1.16 
  -5   4 -12    8.01    1.77 
  -6   4 -12   22.00    2.44 
  -7   4 -12   39.47    3.22 
  -8   4 -12   65.76    4.08 
  -9   4 -12   53.66    3.59 
  -2   3 -12    4.89    1.41 
  -3   3 -12   16.38    2.08 
  -4   3 -12   55.58    3.42 
  -5   3 -12   70.98    3.83 
  -6   3 -12   64.60    3.70 
  -7   3 -12   51.42    3.34 
  -8   3 -12   37.84    3.16 
  -9   3 -12    9.12    1.94 
 -10   3 -12   -1.72    1.18 
  -1   2 -12   19.02    1.93 
  -2   2 -12   61.54    3.37 
  -3   2 -12   89.61    4.28 
  -4   2 -12   81.07    4.00 
  -5   2 -12   52.68    3.19 
  -6   2 -12   31.25    2.57 
  -7   2 -12   12.99    1.97 
  -8   2 -12   -0.07    1.25 
  -9   2 -12   10.38    1.77 
 -10   2 -12    5.60    1.55 
 -11   2 -12    1.41    1.49 
  -1   1 -12  100.88    4.41 
  -2   1 -12   99.41    4.43 
  -3   1 -12   80.98    3.95 
  -4   1 -12   29.59    2.49 
  -5   1 -12    9.75    1.61 
  -6   1 -12    0.18    1.14 
  -7   1 -12   10.00    1.78 
  -8   1 -12    7.22    1.57 
  -9   1 -12    1.05    1.11 
 -10   1 -12   -0.86    1.19 
 -11   1 -12   16.95    2.26 
  11  -1  12   13.47    2.18 
 -12   1 -12   19.48    2.34 
  12  -1  12   16.99    2.29 
  -4   0  12   19.40    2.49 
  -3   0  12   35.00    3.12 
  -2   0  12   70.48    3.84 
  -1   0  12   84.08    4.15 
   0   0 -12   57.13    3.01 
   0   0  12   59.58    3.30 
  -1   0 -12   36.95    2.47 
   1   0  12   39.36    2.65 
  -2   0 -12   28.73    2.30 
   2   0  12   28.19    2.19 
  -3   0 -12    1.36    0.99 
   3   0  12    0.11    0.99 
  -4   0 -12    6.91    1.50 
   4   0  12    5.22    1.12 
  -5   0 -12   14.94    1.83 
   5   0  12   14.43    1.48 
  -6   0 -12   13.01    1.86 
   6   0  12   12.80    1.43 
  -7   0 -12   11.58    1.67 
   7   0  12    8.83    1.28 
  -8   0 -12    0.74    1.10 
   8   0  12    2.29    1.08 
  -9   0 -12    4.54    1.31 
 -10   0 -12   44.35    3.09 
 -11   0 -12   65.72    3.88 
  11   0  12   59.71    3.88 
 -12   0 -12   48.10    3.42 
  12   0  12   51.63    3.66 
  -4   1  12   49.29    3.72 
  -3   1  12   82.24    4.34 
  -2   1  12   78.30    4.21 
  -1   1  12   40.84    2.99 
   0  -1 -12   14.69    1.63 
   0   1  12   15.94    1.88 
  -1  -1 -12    0.22    0.88 
   1   1  12   -2.74    1.00 
  -2  -1 -12    8.90    1.42 
   2   1  12    8.96    1.43 
  -3  -1 -12   18.36    1.89 
   3   1  12   19.01    1.81 
  -4  -1 -12   11.50    1.63 
   4   1  12   12.25    1.46 
  -5  -1 -12    4.95    1.31 
   5   1  12    4.70    1.12 
  -6  -1 -12    6.17    1.32 
   6   1  12    4.66    1.12 
  -7  -1 -12   15.98    1.87 
   7   1  12   19.81    1.75 
  -8  -1 -12   39.55    2.81 
   8   1  12   34.49    2.36 
  -9  -1 -12   75.45    3.89 
   9   1  12   75.41    3.52 
 -10  -1 -12  146.97    6.22 
  10   1  12  149.02    5.69 
  10   1  12  153.79    6.38 
 -11  -1 -12   69.60    3.92 
  11   1  12   78.54    4.04 
  11   1  12   66.71    3.44 
 -12  -1 -12   47.27    3.44 
  12   1  12   50.32    3.00 
  12   1  12   48.30    3.33 
 -13  -1 -12   13.46    2.14 
  -5   2  12   92.38    4.99 
  -4   2  12   41.62    3.39 
  -3   2  12   36.55    3.06 
  -2   2  12   25.88    2.46 
   1  -2 -12    3.92    1.02 
  -1   2  12    4.25    1.45 
   0  -2 -12    0.63    0.90 
   0   2  12    0.77    1.21 
  -1  -2 -12    2.64    1.01 
   1   2  12    1.85    1.20 
  -2  -2 -12    3.12    1.08 
   2   2  12    2.28    1.16 
  -3  -2 -12   -1.10    0.87 
   3   2  12    0.51    1.00 
  -4  -2 -12    8.67    1.43 
   4   2  12    7.57    1.31 
  -5  -2 -12   55.96    3.05 
   5   2  12   55.09    2.92 
  -6  -2 -12   91.18    4.17 
   6   2  12   88.83    3.88 
  -7  -2 -12  129.07    5.50 
   7   2  12  135.62    5.17 
  -8  -2 -12  141.62    5.89 
   8   2  12  149.60    5.57 
  -9  -2 -12   96.64    4.52 
   9   2  12   90.76    4.07 
   9   2  12   93.62    4.46 
 -10  -2 -12   92.91    4.58 
  10   2  12   94.92    4.43 
  10   2  12   87.03    4.08 
 -11  -2 -12    1.96    1.28 
  11   2  12    3.99    1.29 
  11   2  12    3.70    1.34 
 -12  -2 -12    5.84    1.48 
  12   2  12    6.06    1.46 
  12   2  12    5.40    1.56 
 -13  -2 -12    0.35    1.39 
  13   2  12    2.01    1.61 
  13   2  12    0.20    1.35 
  -5   3  12    1.98    1.72 
  -4   3  12   -1.10    1.43 
  -3   3  12    3.58    1.66 
  -2   3  12    7.72    1.71 
   1  -3 -12   12.85    1.51 
  -1   3  12   13.95    1.95 
   0  -3 -12   32.15    2.21 
   0   3  12   27.45    2.49 
  -1  -3 -12    1.61    0.94 
   1   3  12    1.47    1.21 
  -2  -3 -12    3.70    1.10 
   2   3  12    4.38    1.25 
  -3  -3 -12   25.65    2.07 
   3   3  12   24.61    2.18 
  -4  -3 -12   61.90    3.32 
   4   3  12   63.08    3.18 
  -5  -3 -12  145.27    5.76 
   5   3  12  139.63    5.46 
  -6  -3 -12   34.26    2.45 
   6   3  12   36.08    2.44 
  -7  -3 -12   36.89    2.66 
   7   3  12   43.85    2.59 
  -8  -3 -12   36.58    2.63 
   8   3  12   40.43    2.66 
   8   3  12   45.23    2.65 
  -9  -3 -12    1.91    1.22 
   9   3  12    4.42    1.27 
   9   3  12    0.47    1.08 
 -10  -3 -12    4.35    1.35 
  10   3  12    7.10    1.53 
  10   3  12    6.33    1.44 
 -11  -3 -12   34.13    2.66 
  11   3  12   34.19    2.59 
  11   3  12   33.73    2.79 
 -12  -3 -12   29.80    2.70 
  12   3  12   28.70    2.53 
  12   3  12   27.83    2.75 
 -13  -3 -12   10.02    1.78 
  13   3  12    8.72    1.72 
  13   3  12   13.16    2.16 
  -5   4  12    6.64    2.01 
  -4   4  12   12.04    2.14 
  -3   4  12   12.76    1.97 
   2  -4 -12    4.36    1.06 
  -2   4  12    5.35    1.72 
   1  -4 -12    0.02    0.83 
  -1   4  12    0.67    1.26 
   0  -4 -12    4.93    1.16 
   0   4  12    6.06    1.48 
  -1  -4 -12   85.51    3.93 
   1   4  12   83.16    4.08 
  -2  -4 -12  111.67    4.70 
   2   4  12  103.54    4.64 
  -3  -4 -12  150.85    5.94 
   3   4  12  146.80    5.74 
  -4  -4 -12  110.49    4.85 
   4   4  12  112.66    4.61 
  -5  -4 -12  106.79    4.78 
   5   4  12  110.81    4.61 
  -6  -4 -12   77.23    3.79 
   6   4  12   71.25    3.58 
  -7  -4 -12   13.42    1.71 
   7   4  12   14.56    1.61 
   7   4  12   18.00    1.85 
  -8  -4 -12   14.59    1.96 
   8   4  12   14.11    1.73 
   8   4  12   13.56    1.67 
  -9  -4 -12   12.60    1.78 
   9   4  12   14.02    1.76 
   9   4  12   15.68    1.78 
 -10  -4 -12   12.42    1.86 
  10   4  12   13.57    1.81 
  10   4  12   12.85    1.70 
 -11  -4 -12   19.29    2.11 
  11   4  12   19.98    2.14 
  11   4  12   17.69    1.91 
 -12  -4 -12    1.20    1.18 
  12   4  12    1.30    1.38 
  12   4  12    1.29    1.18 
 -13  -4 -12    2.19    1.39 
  13   4  12    1.03    1.45 
  13   4  12    0.68    1.43 
  -6   5  12    0.71    1.79 
  -5   5  12    6.97    2.05 
  -4   5  12    0.59    1.53 
  -3   5  12    3.37    1.52 
   2  -5 -12   31.66    2.21 
  -2   5  12   31.87    2.82 
   1  -5 -12   59.19    3.11 
  -1   5  12   57.74    3.47 
   0  -5 -12  124.12    5.11 
   0   5  12  128.05    5.40 
  -1  -5 -12  227.03    8.33 
   1   5  12  238.08    8.46 
  -2  -5 -12  161.21    6.34 
   2   5  12  167.91    6.37 
  -3  -5 -12   75.37    3.72 
   3   5  12   80.09    3.75 
  -4  -5 -12   43.39    2.83 
   4   5  12   44.36    2.80 
  -5  -5 -12    9.55    1.53 
   5   5  12   11.39    1.31 
   5   5  12   13.90    1.78 
  -6  -5 -12    3.05    1.21 
   6   5  12    0.25    0.83 
   6   5  12    0.98    1.14 
  -7  -5 -12    2.12    1.29 
   7   5  12    1.67    1.08 
   7   5  12    2.90    0.99 
  -8  -5 -12    1.20    1.23 
   8   5  12    3.25    1.08 
   8   5  12    3.13    1.27 
  -9  -5 -12    0.61    1.22 
   9   5  12   -0.19    1.12 
   9   5  12    0.28    1.00 
 -10  -5 -12    0.51    1.20 
  10   5  12   -0.05    0.95 
  10   5  12    0.39    1.08 
 -11  -5 -12    9.94    1.69 
  11   5  12   13.92    1.94 
  11   5  12   13.58    1.87 
 -12  -5 -12   42.01    3.01 
  12   5  12   43.81    3.10 
  12   5  12   39.04    3.10 
 -13  -5 -12   61.89    3.68 
  13   5  12   63.03    4.03 
  13   5  12   63.74    3.80 
  -6   6  12   -1.67    1.63 
  -5   6  12    7.47    1.84 
  -4   6  12   42.49    3.41 
   3  -6 -12   74.97    3.48 
  -3   6  12   68.29    3.97 
   2  -6 -12  106.27    4.54 
  -2   6  12  109.22    5.10 
   1  -6 -12  166.69    6.19 
  -1   6  12  152.32    6.35 
   0  -6 -12  163.13    6.17 
   0   6  12  155.65    6.37 
  -1  -6 -12   71.77    3.51 
   1   6  12   77.33    3.93 
  -2  -6 -12   19.07    1.90 
   2   6  12   19.77    2.06 
  -3  -6 -12    2.11    1.15 
   3   6  12    0.45    1.03 
  -4  -6 -12    1.72    1.16 
   4   6  12    2.92    0.78 
   4   6  12    3.51    1.29 
  -5  -6 -12   15.74    1.77 
   5   6  12   15.07    1.40 
   5   6  12   14.98    1.88 
  -6  -6 -12   37.06    2.53 
   6   6  12   31.45    2.47 
   6   6  12   37.35    2.18 
  -7  -6 -12    6.92    1.59 
   7   6  12    5.00    1.36 
   7   6  12    6.27    1.17 
  -8  -6 -12    7.66    1.66 
   8   6  12    4.56    1.32 
   8   6  12    4.64    1.15 
  -9  -6 -12   21.68    2.26 
   9   6  12   19.42    1.97 
   9   6  12   25.35    2.35 
 -10  -6 -12   65.47    3.63 
  10   6  12   58.72    3.46 
  10   6  12   65.49    3.60 
 -11  -6 -12   91.94    4.55 
  11   6  12   96.25    4.59 
  11   6  12   94.40    4.67 
 -12  -6 -12   93.90    4.60 
  12   6  12   95.63    4.84 
  12   6  12   94.74    4.70 
 -13  -6 -12   52.70    3.32 
  -6   7  12   23.63    2.81 
  -5   7  12   73.52    4.20 
  -4   7  12  115.26    5.50 
   3  -7 -12  112.26    4.81 
  -3   7  12  114.82    5.30 
   2  -7 -12  106.56    4.51 
  -2   7  12   96.16    4.76 
   1  -7 -12   54.76    3.07 
  -1   7  12   54.52    3.35 
   0  -7 -12   22.00    2.08 
   0   7  12   16.94    1.97 
  -1  -7 -12    4.57    1.28 
   1   7  12    3.86    1.39 
  -2  -7 -12   17.52    1.90 
   2   7  12   13.85    1.77 
  -3  -7 -12    7.71    1.39 
   3   7  12    9.57    1.65 
  -4  -7 -12   13.29    1.65 
   4   7  12   14.00    1.81 
  -5  -7 -12    9.14    1.44 
   5   7  12   10.64    1.65 
   5   7  12    9.03    1.11 
  -6  -7 -12    4.56    1.29 
   6   7  12    2.75    0.84 
   6   7  12    1.63    1.26 
  -7  -7 -12   34.88    2.56 
   7   7  12   27.31    2.31 
   7   7  12   27.47    2.01 
  -8  -7 -12   63.12    3.68 
   8   7  12   59.77    3.49 
   8   7  12   63.06    3.20 
  -9  -7 -12  112.26    5.15 
   9   7  12  114.44    5.05 
   9   7  12  106.91    4.81 
 -10  -7 -12   96.59    4.82 
  10   7  12   99.31    4.66 
  10   7  12  107.04    4.81 
 -11  -7 -12   62.10    3.56 
  11   7  12   54.04    3.52 
  11   7  12   57.65    3.49 
 -12  -7 -12   47.22    3.18 
  12   7  12   51.69    3.33 
  12   7  12   50.13    3.44 
  -5   8  12   64.34    4.13 
  -4   8  12   42.12    3.32 
  -3   8  12   17.24    2.14 
  -3   8  12   15.99    1.87 
  -2   8  12    2.76    1.30 
  -2   8  12    5.16    1.53 
  -1   8  12    9.60    1.74 
  -1   8  12   13.99    1.80 
   0   8  12   29.58    2.41 
   1   8  12   17.41    1.96 
  -2  -8 -12   35.53    2.51 
   2   8  12   40.72    2.70 
  -3  -8 -12    0.80    1.01 
   3   8  12    0.98    1.05 
  -4  -8 -12    1.43    0.95 
   4   8  12   -0.40    0.85 
  -5  -8 -12   21.29    2.08 
   5   8  12   22.52    2.13 
  -6  -8 -12   82.11    4.15 
   6   8  12   90.11    3.68 
   6   8  12   83.63    4.12 
  -7  -8 -12   94.39    4.43 
   7   8  12   86.58    4.20 
   7   8  12   82.44    3.78 
  -8  -8 -12   95.34    4.53 
   8   8  12   95.73    4.39 
   8   8  12   89.86    4.10 
  -9  -8 -12   96.30    4.68 
   9   8  12   90.41    4.34 
   9   8  12   98.50    4.59 
 -10  -8 -12   25.10    2.44 
  10   8  12   25.46    2.35 
  10   8  12   27.60    2.40 
 -11  -8 -12    6.99    1.60 
  11   8  12    6.30    1.61 
  11   8  12    9.60    1.76 
 -12  -8 -12    3.00    1.40 
  12   8  12    2.51    1.52 
  12   8  12    3.80    1.49 
  -5   9  12    5.87    1.90 
  -4   9  12   -0.14    1.16 
  -4   9  12    1.00    1.55 
  -3   9  12    5.35    1.70 
  -3   9  12    6.20    1.46 
  -2   9  12    7.81    1.56 
  -2   9  12    5.93    1.56 
  -1   9  12   26.66    2.63 
  -1   9  12   28.00    2.41 
   0   9  12   18.61    2.12 
   0   9  12   15.99    1.91 
   1   9  12    0.01    1.17 
   1   9  12    0.42    1.06 
   2   9  12    9.84    1.56 
   2   9  12    9.68    1.78 
   3   9  12   72.17    3.81 
  -4  -9 -12  125.37    5.36 
   4   9  12  124.64    5.35 
  -5  -9 -12   92.10    4.39 
   5   9  12   86.56    4.31 
  -6  -9 -12  109.89    4.99 
   6   9  12  113.89    4.95 
  -7  -9 -12  107.59    5.00 
   7   9  12  113.30    4.96 
  -8  -9 -12   30.88    2.71 
   8   9  12   30.05    2.66 
   8   9  12   35.45    2.37 
  -9  -9 -12    2.09    1.39 
   9   9  12    2.26    1.37 
   9   9  12    1.06    1.06 
 -10  -9 -12    1.83    1.37 
  10   9  12    1.25    1.36 
  10   9  12    2.39    1.23 
 -11  -9 -12    2.98    1.36 
  11   9  12    2.61    1.44 
  11   9  12    1.40    1.29 
  -5  10  12    8.38    2.08 
  -4  10  12   11.00    2.12 
  -4  10  12   11.53    1.75 
  -3  10  12   17.02    1.98 
  -3  10  12   16.09    2.23 
  -2  10  12    1.90    1.32 
  -2  10  12    2.45    1.24 
  -1  10  12    5.11    1.71 
  -1  10  12    3.36    1.21 
   0  10  12   11.72    1.80 
   0  10  12   15.76    1.83 
   1  10  12   74.45    3.87 
   1  10  12   72.04    3.84 
   2  10  12  177.58    6.90 
   2  10  12  170.39    6.82 
   3  10  12  158.65    6.44 
   3  10  12  160.32    6.41 
   4  10  12  167.87    6.72 
  -5 -10 -12   95.14    4.69 
   5  10  12  102.64    4.66 
  -6 -10 -12   47.38    3.10 
   6  10  12   49.83    3.14 
  -7 -10 -12    2.95    1.42 
   7  10  12    4.43    1.56 
  -8 -10 -12    6.43    1.58 
   8  10  12    7.33    1.64 
  -9 -10 -12    7.31    1.71 
   9  10  12    8.42    1.61 
   9  10  12    9.86    1.91 
 -10 -10 -12   10.89    1.77 
  10  10  12   11.34    1.82 
  10  10  12    9.71    1.76 
  -4  11  12    3.76    1.39 
  -4  11  12    6.39    1.89 
  -3  11  12    2.96    1.67 
  -3  11  12    1.80    1.33 
  -2  11  12    8.74    1.89 
  -2  11  12    8.24    1.71 
  -1  11  12   32.82    2.93 
  -1  11  12   29.34    2.68 
   0  11  12  142.83    5.93 
   0  11  12  132.77    5.86 
   1  11  12  160.38    6.84 
   1  11  12  178.85    6.80 
   2  11  12   85.40    4.34 
   2  11  12   93.85    4.40 
   3  11  12   59.67    3.46 
   3  11  12   59.14    3.55 
   4  11  12   30.01    2.75 
   4  11  12   30.04    2.48 
   5  11  12    8.31    1.60 
  -6 -11 -12    1.25    1.16 
   6  11  12   -0.72    1.32 
  -7 -11 -12   12.28    1.89 
   7  11  12   11.08    1.81 
  -8 -11 -12   11.54    1.82 
   8  11  12    9.24    1.77 
  -9 -11 -12    5.27    1.59 
   9  11  12    4.09    1.48 
 -10 -11 -12    2.33    1.27 
  10  11  12    0.16    1.51 
  -3  12  12   62.69    3.73 
  -3  12  12   62.22    4.08 
  -2  12  12  104.63    5.16 
  -2  12  12   98.33    4.76 
  -1  12  12  116.26    5.27 
  -1  12  12  109.47    5.30 
   0  12  12   64.53    3.86 
   0  12  12   66.16    3.84 
   1  12  12   36.57    2.97 
   1  12  12   33.58    2.71 
   2  12  12   11.37    1.69 
   2  12  12   12.81    1.99 
   3  12  12   -0.48    0.96 
   3  12  12    1.23    1.38 
   4  12  12    7.67    1.73 
   4  12  12    5.86    1.56 
   5  12  12   10.46    1.88 
   5  12  12   11.20    1.76 
   6  12  12   17.86    2.28 
  -7 -12 -12    1.79    1.38 
   7  12  12    0.01    1.34 
  -8 -12 -12    1.59    1.43 
   8  12  12    4.75    1.66 
  -9 -12 -12   19.79    2.31 
   9  12  12   15.14    2.09 
  -2  13  12   82.41    4.49 
  -2  13  12   86.69    4.63 
  -1  13  12   51.95    3.35 
  -1  13  12   46.97    3.43 
   0  13  12   10.60    1.85 
   0  13  12   15.00    2.04 
   1  13  12    1.97    1.35 
   1  13  12    1.75    1.35 
   2  13  12    6.93    1.52 
   2  13  12    7.04    1.64 
   3  13  12   11.43    1.82 
   3  13  12   11.65    1.98 
   4  13  12    8.67    1.85 
   4  13  12   12.33    1.98 
   5  13  12    0.59    1.34 
   5  13  12    3.20    1.52 
   6  13  12    8.20    1.79 
   6  13  12   12.14    1.95 
  -7 -13 -12   32.76    2.95 
   7  13  12   32.15    2.90 
   0  14  12    7.47    1.77 
   0  14  12    5.41    1.70 
   1  14  12   20.07    2.33 
   1  14  12   26.24    2.67 
   2  14  12    7.11    1.78 
   2  14  12    8.52    1.87 
   3  14  12    0.29    1.39 
   3  14  12    1.20    1.41 
   4  14  12    5.82    1.60 
   4  14  12    3.12    1.55 
   5  14  12    8.58    1.90 
   5  14  12    7.17    1.69 
  -4   4 -13   43.32    3.22 
  -5   4 -13   68.09    3.95 
  -6   4 -13   49.87    3.62 
  -3   3 -13   40.54    3.01 
  -4   3 -13   92.10    4.64 
  -5   3 -13   53.49    3.39 
  -6   3 -13   17.36    2.21 
  -7   3 -13    5.73    1.78 
  -8   3 -13   -0.25    1.42 
  -9   3 -13    0.69    1.54 
  -2   2 -13   73.03    3.79 
  -3   2 -13   38.68    2.85 
  -4   2 -13   28.72    2.67 
  -5   2 -13    7.02    1.67 
  -6   2 -13    0.92    1.17 
  -7   2 -13    1.21    1.23 
  -8   2 -13    4.68    1.65 
  -9   2 -13    1.41    1.32 
 -10   2 -13   -2.16    1.22 
  -2   1 -13   10.31    1.72 
  -3   1 -13    0.18    1.04 
  -4   1 -13    2.39    1.31 
  -5   1 -13    5.39    1.56 
  -6   1 -13   14.60    2.10 
  -7   1 -13    5.53    1.62 
  -8   1 -13    2.66    1.50 
  -9   1 -13   12.06    1.92 
 -10   1 -13   31.72    2.78 
 -11   1 -13   73.00    4.30 
  -1   0 -13   -0.33    0.93 
  -2   0 -13    4.90    1.29 
  -3   0 -13   19.54    2.05 
  -4   0 -13    8.50    1.53 
  -5   0 -13    1.99    1.13 
  -6   0 -13    0.90    1.22 
  -7   0 -13   13.47    1.93 
  -8   0 -13   37.87    2.78 
  -9   0 -13   73.13    3.94 
 -10   0 -13   96.39    4.96 
 -11   0 -13   70.35    4.24 
  11   0  13   73.39    4.32 
  -3   1  13   25.23    2.69 
  -2   1  13    9.50    1.93 
  -1   1  13    0.53    1.35 
   0   1  13    0.22    1.22 
  -1  -1 -13    4.81    1.22 
   1   1  13    7.10    1.53 
  -2  -1 -13    6.05    1.29 
   2   1  13    4.52    1.33 
  -3  -1 -13    0.26    0.90 
   3   1  13    0.13    1.10 
  -4  -1 -13    8.01    1.56 
   4   1  13    8.45    1.41 
  -5  -1 -13   31.30    2.42 
   5   1  13   31.79    2.23 
  -6  -1 -13  106.35    4.72 
   6   1  13   98.27    4.26 
  -7  -1 -13   95.67    4.63 
   7   1  13   89.59    4.01 
  -8  -1 -13   97.61    4.62 
   8   1  13   89.03    3.98 
  -9  -1 -13   92.99    4.67 
   9   1  13  100.90    4.21 
 -10  -1 -13   57.15    3.65 
  10   1  13   67.19    3.89 
  10   1  13   61.95    3.26 
 -11  -1 -13   11.28    1.98 
  11   1  13   10.80    1.98 
 -12  -1 -13   -1.21    1.41 
  12   1  13    3.73    1.61 
  -4   2  13   -0.48    1.69 
  -3   2  13    0.29    1.60 
  -2   2  13    0.17    1.49 
  -1   2  13    5.32    1.61 
   0  -2 -13   -0.12    0.90 
   0   2  13   -0.14    1.27 
  -1  -2 -13    1.38    0.98 
   1   2  13   -0.31    1.23 
  -2  -2 -13    4.54    1.22 
   2   2  13    6.57    1.43 
  -3  -2 -13   24.68    2.18 
   3   2  13   21.36    2.06 
  -4  -2 -13   67.92    3.44 
   4   2  13   64.92    3.41 
  -5  -2 -13   90.58    4.24 
   5   2  13   90.13    4.03 
  -6  -2 -13   66.69    3.68 
   6   2  13   68.11    3.38 
  -7  -2 -13   56.05    3.35 
   7   2  13   53.18    3.02 
  -8  -2 -13   31.87    2.61 
   8   2  13   32.91    2.34 
  -9  -2 -13    3.61    1.38 
   9   2  13    5.57    1.38 
   9   2  13    4.52    1.27 
 -10  -2 -13    0.00    1.10 
  10   2  13    0.05    1.32 
  10   2  13    1.03    1.15 
 -11  -2 -13   28.82    2.59 
  11   2  13   31.92    2.50 
  11   2  13   31.88    2.89 
 -12  -2 -13    0.69    1.29 
  12   2  13    0.83    1.27 
  12   2  13    0.58    1.22 
  -4   3  13    4.41    1.85 
  -3   3  13    4.99    1.79 
  -2   3  13    1.22    1.40 
  -1   3  13    0.18    1.33 
   0  -3 -13   11.65    1.54 
   0   3  13   14.86    2.02 
  -1  -3 -13   57.74    3.09 
   1   3  13   54.87    3.34 
  -2  -3 -13   88.39    4.10 
   2   3  13   89.75    4.19 
  -3  -3 -13  119.18    5.10 
   3   3  13  121.94    5.06 
  -4  -3 -13  130.42    5.48 
   4   3  13  131.27    5.28 
  -5  -3 -13   70.24    3.62 
   5   3  13   71.02    3.50 
  -6  -3 -13    2.51    1.14 
   6   3  13    4.72    1.27 
  -7  -3 -13    5.63    1.29 
   7   3  13    5.12    1.31 
  -8  -3 -13   -0.32    0.93 
   8   3  13   -1.22    0.96 
   8   3  13    0.23    1.09 
  -9  -3 -13   12.44    1.92 
   9   3  13   20.34    2.00 
   9   3  13   18.31    2.09 
 -10  -3 -13    6.99    1.62 
  10   3  13    7.06    1.58 
  10   3  13    6.02    1.38 
 -11  -3 -13   29.69    2.64 
  11   3  13   27.27    2.44 
  11   3  13   32.06    2.62 
 -12  -3 -13    0.42    1.14 
  12   3  13   -0.21    1.23 
  12   3  13   -1.89    1.25 
  -4   4  13    5.51    1.78 
  -3   4  13    0.47    1.42 
  -2   4  13    9.16    1.83 
   1  -4 -13   31.00    2.29 
  -1   4  13   27.85    2.59 
   0  -4 -13   69.84    3.52 
   0   4  13   69.13    3.90 
  -1  -4 -13  104.34    4.57 
   1   4  13   99.83    4.75 
  -2  -4 -13   94.00    4.32 
   2   4  13   92.23    4.25 
  -3  -4 -13   53.04    3.14 
   3   4  13   53.27    3.17 
  -4  -4 -13    8.75    1.59 
   4   4  13    8.59    1.56 
  -5  -4 -13    5.47    1.44 
   5   4  13    1.74    1.20 
  -6  -4 -13    1.67    1.04 
   6   4  13    3.44    1.22 
  -7  -4 -13   14.24    1.80 
   7   4  13   16.82    1.78 
   7   4  13   20.60    2.04 
  -8  -4 -13   26.28    2.35 
   8   4  13   33.58    2.46 
   8   4  13   25.23    2.22 
  -9  -4 -13    1.52    1.10 
   9   4  13    1.31    1.12 
   9   4  13    2.10    1.23 
 -10  -4 -13    0.98    1.22 
  10   4  13    0.17    1.20 
  10   4  13    2.43    1.25 
 -11  -4 -13    2.96    1.37 
  11   4  13    3.78    1.22 
  11   4  13    1.02    1.31 
 -12  -4 -13   44.56    3.20 
  12   4  13   36.81    3.08 
  12   4  13   39.27    2.84 
  -4   5  13   27.96    3.05 
  -3   5  13   52.05    3.76 
  -2   5  13   65.21    3.98 
   1  -5 -13   67.27    3.46 
  -1   5  13   68.79    3.97 
   0  -5 -13   64.47    3.40 
   0   5  13   66.84    3.81 
  -1  -5 -13   52.35    3.07 
   1   5  13   49.31    3.15 
  -2  -5 -13    7.95    1.43 
   2   5  13   11.58    1.72 
  -3  -5 -13    2.39    1.17 
   3   5  13    1.52    1.11 
  -4  -5 -13    2.06    1.14 
   4   5  13    3.56    1.32 
  -5  -5 -13   18.07    2.03 
   5   5  13   21.26    2.06 
  -6  -5 -13   28.82    2.50 
   6   5  13   25.49    1.98 
   6   5  13   25.62    2.29 
  -7  -5 -13    1.61    1.06 
   7   5  13    0.33    0.92 
   7   5  13   -0.36    1.13 
  -8  -5 -13    9.19    1.63 
   8   5  13    8.70    1.64 
   8   5  13    7.88    1.34 
  -9  -5 -13   30.67    2.72 
   9   5  13   28.88    2.34 
   9   5  13   30.54    2.39 
 -10  -5 -13   43.15    3.12 
  10   5  13   43.67    3.02 
  10   5  13   48.75    3.04 
 -11  -5 -13   90.20    4.53 
  11   5  13   87.98    4.34 
  11   5  13   84.98    4.42 
 -12  -5 -13   94.54    4.72 
  12   5  13   90.05    4.57 
  12   5  13   96.31    4.85 
  -4   6  13   79.78    4.68 
  -3   6  13   78.47    4.36 
   2  -6 -13   52.84    3.03 
  -2   6  13   45.17    3.27 
   1  -6 -13   46.56    2.82 
  -1   6  13   43.73    3.13 
   0  -6 -13    7.30    1.43 
   0   6  13    7.03    1.58 
  -1  -6 -13    4.30    1.30 
   1   6  13    5.61    1.47 
  -2  -6 -13   16.00    1.93 
   2   6  13   14.47    1.80 
  -3  -6 -13   19.02    2.02 
   3   6  13   19.74    2.18 
  -4  -6 -13    3.12    1.21 
   4   6  13    5.03    1.40 
  -5  -6 -13    7.65    1.46 
   5   6  13    8.75    1.64 
   5   6  13    9.02    1.19 
  -6  -6 -13    0.38    0.97 
   6   6  13    1.53    1.15 
   6   6  13   -0.79    0.68 
  -7  -6 -13   19.38    2.14 
   7   6  13   18.66    1.79 
   7   6  13   20.49    2.12 
  -8  -6 -13   72.68    4.02 
   8   6  13   66.54    3.42 
   8   6  13   72.37    3.80 
  -9  -6 -13   93.22    4.67 
   9   6  13   94.25    4.33 
   9   6  13   92.50    4.45 
 -10  -6 -13   90.02    4.63 
  10   6  13   99.75    4.52 
  10   6  13   88.36    4.34 
 -11  -6 -13   78.01    4.22 
  11   6  13   84.05    4.22 
  11   6  13   73.13    4.04 
 -12  -6 -13   41.93    3.15 
  12   6  13   43.71    3.27 
  12   6  13   39.20    2.96 
  -4   7  13   52.37    3.85 
  -3   7  13   20.59    2.53 
   2  -7 -13    1.66    1.10 
  -2   7  13    1.71    1.49 
   1  -7 -13    0.88    1.05 
  -1   7  13   -3.06    1.24 
   0  -7 -13    5.13    1.30 
   0   7  13    5.41    1.70 
  -1  -7 -13   15.50    1.88 
   1   7  13   15.46    2.08 
  -2  -7 -13   15.88    1.94 
   2   7  13   16.10    2.01 
  -3  -7 -13    3.79    1.30 
   3   7  13    3.85    1.49 
  -4  -7 -13   12.03    1.71 
   4   7  13   10.37    1.82 
  -5  -7 -13   46.55    2.91 
   5   7  13   39.14    2.80 
  -6  -7 -13   96.15    4.60 
   6   7  13  100.40    4.09 
   6   7  13  102.48    4.70 
  -7  -7 -13   83.56    4.19 
   7   7  13   82.61    4.15 
   7   7  13   75.53    3.62 
  -8  -7 -13  117.66    5.46 
   8   7  13  112.63    4.92 
   8   7  13  125.72    5.31 
  -9  -7 -13   66.89    3.98 
   9   7  13   66.20    3.55 
   9   7  13   72.62    3.86 
 -10  -7 -13   19.58    2.32 
  10   7  13   21.07    2.20 
  10   7  13   19.34    2.17 
 -11  -7 -13    5.34    1.61 
  11   7  13    4.07    1.47 
  11   7  13    6.68    1.68 
 -12  -7 -13    5.63    1.48 
  12   7  13    3.06    1.37 
  12   7  13    3.30    1.66 
  -4   8  13    3.41    1.62 
   3  -8 -13   -0.35    1.00 
  -3   8  13    1.82    1.31 
   2  -8 -13   -0.63    0.98 
  -2   8  13   -0.59    1.14 
   1  -8 -13    3.14    1.13 
  -1   8  13    6.72    1.57 
   0  -8 -13    0.96    1.00 
   0   8  13    1.15    1.17 
  -1  -8 -13    5.28    1.41 
   1   8  13    3.56    1.40 
  -2  -8 -13   12.90    1.77 
   2   8  13   10.80    1.67 
  -3  -8 -13  144.03    5.87 
   3   8  13  136.48    5.84 
  -4  -8 -13   93.24    4.41 
   4   8  13   97.45    4.44 
  -5  -8 -13  176.98    6.97 
   5   8  13  179.51    6.94 
  -6  -8 -13  149.42    6.04 
   6   8  13  135.06    5.83 
  -7  -8 -13   65.94    3.85 
   7   8  13   67.08    3.62 
  -8  -8 -13   61.73    3.73 
   8   8  13   57.45    3.16 
   8   8  13   61.14    3.55 
  -9  -8 -13    5.28    1.63 
   9   8  13    2.32    1.12 
   9   8  13    6.64    1.57 
 -10  -8 -13    1.06    1.42 
  10   8  13    1.71    1.41 
  10   8  13    0.83    1.08 
 -11  -8 -13    1.09    1.23 
  11   8  13    4.82    1.49 
  11   8  13    5.42    1.64 
  -4   9  13    6.81    1.99 
  -3   9  13   12.60    2.16 
  -2   9  13   -0.51    1.22 
  -1   9  13   -1.78    1.06 
   0   9  13   16.55    2.16 
  -1  -9 -13   57.38    3.29 
   1   9  13   57.47    3.46 
  -2  -9 -13   79.01    4.11 
   2   9  13   82.96    4.23 
  -3  -9 -13  191.10    7.42 
   3   9  13  183.80    7.27 
  -4  -9 -13   70.00    3.73 
   4   9  13   60.90    3.48 
  -5  -9 -13   28.26    2.37 
   5   9  13   28.56    2.57 
  -6  -9 -13   16.44    2.00 
   6   9  13   15.09    1.99 
  -7  -9 -13    6.62    1.62 
   7   9  13    4.29    1.30 
  -8  -9 -13    7.85    1.79 
   8   9  13   10.09    1.76 
  -9  -9 -13   45.00    3.26 
   9   9  13   42.68    3.11 
   9   9  13   37.49    2.70 
 -10  -9 -13   25.22    2.68 
  10   9  13   24.24    2.56 
  10   9  13   25.05    2.49 
 -11  -9 -13    2.73    1.42 
  11   9  13    7.03    1.64 
  11   9  13    5.16    1.58 
  -4  10  13    5.11    1.86 
  -3  10  13   -1.56    1.20 
  -3  10  13    0.55    1.38 
  -2  10  13   43.65    3.03 
  -2  10  13   38.81    3.34 
  -1  10  13   63.31    3.62 
  -1  10  13   58.41    3.73 
   0  10  13   80.92    4.12 
   0  10  13   71.99    4.08 
   1  10  13  101.94    4.65 
   1  10  13   94.36    4.81 
   2  10  13   96.76    4.81 
   3  10  13   46.46    3.25 
  -4 -10 -13    2.54    1.16 
   4  10  13    4.06    1.55 
  -5 -10 -13    0.46    1.14 
   5  10  13   -1.58    1.22 
  -6 -10 -13    8.37    1.62 
   6  10  13    5.11    1.47 
  -7 -10 -13   18.23    2.26 
   7  10  13   23.63    2.51 
  -8 -10 -13   24.03    2.62 
   8  10  13   29.02    2.74 
  -9 -10 -13    9.73    1.86 
   9  10  13    9.82    1.96 
 -10 -10 -13    2.14    1.38 
  10  10  13   -0.70    1.32 
  -3  11  13   66.57    4.29 
  -3  11  13   63.47    3.73 
  -2  11  13   71.53    4.14 
  -2  11  13   63.26    3.77 
  -1  11  13   75.79    4.08 
  -1  11  13   72.37    4.29 
   0  11  13  113.60    5.36 
   0  11  13  114.49    5.15 
   1  11  13   37.63    2.82 
   1  11  13   41.34    3.02 
   2  11  13    6.56    1.54 
   2  11  13    7.43    1.63 
   3  11  13    0.58    1.24 
   3  11  13    0.97    1.35 
   4  11  13   10.19    1.95 
  -5 -11 -13    5.53    1.44 
   5  11  13    6.33    1.68 
  -6 -11 -13    5.73    1.63 
   6  11  13    7.77    1.79 
  -7 -11 -13    1.56    1.28 
   7  11  13    0.30    1.43 
  -8 -11 -13    5.61    1.63 
   8  11  13    4.43    1.67 
  -9 -11 -13   21.87    2.51 
   9  11  13   16.73    2.25 
  -2  12  13   54.66    3.87 
  -2  12  13   56.86    3.60 
  -1  12  13   19.94    2.43 
  -1  12  13   21.23    2.38 
   0  12  13    2.36    1.46 
   0  12  13   -0.10    1.27 
   1  12  13    2.16    1.36 
   1  12  13    3.89    1.53 
   2  12  13   10.76    1.83 
   2  12  13   10.47    1.84 
   3  12  13   23.73    2.54 
   3  12  13   26.55    2.43 
   4  12  13   15.69    2.20 
   4  12  13   12.43    1.82 
   5  12  13    2.65    1.53 
  -6 -12 -13    2.17    1.28 
   6  12  13    1.13    1.40 
  -7 -12 -13   44.04    3.37 
   7  12  13   44.47    3.23 
  -8 -12 -13   53.61    3.58 
   8  12  13   64.55    3.93 
  -1  13  13    2.52    1.59 
  -1  13  13    2.25    1.40 
   0  13  13   23.40    2.67 
   0  13  13   28.38    2.94 
   1  13  13   18.86    2.27 
   1  13  13   26.52    2.77 
   2  13  13    9.72    1.75 
   2  13  13   11.16    2.00 
   3  13  13    2.74    1.47 
   3  13  13    0.47    1.45 
   4  13  13    1.29    1.48 
   4  13  13    1.76    1.53 
   5  13  13   23.15    2.49 
   5  13  13   27.46    2.68 
   6  13  13   56.83    3.82 
  -3   2 -14    0.16    1.26 
  -4   2 -14    0.02    1.27 
  -5   2 -14    6.99    1.68 
  -6   2 -14    2.59    1.52 
  -7   2 -14    1.30    1.31 
  -8   2 -14   -0.74    1.36 
  -2   1 -14    4.28    1.41 
  -3   1 -14   12.49    1.93 
  -4   1 -14    7.68    1.61 
  -5   1 -14    6.00    1.71 
  -6   1 -14    0.37    1.37 
  -7   1 -14   10.54    2.00 
  -8   1 -14   46.58    3.44 
  -9   1 -14   56.85    3.81 
  -2   0 -14    2.94    1.30 
  -3   0 -14   -0.98    1.04 
  -4   0 -14    4.88    1.36 
  -5   0 -14   20.22    2.23 
  -6   0 -14   74.14    4.06 
  -7   0 -14   81.69    4.23 
  -8   0 -14   82.36    4.33 
  -9   0 -14   91.15    4.67 
 -10   0 -14   39.91    3.14 
  -1   1  14    4.89    1.73 
   0   1  14   -1.76    1.36 
  -1  -1 -14    0.92    1.12 
   1   1  14    0.26    1.32 
  -2  -1 -14    6.28    1.47 
   2   1  14    6.73    1.58 
  -3  -1 -14   32.66    2.62 
  -4  -1 -14   63.38    3.52 
  -5  -1 -14   81.54    4.17 
  -6  -1 -14  124.29    5.60 
  -7  -1 -14   60.73    3.69 
  -8  -1 -14   33.42    2.74 
  -9  -1 -14   24.68    2.51 
 -10  -1 -14    2.30    1.27 
 -11  -1 -14    0.18    1.21 
  11   1  14   -2.42    1.38 
  -2   2  14    0.78    1.52 
  -1   2  14   -2.43    1.36 
   0   2  14   15.05    2.09 
  -1  -2 -14   30.57    2.33 
   1   2  14   25.48    2.51 
  -2  -2 -14   66.63    3.56 
   2   2  14   68.58    3.68 
  -3  -2 -14   90.12    4.33 
   3   2  14   91.95    4.36 
  -4  -2 -14  111.12    4.79 
   4   2  14   98.65    4.59 
  -5  -2 -14   40.55    3.02 
   5   2  14   53.30    2.97 
  -6  -2 -14   21.38    2.30 
   6   2  14   24.78    2.21 
  -7  -2 -14    4.82    1.43 
   7   2  14    6.93    1.38 
  -8  -2 -14    0.85    1.11 
   8   2  14   -0.46    1.03 
  -9  -2 -14    0.77    1.31 
   9   2  14    1.80    1.12 
 -10  -2 -14    5.20    1.67 
  10   2  14    7.60    1.82 
  10   2  14    8.87    1.51 
 -11  -2 -14    9.35    1.79 
  11   2  14    8.90    1.81 
  11   2  14   10.47    1.68 
  -2   3  14   13.04    2.15 
  -1   3  14   27.83    2.73 
   0  -3 -14   60.70    3.27 
   0   3  14   63.13    3.80 
  -1  -3 -14   67.72    3.54 
   1   3  14   68.98    3.88 
  -2  -3 -14   88.96    4.19 
   2   3  14   85.74    4.22 
  -3  -3 -14   76.45    3.87 
   3   3  14   72.95    3.84 
  -4  -3 -14   30.10    2.47 
   4   3  14   38.74    2.67 
  -5  -3 -14    1.50    1.09 
   5   3  14    0.87    1.13 
  -6  -3 -14    7.97    1.58 
   6   3  14    8.44    1.50 
  -7  -3 -14    3.37    1.38 
   7   3  14    5.70    1.40 
  -8  -3 -14   14.60    1.93 
   8   3  14   14.74    1.83 
  -9  -3 -14    7.05    1.56 
   9   3  14   11.17    1.60 
   9   3  14    9.38    1.72 
 -10  -3 -14    1.01    1.35 
  10   3  14    0.97    1.23 
  10   3  14    1.18    1.16 
 -11  -3 -14    0.61    1.40 
  11   3  14    0.40    1.31 
  11   3  14   -0.49    1.16 
  -3   4  14   61.74    4.14 
  -2   4  14   71.40    4.28 
  -1   4  14   73.23    4.24 
   0  -4 -14   66.57    3.50 
   0   4  14   67.46    3.98 
  -1  -4 -14   33.15    2.54 
   1   4  14   35.15    2.95 
  -2  -4 -14   19.68    2.10 
   2   4  14   16.60    1.98 
  -3  -4 -14    5.38    1.42 
   3   4  14    2.65    1.37 
  -4  -4 -14    2.00    1.23 
   4   4  14    3.14    1.38 
  -5  -4 -14    1.31    1.07 
   5   4  14   -1.19    1.06 
  -6  -4 -14    0.20    1.22 
   6   4  14   -0.03    1.13 
  -7  -4 -14    2.39    1.17 
   7   4  14    3.97    1.39 
  -8  -4 -14    1.88    1.11 
   8   4  14    1.00    1.16 
   8   4  14    2.15    1.23 
  -9  -4 -14   38.90    2.99 
   9   4  14   35.81    2.65 
   9   4  14   35.17    2.59 
 -10  -4 -14   47.65    3.34 
  10   4  14   44.37    3.12 
  10   4  14   47.37    3.09 
 -11  -4 -14   63.70    3.88 
  11   4  14   77.26    4.15 
  11   4  14   76.70    3.95 
 -12  -4 -14   93.75    4.97 
  12   4  14   98.52    4.66 
  -3   5  14   75.73    4.57 
  -2   5  14   33.18    3.05 
   1  -5 -14   14.05    1.85 
  -1   5  14   15.18    2.30 
   0  -5 -14    4.97    1.38 
   0   5  14    2.12    1.52 
  -1  -5 -14    5.65    1.44 
   1   5  14    1.46    1.53 
  -2  -5 -14   19.52    2.18 
   2   5  14   20.68    2.30 
  -3  -5 -14   27.56    2.38 
   3   5  14   31.56    2.73 
  -4  -5 -14   10.06    1.74 
   4   5  14   13.94    1.93 
  -5  -5 -14   11.58    1.80 
   5   5  14   13.38    1.84 
  -6  -5 -14    0.74    1.20 
   6   5  14   -0.05    0.93 
   6   5  14    0.98    1.14 
  -7  -5 -14   36.55    2.76 
   7   5  14   39.36    2.55 
   7   5  14   39.64    2.87 
  -8  -5 -14   52.18    3.41 
   8   5  14   50.97    3.04 
   8   5  14   56.87    3.35 
  -9  -5 -14   75.63    4.22 
   9   5  14   79.21    3.94 
   9   5  14   77.32    3.96 
 -10  -5 -14   77.23    4.19 
  10   5  14   70.74    3.94 
  10   5  14   75.64    4.00 
 -11  -5 -14   65.81    4.01 
  11   5  14   66.83    3.87 
  11   5  14   72.81    3.92 
 -12  -5 -14   46.29    3.38 
  -3   6  14   13.21    2.21 
  -2   6  14    4.73    1.78 
   1  -6 -14    4.20    1.27 
  -1   6  14    0.34    1.48 
   0  -6 -14   12.62    1.78 
   0   6  14   14.72    2.23 
  -1  -6 -14   29.51    2.38 
   1   6  14   27.21    2.63 
  -2  -6 -14   12.92    1.79 
   2   6  14    9.80    1.67 
  -3  -6 -14    3.59    1.27 
   3   6  14    2.14    1.41 
  -4  -6 -14   11.97    1.90 
   4   6  14   10.30    1.81 
  -5  -6 -14   18.47    2.13 
   5   6  14   14.12    1.94 
  -6  -6 -14   58.37    3.52 
   6   6  14   52.79    2.85 
   6   6  14   52.85    3.34 
  -7  -6 -14   87.05    4.42 
   7   6  14   82.71    4.21 
   7   6  14   78.33    3.74 
  -8  -6 -14   94.04    4.76 
   8   6  14   91.26    4.52 
   8   6  14   93.03    4.22 
  -9  -6 -14   59.10    3.68 
   9   6  14   56.58    3.29 
   9   6  14   58.26    3.36 
 -10  -6 -14   24.71    2.60 
  10   6  14   32.70    2.61 
  10   6  14   28.69    2.68 
 -11  -6 -14    8.51    1.81 
  11   6  14    8.11    1.78 
  11   6  14    9.28    1.79 
  -3   7  14    1.18    1.70 
   2  -7 -14    7.11    1.50 
  -2   7  14    8.22    1.89 
   1  -7 -14    1.33    1.02 
  -1   7  14    0.04    1.59 
   0  -7 -14    0.70    1.07 
   0   7  14   -1.02    1.39 
  -1  -7 -14    1.59    1.09 
   1   7  14   -0.47    1.18 
  -2  -7 -14   17.09    2.14 
   2   7  14   17.15    2.08 
  -3  -7 -14   68.18    3.75 
   3   7  14   71.04    3.99 
  -4  -7 -14   87.61    4.46 
   4   7  14   99.58    4.66 
  -5  -7 -14  145.51    6.08 
   5   7  14  136.59    5.92 
  -6  -7 -14  129.75    5.68 
   6   7  14  127.30    5.50 
  -7  -7 -14   60.30    3.76 
   7   7  14   64.15    3.71 
  -8  -7 -14   54.87    3.62 
   8   7  14   50.56    3.38 
   8   7  14   50.77    3.02 
  -9  -7 -14    1.79    1.38 
   9   7  14    1.65    1.24 
   9   7  14    3.75    1.24 
 -10  -7 -14    0.77    1.28 
  10   7  14    1.50    1.21 
  10   7  14    0.28    1.35 
 -11  -7 -14    2.88    1.59 
  11   7  14    2.46    1.37 
  11   7  14    0.55    1.29 
  -3   8  14    3.89    1.75 
   2  -8 -14    1.58    1.23 
  -2   8  14    1.00    1.44 
   1  -8 -14    5.23    1.43 
  -1   8  14    5.65    1.69 
   0  -8 -14   16.45    2.00 
   0   8  14   24.21    2.67 
  -1  -8 -14   43.91    3.00 
   1   8  14   44.11    3.25 
  -2  -8 -14   77.80    3.99 
   2   8  14   77.28    4.23 
  -3  -8 -14  137.25    5.93 
   3   8  14  140.17    6.03 
  -4  -8 -14   58.41    3.58 
   4   8  14   55.89    3.56 
  -5  -8 -14   65.16    3.72 
   5   8  14   58.39    3.54 
  -6  -8 -14   10.96    1.88 
   6   8  14   14.44    2.12 
  -7  -8 -14    0.89    1.29 
   7   8  14    1.63    1.28 
  -8  -8 -14   -0.11    1.38 
   8   8  14    0.43    1.41 
  -9  -8 -14   20.53    2.46 
   9   8  14   24.53    2.52 
   9   8  14   22.73    2.26 
 -10  -8 -14   11.59    2.07 
  10   8  14    7.70    1.62 
  10   8  14    9.72    1.99 
 -11  -8 -14    9.05    1.85 
  11   8  14   10.95    1.79 
  11   8  14   15.32    2.19 
  -3   9  14    6.10    1.89 
   2  -9 -14   40.46    2.96 
  -2   9  14   40.50    3.36 
   1  -9 -14   62.13    3.64 
  -1   9  14   63.22    4.03 
   0  -9 -14   82.76    4.23 
   0   9  14   86.68    4.60 
  -1  -9 -14   97.70    4.77 
   1   9  14   99.33    4.82 
  -2  -9 -14   72.00    4.08 
   2   9  14   83.45    4.30 
  -3  -9 -14   82.19    4.29 
   3   9  14   89.77    4.48 
  -4  -9 -14    1.27    1.18 
   4   9  14    0.49    1.21 
  -5  -9 -14    3.49    1.22 
   5   9  14    4.62    1.51 
  -6  -9 -14    4.23    1.45 
   6   9  14    7.23    1.65 
  -7  -9 -14    7.00    1.77 
   7   9  14    8.57    1.76 
  -8  -9 -14   14.44    2.11 
   8   9  14   14.64    2.08 
  -9  -9 -14   11.50    1.92 
   9   9  14   11.09    1.93 
 -10  -9 -14    2.80    1.54 
  10   9  14    0.78    1.43 
  -2  10  14   95.83    5.07 
  -1  10  14   76.06    4.49 
   0  10  14   50.85    3.61 
  -1 -10 -14   33.00    2.85 
   1  10  14   35.78    3.02 
  -2 -10 -14   15.89    2.13 
   2  10  14   17.02    2.13 
  -3 -10 -14    0.12    1.20 
   3  10  14   -0.09    1.12 
  -4 -10 -14   21.92    2.37 
   4  10  14   20.90    2.41 
  -5 -10 -14    7.41    1.52 
   5  10  14    6.85    1.57 
  -6 -10 -14    7.70    1.73 
   6  10  14    8.84    1.74 
  -7 -10 -14    5.32    1.64 
   7  10  14    0.80    1.22 
  -8 -10 -14    3.60    1.55 
   8  10  14    2.96    1.52 
  -9 -10 -14   21.25    2.55 
   9  10  14   24.20    2.56 
  -1  11  14    5.51    1.93 
  -1  11  14    7.42    1.76 
   0  11  14    1.60    1.45 
   0  11  14    1.31    1.48 
   1  11  14   12.19    2.19 
   2  11  14   12.18    2.00 
  -3 -11 -14   24.98    2.55 
   3  11  14   25.02    2.69 
  -4 -11 -14   17.14    2.14 
   4  11  14   14.78    2.12 
  -5 -11 -14    1.01    1.25 
   5  11  14    1.06    1.54 
  -6 -11 -14    5.34    1.53 
   6  11  14    6.60    1.66 
  -7 -11 -14   33.15    3.04 
   7  11  14   41.23    3.29 
  -8 -11 -14   53.80    3.61 
   8  11  14   58.01    3.87 
   0  12  14   29.65    2.88 
   0  12  14   30.31    3.06 
   1  12  14   11.72    2.06 
   1  12  14   11.81    2.03 
   2  12  14    1.59    1.45 
   2  12  14    3.53    1.65 
   3  12  14   -0.34    1.20 
   4  12  14    9.38    1.80 
  -5 -12 -14   36.03    3.09 
   5  12  14   30.58    2.96 
  -6 -12 -14   63.60    3.97 
   6  12  14   54.54    3.85 
  -7 -12 -14  109.46    5.36 
   7  12  14   93.89    5.00 
   2  13  14   29.42    2.85 
   2  13  14   21.83    2.60 
   3  13  14   66.65    4.10 
   3  13  14   59.91    3.79 
   4  13  14   85.26    4.72 
   5  13  14  133.09    6.19 
  -5   1 -15    7.75    1.82 
  -6   1 -15   21.75    2.55 
  -3   0 -15   14.71    1.98 
  -4   0 -15   34.92    2.81 
  -5   0 -15   53.02    3.34 
  -6   0 -15   57.89    3.72 
  -7   0 -15   36.18    2.91 
  -8   0 -15   14.25    2.27 
  -2  -1 -15   48.16    3.12 
  -3  -1 -15   81.11    4.18 
  -4  -1 -15   88.34    4.47 
  -5  -1 -15   66.86    3.76 
  -7  -1 -15    3.60    1.61 
  -8  -1 -15   -1.35    1.06 
  -9  -1 -15   -1.63    1.25 
   0   2  15   84.05    4.57 
   1   2  15   65.69    3.96 
  -2  -2 -15   64.11    3.57 
   2   2  15   67.45    3.85 
  -3  -2 -15   55.39    3.37 
   3   2  15   56.15    3.40 
  -4  -2 -15   27.63    2.46 
   4   2  15   34.25    2.61 
  -5  -2 -15    0.21    1.05 
   5   2  15    1.68    1.27 
  -6  -2 -15    0.34    1.20 
   6   2  15    0.90    1.19 
  -7  -2 -15    8.08    1.77 
  -8  -2 -15    6.44    1.63 
  -9  -2 -15   -0.29    1.14 
 -10  -2 -15    0.92    1.24 
  10   2  15   -0.73    1.34 
  -1   3  15   72.02    4.40 
   0   3  15   73.15    4.29 
  -1  -3 -15   28.07    2.38 
   1   3  15   26.76    2.62 
  -2  -3 -15   21.78    2.24 
   2   3  15   21.45    2.30 
  -3  -3 -15    7.98    1.59 
   3   3  15    8.50    1.73 
  -4  -3 -15    0.15    1.12 
   4   3  15    0.91    1.31 
  -5  -3 -15    5.77    1.46 
   5   3  15    8.16    1.63 
  -6  -3 -15    2.81    1.25 
   6   3  15    2.17    1.27 
  -7  -3 -15    0.26    1.24 
   7   3  15    0.18    1.14 
  -8  -3 -15    2.85    1.40 
   8   3  15    2.04    1.28 
  -9  -3 -15   14.96    2.09 
   9   3  15   13.79    1.80 
   9   3  15   17.26    2.13 
 -10  -3 -15   35.18    2.89 
  10   3  15   31.05    2.62 
  10   3  15   28.46    2.75 
  -1   4  15   25.81    2.92 
   0   4  15    8.31    2.00 
  -1  -4 -15   -0.69    1.04 
   1   4  15    0.59    1.47 
  -2  -4 -15    3.99    1.35 
   2   4  15   -0.04    1.37 
  -3  -4 -15   17.24    2.01 
   3   4  15   16.34    2.11 
  -4  -4 -15    9.44    1.69 
   4   4  15   13.48    1.92 
  -5  -4 -15    2.11    1.24 
   5   4  15    1.95    1.28 
  -6  -4 -15    7.44    1.69 
   6   4  15    8.74    1.64 
  -7  -4 -15   12.27    1.92 
   7   4  15   12.76    1.80 
  -8  -4 -15   75.57    3.97 
   8   4  15   67.70    3.79 
   8   4  15   68.96    3.78 
  -9  -4 -15   86.14    4.59 
   9   4  15   84.49    4.32 
   9   4  15   87.80    4.24 
 -10  -4 -15   69.90    4.09 
  10   4  15   73.19    4.07 
  10   4  15   75.39    3.95 
 -11  -4 -15   64.18    3.90 
  -1   5  15    2.90    1.82 
   0  -5 -15    6.61    1.43 
   0   5  15    6.11    1.93 
  -1  -5 -15   12.44    1.82 
   1   5  15   11.57    1.94 
  -2  -5 -15   12.03    1.89 
   2   5  15   10.64    1.98 
  -3  -5 -15    1.17    1.30 
   3   5  15    4.51    1.46 
  -4  -5 -15    1.06    1.22 
   4   5  15   -0.26    1.14 
  -5  -5 -15   15.67    2.09 
   5   5  15   13.64    2.02 
  -6  -5 -15   73.31    4.01 
   6   5  15   66.47    3.80 
  -7  -5 -15  108.79    5.23 
   7   5  15  112.70    4.85 
   7   5  15  107.28    4.98 
  -8  -5 -15   85.16    4.48 
   8   5  15   85.55    4.15 
   8   5  15   82.74    4.27 
  -9  -5 -15   60.57    3.69 
   9   5  15   65.97    3.62 
   9   5  15   63.09    3.70 
 -10  -5 -15   37.32    3.15 
  10   5  15   37.09    2.94 
  10   5  15   33.17    2.77 
 -11  -5 -15   10.46    2.11 
  11   5  15   12.10    1.90 
  -2   6  15    7.80    2.13 
  -1   6  15    6.69    2.08 
   0  -6 -15    4.47    1.32 
   0   6  15    6.01    1.97 
  -1  -6 -15    0.73    1.09 
   1   6  15   -2.24    1.14 
  -2  -6 -15   11.95    1.95 
   2   6  15    8.76    1.97 
  -3  -6 -15   17.45    2.08 
   3   6  15   15.77    2.23 
  -4  -6 -15   75.01    4.05 
   4   6  15   72.28    4.08 
  -5  -6 -15   75.67    4.24 
   5   6  15   75.37    4.10 
  -6  -6 -15   64.26    3.84 
   6   6  15   70.65    3.78 
  -7  -6 -15   55.19    3.61 
   7   6  15   56.53    3.56 
  -8  -6 -15   23.89    2.62 
   8   6  15   22.85    2.37 
   8   6  15   28.38    2.29 
  -9  -6 -15    5.38    1.59 
   9   6  15    8.39    1.57 
   9   6  15    7.01    1.73 
 -10  -6 -15    0.93    1.32 
  10   6  15   -0.80    1.17 
  10   6  15    0.56    1.43 
  -2   7  15    7.33    2.14 
   1  -7 -15    2.67    1.31 
  -1   7  15    4.89    1.93 
   0  -7 -15   20.14    2.24 
   0   7  15   18.16    2.45 
  -1  -7 -15   44.38    3.17 
   1   7  15   44.47    3.45 
  -2  -7 -15   95.16    4.74 
   2   7  15   93.65    4.71 
  -3  -7 -15   83.50    4.27 
   3   7  15   75.52    4.21 
  -4  -7 -15  121.88    5.51 
   4   7  15  109.04    5.30 
  -5  -7 -15   62.48    3.91 
   5   7  15   69.36    3.91 
  -6  -7 -15   19.46    2.40 
   6   7  15   17.25    2.29 
  -7  -7 -15    2.53    1.37 
   7   7  15    2.81    1.44 
  -8  -7 -15   -0.26    1.11 
   8   7  15   -0.26    1.19 
  -9  -7 -15    7.18    1.72 
   9   7  15    8.77    1.61 
   9   7  15    8.00    1.81 
 -10  -7 -15    5.23    1.64 
  10   7  15    6.23    1.70 
  10   7  15    3.34    1.39 
   1  -8 -15   46.48    3.18 
  -1   8  15   47.42    3.79 
   0  -8 -15   62.26    3.71 
   0   8  15   64.07    4.16 
  -1  -8 -15   76.07    4.04 
   1   8  15   62.13    3.93 
  -2  -8 -15   72.69    3.96 
   2   8  15   71.72    4.12 
  -3  -8 -15   37.01    2.88 
   3   8  15   37.24    3.01 
  -4  -8 -15   10.58    1.90 
   4   8  15   16.37    2.22 
  -5  -8 -15    1.16    1.37 
   5   8  15    0.13    1.23 
  -6  -8 -15   10.99    1.89 
   6   8  15    8.60    1.89 
  -7  -8 -15    9.96    1.90 
   7   8  15    6.59    1.79 
  -8  -8 -15    5.76    1.65 
   8   8  15    4.08    1.65 
  -9  -8 -15    5.51    1.66 
   9   8  15    6.11    1.81 
 -10  -8 -15    2.43    1.62 
  10   8  15    2.37    1.67 
   1  -9 -15   64.69    3.79 
  -1   9  15   64.10    4.30 
   0  -9 -15   42.21    3.13 
   0   9  15   42.97    3.43 
  -1  -9 -15   21.25    2.36 
   1   9  15   17.48    2.29 
  -2  -9 -15   12.55    1.91 
   2   9  15   13.80    2.13 
  -3  -9 -15    1.50    1.30 
   3   9  15    3.92    1.57 
  -4  -9 -15   18.79    2.29 
   4   9  15   21.41    2.42 
  -5  -9 -15   13.48    2.10 
   5   9  15   17.95    2.21 
  -6  -9 -15   10.13    1.89 
   6   9  15    8.55    1.84 
  -7  -9 -15    0.04    1.29 
   7   9  15    0.46    1.34 
  -8  -9 -15    5.42    1.77 
   8   9  15    1.52    1.36 
  -9  -9 -15    9.68    1.94 
   9   9  15   11.35    2.08 
  -1  10  15   12.60    2.18 
   0 -10 -15    2.23    1.42 
   0  10  15    0.31    1.43 
  -1 -10 -15   -1.39    1.20 
   1  10  15    1.49    1.37 
  -2 -10 -15    5.75    1.67 
   2  10  15    3.53    1.49 
  -3 -10 -15    6.02    1.66 
   3  10  15    3.48    1.53 
  -4 -10 -15    3.35    1.50 
   4  10  15    3.84    1.53 
  -5 -10 -15    0.77    1.12 
   5  10  15    1.84    1.43 
  -6 -10 -15    5.82    1.51 
   6  10  15    6.40    1.79 
  -7 -10 -15   33.82    3.27 
   7  10  15   41.42    3.25 
  -8 -10 -15   61.09    3.97 
   8  10  15   67.71    4.07 
   0 -11 -15   11.31    1.91 
   0  11  15   10.27    2.14 
  -1 -11 -15   21.37    2.52 
   1  11  15   22.35    2.75 
  -2 -11 -15    6.14    1.71 
   2  11  15    6.49    1.89 
  -3 -11 -15    1.52    1.30 
   3  11  15    0.24    1.52 
  -4 -11 -15   11.34    1.87 
   4  11  15   10.91    2.07 
  -5 -11 -15   50.01    3.46 
   5  11  15   42.40    3.44 
  -6 -11 -15   76.71    4.39 
   6  11  15   75.79    4.45 
  -7 -11 -15   79.57    4.62 
   7  11  15   80.14    4.56 
  -2 -12 -15   13.24    2.07 
   2  12  15   12.01    2.24 
  -3 -12 -15   35.88    3.00 
   3  12  15   32.78    3.18 
  -4 -12 -15   59.30    3.75 
   4  12  15   56.63    3.83 
  -5 -12 -15   71.75    4.33 
   5  12  15   71.19    4.39 
  -3  -2 -16    1.63    1.29 
  -4  -2 -16    3.88    1.43 
  -5  -2 -16   12.15    2.04 
  -6  -2 -16    3.10    1.62 
  -7  -2 -16    4.35    1.63 
  -8  -2 -16   -0.42    1.41 
  -2  -3 -16   -1.21    0.98 
   2   3  16   -0.15    1.45 
  -3  -3 -16    4.46    1.49 
   3   3  16    3.19    1.54 
  -4  -3 -16    7.37    1.72 
   4   3  16    4.51    1.56 
  -5  -3 -16    1.50    1.35 
   5   3  16    0.75    1.31 
  -6  -3 -16   11.93    1.98 
   6   3  16    9.85    1.74 
  -7  -3 -16   26.42    2.69 
   7   3  16   19.43    2.19 
  -8  -3 -16   51.21    3.52 
   8   3  16   59.53    3.52 
  -1  -4 -16    8.46    1.63 
   1   4  16    7.73    1.96 
  -2  -4 -16    4.36    1.42 
   2   4  16    2.30    1.54 
  -3  -4 -16    0.85    1.16 
   3   4  16    1.68    1.51 
  -4  -4 -16    6.33    1.51 
   4   4  16    7.40    1.75 
  -5  -4 -16   50.17    3.41 
   5   4  16   54.31    3.41 
  -6  -4 -16   60.24    3.70 
   6   4  16   58.09    3.64 
  -7  -4 -16   76.01    4.30 
   7   4  16   72.92    4.00 
  -8  -4 -16  115.14    5.52 
   8   4  16  111.39    5.11 
   8   4  16  111.23    5.19 
  -9  -4 -16   59.77    3.77 
   9   4  16   66.02    3.80 
   9   4  16   58.01    3.57 
  -1  -5 -16    2.44    1.21 
   1   5  16    2.46    1.61 
  -2  -5 -16   17.19    2.11 
   2   5  16   13.71    2.17 
  -3  -5 -16   47.97    3.22 
   3   5  16   42.65    3.37 
  -4  -5 -16   46.18    3.26 
   4   5  16   42.03    3.25 
  -5  -5 -16   90.43    4.56 
   5   5  16   86.10    4.46 
  -6  -5 -16  113.84    5.40 
   6   5  16  108.68    5.12 
  -7  -5 -16   69.53    4.10 
   7   5  16   66.93    3.89 
  -8  -5 -16   26.78    2.71 
   8   5  16   24.15    2.35 
   8   5  16   22.04    2.45 
  -9  -5 -16    7.72    1.76 
   9   5  16    6.82    1.63 
   9   5  16    7.05    1.72 
  -1  -6 -16   70.32    3.98 
   1   6  16   65.51    4.26 
  -2  -6 -16  103.42    5.08 
   2   6  16  106.28    5.29 
  -3  -6 -16   96.18    4.74 
   3   6  16   91.52    4.88 
  -4  -6 -16   96.01    5.00 
   4   6  16  104.49    5.06 
  -5  -6 -16   55.43    3.72 
   5   6  16   55.40    3.63 
  -6  -6 -16   14.06    2.10 
   6   6  16   15.77    2.22 
  -7  -6 -16    1.89    1.27 
   7   6  16    1.56    1.53 
  -8  -6 -16    2.38    1.32 
   8   6  16    3.28    1.60 
  -9  -6 -16    2.73    1.34 
   9   6  16    4.42    1.41 
   9   6  16    3.20    1.54 
   0   7  16   56.85    4.09 
  -1  -7 -16   58.76    3.72 
   1   7  16   55.76    3.78 
  -2  -7 -16   62.71    3.74 
   2   7  16   59.72    4.03 
  -3  -7 -16   11.88    2.01 
   3   7  16   11.66    1.95 
  -4  -7 -16   25.58    2.64 
   4   7  16   25.51    2.59 
  -5  -7 -16    1.24    1.39 
   5   7  16   -0.02    1.45 
  -6  -7 -16   13.02    2.06 
   6   7  16   14.25    2.13 
  -7  -7 -16   14.25    2.29 
   7   7  16   20.75    2.57 
  -8  -7 -16   16.63    2.35 
   8   7  16   16.73    2.35 
  -9  -7 -16    3.61    1.49 
   9   7  16    5.67    1.71 
  -1  -8 -16   13.99    2.15 
   1   8  16   13.41    2.24 
  -2  -8 -16    6.74    1.81 
   2   8  16    5.23    1.89 
  -3  -8 -16    3.62    1.39 
   3   8  16    3.02    1.71 
  -4  -8 -16   -1.10    1.13 
   4   8  16   -0.78    1.50 
  -5  -8 -16   24.48    2.73 
   5   8  16   17.18    2.40 
  -6  -8 -16   12.72    2.08 
   6   8  16   10.37    2.08 
  -7  -8 -16   -0.07    1.28 
   7   8  16    2.11    1.57 
  -8  -8 -16    1.93    1.55 
   8   8  16    4.18    1.62 
  -1  -9 -16    3.38    1.54 
   1   9  16   -0.06    1.35 
  -2  -9 -16    3.99    1.55 
   2   9  16    3.09    1.73 
  -3  -9 -16    7.64    1.88 
   3   9  16    9.05    2.09 
  -4  -9 -16    3.06    1.45 
   4   9  16    3.74    1.70 
  -5  -9 -16    0.96    1.52 
   5   9  16    0.78    1.36 
  -6  -9 -16   16.62    2.33 
   6   9  16   11.01    1.94 
  -7  -9 -16   33.03    2.99 
   7   9  16   36.75    3.27 
  -8  -9 -16   61.26    4.13 
   8   9  16   54.69    3.88 
  -2 -10 -16    9.12    1.77 
   2  10  16    6.28    1.85 
  -3 -10 -16    3.22    1.37 
   3  10  16    0.23    1.38 
  -4 -10 -16   17.34    2.34 
   4  10  16   15.88    2.38 
  -5 -10 -16   41.61    3.37 
   5  10  16   33.98    3.15 
  -6 -10 -16   65.02    4.03 
   6  10  16   64.65    3.98 
  -7 -10 -16   81.80    4.69 
   7  10  16   87.04    4.73 
  -5  -5 -17   44.45    3.40 
  -4  -6 -17    7.21    1.80 
   4   6  17    6.29    1.97 
  -5  -6 -17    2.34    1.42 
   5   6  17   -0.31    1.55 
  -6  -6 -17   18.25    2.40 
   6   6  17   16.16    2.34 
  -4  -7 -17    1.30    1.53 
   4   7  17   -1.04    1.45 
  -5  -7 -17    4.92    1.78 
   5   7  17    4.39    1.78 
  -6  -7 -17    4.66    1.83 
   6   7  17    7.37    1.91 
   0   0   0    0.00    0.00 
;
_shelx_hkl_checksum              1350
loop_
_space_group_symop_operation_xyz
'x, y, z'
'-x, -y, -z'
loop_
_atom_site_label
_atom_site_type_symbol
_atom_site_fract_x
_atom_site_fract_y
_atom_site_fract_z
_atom_site_U_iso_or_equiv
_atom_site_adp_type
_atom_site_occupancy
_atom_site_site_symmetry_order
_atom_site_calc_flag
_atom_site_refinement_flags_posn
_atom_site_refinement_flags_adp
_atom_site_refinement_flags_occupancy
_atom_site_disorder_assembly
_atom_site_disorder_group
Tb1 Tb 0.0000 1.0000 0.0000 0.01258(14) Uani 1 2 d S . P . .
Tb2 Tb 0.07443(3) 1.17002(3) 0.17260(3) 0.01260(13) Uani 1 1 d . . . . .
O1 O 0.2339(5) 0.3223(5) 0.1037(5) 0.0242(12) Uani 1 1 d . . . . .
O2 O 0.3616(6) 0.3289(5) 0.1894(6) 0.0379(16) Uani 1 1 d . . . . .
O3 O 0.0198(5) 0.6723(5) -0.0551(5) 0.0224(12) Uani 1 1 d . . . . .
O4 O 0.0626(5) 0.8439(4) -0.0555(4) 0.0170(10) Uani 1 1 d . . . . .
O5 O 0.7900(5) 0.8066(5) 0.0154(5) 0.0229(12) Uani 1 1 d . . . . .
O6 O 0.7895(5) 0.9516(5) 0.0713(6) 0.0272(13) Uani 1 1 d . . . . .
O7 O 0.2404(5) 1.0567(5) 0.2090(5) 0.0213(11) Uani 1 1 d . . . . .
O8 O 0.4220(5) 1.1302(5) 0.1920(6) 0.0293(13) Uani 1 1 d . . . . .
H8 H 0.3816 1.1809 0.2080 0.044 Uiso 0.5 1 calc R U P . .
O9 O 0.0635(5) 1.1311(5) 0.3683(5) 0.0259(12) Uani 1 1 d . . . . .
O10 O -0.0004(6) 1.3018(5) 0.2755(5) 0.0321(14) Uani 1 1 d . . . . .
O11 O -0.0326(5) 1.0290(5) 0.8119(5) 0.0235(12) Uani 1 1 d . . . . .
O12 O 0.0321(6) 1.1849(5) 0.8238(5) 0.0331(14) Uani 1 1 d . . . . .
O13 O -0.1395(6) 1.1006(7) 0.2964(6) 0.0451(18) Uani 1 1 d . . . . .
H13A H -0.1655 1.0929 0.3637 0.068 Uiso 1 1 d R U . . .
H13B H -0.1812 1.0723 0.2728 0.068 Uiso 1 1 d R U . . .
O14 O 0.337(5) 0.516(5) 0.460(5) 0.24(2) Uiso 0.5 1 d . . P . .
H14A H 0.3933 0.5178 0.4021 0.367 Uiso 0.5 1 d R U P . .
H14B H 0.3421 0.5620 0.4886 0.367 Uiso 0.5 1 d R U P . .
O15 O 0.702(2) 0.953(3) 0.300(2) 0.136(12) Uani 0.5 1 d . . P . .
H15A H 0.6268 0.9557 0.3252 0.205 Uiso 0.5 1 d R U P . .
H15B H 0.7501 0.9928 0.3080 0.205 Uiso 0.5 1 d R U P . .
O16 O 0.3394(17) 0.319(4) 0.509(4) 0.60(4) Uani 1 1 d . . . . .
H16A H 0.3638 0.3243 0.5568 0.899 Uiso 1 1 d R U . . .
H16B H 0.2937 0.3654 0.4828 0.899 Uiso 1 1 d R U . . .
O17 O 0.407(16) 0.914(17) 0.705(15) 0.81(13) Uiso 0.5 1 d . . P . .
H17A H 0.3729 0.8999 0.6668 1.212 Uiso 0.5 1 d R U P . .
H17B H 0.4529 0.8668 0.7314 1.212 Uiso 0.5 1 d R U P . .
O18 O 0.2314(14) -0.0094(17) 0.4707(11) 0.162(7) Uani 1 1 d . . . . .
H18A H 0.3046 -0.0119 0.4368 0.243 Uiso 1 1 d R U . . .
H18B H 0.1862 0.0222 0.4345 0.243 Uiso 1 1 d R U . . .
C1 C 0.1659(6) 0.6776(6) 0.0314(6) 0.0152(14) Uani 1 1 d . . . . .
C2 C 0.1812(7) 0.5581(7) 0.0607(7) 0.0188(15) Uani 1 1 d . . . . .
H2 H 0.1321 0.5097 0.0495 0.023 Uiso 1 1 calc R U . . .
C3 C 0.2714(7) 0.5084(6) 0.1080(7) 0.0182(15) Uani 1 1 d . . . . .
C4 C 0.3420(7) 0.5796(6) 0.1278(7) 0.0190(15) Uani 1 1 d . . . . .
H4 H 0.4016 0.5460 0.1590 0.023 Uiso 1 1 calc R U . . .
C5 C 0.3252(6) 0.7009(6) 0.1016(7) 0.0162(14) Uani 1 1 d . . . . .
C6 C 0.2377(6) 0.7502(6) 0.0506(7) 0.0177(15) Uani 1 1 d . . . . .
H6 H 0.2274 0.8318 0.0295 0.021 Uiso 1 1 calc R U . . .
C7 C 0.0764(6) 0.7331(6) -0.0276(6) 0.0146(14) Uani 1 1 d . . . . .
C8 C 0.2891(7) 0.3766(7) 0.1366(7) 0.0197(16) Uani 1 1 d . . . . .
C9 C 0.3994(6) 0.7816(6) 0.1204(6) 0.0161(14) Uani 1 1 d . . . . .
C10 C 0.5270(6) 0.7794(6) 0.0952(6) 0.0162(15) Uani 1 1 d . . . . .
H10 H 0.5657 0.7205 0.0738 0.019 Uiso 1 1 calc R U . . .
C11 C 0.5958(6) 0.8642(6) 0.1020(6) 0.0111(13) Uani 1 1 d . . . . .
C12 C 0.5385(6) 0.9495(6) 0.1388(6) 0.0162(14) Uani 1 1 d . . . . .
H12 H 0.5850 1.0041 0.1458 0.019 Uiso 1 1 calc R U . . .
C13 C 0.4112(6) 0.9537(6) 0.1656(6) 0.0153(14) Uani 1 1 d . . . . .
C14 C 0.3435(6) 0.8672(6) 0.1571(7) 0.0169(15) Uani 1 1 d . . . . .
H14 H 0.2585 0.8675 0.1768 0.020 Uiso 1 1 calc R U . . .
C15 C 0.7352(6) 0.8736(7) 0.0608(7) 0.0186(15) Uani 1 1 d . . . . .
C16 C 0.3506(7) 1.0521(6) 0.1925(6) 0.0186(15) Uani 1 1 d . . . . .
C17 C 0.0124(7) 1.2693(6) 0.4555(7) 0.0190(15) Uani 1 1 d . . . . .
C18 C 0.0099(8) 1.3925(7) 0.4308(7) 0.0253(18) Uani 1 1 d . . . . .
H18 H 0.0131 1.4483 0.3574 0.030 Uiso 1 1 calc R U . . .
C19 C 0.0026(8) 1.4337(7) 0.5150(6) 0.0219(17) Uani 1 1 d . . . . .
C20 C -0.0008(8) 1.3502(6) 0.6204(7) 0.0212(16) Uani 1 1 d . . . . .
H20 H -0.0048 1.3764 0.6764 0.025 Uiso 1 1 calc R U . . .
C21 C 0.0015(7) 1.2250(6) 0.6493(6) 0.0164(14) Uani 1 1 d . . . . .
C22 C 0.0071(7) 1.1847(6) 0.5670(6) 0.0177(15) Uani 1 1 d . . . . .
H22 H 0.0074 1.1024 0.5850 0.021 Uiso 1 1 calc R U . . .
C23 C 0.0257(7) 1.2290(7) 0.3624(6) 0.0196(15) Uani 1 1 d . . . . .
C24 C 0.0021(6) 1.1409(6) 0.7670(6) 0.0142(14) Uani 1 1 d . . . . .
N1 N 0.238(3) 0.613(2) 0.746(3) 0.264(15) Uiso 1 1 d D . . . .
H1A H 0.1812 0.6506 0.7789 0.317 Uiso 1 1 calc R U . . .
H1B H 0.2560 0.6504 0.6693 0.317 Uiso 1 1 calc R U . . .
C26 C 0.350(5) 0.621(6) 0.770(6) 0.47(5) Uiso 1 1 d D . . . .
H26A H 0.3435 0.7054 0.7539 0.708 Uiso 1 1 d R U . . .
H26B H 0.4242 0.6155 0.7134 0.708 Uiso 1 1 d R U . . .
H26C H 0.3535 0.5782 0.8467 0.708 Uiso 1 1 d R U . . .
C27 C 0.187(2) 0.486(2) 0.791(2) 0.159(10) Uiso 1 1 d D . . . .
H27A H 0.2282 0.4323 0.8389 0.238 Uiso 1 1 d R U . . .
H27B H 0.2009 0.4691 0.7247 0.238 Uiso 1 1 d R U . . .
H27C H 0.0998 0.4733 0.8350 0.238 Uiso 1 1 d R U . . .
loop_
_atom_site_aniso_label
_atom_site_aniso_U_11
_atom_site_aniso_U_22
_atom_site_aniso_U_33
_atom_site_aniso_U_23
_atom_site_aniso_U_13
_atom_site_aniso_U_12
Tb1 0.0137(2) 0.0107(3) 0.0144(3) -0.0052(2) -0.00663(19) 0.00201(18)
Tb2 0.01649(19) 0.0105(2) 0.0165(2) -0.00914(15) -0.00866(14) 0.00402(13)
O1 0.032(3) 0.010(3) 0.041(3) -0.014(3) -0.022(3) 0.003(2)
O2 0.055(4) 0.016(3) 0.074(5) -0.025(3) -0.054(4) 0.021(3)
O3 0.030(3) 0.018(3) 0.034(3) -0.015(3) -0.024(3) 0.008(2)
O4 0.022(3) 0.010(2) 0.024(3) -0.009(2) -0.013(2) 0.007(2)
O5 0.018(3) 0.031(3) 0.023(3) -0.018(3) -0.004(2) 0.008(2)
O6 0.016(3) 0.022(3) 0.051(4) -0.022(3) -0.013(3) 0.002(2)
O7 0.020(3) 0.016(3) 0.033(3) -0.011(2) -0.016(2) 0.011(2)
O8 0.030(3) 0.020(3) 0.055(4) -0.024(3) -0.025(3) 0.011(2)
O9 0.046(3) 0.018(3) 0.029(3) -0.019(3) -0.021(3) 0.016(3)
O10 0.061(4) 0.024(3) 0.024(3) -0.018(3) -0.022(3) 0.014(3)
O11 0.038(3) 0.009(3) 0.024(3) 0.000(2) -0.021(3) 0.000(2)
O12 0.071(4) 0.014(3) 0.020(3) -0.002(2) -0.030(3) 0.001(3)
O13 0.033(3) 0.067(5) 0.028(4) -0.021(4) -0.001(3) -0.013(3)
O15 0.110(18) 0.23(3) 0.115(19) -0.14(2) -0.016(15) -0.04(2)
O16 0.041(10) 0.66(8) 0.67(8) -0.03(6) 0.03(2) -0.01(2)
O18 0.135(12) 0.25(2) 0.070(8) -0.046(11) -0.045(8) 0.083(13)
C1 0.015(3) 0.011(3) 0.025(4) -0.010(3) -0.012(3) 0.003(3)
C2 0.022(4) 0.015(4) 0.028(4) -0.012(3) -0.015(3) 0.002(3)
C3 0.021(4) 0.006(3) 0.030(4) -0.007(3) -0.013(3) 0.004(3)
C4 0.022(4) 0.012(4) 0.032(4) -0.011(3) -0.020(3) 0.010(3)
C5 0.015(3) 0.011(4) 0.025(4) -0.008(3) -0.010(3) 0.002(3)
C6 0.019(4) 0.010(3) 0.030(4) -0.009(3) -0.015(3) 0.003(3)
C7 0.016(3) 0.010(3) 0.021(4) -0.007(3) -0.009(3) 0.003(3)
C8 0.023(4) 0.013(4) 0.030(4) -0.013(3) -0.015(3) 0.005(3)
C9 0.016(3) 0.011(3) 0.024(4) -0.007(3) -0.011(3) 0.001(3)
C10 0.021(4) 0.013(4) 0.021(4) -0.010(3) -0.013(3) 0.006(3)
C11 0.012(3) 0.008(3) 0.014(3) -0.006(3) -0.005(3) 0.001(3)
C12 0.019(3) 0.008(3) 0.025(4) -0.008(3) -0.012(3) 0.002(3)
C13 0.017(3) 0.012(4) 0.021(4) -0.010(3) -0.008(3) 0.003(3)
C14 0.014(3) 0.015(4) 0.027(4) -0.012(3) -0.010(3) 0.002(3)
C15 0.014(3) 0.017(4) 0.022(4) -0.007(3) -0.006(3) 0.004(3)
C16 0.028(4) 0.013(4) 0.020(4) -0.008(3) -0.014(3) 0.006(3)
C17 0.033(4) 0.006(3) 0.023(4) -0.011(3) -0.011(3) 0.006(3)
C18 0.055(5) 0.010(4) 0.016(4) -0.005(3) -0.018(4) 0.006(4)
C19 0.044(5) 0.012(4) 0.015(4) -0.009(3) -0.013(4) 0.006(3)
C20 0.044(5) 0.008(4) 0.018(4) -0.009(3) -0.016(4) 0.005(3)
C21 0.030(4) 0.004(3) 0.011(3) 0.002(3) -0.009(3) 0.003(3)
C22 0.032(4) 0.010(3) 0.017(4) -0.008(3) -0.013(3) 0.008(3)
C23 0.032(4) 0.014(4) 0.015(4) -0.005(3) -0.014(3) 0.005(3)
C24 0.019(3) 0.012(4) 0.011(3) -0.006(3) -0.004(3) 0.006(3)
loop_
_atom_type_symbol
_atom_type_description
_atom_type_scat_dispersion_real
_atom_type_scat_dispersion_imag
_atom_type_scat_source
C C 0.0033 0.0016 'International Tables Vol C Tables 4.2.6.8 and 6.1.1.4'
H H 0.0000 0.0000 'International Tables Vol C Tables 4.2.6.8 and 6.1.1.4'
O O 0.0106 0.0060 'International Tables Vol C Tables 4.2.6.8 and 6.1.1.4'
Tb Tb -0.1723 4.1537 'International Tables Vol C Tables 4.2.6.8 and 6.1.1.4'
N N 0.0061 0.0033 'International Tables Vol C Tables 4.2.6.8 and 6.1.1.4'
loop_
_geom_angle_atom_site_label_1
_geom_angle_atom_site_label_2
_geom_angle_atom_site_label_3
_geom_angle
_geom_angle_site_symmetry_1
_geom_angle_site_symmetry_3
_geom_angle_publ_flag
O6 Tb1 O6 180.0 2_675 1_455 ?
O6 Tb1 O4 99.80(18) 2_675 2_575 ?
O6 Tb1 O4 80.20(18) 1_455 2_575 ?
O6 Tb1 O4 80.20(18) 2_675 . ?
O6 Tb1 O4 99.80(18) 1_455 . ?
O4 Tb1 O4 180.0(2) 2_575 . ?
O6 Tb1 O12 101.4(2) 2_675 2_576 ?
O6 Tb1 O12 78.6(2) 1_455 2_576 ?
O4 Tb1 O12 107.48(19) 2_575 2_576 ?
O4 Tb1 O12 72.52(19) . 2_576 ?
O6 Tb1 O12 78.6(2) 2_675 1_554 ?
O6 Tb1 O12 101.4(2) 1_455 1_554 ?
O4 Tb1 O12 72.52(19) 2_575 1_554 ?
O4 Tb1 O12 107.48(19) . 1_554 ?
O12 Tb1 O12 180.0 2_576 1_554 ?
O6 Tb1 O11 100.3(2) 2_675 1_554 ?
O6 Tb1 O11 79.7(2) 1_455 1_554 ?
O4 Tb1 O11 113.44(17) 2_575 1_554 ?
O4 Tb1 O11 66.56(17) . 1_554 ?
O12 Tb1 O11 128.94(17) 2_576 1_554 ?
O12 Tb1 O11 51.06(17) 1_554 1_554 ?
O6 Tb1 O11 79.7(2) 2_675 2_576 ?
O6 Tb1 O11 100.3(2) 1_455 2_576 ?
O4 Tb1 O11 66.56(17) 2_575 2_576 ?
O4 Tb1 O11 113.44(17) . 2_576 ?
O12 Tb1 O11 51.06(17) 2_576 2_576 ?
O12 Tb1 O11 128.94(17) 1_554 2_576 ?
O11 Tb1 O11 180.0(2) 1_554 2_576 ?
O6 Tb1 C24 90.8(2) 2_675 2_576 ?
O6 Tb1 C24 89.2(2) 1_455 2_576 ?
O4 Tb1 C24 86.99(18) 2_575 2_576 ?
O4 Tb1 C24 93.01(18) . 2_576 ?
O12 Tb1 C24 25.32(18) 2_576 2_576 ?
O12 Tb1 C24 154.68(18) 1_554 2_576 ?
O11 Tb1 C24 154.26(18) 1_554 2_576 ?
O11 Tb1 C24 25.74(18) 2_576 2_576 ?
O6 Tb1 C24 89.2(2) 2_675 1_554 ?
O6 Tb1 C24 90.8(2) 1_455 1_554 ?
O4 Tb1 C24 93.01(18) 2_575 1_554 ?
O4 Tb1 C24 86.99(18) . 1_554 ?
O12 Tb1 C24 154.68(19) 2_576 1_554 ?
O12 Tb1 C24 25.32(18) 1_554 1_554 ?
O11 Tb1 C24 25.74(18) 1_554 1_554 ?
O11 Tb1 C24 154.26(18) 2_576 1_554 ?
C24 Tb1 C24 180.0 2_576 1_554 ?
O1 Tb2 O5 72.18(19) 1_565 2_675 ?
O1 Tb2 O7 77.49(18) 1_565 . ?
O5 Tb2 O7 75.68(18) 2_675 . ?
O1 Tb2 O13 143.1(2) 1_565 . ?
O5 Tb2 O13 138.2(2) 2_675 . ?
O7 Tb2 O13 123.4(2) . . ?
O1 Tb2 O11 142.47(19) 1_565 2_576 ?
O5 Tb2 O11 79.61(19) 2_675 2_576 ?
O7 Tb2 O11 71.84(17) . 2_576 ?
O13 Tb2 O11 73.7(2) . 2_576 ?
O1 Tb2 O3 85.77(18) 1_565 2_575 ?
O5 Tb2 O3 81.66(18) 2_675 2_575 ?
O7 Tb2 O3 155.03(19) . 2_575 ?
O13 Tb2 O3 80.8(2) . 2_575 ?
O11 Tb2 O3 114.41(16) 2_576 2_575 ?
O1 Tb2 O9 86.06(19) 1_565 . ?
O5 Tb2 O9 144.19(18) 2_675 . ?
O7 Tb2 O9 71.98(18) . . ?
O13 Tb2 O9 74.6(2) . . ?
O11 Tb2 O9 104.04(18) 2_576 . ?
O3 Tb2 O9 125.67(17) 2_575 . ?
O1 Tb2 O10 72.0(2) 1_565 . ?
O5 Tb2 O10 137.7(2) 2_675 . ?
O7 Tb2 O10 117.10(19) . . ?
O13 Tb2 O10 71.2(2) . . ?
O11 Tb2 O10 142.0(2) 2_576 . ?
O3 Tb2 O10 73.89(18) 2_575 . ?
O9 Tb2 O10 52.56(18) . . ?
O1 Tb2 O4 125.68(18) 1_565 2_575 ?
O5 Tb2 O4 71.59(17) 2_675 2_575 ?
O7 Tb2 O4 128.74(16) . 2_575 ?
O13 Tb2 O4 67.99(19) . 2_575 ?
O11 Tb2 O4 64.33(16) 2_576 2_575 ?
O3 Tb2 O4 50.10(15) 2_575 2_575 ?
O9 Tb2 O4 142.59(18) . 2_575 ?
O10 Tb2 O4 113.73(18) . 2_575 ?
O1 Tb2 C7 106.79(19) 1_565 2_575 ?
O5 Tb2 C7 76.59(19) 2_675 2_575 ?
O7 Tb2 C7 148.96(18) . 2_575 ?
O13 Tb2 C7 71.7(2) . 2_575 ?
O11 Tb2 C7 89.69(18) 2_576 2_575 ?
O3 Tb2 C7 24.73(17) 2_575 2_575 ?
O9 Tb2 C7 138.17(19) . 2_575 ?
O10 Tb2 C7 92.91(19) . 2_575 ?
O4 Tb2 C7 25.43(16) 2_575 2_575 ?
C8 O1 Tb2 142.3(6) . 1_545 ?
C7 O3 Tb2 100.9(4) . 2_575 ?
C7 O4 Tb1 149.5(5) . . ?
C7 O4 Tb2 89.4(4) . 2_575 ?
Tb1 O4 Tb2 107.06(18) . 2_575 ?
C15 O5 Tb2 137.4(5) . 2_675 ?
C15 O6 Tb1 124.9(5) . 1_655 ?
C16 O7 Tb2 150.4(5) . . ?
C16 O8 H8 109.5 . . ?
C23 O9 Tb2 94.3(4) . . ?
C23 O10 Tb2 91.2(4) . . ?
C24 O11 Tb2 160.1(5) . 2_576 ?
C24 O11 Tb1 90.5(4) . 1_556 ?
Tb2 O11 Tb1 107.51(19) 2_576 1_556 ?
C24 O12 Tb1 98.8(4) . 1_556 ?
Tb2 O13 H13A 121.2 . . ?
Tb2 O13 H13B 116.4 . . ?
H13A O13 H13B 121.3 . . ?
H14A O14 H14B 121.4 . . ?
H15A O15 H15B 121.4 . . ?
H16A O16 H16B 121.2 . . ?
H17A O17 H17B 120.9 . . ?
H18A O18 H18B 121.3 . . ?
C2 C1 C6 120.2(6) . . ?
C2 C1 C7 119.8(6) . . ?
C6 C1 C7 119.8(6) . . ?
C1 C2 C3 119.9(6) . . ?
C1 C2 H2 120.1 . . ?
C3 C2 H2 120.1 . . ?
C4 C3 C2 120.0(6) . . ?
C4 C3 C8 121.2(6) . . ?
C2 C3 C8 118.8(6) . . ?
C3 C4 C5 121.0(6) . . ?
C3 C4 H4 119.5 . . ?
C5 C4 H4 119.5 . . ?
C4 C5 C6 118.2(6) . . ?
C4 C5 C9 123.1(6) . . ?
C6 C5 C9 118.7(6) . . ?
C1 C6 C5 120.6(6) . . ?
C1 C6 H6 119.7 . . ?
C5 C6 H6 119.7 . . ?
O3 C7 O4 119.3(6) . . ?
O3 C7 C1 120.6(6) . . ?
O4 C7 C1 119.9(6) . . ?
O3 C7 Tb2 54.3(3) . 2_575 ?
O4 C7 Tb2 65.2(4) . 2_575 ?
C1 C7 Tb2 170.7(5) . 2_575 ?
O1 C8 O2 123.6(7) . . ?
O1 C8 C3 117.8(6) . . ?
O2 C8 C3 118.5(6) . . ?
C14 C9 C10 118.2(6) . . ?
C14 C9 C5 119.6(6) . . ?
C10 C9 C5 122.0(6) . . ?
C11 C10 C9 120.6(6) . . ?
C11 C10 H10 119.7 . . ?
C9 C10 H10 119.7 . . ?
C10 C11 C12 120.5(6) . . ?
C10 C11 C15 121.4(6) . . ?
C12 C11 C15 117.9(6) . . ?
C11 C12 C13 120.4(6) . . ?
C11 C12 H12 119.8 . . ?
C13 C12 H12 119.8 . . ?
C12 C13 C14 118.0(6) . . ?
C12 C13 C16 121.3(6) . . ?
C14 C13 C16 120.5(6) . . ?
C9 C14 C13 122.2(6) . . ?
C9 C14 H14 118.9 . . ?
C13 C14 H14 118.9 . . ?
O6 C15 O5 123.6(6) . . ?
O6 C15 C11 117.1(6) . . ?
O5 C15 C11 119.3(6) . . ?
O7 C16 O8 124.9(7) . . ?
O7 C16 C13 119.4(6) . . ?
O8 C16 C13 115.6(6) . . ?
C18 C17 C22 119.3(6) . . ?
C18 C17 C23 120.1(7) . . ?
C22 C17 C23 120.6(6) . . ?
C17 C18 C19 121.3(7) . . ?
C17 C18 H18 119.3 . . ?
C19 C18 H18 119.3 . . ?
C20 C19 C18 117.7(7) . . ?
C20 C19 C19 123.1(8) . 2_586 ?
C18 C19 C19 119.2(8) . 2_586 ?
C19 C20 C21 123.1(6) . . ?
C19 C20 H20 118.5 . . ?
C21 C20 H20 118.5 . . ?
C22 C21 C20 119.1(6) . . ?
C22 C21 C24 122.1(6) . . ?
C20 C21 C24 118.8(6) . . ?
C21 C22 C17 119.5(6) . . ?
C21 C22 H22 120.3 . . ?
C17 C22 H22 120.3 . . ?
O9 C23 O10 121.7(7) . . ?
O9 C23 C17 121.5(6) . . ?
O10 C23 C17 116.8(6) . . ?
O12 C24 O11 119.7(6) . . ?
O12 C24 C21 118.6(6) . . ?
O11 C24 C21 121.6(6) . . ?
O12 C24 Tb1 55.9(4) . 1_556 ?
O11 C24 Tb1 63.8(4) . 1_556 ?
C21 C24 Tb1 174.0(5) . 1_556 ?
C27 N1 C26 112(4) . . ?
C27 N1 H1A 109.3 . . ?
C26 N1 H1A 109.3 . . ?
C27 N1 H1B 109.3 . . ?
C26 N1 H1B 109.3 . . ?
H1A N1 H1B 107.9 . . ?
N1 C26 H26A 90.3 . . ?
N1 C26 H26B 113.4 . . ?
H26A C26 H26B 109.5 . . ?
N1 C26 H26C 122.7 . . ?
H26A C26 H26C 109.5 . . ?
H26B C26 H26C 109.5 . . ?
N1 C27 H27A 110.0 . . ?
N1 C27 H27B 107.7 . . ?
H27A C27 H27B 109.5 . . ?
N1 C27 H27C 110.7 . . ?
H27A C27 H27C 109.5 . . ?
H27B C27 H27C 109.5 . . ?
loop_
_geom_bond_atom_site_label_1
_geom_bond_atom_site_label_2
_geom_bond_distance
_geom_bond_site_symmetry_2
_geom_bond_publ_flag
Tb1 O6 2.293(5) 2_675 ?
Tb1 O6 2.293(5) 1_455 ?
Tb1 O4 2.336(5) 2_575 ?
Tb1 O4 2.336(5) . ?
Tb1 O12 2.421(5) 2_576 ?
Tb1 O12 2.421(5) 1_554 ?
Tb1 O11 2.591(5) 1_554 ?
Tb1 O11 2.591(5) 2_576 ?
Tb1 C24 2.889(7) 2_576 ?
Tb1 C24 2.889(7) 1_554 ?
Tb2 O1 2.319(5) 1_565 ?
Tb2 O5 2.385(5) 2_675 ?
Tb2 O7 2.402(5) . ?
Tb2 O13 2.403(6) . ?
Tb2 O11 2.406(5) 2_576 ?
Tb2 O3 2.435(5) 2_575 ?
Tb2 O9 2.453(5) . ?
Tb2 O10 2.499(5) . ?
Tb2 O4 2.671(5) 2_575 ?
Tb2 C7 2.943(7) 2_575 ?
O1 C8 1.240(9) . ?
O1 Tb2 2.319(5) 1_545 ?
O2 C8 1.265(9) . ?
O3 C7 1.254(8) . ?
O3 Tb2 2.435(5) 2_575 ?
O4 C7 1.264(8) . ?
O4 Tb2 2.671(5) 2_575 ?
O5 C15 1.252(9) . ?
O5 Tb2 2.385(5) 2_675 ?
O6 C15 1.247(9) . ?
O6 Tb1 2.293(5) 1_655 ?
O7 C16 1.225(9) . ?
O8 C16 1.287(9) . ?
O8 H8 0.8200 . ?
O9 C23 1.238(9) . ?
O10 C23 1.273(9) . ?
O11 C24 1.255(9) . ?
O11 Tb2 2.406(5) 2_576 ?
O11 Tb1 2.591(5) 1_556 ?
O12 C24 1.250(9) . ?
O12 Tb1 2.421(5) 1_556 ?
O13 H13A 0.8205 . ?
O13 H13B 0.8203 . ?
O14 H14A 0.8200 . ?
O14 H14B 0.8200 . ?
O15 H15A 0.8200 . ?
O15 H15B 0.8200 . ?
O16 H16A 0.8203 . ?
O16 H16B 0.8201 . ?
O17 H17A 0.8218 . ?
O17 H17B 0.8228 . ?
O18 H18A 0.8203 . ?
O18 H18B 0.8199 . ?
C1 C2 1.364(10) . ?
C1 C6 1.401(9) . ?
C1 C7 1.502(9) . ?
C2 C3 1.406(10) . ?
C2 H2 0.9300 . ?
C3 C4 1.383(10) . ?
C3 C8 1.514(9) . ?
C4 C5 1.395(10) . ?
C4 H4 0.9300 . ?
C5 C6 1.404(10) . ?
C5 C9 1.490(9) . ?
C6 H6 0.9300 . ?
C7 Tb2 2.943(7) 2_575 ?
C9 C14 1.387(10) . ?
C9 C10 1.403(10) . ?
C10 C11 1.388(9) . ?
C10 H10 0.9300 . ?
C11 C12 1.391(9) . ?
C11 C15 1.510(9) . ?
C12 C13 1.401(10) . ?
C12 H12 0.9300 . ?
C13 C14 1.410(9) . ?
C13 C16 1.483(9) . ?
C14 H14 0.9300 . ?
C17 C18 1.400(10) . ?
C17 C22 1.410(10) . ?
C17 C23 1.500(10) . ?
C18 C19 1.408(10) . ?
C18 H18 0.9300 . ?
C19 C20 1.351(11) . ?
C19 C19 1.500(14) 2_586 ?
C20 C21 1.412(10) . ?
C20 H20 0.9300 . ?
C21 C22 1.382(10) . ?
C21 C24 1.495(10) . ?
C22 H22 0.9300 . ?
C24 Tb1 2.889(7) 1_556 ?
N1 C27 1.469(10) . ?
N1 C26 1.474(10) . ?
N1 H1A 0.8900 . ?
N1 H1B 0.8900 . ?
C26 H26A 0.9600 . ?
C26 H26B 0.9600 . ?
C26 H26C 0.9600 . ?
C27 H27A 0.9600 . ?
C27 H27B 0.9600 . ?
C27 H27C 0.9600 . ?
loop_
_geom_hbond_atom_site_label_D
_geom_hbond_atom_site_label_H
_geom_hbond_atom_site_label_A
_geom_hbond_distance_DH
_geom_hbond_distance_HA
_geom_hbond_distance_DA
_geom_hbond_angle_DHA
_geom_hbond_site_symmetry_A
C27 H27C O3 0.96 2.62 3.30(3) 128.6 2_566
C26 H26A O17 0.96 2.42 3.33(17) 158.4 .
N1 H1A O10 0.89 2.44 2.98(4) 119.9 2_576
N1 H1A O3 0.89 2.49 3.31(4) 154.9 1_556
O18 H18B O9 0.82 2.09 2.886(14) 164.2 1_545
O17 H17B O8 0.82 2.07 2.73(16) 136.2 2_676
O17 H17A O13 0.82 2.58 3.13(16) 125.6 2_576
O16 H16B O14 0.82 1.79 2.21(6) 110.1 .
O15 H15B O13 0.82 1.80 2.61(2) 168.6 1_655
O15 H15A O17 0.82 1.55 2.02(16) 113.2 2_676
O13 H13B O17 0.82 2.55 3.13(17) 129.4 2_576
O13 H13B O15 0.82 1.86 2.61(2) 150.3 1_455
O13 H13A O18 0.82 1.90 2.675(14) 157.0 2_566
O8 H8 O2 0.82 1.74 2.492(7) 152.4 1_565
C27 H27C O3 0.96 2.62 3.30(3) 128.6 2_566
C26 H26A O17 0.96 2.42 3.33(17) 158.4 .
N1 H1A O10 0.89 2.44 2.98(4) 119.9 2_576
N1 H1A O3 0.89 2.49 3.31(4) 154.9 1_556
O18 H18B O9 0.82 2.09 2.886(14) 164.2 1_545
O17 H17B O8 0.82 2.07 2.73(16) 136.2 2_676
O17 H17A O13 0.82 2.58 3.13(16) 125.6 2_576
O16 H16B O14 0.82 1.79 2.21(6) 110.1 .
O15 H15B O13 0.82 1.80 2.61(2) 168.6 1_655
O15 H15A O17 0.82 1.55 2.02(16) 113.2 2_676
O13 H13B O17 0.82 2.55 3.13(17) 129.4 2_576
O13 H13B O15 0.82 1.86 2.61(2) 150.3 1_455
O13 H13A O18 0.82 1.90 2.675(14) 157.0 2_566
O8 H8 O2 0.82 1.74 2.492(7) 152.4 1_565
O8 H8 O2 0.82 1.74 2.492(7) 152.4 1_565
O13 H13A O18 0.82 1.90 2.675(14) 157.0 2_566
O13 H13B O15 0.82 1.86 2.61(2) 150.3 1_455
O13 H13B O17 0.82 2.55 3.13(17) 129.4 2_576
O15 H15A O17 0.82 1.55 2.02(16) 113.2 2_676
O15 H15B O13 0.82 1.80 2.61(2) 168.6 1_655
O16 H16B O14 0.82 1.79 2.21(6) 110.1 .
O17 H17A O13 0.82 2.58 3.13(16) 125.6 2_576
O17 H17B O8 0.82 2.07 2.73(16) 136.2 2_676
O18 H18B O9 0.82 2.09 2.886(14) 164.2 1_545
N1 H1A O3 0.89 2.49 3.31(4) 154.9 1_556
N1 H1A O10 0.89 2.44 2.98(4) 119.9 2_576
C26 H26A O17 0.96 2.42 3.33(17) 158.4 .
C27 H27C O3 0.96 2.62 3.30(3) 128.6 2_566
loop_
_geom_torsion_atom_site_label_1
_geom_torsion_atom_site_label_2
_geom_torsion_atom_site_label_3
_geom_torsion_atom_site_label_4
_geom_torsion
_geom_torsion_site_symmetry_1
_geom_torsion_site_symmetry_2
_geom_torsion_site_symmetry_3
_geom_torsion_site_symmetry_4
_geom_torsion_publ_flag
C6 C1 C2 C3 -1.4(11) . . . . ?
C7 C1 C2 C3 175.3(7) . . . . ?
C1 C2 C3 C4 1.8(12) . . . . ?
C1 C2 C3 C8 -178.2(7) . . . . ?
C2 C3 C4 C5 0.1(12) . . . . ?
C8 C3 C4 C5 -179.9(7) . . . . ?
C3 C4 C5 C6 -2.3(11) . . . . ?
C3 C4 C5 C9 -179.6(7) . . . . ?
C2 C1 C6 C5 -0.8(11) . . . . ?
C7 C1 C6 C5 -177.6(7) . . . . ?
C4 C5 C6 C1 2.6(11) . . . . ?
C9 C5 C6 C1 -180.0(7) . . . . ?
Tb2 O3 C7 O4 5.7(7) 2_575 . . . ?
Tb2 O3 C7 C1 -170.6(6) 2_575 . . . ?
Tb1 O4 C7 O3 119.0(8) . . . . ?
Tb2 O4 C7 O3 -5.1(7) 2_575 . . . ?
Tb1 O4 C7 C1 -64.7(11) . . . . ?
Tb2 O4 C7 C1 171.2(6) 2_575 . . . ?
Tb1 O4 C7 Tb2 124.1(8) . . . 2_575 ?
C2 C1 C7 O3 -3.3(11) . . . . ?
C6 C1 C7 O3 173.5(7) . . . . ?
C2 C1 C7 O4 -179.6(7) . . . . ?
C6 C1 C7 O4 -2.8(11) . . . . ?
Tb2 O1 C8 O2 71.5(12) 1_545 . . . ?
Tb2 O1 C8 C3 -110.5(8) 1_545 . . . ?
C4 C3 C8 O1 -171.3(7) . . . . ?
C2 C3 C8 O1 8.7(11) . . . . ?
C4 C3 C8 O2 6.7(12) . . . . ?
C2 C3 C8 O2 -173.2(8) . . . . ?
C4 C5 C9 C14 -143.6(8) . . . . ?
C6 C5 C9 C14 39.1(10) . . . . ?
C4 C5 C9 C10 40.4(11) . . . . ?
C6 C5 C9 C10 -136.8(8) . . . . ?
C14 C9 C10 C11 -2.9(11) . . . . ?
C5 C9 C10 C11 173.2(7) . . . . ?
C9 C10 C11 C12 2.9(11) . . . . ?
C9 C10 C11 C15 -172.2(7) . . . . ?
C10 C11 C12 C13 -2.4(11) . . . . ?
C15 C11 C12 C13 172.9(7) . . . . ?
C11 C12 C13 C14 1.8(11) . . . . ?
C11 C12 C13 C16 -173.2(7) . . . . ?
C10 C9 C14 C13 2.4(11) . . . . ?
C5 C9 C14 C13 -173.8(7) . . . . ?
C12 C13 C14 C9 -1.8(11) . . . . ?
C16 C13 C14 C9 173.2(7) . . . . ?
Tb1 O6 C15 O5 4.3(11) 1_655 . . . ?
Tb1 O6 C15 C11 -173.4(5) 1_655 . . . ?
Tb2 O5 C15 O6 -65.7(11) 2_675 . . . ?
Tb2 O5 C15 C11 112.0(7) 2_675 . . . ?
C10 C11 C15 O6 -179.3(7) . . . . ?
C12 C11 C15 O6 5.5(10) . . . . ?
C10 C11 C15 O5 2.9(11) . . . . ?
C12 C11 C15 O5 -172.3(7) . . . . ?
Tb2 O7 C16 O8 44.9(15) . . . . ?
Tb2 O7 C16 C13 -132.2(8) . . . . ?
C12 C13 C16 O7 175.9(7) . . . . ?
C14 C13 C16 O7 1.0(11) . . . . ?
C12 C13 C16 O8 -1.5(11) . . . . ?
C14 C13 C16 O8 -176.4(7) . . . . ?
C22 C17 C18 C19 0.2(13) . . . . ?
C23 C17 C18 C19 -177.4(8) . . . . ?
C17 C18 C19 C20 0.6(13) . . . . ?
C17 C18 C19 C19 -178.7(9) . . . 2_586 ?
C18 C19 C20 C21 -0.6(13) . . . . ?
C19 C19 C20 C21 178.7(9) 2_586 . . . ?
C19 C20 C21 C22 -0.2(12) . . . . ?
C19 C20 C21 C24 177.8(8) . . . . ?
C20 C21 C22 C17 1.0(11) . . . . ?
C24 C21 C22 C17 -176.9(7) . . . . ?
C18 C17 C22 C21 -1.0(12) . . . . ?
C23 C17 C22 C21 176.6(7) . . . . ?
Tb2 O9 C23 O10 4.9(8) . . . . ?
Tb2 O9 C23 C17 -173.1(6) . . . . ?
Tb2 O10 C23 O9 -4.8(8) . . . . ?
Tb2 O10 C23 C17 173.3(6) . . . . ?
C18 C17 C23 O9 158.9(8) . . . . ?
C22 C17 C23 O9 -18.7(12) . . . . ?
C18 C17 C23 O10 -19.2(11) . . . . ?
C22 C17 C23 O10 163.2(7) . . . . ?
Tb1 O12 C24 O11 0.7(8) 1_556 . . . ?
Tb1 O12 C24 C21 177.1(5) 1_556 . . . ?
Tb2 O11 C24 O12 -155.6(11) 2_576 . . . ?
Tb1 O11 C24 O12 -0.6(7) 1_556 . . . ?
Tb2 O11 C24 C21 28.1(18) 2_576 . . . ?
Tb1 O11 C24 C21 -176.9(6) 1_556 . . . ?
Tb2 O11 C24 Tb1 -155.0(15) 2_576 . . 1_556 ?
C22 C21 C24 O12 159.8(7) . . . . ?
C20 C21 C24 O12 -18.1(11) . . . . ?
C22 C21 C24 O11 -23.9(11) . . . . ?
C20 C21 C24 O11 158.2(7) . . . . ?
