#------------------------------------------------------------------------------
#$Date: 2020-03-27 00:15:17 +0200 (Fri, 27 Mar 2020) $
#$Revision: 249733 $
#$URL: file:///home/coder/svn-repositories/cod/cif/4/51/75/4517517.cif $
#------------------------------------------------------------------------------
#
# This file is available in the Crystallography Open Database (COD),
# http://www.crystallography.net/
#
# All data on this site have been placed in the public domain by the
# contributors.
#
data_4517517
loop_
_publ_author_name
'Li, Liangying'
'Guo, Lidong'
'Zheng, Fang'
'Zhang, Zhiguo'
'Yang, Qiwei'
'Yang, Yiwen'
'Ren, Qilong'
'Bao, Zongbi'
_publ_section_title
;
 Calcium-Based Metal-Organic Framework for Simultaneous Capture of Trace
 Propyne and Propadiene from Propylene.
;
_journal_name_full               'ACS applied materials &amp; interfaces'
_journal_paper_doi               10.1021/acsami.0c03139
_journal_year                    2020
_chemical_formula_sum            'C11 H4 Ca2 O10'
_chemical_formula_weight         376.30
_space_group_crystal_system      orthorhombic
_space_group_IT_number           43
_space_group_name_Hall           'F 2 -2d'
_space_group_name_H-M_alt        'F d d 2'
_atom_sites_solution_hydrogens   mixed
_audit_creation_method           SHELXL-2018/3
_cell_angle_alpha                90
_cell_angle_beta                 90
_cell_angle_gamma                90
_cell_formula_units_Z            8
_cell_length_a                   20.222(3)
_cell_length_b                   18.433(3)
_cell_length_c                   7.6641(16)
_cell_measurement_reflns_used    5771
_cell_measurement_temperature    296(2)
_cell_measurement_theta_max      32.75
_cell_measurement_theta_min      2.99
_cell_volume                     2856.8(9)
_computing_structure_refinement  'SHELXL-2018/3 (Sheldrick, 2018)'
_diffrn_ambient_temperature      296(2)
_diffrn_measured_fraction_theta_full 0.978
_diffrn_measured_fraction_theta_max 0.971
_diffrn_measurement_device_type  'BRUKER D8 VENTURE PHOTON II'
_diffrn_radiation_type           MoK\a
_diffrn_radiation_wavelength     0.71073
_diffrn_reflns_av_unetI/netI     0.0549
_diffrn_reflns_Laue_measured_fraction_full 0.978
_diffrn_reflns_Laue_measured_fraction_max 0.971
_diffrn_reflns_limit_h_max       26
_diffrn_reflns_limit_h_min       -18
_diffrn_reflns_limit_k_max       24
_diffrn_reflns_limit_k_min       -17
_diffrn_reflns_limit_l_max       10
_diffrn_reflns_limit_l_min       0
_diffrn_reflns_number            6086
_diffrn_reflns_point_group_measured_fraction_full 0.530
_diffrn_reflns_point_group_measured_fraction_max 0.521
_diffrn_reflns_theta_full        25.242
_diffrn_reflns_theta_max         28.272
_diffrn_reflns_theta_min         2.991
_exptl_absorpt_coefficient_mu    0.850
_exptl_crystal_density_diffrn    1.750
_exptl_crystal_description       block
_exptl_crystal_F_000             1520
_exptl_crystal_size_max          0.200
_exptl_crystal_size_mid          0.100
_exptl_crystal_size_min          0.100
_refine_diff_density_max         0.780
_refine_diff_density_min         -0.445
_refine_diff_density_rms         0.103
_refine_ls_abs_structure_details
;
No quotients, so Flack parameter determined by classical intensity fit
;
_refine_ls_abs_structure_Flack   0.11(4)
_refine_ls_extinction_method     none
_refine_ls_goodness_of_fit_ref   1.057
_refine_ls_hydrogen_treatment    constr
_refine_ls_matrix_type           full
_refine_ls_number_parameters     109
_refine_ls_number_reflns         6086
_refine_ls_number_restraints     164
_refine_ls_restrained_S_all      1.050
_refine_ls_R_factor_all          0.0704
_refine_ls_R_factor_gt           0.0597
_refine_ls_shift/su_max          0.000
_refine_ls_shift/su_mean         0.000
_refine_ls_structure_factor_coef Fsqd
_refine_ls_weighting_details
'w=1/[\s^2^(Fo^2^)+(0.0896P)^2^+11.2336P] where P=(Fo^2^+2Fc^2^)/3'
_refine_ls_weighting_scheme      calc
_refine_ls_wR_factor_gt          0.1587
_refine_ls_wR_factor_ref         0.1705
_reflns_Friedel_coverage         0.000
_reflns_Friedel_fraction_full    0.000
_reflns_Friedel_fraction_max     0.000
_reflns_number_gt                5438
_reflns_number_total             6086
_reflns_threshold_expression     'I > 2\s(I)'
_cod_data_source_file            am0c03139_si_002.cif
_cod_data_source_block           20190820_zju_guo_0m_5_sx
_cod_database_code               4517517
_shelx_shelxl_version_number     2018/3
_shelx_space_group_comment
;
The symmetry employed for this shelxl refinement is uniquely defined
by the following loop, which should always be used as a source of
symmetry information in preference to the above space-group names.
They are only intended as comments.
;
_shelx_estimated_absorpt_t_min   0.848
_shelx_estimated_absorpt_t_max   0.920
_shelx_res_file
;
TITL 20190820_ZJU_GUo_P 21         R = 0.07 New:Fdd2
    20190820_zju_guo_0m_5_sx.res
    created by SHELXL-2018/3 at 11:48:40 on 23-Aug-2019
CELL  0.71073   20.2220   18.4330    7.6641    90.000    90.000    90.000
ZERR        8    0.0030    0.0030    0.0016     0.000     0.000     0.000
LATT  -4
SYMM             - X ,            - Y ,              Z
SYMM     0.25000 - X ,    0.25000 + Y ,    0.25000 + Z
SYMM     0.75000 + X ,    0.75000 - Y ,    0.25000 + Z
SFAC  C  H Ca  O
UNIT 88 32 16 80
LIST 6 ! automatically inserted. Change 6 to 4 for CHECKCIF!!
TEMP    23
L.S. 5
FMAP 2
PLAN -20
ACTA
BOND $H
CONF
merg 0
size 0.1 0.1 0.2
simu 0.01 0.02 3.0
delu
WGHT    0.089600   11.233600
BASF   0.20474   0.29853   0.18010
FVAR       0.34728
CA1   3   -0.275731    0.529304    0.703547    11.00000    0.01737    0.01939 =
         0.00936    0.00042    0.00057   -0.00058
O1    4   -0.442395    0.284644    1.153699    11.00000    0.02662    0.02798 =
         0.01121    0.00143    0.00214   -0.01002
O2    4   -0.339958    0.426591    0.747794    11.00000    0.03663    0.02898 =
         0.01221    0.00191    0.00308   -0.01187
O3    4   -0.316167    0.397499    1.162867    11.00000    0.02831    0.03924 =
         0.01248    0.00019   -0.00392   -0.01705
O7    4   -0.459227    0.305722    0.758905    11.00000    0.02607    0.03099 =
         0.00988   -0.00105   -0.00133   -0.00815
O8    4   -0.356103    0.621892    0.699958    11.00000    0.05327    0.05367 =
         0.01600   -0.00405   -0.00459    0.03227
C3    1   -0.410510    0.323554    1.048190    11.00000    0.01924    0.02066 =
         0.01216   -0.00332   -0.00098   -0.00440
C4    1   -0.418652    0.333831    0.863678    11.00000    0.02441    0.01986 =
         0.01450   -0.00066    0.00209   -0.00495
C5    1   -0.364814    0.386344    0.862117    11.00000    0.02101    0.02232 =
         0.01205   -0.00053   -0.00082   -0.00661
C6    1   -0.355858    0.374265    1.047978    11.00000    0.02080    0.02521 =
         0.01057   -0.00039   -0.00051   -0.00531
C1S   1   -0.500000    0.500000    0.955625    10.50000    0.06039    0.04603 =
         0.18825    0.00000    0.00000   -0.01112
C2S   1   -0.500000    0.500000    1.115779    10.50000    0.08353    0.10763 =
         0.18716    0.00000    0.00000   -0.03224
AFIX 163
H2S   2   -0.500000    0.500000    1.237123    10.50000   -1.20000
AFIX   0
C3S   1   -0.500000    0.500000    0.766460    10.50000    0.05438    0.07854 =
         0.18924    0.00000    0.00000    0.00874
part -1 10.5
AFIX   3
H3SA  2   -0.488881    0.452437    0.724706    10.50000   -1.50000
H3SB  2   -0.468013    0.534345    0.724707    10.50000   -1.50000
H3SC  2   -0.543106    0.513217    0.724706    10.50000   -1.50000
part 0
AFIX   0
HKLF 5 1 -1.0000 0.0000 1.0000 1.0000 0.0000 1.0000 0.0000 1.0000 0.0000




REM  20190820_ZJU_GUo_P 21         R = 0.07 New:Fdd2
REM wR2 = 0.170486, GooF = S = 1.05732, Restrained GooF = 1.04981 for all data
REM R1 = 0.059740 for 5438 Fo > 4sig(Fo) and 0.070414 for all 6086 data
REM 109 parameters refined using 164 restraints

END

WGHT      0.0867     11.5581

REM Highest difference peak  0.780,  deepest hole -0.445,  1-sigma level  0.103
Q1    1  -0.3162  0.5705  0.7069  11.00000  0.05    0.78
Q2    1  -0.3195  0.4865  0.7048  11.00000  0.05    0.75
Q3    1  -0.2326  0.5744  0.6993  11.00000  0.05    0.73
Q4    1  -0.2379  0.4877  0.7056  11.00000  0.05    0.62
Q5    1  -0.3724  0.6441  0.6163  11.00000  0.05    0.45
Q6    1  -0.3798  0.6342  0.7940  11.00000  0.05    0.42
Q7    1  -0.3590  0.5916  0.7078  11.00000  0.05    0.41
Q8    1  -0.3415  0.6386  0.7067  11.00000  0.05    0.41
Q9    1  -0.2983  0.3729  0.7228  11.00000  0.05    0.38
Q10   1  -0.1737  0.4237  0.7066  11.00000  0.05    0.36
Q11   1  -0.3915  0.6180  0.6247  11.00000  0.05    0.34
Q12   1  -0.1841  0.5225  0.6927  11.00000  0.05    0.31
Q13   1  -0.2775  0.3387  0.8300  11.00000  0.05    0.31
Q14   1  -0.3989  0.3488  1.0712  11.00000  0.05    0.31
Q15   1  -0.3649  0.5197  0.7185  11.00000  0.05    0.30
Q16   1  -0.1626  0.6134  0.7555  11.00000  0.05    0.30
Q17   1  -0.4438  0.3860  0.9787  11.00000  0.05    0.30
Q18   1  -0.2590  0.6258  0.7154  11.00000  0.05    0.28
Q19   1  -0.3924  0.3716  0.8304  11.00000  0.05    0.27
Q20   1  -0.2790  0.4290  0.7030  11.00000  0.05    0.27
;
_shelx_res_checksum              30544
_shelx_hkl_file
;
   3   0   0 -0.1140 0.24604  -4
   3   0   0 -0.1140 0.24604   2
   3   0   0 0.30198 0.53179  -3
   3   0   0 0.30198 0.53179   1
   5   0   0 2.40043 0.54287  -4
   5   0   0 2.40043 0.54287   2
   5   0   0 2.99434 1.08405  -3
   5   0   0 2.99434 1.08405   1
   6   0   0 1752.25 37.3467  -4
   6   0   0 1752.25 37.3467   2
   6   0   0 2859.33 100.494  -3
   6   0   0 2859.33 100.494   1
   7   0   0 26.8292 2.61268  -3
   7   0   0 26.8292 2.61268   1
   7   0   0 17.7475 2.52731  -4
   7   0   0 17.7475 2.52731   2
  -1   0   8 1950.10 96.2255  -4
   8   0   0 1950.10 96.2255  -3
   8   0   0 1950.10 96.2255   1
  -1   0  10 55.5824 5.81883  -4
  10   0   0 55.5824 5.81883  -3
  -1   0  10 55.5824 5.81883  -2
  10   0   0 55.5824 5.81883   1
  -1   0  11 339.354 17.3691  -4
  11   0   0 339.354 17.3691  -3
  -1   0  11 339.354 17.3691  -2
  11   0   0 339.354 17.3691   1
  -1   0  12 1789.47 67.9662  -4
  12   0   0 1789.47 67.9662  -3
  -1   0  12 1789.47 67.9662  -2
  12   0   0 1789.47 67.9662   1
  -1   0  13 280.523 22.7371  -4
  13   0   0 280.523 22.7371  -3
  -1   0  13 280.523 22.7371  -2
  13   0   0 280.523 22.7371   1
  15   0   0 3.78939 6.81707  -3
  15   0   0 3.78939 6.81707   1
  15   0   0 46.6653 10.5858  -4
  -1   0  15 46.6653 10.5858  -3
  15   0   0 46.6653 10.5858   2
  16   0   0 12.6972 7.83308  -3
  16   0   0 12.6972 7.83308   1
  16   0   0 -4.0242 4.98063  -4
  16   0   0 -4.0242 4.98063   2
  17   0   0 -4.8512 5.14350  -4
  17   0   0 -4.8512 5.14350   2
  17   0   0 2.82636 7.17328  -3
  17   0   0 2.82636 7.17328   1
  18   0   0 287.093 27.0112  -4
  18   0   0 287.093 27.0112   2
   0   1   0 0.26180 0.23675  -4
   0   1   0 0.26180 0.23675  -3
   0   1   0 0.26180 0.23675  -2
   0   1   0 0.26180 0.23675   1
   1   1   0 283.756 11.8525  -3
   1   1   0 283.756 11.8525   1
   1   1   0 171.181 5.12902  -4
   1   1   0 171.181 5.12902   2
   0   1   1 434.395 11.9177  -4
   1   1   0 434.395 11.9177  -3
   0   1   1 434.395 11.9177  -2
   1   1   0 434.395 11.9177   1
   2   1   0 -0.0515 0.22629  -4
   2   1   0 -0.0515 0.22629   2
   2   1   0 -0.2698 0.47064  -3
   2   1   0 -0.2698 0.47064   1
   3   1   0 2259.62 35.6630  -4
   3   1   0 2259.62 35.6630   2
   3   1   0 3522.56 65.7360  -3
   3   1   0 3522.56 65.7360   1
   4   1   0 0.83056 0.40552  -4
   4   1   0 0.83056 0.40552   2
   4   1   0 0.63633 0.60825  -3
   4   1   0 0.63633 0.60825   1
   4   1   0 -0.4440 0.66300   1
   4   1   0 1.62017 1.48029  -3
   4   1   0 1.62017 1.48029  -3
   4   1   0 1.62017 1.48029   1
   5   1   0 5547.88 110.282  -3
   5   1   0 5547.88 110.282   1
   5   1   0 3670.25 52.0014  -4
   5   1   0 3670.25 52.0014   2
   6   1   0 2.99001 0.60113  -4
   6   1   0 2.99001 0.60113   2
   6   1   0 1.01331 0.77176  -3
   6   1   0 1.01331 0.77176   1
   7   1   0 2263.33 51.3844  -3
   7   1   0 2263.33 51.3844   1
   7   1   0 1456.59 31.6431  -4
   7   1   0 1456.59 31.6431   2
  -1   1   8 49.4203 4.73351  -4
   8   1   0 49.4203 4.73351  -3
   8   1   0 49.4203 4.73351   1
  -1   1  10 72.2330 4.58926  -4
  10   1   0 72.2330 4.58926  -3
  -1   1  10 72.2330 4.58926  -2
  10   1   0 72.2330 4.58926   1
  -1   1  11 348.781 12.4045  -4
  11   1   0 348.781 12.4045  -3
  -1   1  11 348.781 12.4045  -2
  11   1   0 348.781 12.4045   1
  -1   1  12 235.452 9.95512  -4
  12   1   0 235.452 9.95512  -3
  -1   1  12 235.452 9.95512  -2
  12   1   0 235.452 9.95512   1
  -1   1  13 230.823 14.2393  -4
  13   1   0 230.823 14.2393  -3
  -1   1  13 230.823 14.2393  -2
  13   1   0 230.823 14.2393   1
  -1   1  14 50.7751 12.2233  -4
  14   1   0 50.7751 12.2233  -3
  -1   1  14 50.7751 12.2233  -2
  14   1   0 50.7751 12.2233   1
  15   1   0 79.1298 12.4188  -3
  15   1   0 79.1298 12.4188   1
  16   1   0 4.38684 4.72700  -3
  16   1   0 4.38684 4.72700   1
  16   1   0 -4.5746 5.85684  -4
  16   1   0 -4.5746 5.85684   2
  17   1   0 78.3246 7.30490  -3
  17   1   0 78.3246 7.30490   1
  17   1   0 36.7530 9.83282  -4
  17   1   0 36.7530 9.83282   2
   0   2   0 0.28105 0.38870  -4
   0   2   0 0.28105 0.38870  -3
   0   2   0 0.28105 0.38870  -2
   0   2   0 0.28105 0.38870   1
   0   2   1 -0.1446 0.67563  -4
   1   2   0 -0.1446 0.67563  -3
   0   2   1 -0.1446 0.67563  -2
   1   2   0 -0.1446 0.67563   1
   2   2   0 156.801 4.66027  -4
   2   2   0 156.801 4.66027   2
   2   2   0 231.504 8.95539  -3
   2   2   0 231.504 8.95539   1
   0   2   2 408.961 20.5175  -4
   2   2   0 408.961 20.5175  -3
   0   2   2 408.961 20.5175  -2
   2   2   0 408.961 20.5175   1
   2   2   0 313.022 15.3979  -3
   0   2   2 313.022 15.3979  -2
   2   2   0 313.022 15.3979   1
   3   2   0 0.28026 0.35996  -4
   3   2   0 0.28026 0.35996   2
   3   2   0 0.16309 0.31396  -3
   3   2   0 0.16309 0.31396   1
   4   2   0 446.918 7.73008  -4
   4   2   0 446.918 7.73008   2
   4   2   0 638.859 11.9476  -3
   4   2   0 638.859 11.9476   1
   5   2   0 1.28925 0.60682  -3
   5   2   0 1.28925 0.60682   1
   5   2   0 1.64396 0.72397  -4
   5   2   0 1.64396 0.72397   2
   6   2   0 1855.01 41.6063  -3
   6   2   0 1855.01 41.6063   1
   6   2   0 1200.84 24.7307  -4
   6   2   0 1200.84 24.7307   2
   7   2   0 2.36012 0.69068  -4
   7   2   0 2.36012 0.69068   2
   7   2   0 2.05060 1.04496  -3
   7   2   0 2.05060 1.04496   1
  -1   2   8 1372.07 71.1381  -4
   8   2   0 1372.07 71.1381  -3
   8   2   0 1372.07 71.1381   1
   8   2   0 1374.31 51.6475  -3
   8   2   0 1374.31 51.6475   1
   8   2   0 818.361 36.2883  -4
   8   2   0 818.361 36.2883   2
  -1   2  10 2410.83 55.8064  -4
  10   2   0 2410.83 55.8064  -3
  -1   2  10 2410.83 55.8064  -2
  10   2   0 2410.83 55.8064   1
  -1   2  11 63.6758 4.51506  -4
  11   2   0 63.6758 4.51506  -3
  -1   2  11 63.6758 4.51506  -2
  11   2   0 63.6758 4.51506   1
  -1   2  12 1555.66 60.4238  -4
  12   2   0 1555.66 60.4238  -3
  -1   2  12 1555.66 60.4238  -2
  12   2   0 1555.66 60.4238   1
  -1   2  13 148.275 10.5761  -4
  13   2   0 148.275 10.5761  -3
  -1   2  13 148.275 10.5761  -2
  13   2   0 148.275 10.5761   1
  13   2   0 31.5332 4.68900  -4
  13   2   0 31.5332 4.68900   2
  14   2   0 41.5482 6.27009  -4
  14   2   0 41.5482 6.27009   2
  15   2   0 74.6244 13.3175  -4
  -1   2  15 74.6244 13.3175  -3
  15   2   0 74.6244 13.3175   2
  15   2   0 -1.5206 2.52907  -4
  15   2   0 -1.5206 2.52907   2
  15   2   0 4.72818 6.47860  -3
  15   2   0 4.72818 6.47860   1
  16   2   0 35.3050 5.14732  -3
  16   2   0 35.3050 5.14732   1
  16   2   0 17.4398 8.22989  -4
  16   2   0 17.4398 8.22989   2
  17   2   0 24.7851 6.60816  -3
  17   2   0 24.7851 6.60816   1
  17   2   0 3.11384 6.50045  -4
  17   2   0 3.11384 6.50045   2
   0   3   0 0.20265 0.78013  -4
   0   3   0 0.20265 0.78013  -3
   0   3   0 0.20265 0.78013  -2
   0   3   0 0.20265 0.78013   1
   0   3   1 6618.99 127.229  -4
   1   3   0 6618.99 127.229  -3
   0   3   1 6618.99 127.229  -2
   1   3   0 6618.99 127.229   1
   2   3   0 -0.1852 0.49382  -4
   2   3   0 -0.1852 0.49382   2
   3   3   0 1392.81 30.2105  -3
   3   3   0 1392.81 30.2105   1
   3   3   0 925.409 22.3891  -4
   3   3   0 925.409 22.3891   2
   4   3   0 1.42193 0.72769  -4
   4   3   0 1.42193 0.72769   2
   4   3   0 1.32108 0.45264  -3
   4   3   0 1.32108 0.45264   1
   5   3   0 1096.46 23.2764  -3
   5   3   0 1096.46 23.2764   1
   5   3   0 723.153 15.8534  -4
   5   3   0 723.153 15.8534   2
   6   3   0 0.04293 0.81403  -4
   6   3   0 0.04293 0.81403   2
   6   3   0 0.68221 0.67276  -3
   6   3   0 0.68221 0.67276   1
   7   3   0 222.998 6.19517  -3
   7   3   0 222.998 6.19517   1
   7   3   0 145.028 4.73765  -4
   7   3   0 145.028 4.73765   2
   8   3   0 21.0852 2.08272  -4
   8   3   0 21.0852 2.08272   2
  -1   3   9 3.07122 4.61066  -4
   9   3   0 3.07122 4.61066  -3
  -1   3   9 3.07122 4.61066  -2
   9   3   0 3.07122 4.61066   1
  -1   3  10 10.7434 3.45513  -4
  10   3   0 10.7434 3.45513  -3
  -1   3  10 10.7434 3.45513  -2
  10   3   0 10.7434 3.45513   1
  -1   3  11 255.689 9.93293  -4
  11   3   0 255.689 9.93293  -3
  -1   3  11 255.689 9.93293  -2
  11   3   0 255.689 9.93293   1
  -1   3  12 69.6319 4.86111  -4
  12   3   0 69.6319 4.86111  -3
  -1   3  12 69.6319 4.86111  -2
  12   3   0 69.6319 4.86111   1
  12   3   0 50.3177 4.27280  -4
  12   3   0 50.3177 4.27280   2
  13   3   0 32.8111 3.67496  -4
  13   3   0 32.8111 3.67496   2
  -1   3  14 64.7497 15.0666  -4
  14   3   0 64.7497 15.0666  -3
  -1   3  14 64.7497 15.0666  -2
  14   3   0 64.7497 15.0666   1
  15   3   0 51.3930 6.99632  -4
  15   3   0 51.3930 6.99632   2
  15   3   0 54.5509 9.69204  -3
  15   3   0 54.5509 9.69204   1
  16   3   0 0.12747 2.43049  -4
  16   3   0 0.12747 2.43049   2
  16   3   0 -6.6106 4.39216  -3
  16   3   0 -6.6106 4.39216   1
  17   3   0 62.3942 10.6870  -4
  17   3   0 62.3942 10.6870   2
  17   3   0 174.805 19.0910  -3
  17   3   0 174.805 19.0910   1
   0   4   0 8189.05 421.630  -4
   0   4   0 8189.05 421.630  -3
   0   4   0 8189.05 421.630  -2
   0   4   0 8189.05 421.630   1
   0   4   1 2.03789 1.42779  -4
   1   4   0 2.03789 1.42779  -3
   0   4   1 2.03789 1.42779  -2
   1   4   0 2.03789 1.42779   1
   3   4   0 1.62724 0.78230  -3
   3   4   0 1.62724 0.78230   1
   3   4   0 -0.2898 1.05509  -4
   3   4   0 -0.2898 1.05509   2
   4   4   0 828.562 17.5585  -3
   4   4   0 828.562 17.5585   1
   4   4   0 528.649 13.4540  -4
   4   4   0 528.649 13.4540   2
   5   4   0 -0.8527 0.83689  -3
   5   4   0 -0.8527 0.83689   1
   5   4   0 0.19754 0.71456  -4
   5   4   0 0.19754 0.71456   2
   6   4   0 42.6151 2.53602  -4
   6   4   0 42.6151 2.53602   2
   6   4   0 64.0124 2.88725  -3
   6   4   0 64.0124 2.88725   1
   7   4   0 37.0953 2.87157  -4
   7   4   0 37.0953 2.87157   2
   7   4   0 8.99312 1.64508  -3
   7   4   0 8.99312 1.64508   1
   8   4   0 47.1634 4.79862  -3
   8   4   0 47.1634 4.79862   1
  -1   4   9 203.843 13.9701  -4
   9   4   0 203.843 13.9701  -3
  -1   4   9 203.843 13.9701  -2
   9   4   0 203.843 13.9701   1
  -1   4   9 106.538 8.43533  -4
   9   4   0 106.538 8.43533  -3
   9   4   0 106.538 8.43533   1
  -1   4  10 2.39141 3.07744  -4
  10   4   0 2.39141 3.07744  -3
  -1   4  10 2.39141 3.07744  -2
  10   4   0 2.39141 3.07744   1
  -1   4  11 902.396 29.2464  -4
  11   4   0 902.396 29.2464  -3
  -1   4  11 902.396 29.2464  -2
  11   4   0 902.396 29.2464   1
  -1   4  12 16.8781 3.24235  -4
  12   4   0 16.8781 3.24235  -3
  -1   4  12 16.8781 3.24235  -2
  12   4   0 16.8781 3.24235   1
  -1   4  13 181.985 14.9031  -4
  13   4   0 181.985 14.9031  -3
  -1   4  13 181.985 14.9031  -2
  13   4   0 181.985 14.9031   1
  13   4   0 85.2658 8.20669  -3
  -1   4  13 85.2658 8.20669  -2
  13   4   0 85.2658 8.20669   1
  -1   4  14 105.367 18.3743  -4
  14   4   0 105.367 18.3743  -3
  -1   4  14 105.367 18.3743  -2
  14   4   0 105.367 18.3743   1
  15   4   0 -1.0933 2.56907  -4
  15   4   0 -1.0933 2.56907   2
  15   4   0 28.3406 13.4406  -4
  -1   4  15 28.3406 13.4406  -3
  15   4   0 28.3406 13.4406   2
  16   4   0 129.750 9.90479  -4
  16   4   0 129.750 9.90479   2
  16   4   0 213.979 14.7799  -3
  16   4   0 213.979 14.7799   1
   0   5   0 2.02292 1.72353  -4
   0   5   0 2.02292 1.72353  -3
   0   5   0 2.02292 1.72353  -2
   0   5   0 2.02292 1.72353   1
   0   5   1 188.668 5.57795  -4
   1   5   0 188.668 5.57795  -3
   0   5   1 188.668 5.57795  -2
   1   5   0 188.668 5.57795   1
   3   5   0 51.8934 3.01512  -4
   3   5   0 51.8934 3.01512   2
   3   5   0 74.2026 4.21827  -3
   3   5   0 74.2026 4.21827   1
   4   5   0 0.82800 0.99188  -4
   4   5   0 0.82800 0.99188   2
   4   5   0 -0.2007 0.78441  -3
   4   5   0 -0.2007 0.78441   1
   5   5   0 750.933 17.9657  -4
   5   5   0 750.933 17.9657   2
   5   5   0 1142.89 26.5025  -3
   5   5   0 1142.89 26.5025   1
   6   5   0 2.32154 0.86872  -3
   6   5   0 2.32154 0.86872   1
   6   5   0 0.96701 0.82114  -4
   6   5   0 0.96701 0.82114   2
   7   5   0 186.903 6.33963  -3
   7   5   0 186.903 6.33963   1
   7   5   0 120.328 4.74141  -4
   7   5   0 120.328 4.74141   2
  -1   5   8 329.909 13.8742  -4
   8   5   0 329.909 13.8742  -3
   8   5   0 329.909 13.8742   1
  -1   5   9 171.568 10.3739  -4
   9   5   0 171.568 10.3739  -3
  -1   5   9 171.568 10.3739  -2
   9   5   0 171.568 10.3739   1
  -1   5   9 157.800 8.91269  -4
   9   5   0 157.800 8.91269  -3
   9   5   0 157.800 8.91269   1
  -1   5  10 133.779 18.6174  -4
  10   5   0 133.779 18.6174  -3
  -1   5  10 133.779 18.6174  -2
  10   5   0 133.779 18.6174   1
  -1   5  11 68.9708 4.50516  -4
  11   5   0 68.9708 4.50516  -3
  -1   5  11 68.9708 4.50516  -2
  11   5   0 68.9708 4.50516   1
  -1   5  12 140.912 9.52805  -4
  12   5   0 140.912 9.52805  -3
  -1   5  12 140.912 9.52805  -2
  12   5   0 140.912 9.52805   1
  -1   5  13 430.254 25.4108  -4
  13   5   0 430.254 25.4108  -3
  -1   5  13 430.254 25.4108  -2
  13   5   0 430.254 25.4108   1
  15   5   0 42.3522 7.90210  -4
  15   5   0 42.3522 7.90210   2
   0   6   0 -0.5740 1.46823  -4
   0   6   0 -0.5740 1.46823  -3
   0   6   0 -0.5740 1.46823  -2
   0   6   0 -0.5740 1.46823   1
   0   6   1 2.01298 1.66060  -4
   1   6   0 2.01298 1.66060  -3
   0   6   1 2.01298 1.66060  -2
   1   6   0 2.01298 1.66060   1
   0   6   2 76.4685 8.23877  -4
   2   6   0 76.4685 8.23877  -3
   0   6   2 76.4685 8.23877  -2
   2   6   0 76.4685 8.23877   1
   0   6   2 55.0679 5.12087  -4
   2   6   0 55.0679 5.12087  -3
   2   6   0 55.0679 5.12087   1
   2   6   0 49.2950 5.30963  -3
   0   6   2 49.2950 5.30963  -2
   2   6   0 49.2950 5.30963   1
   3   6   0 0.91608 1.93080  -4
   3   6   0 0.91608 1.93080   2
   3   6   0 -0.0637 0.90537  -3
   3   6   0 -0.0637 0.90537   1
   4   6   0 109.383 4.88128  -4
   4   6   0 109.383 4.88128   2
   4   6   0 158.987 8.78530  -3
   4   6   0 158.987 8.78530   1
   5   6   0 1.54489 0.98811  -4
   5   6   0 1.54489 0.98811   2
   5   6   0 -0.5245 1.39717  -3
   5   6   0 -0.5245 1.39717   1
   6   6   0 771.522 25.4940  -3
   6   6   0 771.522 25.4940   1
   6   6   0 505.140 13.2498  -4
   6   6   0 505.140 13.2498   2
   7   6   0 1.89529 1.66492  -3
   7   6   0 1.89529 1.66492   1
   7   6   0 2.72577 2.46996  -4
   7   6   0 2.72577 2.46996   2
   8   6   0 569.025 29.2822  -3
   8   6   0 569.025 29.2822   1
  -1   6   9 260.270 17.5311  -4
   9   6   0 260.270 17.5311  -3
  -1   6   9 260.270 17.5311  -2
   9   6   0 260.270 17.5311   1
  -1   6   9 141.804 11.0643  -4
   9   6   0 141.804 11.0643  -3
   9   6   0 141.804 11.0643   1
  -1   6  10 273.981 12.4065  -4
  10   6   0 273.981 12.4065  -3
  -1   6  10 273.981 12.4065  -2
  10   6   0 273.981 12.4065   1
  -1   6  11 4.12112 3.22865  -4
  11   6   0 4.12112 3.22865  -3
  -1   6  11 4.12112 3.22865  -2
  11   6   0 4.12112 3.22865   1
  -1   6  12 326.037 15.2089  -4
  12   6   0 326.037 15.2089  -3
  -1   6  12 326.037 15.2089  -2
  12   6   0 326.037 15.2089   1
  -1   6  13 139.501 10.2465  -4
  13   6   0 139.501 10.2465  -3
  -1   6  13 139.501 10.2465  -2
  13   6   0 139.501 10.2465   1
  14   6   0 -3.1650 11.0708  -3
  -1   6  14 -3.1650 11.0708  -2
  14   6   0 -3.1650 11.0708   1
  -1   6  14 18.0845 15.8584  -4
  14   6   0 18.0845 15.8584  -3
  -1   6  14 18.0845 15.8584  -2
  14   6   0 18.0845 15.8584   1
   0   7   0 0.05407 2.65849  -4
   0   7   0 0.05407 2.65849  -3
   0   7   0 0.05407 2.65849  -2
   0   7   0 0.05407 2.65849   1
   0   7   1 1262.80 26.9340  -4
   1   7   0 1262.80 26.9340  -3
   0   7   1 1262.80 26.9340  -2
   1   7   0 1262.80 26.9340   1
   2   7   0 0.28430 1.45344  -3
   2   7   0 0.28430 1.45344   1
   0   7   2 0.30144 6.18822  -4
   2   7   0 0.30144 6.18822  -3
   0   7   2 0.30144 6.18822  -2
   2   7   0 0.30144 6.18822   1
   2   7   0 -1.7565 1.67754  -4
   2   7   0 -1.7565 1.67754   2
   3   7   0 128.481 5.78006  -4
   3   7   0 128.481 5.78006   2
   3   7   0 192.001 16.7812  -3
   3   7   0 192.001 16.7812   1
   3   7   0 232.385 16.3956  -3
   0   7   3 232.385 16.3956  -2
   3   7   0 232.385 16.3956   1
   4   7   0 -0.7828 1.89245  -3
   4   7   0 -0.7828 1.89245   1
   5   7   0 87.9469 6.24775  -4
   5   7   0 87.9469 6.24775   2
   5   7   0 124.077 5.63905  -3
   5   7   0 124.077 5.63905   1
   6   7   0 0.03493 3.88819  -4
   6   7   0 0.03493 3.88819   2
   6   7   0 -2.8151 1.59699  -3
   6   7   0 -2.8151 1.59699   1
   7   7   0 70.6581 5.59102  -3
   7   7   0 70.6581 5.59102   1
   8   7   0 32.8228 3.67582  -4
   8   7   0 32.8228 3.67582   2
  -1   7   8 22.3827 5.83996  -4
   8   7   0 22.3827 5.83996  -3
   8   7   0 22.3827 5.83996   1
  -1   7   9 10.7300 7.17705  -4
   9   7   0 10.7300 7.17705  -3
  -1   7   9 10.7300 7.17705  -2
   9   7   0 10.7300 7.17705   1
  -1   7  10 15.9551 7.67180  -4
  10   7   0 15.9551 7.67180  -3
  -1   7  10 15.9551 7.67180  -2
  10   7   0 15.9551 7.67180   1
  -1   7  11 198.991 10.2501  -4
  11   7   0 198.991 10.2501  -3
  -1   7  11 198.991 10.2501  -2
  11   7   0 198.991 10.2501   1
  -1   7  12 16.6070 7.78946  -4
  12   7   0 16.6070 7.78946  -3
  -1   7  12 16.6070 7.78946  -2
  12   7   0 16.6070 7.78946   1
  -1   7  13 -6.1322 11.5680  -4
  13   7   0 -6.1322 11.5680  -3
  -1   7  13 -6.1322 11.5680  -2
  13   7   0 -6.1322 11.5680   1
   0   8   1 -1.2626 3.13935  -4
   1   8   0 -1.2626 3.13935  -3
   0   8   1 -1.2626 3.13935  -2
   1   8   0 -1.2626 3.13935   1
   0   8   2 379.837 13.9906  -4
   2   8   0 379.837 13.9906  -3
   0   8   2 379.837 13.9906  -2
   2   8   0 379.837 13.9906   1
   2   8   0 187.124 7.87794  -4
   2   8   0 187.124 7.87794   2
   3   8   0 3.87272 4.82460  -3
   0   8   3 3.87272 4.82460  -2
   3   8   0 3.87272 4.82460   1
   4   8   0 434.532 20.0706  -3
   4   8   0 434.532 20.0706   1
   5   8   0 4.26438 3.31368  -3
   5   8   0 4.26438 3.31368   1
   5   8   0 3.92902 2.60967  -4
   5   8   0 3.92902 2.60967   2
   6   8   0 26.6334 6.18242  -3
   6   8   0 26.6334 6.18242   1
   6   8   0 13.8304 3.78157  -4
   6   8   0 13.8304 3.78157   2
   7   8   0 3.71588 2.53111  -3
   7   8   0 3.71588 2.53111   1
   8   8   0 7.74559 6.88785  -3
  -1   8   8 7.74559 6.88785  -2
   8   8   0 7.74559 6.88785   1
  -1   8   9 437.203 33.6032  -4
   9   8   0 437.203 33.6032  -3
  -1   8   9 437.203 33.6032  -2
   9   8   0 437.203 33.6032   1
  -1   8  10 29.4798 8.52062  -4
  10   8   0 29.4798 8.52062  -3
  -1   8  10 29.4798 8.52062  -2
  10   8   0 29.4798 8.52062   1
  -1   8  11 391.616 31.8924  -4
  11   8   0 391.616 31.8924  -3
  -1   8  11 391.616 31.8924  -2
  11   8   0 391.616 31.8924   1
   0   9   0 -0.9046 3.87673  -4
   0   9   0 -0.9046 3.87673  -3
   0   9   0 -0.9046 3.87673  -2
   0   9   0 -0.9046 3.87673   1
   0   9   1 19.2244 3.90705  -4
   1   9   0 19.2244 3.90705  -3
   0   9   1 19.2244 3.90705  -2
   1   9   0 19.2244 3.90705   1
   0   9   2 5.18571 3.99836  -4
   2   9   0 5.18571 3.99836  -3
   0   9   2 5.18571 3.99836  -2
   2   9   0 5.18571 3.99836   1
   0   9   3 48.7116 10.0816  -4
   3   9   0 48.7116 10.0816  -3
   0   9   3 48.7116 10.0816  -2
   3   9   0 48.7116 10.0816   1
   3   9   0 32.7873 9.09673  -3
   3   9   0 32.7873 9.09673   1
   4   9   0 -4.8703 2.13460  -3
   4   9   0 -4.8703 2.13460   1
   5   9   0 85.6938 7.23174  -3
   5   9   0 85.6938 7.23174   1
   5   9   0 75.8569 6.70740  -4
   5   9   0 75.8569 6.70740   2
   6   9   0 2.25685 2.33686  -3
   6   9   0 2.25685 2.33686   1
   7   9   0 47.4681 6.19911  -3
   7   9   0 47.4681 6.19911   1
  -1   9   8 12.6839 8.26021  -4
   8   9   0 12.6839 8.26021  -3
  -1   9   8 12.6839 8.26021  -2
   8   9   0 12.6839 8.26021   1
   0  10   0 -5.5976 4.31166  -4
   0  10   0 -5.5976 4.31166  -3
   0  10   0 -5.5976 4.31166  -2
   0  10   0 -5.5976 4.31166   1
   0  10   1 2.35751 4.42169  -4
   1  10   0 2.35751 4.42169  -3
   0  10   1 2.35751 4.42169  -2
   1  10   0 2.35751 4.42169   1
   0  10   2 1640.77 53.8896  -4
   2  10   0 1640.77 53.8896  -3
   0  10   2 1640.77 53.8896  -2
   2  10   0 1640.77 53.8896   1
   2  10   0 1445.48 72.1522  -3
   0  10   2 1445.48 72.1522  -2
   2  10   0 1445.48 72.1522   1
   0  10   3 1.87454 9.11043  -4
   3  10   0 1.87454 9.11043  -3
   0  10   3 1.87454 9.11043  -2
   3  10   0 1.87454 9.11043   1
   3  10   0 5.24093 5.37915  -3
   3  10   0 5.24093 5.37915   1
 -18   0   1 1.80902 8.64542   2
 -18   0   1 5.17421 8.46083   4
  16   0   1 -9.8813 7.76514  -3
 -16   0   1 -9.8813 7.76514   1
  16   0   1 6.45221 7.80244  -4
 -16   0   1 6.45221 7.80244   2
  -2   0  13 449.535 31.0501  -4
  13   0   1 449.535 31.0501  -3
   0   0  13 449.535 31.0501  -2
 -13   0   1 449.535 31.0501   1
  -2   0  12 606.489 27.4358  -4
  12   0   1 606.489 27.4358  -3
   0   0  12 606.489 27.4358  -2
 -12   0   1 606.489 27.4358   1
  -2   0  11 656.618 28.5185  -4
  11   0   1 656.618 28.5185  -3
   0   0  11 656.618 28.5185  -2
 -11   0   1 656.618 28.5185   1
  -2   0  10 7.20462 5.81488  -4
  10   0   1 7.20462 5.81488  -3
   0   0  10 7.20462 5.81488  -2
 -10   0   1 7.20462 5.81488   1
   7   0   1 3009.44 100.000  -4
  -7   0   1 3009.44 100.000   2
   7   0   1 4380.66 152.486  -3
  -7   0   1 4380.66 152.486   1
   6   0   1 -1.0264 1.54141  -3
  -6   0   1 -1.0264 1.54141   1
   6   0   1 -0.5706 2.43189  -4
  -6   0   1 -0.5706 2.43189   2
   5   0   1 6793.77 164.852  -3
  -5   0   1 6793.77 164.852   1
   5   0   1 4445.69 105.481  -4
  -5   0   1 4445.69 105.481   2
   4   0   1 0.50468 0.92474  -4
  -4   0   1 0.50468 0.92474   2
   4   0   1 1.17540 1.07267  -3
  -4   0   1 1.17540 1.07267   1
   3   0   1 917.698 27.4119  -3
  -3   0   1 917.698 27.4119   1
  -3   0   1 220.612 10.5548   2
   3   0   1 663.178 20.0299  -4
  -3   0   1 663.178 20.0299   2
  -3   0   1 202.503 11.5227   4
  -3   0   1 349.720 18.7095   1
  -2   0   1 0.12724 0.25586   2
  -2   0   1 0.86127 0.44180   1
  -2   0   1 -0.0336 0.24430   4
   2   0   1 2.01784 1.32893  -4
  -2   0   1 2.01784 1.32893   2
   2   0   1 -0.1426 1.37620  -3
  -2   0   1 -0.1426 1.37620   1
   2   0   1 0.13257 0.35851   3
   2   0   1 -0.2418 0.25507   4
  -2   0   1 1.83395 1.50954  -3
   2   0   1 1.83395 1.50954   1
  -2   0   1 1.42249 1.28769  -4
   2   0   1 1.42249 1.28769   2
   2   0   1 0.26738 0.30132   2
   3   0   1 456.026 23.4979   2
  -3   0   1 662.727 15.8288  -4
   3   0   1 662.727 15.8288   2
  -3   0   1 1060.00 31.3791  -3
   3   0   1 1060.00 31.3791   1
   3   0   1 616.971 30.7551   3
   3   0   1 392.697 17.7596   4
  -4   0   1 0.35952 1.19385  -3
   4   0   1 0.35952 1.19385   1
  -4   0   1 1.45361 0.71775  -4
   4   0   1 1.45361 0.71775   2
  -5   0   1 4544.88 92.6799  -4
   5   0   1 4544.88 92.6799   2
  -5   0   1 7091.84 201.984  -3
   5   0   1 7091.84 201.984   1
  -6   0   1 2.94578 1.05034  -4
   6   0   1 2.94578 1.05034   2
  -6   0   1 4.52426 1.77208  -3
   6   0   1 4.52426 1.77208   1
  -7   0   1 3000.32 68.9233  -4
   7   0   1 3000.32 68.9233   2
  -7   0   1 4999.54 182.123  -3
   7   0   1 4999.54 182.123   1
   0   0  10 8.20803 4.26951  -4
 -10   0   1 8.20803 4.26951  -3
  -2   0  10 8.20803 4.26951  -2
  10   0   1 8.20803 4.26951   1
   0   0  11 639.585 28.2167  -4
 -11   0   1 639.585 28.2167  -3
  -2   0  11 639.585 28.2167  -2
  11   0   1 639.585 28.2167   1
   0   0  12 499.610 24.0297  -4
 -12   0   1 499.610 24.0297  -3
  -2   0  12 499.610 24.0297  -2
  12   0   1 499.610 24.0297   1
   0   0  13 465.042 32.9322  -4
 -13   0   1 465.042 32.9322  -3
  -2   0  13 465.042 32.9322  -2
  13   0   1 465.042 32.9322   1
 -16   0   1 -7.0251 8.17120  -3
  16   0   1 -7.0251 8.17120   1
 -16   0   1 0.05691 6.91916  -4
  16   0   1 0.05691 6.91916   2
 -17   0   1 6.26831 9.68340  -4
  17   0   1 6.26831 9.68340   2
 -17   0   1 38.1932 12.9828  -3
  17   0   1 38.1932 12.9828   1
 -18   1   1 0.01858 5.05751   2
 -18   1   1 9.53608 5.50562   4
 -18   1   1 12.1934 10.0394   1
  17   1   1 33.5197 12.9079  -3
 -17   1   1 33.5197 12.9079   1
  17   1   1 6.82272 6.31944  -4
 -17   1   1 6.82272 6.31944   2
  16   1   1 216.697 15.3897  -3
 -16   1   1 216.697 15.3897   1
  16   1   1 77.3402 13.9125  -4
 -16   1   1 77.3402 13.9125   2
  -2   1  14 218.544 21.4133  -4
  14   1   1 218.544 21.4133  -3
   0   1  14 218.544 21.4133  -2
 -14   1   1 218.544 21.4133   1
  -2   1  13 148.137 10.8222  -4
  13   1   1 148.137 10.8222  -3
   0   1  13 148.137 10.8222  -2
 -13   1   1 148.137 10.8222   1
  -2   1  12 901.237 30.7384  -4
  12   1   1 901.237 30.7384  -3
   0   1  12 901.237 30.7384  -2
 -12   1   1 901.237 30.7384   1
  -2   1  11 138.058 6.89141  -4
  11   1   1 138.058 6.89141  -3
   0   1  11 138.058 6.89141  -2
 -11   1   1 138.058 6.89141   1
  -2   1  10 105.808 4.88297  -4
  10   1   1 105.808 4.88297  -3
   0   1  10 105.808 4.88297  -2
 -10   1   1 105.808 4.88297   1
   8   1   1 171.521 14.0751  -4
  -8   1   1 171.521 14.0751   2
  -2   1   8 300.244 18.3557  -4
   8   1   1 300.244 18.3557  -3
  -8   1   1 300.244 18.3557   1
   7   1   1 8.54857 1.85483  -4
  -7   1   1 8.54857 1.85483   2
   7   1   1 3.87306 1.50338  -3
  -7   1   1 3.87306 1.50338   1
   6   1   1 1039.17 22.5852  -4
  -6   1   1 1039.17 22.5852   2
   6   1   1 1671.52 38.0552  -3
  -6   1   1 1671.52 38.0552   1
   5   1   1 -0.1008 0.82630  -3
  -5   1   1 -0.1008 0.82630   1
   5   1   1 1.62926 0.86068  -4
  -5   1   1 1.62926 0.86068   2
   4   1   1 972.453 17.7807  -3
  -4   1   1 972.453 17.7807   1
   4   1   1 638.052 13.2790  -4
  -4   1   1 638.052 13.2790   2
   3   1   1 0.49508 0.62179  -4
  -3   1   1 0.49508 0.62179   2
   3   1   1 1.73074 0.82866  -3
  -3   1   1 1.73074 0.82866   1
  -3   1   1 0.76596 0.55317   4
  -3   1   1 -0.3071 0.74158   2
  -3   1   1 -0.0819 0.49272   3
   2   1   1 211.698 6.23614  -4
  -2   1   1 211.698 6.23614   2
  -2   1   1 65.5667 4.17144   3
  -2   1   1 53.7679 3.91473   4
   1   1   2 229.106 11.3100  -4
  -2   1   1 229.106 11.3100   3
   2   1   1 337.557 10.7411  -3
  -2   1   1 337.557 10.7411   1
   1   1   2 227.920 8.79965  -2
  -2   1   1 227.920 8.79965   1
  -1   1   2 117.140 5.89464  -4
  -2   1   1 117.140 5.89464   1
   1   1   1 1.14495 0.72290  -4
  -1   1   1 1.14495 0.72290   2
  -1   1   1 0.53698 0.27332   4
   1   1   1 0.10378 0.55821  -2
  -1   1   1 0.10378 0.55821   1
  -1   1   1 0.17117 0.35022   3
  -1   1   1 -0.0706 0.28156   1
   1   1   1 1.15801 0.82828  -3
  -1   1   1 1.15801 0.82828   1
   0   1   1 130.394 4.18492   1
   0   1   1 116.805 3.30516   3
   0   1   1 88.1597 4.56610   4
   1   1   0 477.249 18.5649  -4
   0   1   1 477.249 18.5649  -3
   1   1   0 477.249 18.5649  -2
   0   1   1 477.249 18.5649   1
   0   1   1 82.2923 3.38766   2
   1   1   1 0.06787 0.21454   3
  -1   1   1 -0.2766 0.44907  -4
   1   1   1 -0.2766 0.44907   2
  -1   1   1 0.44182 1.22109  -4
   1   1   1 0.44182 1.22109   3
   1   1   1 0.15297 0.47515   2
   1   1   1 0.04722 0.38510   1
  -2   1   1 227.280 8.84887  -4
   2   1   1 227.280 8.84887   2
   2   1   1 203.153 10.1381   1
   1   1   2 431.102 23.2858  -3
   2   1   1 431.102 23.2858   2
   2   1   1 153.488 8.46240   2
   1   1   2 402.541 15.7140  -4
   2   1   1 402.541 15.7140   1
  -1   1   2 266.162 9.96628  -4
   2   1   1 266.162 9.96628   3
  -2   1   1 361.401 11.5624  -3
   2   1   1 361.401 11.5624   1
   2   1   1 229.742 10.6202   3
  -1   1   2 302.244 14.5058  -2
   2   1   1 302.244 14.5058   1
  -3   1   1 0.84453 0.64400  -3
   3   1   1 0.84453 0.64400   1
   3   1   1 0.05170 0.60827   3
  -3   1   1 0.57115 0.63449  -4
   3   1   1 0.57115 0.63449   2
   3   1   1 0.06562 0.52337   2
   3   1   1 -0.3163 0.61401   1
   3   1   1 0.98719 0.99813   4
  -4   1   1 593.012 9.91329  -4
   4   1   1 593.012 9.91329   2
  -4   1   1 934.776 19.5679  -3
   4   1   1 934.776 19.5679   1
  -5   1   1 1.83172 0.92979  -3
   5   1   1 1.83172 0.92979   1
  -5   1   1 2.32276 0.70849  -4
   5   1   1 2.32276 0.70849   2
  -6   1   1 1621.90 37.0565  -3
   6   1   1 1621.90 37.0565   1
  -6   1   1 1034.38 19.1945  -4
   6   1   1 1034.38 19.1945   2
  -7   1   1 11.0222 1.23949  -4
   7   1   1 11.0222 1.23949   2
  -7   1   1 7.65253 1.74804  -3
   7   1   1 7.65253 1.74804   1
   0   1   8 309.805 14.7838  -4
  -8   1   1 309.805 14.7838  -3
   8   1   1 309.805 14.7838   1
   0   1   9 201.603 15.8441  -4
  -9   1   1 201.603 15.8441  -3
  -2   1   9 201.603 15.8441  -2
   9   1   1 201.603 15.8441   1
   0   1  10 103.366 5.74246  -4
 -10   1   1 103.366 5.74246  -3
  -2   1  10 103.366 5.74246  -2
  10   1   1 103.366 5.74246   1
   0   1  11 135.147 7.04422  -4
 -11   1   1 135.147 7.04422  -3
  -2   1  11 135.147 7.04422  -2
  11   1   1 135.147 7.04422   1
   0   1  12 951.054 27.9904  -4
 -12   1   1 951.054 27.9904  -3
  -2   1  12 951.054 27.9904  -2
  12   1   1 951.054 27.9904   1
   0   1  13 233.398 14.4929  -4
 -13   1   1 233.398 14.4929  -3
  -2   1  13 233.398 14.4929  -2
  13   1   1 233.398 14.4929   1
   0   1  14 224.324 22.4647  -4
 -14   1   1 224.324 22.4647  -3
  -2   1  14 224.324 22.4647  -2
  14   1   1 224.324 22.4647   1
 -16   1   1 215.046 15.7232  -3
  16   1   1 215.046 15.7232   1
 -16   1   1 102.650 14.5731  -4
  16   1   1 102.650 14.5731   2
  -1   1  17 8.45516 13.2344  -4
 -17   1   1 8.45516 13.2344  -3
  -2   1  17 8.45516 13.2344  -2
  17   1   1 8.45516 13.2344   1
 -17   1   1 2.62906 6.71478  -4
  17   1   1 2.62906 6.71478   2
  17   2   1 311.493 20.7583  -4
 -17   2   1 311.493 20.7583   2
  17   2   1 624.576 42.9071  -3
 -17   2   1 624.576 42.9071   1
  16   2   1 -7.4232 6.77909  -4
 -16   2   1 -7.4232 6.77909   2
  15   2   1 118.800 17.8029  -4
  -2   2  15 118.800 17.8029  -3
 -15   2   1 118.800 17.8029   2
  -2   2  13 334.024 17.3540  -4
  13   2   1 334.024 17.3540  -3
   0   2  13 334.024 17.3540  -2
 -13   2   1 334.024 17.3540   1
  -2   2  12 757.979 26.2075  -4
  12   2   1 757.979 26.2075  -3
   0   2  12 757.979 26.2075  -2
 -12   2   1 757.979 26.2075   1
  -2   2  11 99.4680 5.50750  -4
  11   2   1 99.4680 5.50750  -3
   0   2  11 99.4680 5.50750  -2
 -11   2   1 99.4680 5.50750   1
  -2   2  10 1040.78 33.9997  -4
  10   2   1 1040.78 33.9997  -3
   0   2  10 1040.78 33.9997  -2
 -10   2   1 1040.78 33.9997   1
  -2   2   9 632.265 26.1670  -4
   9   2   1 632.265 26.1670  -3
   0   2   9 632.265 26.1670  -2
  -9   2   1 632.265 26.1670   1
   8   2   1 31.5440 6.04402  -4
  -8   2   1 31.5440 6.04402   2
   8   2   1 12.9835 3.43098  -3
  -8   2   1 12.9835 3.43098   1
   7   2   1 582.079 16.8131  -3
  -7   2   1 582.079 16.8131   1
   7   2   1 375.295 11.2932  -4
  -7   2   1 375.295 11.2932   2
   6   2   1 2.43000 1.37412  -4
  -6   2   1 2.43000 1.37412   2
   6   2   1 2.90501 1.24041  -3
  -6   2   1 2.90501 1.24041   1
   5   2   1 3264.44 64.7781  -3
  -5   2   1 3264.44 64.7781   1
   5   2   1 2116.18 45.7889  -4
  -5   2   1 2116.18 45.7889   2
   4   2   1 0.06739 0.77069  -4
  -4   2   1 0.06739 0.77069   2
  -4   2   1 -0.3337 0.59007   3
   4   2   1 0.20438 0.77985  -3
  -4   2   1 0.20438 0.77985   1
  -4   2   1 0.66426 0.51858   1
  -3   2   1 256.375 9.93304   4
  -3   2   1 477.618 11.6488   1
   3   2   1 685.136 18.9636  -3
  -3   2   1 685.136 18.9636   1
   3   2   1 428.872 9.85013  -4
  -3   2   1 428.872 9.85013   2
  -3   2   1 471.244 22.4033   3
   2   2   1 0.54213 1.16250  -3
  -2   2   1 0.54213 1.16250   1
   2   2   1 0.03445 0.63098  -4
  -2   2   1 0.03445 0.63098   2
  -2   2   1 0.16950 0.65830   4
  -1   2   2 0.19650 0.98465  -4
  -2   2   1 0.19650 0.98465   1
   1   2   2 0.74713 0.96022  -2
  -2   2   1 0.74713 0.96022   1
   1   2   1 3711.58 112.475  -2
  -1   2   1 3711.58 112.475   1
   1   2   1 6192.36 285.821  -3
   1   2   1 6192.36 285.821  -2
  -1   2   1 6192.36 285.821   1
  -1   2   1 7232.04 262.501  -4
   1   2   1 7232.04 262.501  -3
   1   2   1 7232.04 262.501  -2
  -1   2   1 7232.04 262.501   1
   1   2   0 -1.1123 0.79757  -4
   0   2   1 -1.1123 0.79757  -3
   1   2   0 -1.1123 0.79757  -2
   0   2   1 -1.1123 0.79757   1
   0   2   1 0.42224 0.62917   3
   1   2   1 7635.13 276.339  -4
  -1   2   1 7635.13 276.339  -3
  -1   2   1 7635.13 276.339  -2
   1   2   1 7635.13 276.339   1
  -1   2   1 3430.41 146.464  -4
   1   2   1 3430.41 146.464   3
   2   2   1 -0.0622 0.48671   1
  -2   2   1 -0.3225 0.66562  -4
   2   2   1 -0.3225 0.66562   2
   2   2   1 0.13310 0.49011   4
  -3   2   1 645.742 17.0153  -3
   3   2   1 645.742 17.0153   1
   3   2   1 162.476 4.56082   3
  -3   2   1 393.835 10.3707  -4
   3   2   1 393.835 10.3707   2
   3   2   1 99.3582 5.01530   2
   3   2   1 155.478 6.44500   1
  -4   2   1 0.18134 0.73612  -4
   4   2   1 0.18134 0.73612   2
   4   2   1 -0.4654 0.41366   3
  -4   2   1 2.94023 0.75489  -3
   4   2   1 2.94023 0.75489   1
  -5   2   1 3092.79 66.0682  -3
   5   2   1 3092.79 66.0682   1
  -5   2   1 2041.40 43.5984  -4
   5   2   1 2041.40 43.5984   2
  -6   2   1 1.14646 1.19855  -3
   6   2   1 1.14646 1.19855   1
  -6   2   1 1.30915 0.68659  -4
   6   2   1 1.30915 0.68659   2
  -7   2   1 363.262 9.94974  -4
   7   2   1 363.262 9.94974   2
  -7   2   1 579.099 14.6411  -3
   7   2   1 579.099 14.6411   1
   0   2   8 337.674 12.4936  -4
  -8   2   1 337.674 12.4936  -3
   8   2   1 337.674 12.4936   1
  -8   2   1 55.2463 3.64053  -4
   8   2   1 55.2463 3.64053   2
   0   2   9 650.881 26.0985  -4
  -9   2   1 650.881 26.0985  -3
  -2   2   9 650.881 26.0985  -2
   9   2   1 650.881 26.0985   1
   0   2  10 988.119 28.0225  -4
 -10   2   1 988.119 28.0225  -3
  -2   2  10 988.119 28.0225  -2
  10   2   1 988.119 28.0225   1
   0   2  11 103.457 7.30329  -4
 -11   2   1 103.457 7.30329  -3
  -2   2  11 103.457 7.30329  -2
  11   2   1 103.457 7.30329   1
   0   2  12 694.846 25.0191  -4
 -12   2   1 694.846 25.0191  -3
  -2   2  12 694.846 25.0191  -2
  12   2   1 694.846 25.0191   1
   0   2  13 324.462 18.2321  -4
 -13   2   1 324.462 18.2321  -3
  -2   2  13 324.462 18.2321  -2
  13   2   1 324.462 18.2321   1
  15   2   1 101.712 14.2094   2
 -16   2   1 -5.9282 6.11365  -3
  16   2   1 -5.9282 6.11365   1
 -16   2   1 11.0818 8.43655  -4
  16   2   1 11.0818 8.43655   2
 -17   2   1 331.502 21.3567  -4
  17   2   1 331.502 21.3567   2
 -17   2   1 629.665 29.5644  -3
  17   2   1 629.665 29.5644   1
  17   3   1 -13.922 9.45599  -3
 -17   3   1 -13.922 9.45599   1
  17   3   1 8.99189 9.84786  -4
 -17   3   1 8.99189 9.84786   2
  16   3   1 64.1616 13.1734  -3
 -16   3   1 64.1616 13.1734   1
  16   3   1 28.8248 12.5049  -4
 -16   3   1 28.8248 12.5049   2
  14   3   1 92.5314 8.97090  -3
 -14   3   1 92.5314 8.97090   1
  13   3   1 13.1737 5.26607  -4
 -13   3   1 13.1737 5.26607   2
  13   3   1 11.5488 4.84357  -3
   0   3  13 11.5488 4.84357  -2
 -13   3   1 11.5488 4.84357   1
  -2   3  13 21.6080 10.2697  -4
  13   3   1 21.6080 10.2697  -3
   0   3  13 21.6080 10.2697  -2
 -13   3   1 21.6080 10.2697   1
  -2   3  12 176.482 7.76022  -4
  12   3   1 176.482 7.76022  -3
   0   3  12 176.482 7.76022  -2
 -12   3   1 176.482 7.76022   1
  -2   3  11 117.823 4.88227  -4
  11   3   1 117.823 4.88227  -3
   0   3  11 117.823 4.88227  -2
 -11   3   1 117.823 4.88227   1
  -2   3  10 115.865 7.54642  -4
  10   3   1 115.865 7.54642  -3
   0   3  10 115.865 7.54642  -2
 -10   3   1 115.865 7.54642   1
   9   3   1 35.2380 2.96883  -3
  -9   3   1 35.2380 2.96883   1
  -2   3   9 40.2369 5.65190  -4
   9   3   1 40.2369 5.65190  -3
   0   3   9 40.2369 5.65190  -2
  -9   3   1 40.2369 5.65190   1
   8   3   1 509.288 19.9408  -3
  -8   3   1 509.288 19.9408   1
   7   3   1 4.78399 1.59864  -4
  -7   3   1 4.78399 1.59864   2
   7   3   1 5.19621 1.29380  -3
  -7   3   1 5.19621 1.29380   1
   6   3   1 1259.36 28.6805  -3
  -6   3   1 1259.36 28.6805   1
   6   3   1 802.734 24.1510  -4
  -6   3   1 802.734 24.1510   2
   5   3   1 3.05690 1.02603  -3
  -5   3   1 3.05690 1.02603   1
   5   3   1 1.98862 1.61736  -4
  -5   3   1 1.98862 1.61736   2
   4   3   1 3743.62 72.6914  -3
  -4   3   1 3743.62 72.6914   1
   4   3   1 2470.89 58.5161  -4
  -4   3   1 2470.89 58.5161   2
  -3   3   1 0.51994 0.60893   1
   3   3   1 2.39795 1.41414  -3
  -3   3   1 2.39795 1.41414   1
  -3   3   1 0.17272 0.80811   3
  -3   3   1 0.77912 0.83173   2
   3   3   1 -0.1837 1.11114  -4
  -3   3   1 -0.1837 1.11114   2
   1   3   2 2671.07 124.618  -2
  -2   3   1 2671.07 124.618   1
   2   3   1 3326.23 155.655  -3
  -2   3   1 3326.23 155.655   1
  -1   3   1 -0.8363 2.13566  -4
   1   3   1 -0.8363 2.13566  -3
   1   3   1 -0.8363 2.13566  -2
  -1   3   1 -0.8363 2.13566   1
   1   3   0 6594.37 148.323  -4
   0   3   1 6594.37 148.323  -3
   1   3   0 6594.37 148.323  -2
   0   3   1 6594.37 148.323   1
   1   3   1 -0.9696 2.45684  -4
  -1   3   1 -0.9696 2.45684  -3
  -1   3   1 -0.9696 2.45684  -2
   1   3   1 -0.9696 2.45684   1
  -1   3   2 2560.46 119.361  -4
   2   3   1 2560.46 119.361   3
  -2   3   1 2215.99 96.0746  -4
   2   3   1 2215.99 96.0746   2
  -3   3   1 -1.3023 1.10540  -4
   3   3   1 -1.3023 1.10540   2
   3   3   1 0.18360 0.60428   3
  -3   3   1 3.57681 2.93165  -3
   3   3   1 3.57681 2.93165   1
   3   3   1 1.53063 1.06043   1
   3   3   1 -0.1821 0.91631   4
  -4   3   1 3669.42 86.1648  -3
   4   3   1 3669.42 86.1648   1
  -4   3   1 2434.45 47.1668  -4
   4   3   1 2434.45 47.1668   2
  -5   3   1 4.43404 0.93833  -4
   5   3   1 4.43404 0.93833   2
  -5   3   1 2.40889 1.66041  -3
   5   3   1 2.40889 1.66041   1
  -6   3   1 782.641 15.4340  -4
   6   3   1 782.641 15.4340   2
  -6   3   1 1205.14 27.8434  -3
   6   3   1 1205.14 27.8434   1
  -7   3   1 0.54646 1.45651  -3
   7   3   1 0.54646 1.45651   1
  -7   3   1 5.44805 3.45317  -4
   7   3   1 5.44805 3.45317   2
  -8   3   1 552.828 31.6539  -3
   8   3   1 552.828 31.6539   1
   0   3   9 29.5026 6.53807  -4
  -9   3   1 29.5026 6.53807  -3
  -2   3   9 29.5026 6.53807  -2
   9   3   1 29.5026 6.53807   1
   0   3  10 126.883 6.34401  -4
 -10   3   1 126.883 6.34401  -3
  -2   3  10 126.883 6.34401  -2
  10   3   1 126.883 6.34401   1
   0   3  11 126.986 8.18490  -4
 -11   3   1 126.986 8.18490  -3
  -2   3  11 126.986 8.18490  -2
  11   3   1 126.986 8.18490   1
   0   3  12 192.410 10.6044  -4
 -12   3   1 192.410 10.6044  -3
  -2   3  12 192.410 10.6044  -2
  12   3   1 192.410 10.6044   1
   0   3  14 126.719 18.8933  -4
 -14   3   1 126.719 18.8933  -3
  -2   3  14 126.719 18.8933  -2
  14   3   1 126.719 18.8933   1
 -16   3   1 47.5198 6.73788  -3
  16   3   1 47.5198 6.73788   1
 -16   3   1 9.87017 11.9158  -4
  16   3   1 9.87017 11.9158   2
 -17   3   1 6.46896 7.59879  -4
  17   3   1 6.46896 7.59879   2
 -17   3   1 12.7811 7.55163  -3
  17   3   1 12.7811 7.55163   1
  16   4   1 19.1215 14.3784  -4
 -16   4   1 19.1215 14.3784   2
  16   4   1 -2.0346 11.3303  -3
 -16   4   1 -2.0346 11.3303   1
  -2   4  14 37.1587 14.6222  -4
  14   4   1 37.1587 14.6222  -3
   0   4  14 37.1587 14.6222  -2
 -14   4   1 37.1587 14.6222   1
  -2   4  13 177.609 14.8338  -4
  13   4   1 177.609 14.8338  -3
   0   4  13 177.609 14.8338  -2
 -13   4   1 177.609 14.8338   1
  -2   4  12 26.7805 5.50373  -4
  12   4   1 26.7805 5.50373  -3
   0   4  12 26.7805 5.50373  -2
 -12   4   1 26.7805 5.50373   1
  -2   4  11 1248.11 47.7431  -4
  11   4   1 1248.11 47.7431  -3
   0   4  11 1248.11 47.7431  -2
 -11   4   1 1248.11 47.7431   1
  -2   4  10 22.6097 4.40657  -4
  10   4   1 22.6097 4.40657  -3
   0   4  10 22.6097 4.40657  -2
 -10   4   1 22.6097 4.40657   1
  -2   4   9 276.859 12.6471  -4
   9   4   1 276.859 12.6471  -3
   0   4   9 276.859 12.6471  -2
  -9   4   1 276.859 12.6471   1
   9   4   1 274.643 16.0948  -3
  -9   4   1 274.643 16.0948   1
   8   4   1 -0.7678 2.01809  -3
  -8   4   1 -0.7678 2.01809   1
   7   4   1 2669.88 54.7935  -3
  -7   4   1 2669.88 54.7935   1
   7   4   1 1843.63 45.1695  -4
  -7   4   1 1843.63 45.1695   2
   6   4   1 1.72121 1.51457  -4
  -6   4   1 1.72121 1.51457   2
   6   4   1 0.86785 1.24272  -3
  -6   4   1 0.86785 1.24272   1
   5   4   1 528.037 14.2580  -4
  -5   4   1 528.037 14.2580   2
   5   4   1 778.914 18.9574  -3
  -5   4   1 778.914 18.9574   1
   4   4   1 0.82357 1.02050  -4
  -4   4   1 0.82357 1.02050   2
   4   4   1 1.00791 1.21437  -3
  -4   4   1 1.00791 1.21437   1
   3   4   1 32.1130 2.16565  -3
  -3   4   1 32.1130 2.16565   1
   3   4   1 21.1306 1.80378  -4
  -3   4   1 21.1306 1.80378   2
  -1   4   2 2.20453 2.23447  -4
   2   4   1 2.20453 2.23447  -3
   1   4   2 2.20453 2.23447  -2
  -2   4   1 2.20453 2.23447   1
  -1   4   1 0.38772 1.26738  -4
   1   4   1 0.38772 1.26738  -3
   1   4   1 0.38772 1.26738  -2
  -1   4   1 0.38772 1.26738   1
   1   4   0 1.82621 1.28208  -4
   0   4   1 1.82621 1.28208  -3
   1   4   0 1.82621 1.28208  -2
   0   4   1 1.82621 1.28208   1
   1   4   1 -2.1534 2.21161  -4
  -1   4   1 -2.1534 2.21161  -3
  -1   4   1 -2.1534 2.21161  -2
   1   4   1 -2.1534 2.21161   1
   1   4   2 -4.3749 3.36969  -4
  -2   4   1 -4.3749 3.36969  -3
  -1   4   2 -4.3749 3.36969  -2
   2   4   1 -4.3749 3.36969   1
  -3   4   1 23.4638 1.86587  -4
   3   4   1 23.4638 1.86587   2
  -3   4   1 28.2035 4.20373  -3
   3   4   1 28.2035 4.20373   1
  -4   4   1 3.18160 1.63169  -4
   4   4   1 3.18160 1.63169   2
  -4   4   1 -0.8699 1.69582  -3
   4   4   1 -0.8699 1.69582   1
  -5   4   1 762.442 18.8995  -3
   5   4   1 762.442 18.8995   1
  -5   4   1 508.030 11.4768  -4
   5   4   1 508.030 11.4768   2
  -6   4   1 -0.9260 1.60731  -3
   6   4   1 -0.9260 1.60731   1
  -6   4   1 0.05980 1.15831  -4
   6   4   1 0.05980 1.15831   2
  -7   4   1 1743.89 41.6076  -4
   7   4   1 1743.89 41.6076   2
  -7   4   1 2559.51 64.1226  -3
   7   4   1 2559.51 64.1226   1
  -8   4   1 2.38804 2.34552  -3
   8   4   1 2.38804 2.34552   1
  -8   4   1 3.10289 1.57643  -4
   8   4   1 3.10289 1.57643   2
   0   4   9 294.010 12.7151  -4
  -9   4   1 294.010 12.7151  -3
  -2   4   9 294.010 12.7151  -2
   9   4   1 294.010 12.7151   1
   0   4  10 18.2619 4.23681  -4
 -10   4   1 18.2619 4.23681  -3
  -2   4  10 18.2619 4.23681  -2
  10   4   1 18.2619 4.23681   1
   0   4  11 1302.99 49.1165  -4
 -11   4   1 1302.99 49.1165  -3
  -2   4  11 1302.99 49.1165  -2
  11   4   1 1302.99 49.1165   1
   0   4  12 26.8616 5.44073  -4
 -12   4   1 26.8616 5.44073  -3
  -2   4  12 26.8616 5.44073  -2
  12   4   1 26.8616 5.44073   1
   0   4  13 190.748 15.5044  -4
 -13   4   1 190.748 15.5044  -3
  -2   4  13 190.748 15.5044  -2
  13   4   1 190.748 15.5044   1
   0   4  14 84.2883 18.1356  -4
 -14   4   1 84.2883 18.1356  -3
  -2   4  14 84.2883 18.1356  -2
  14   4   1 84.2883 18.1356   1
 -15   4   1 34.3423 7.46321  -4
  15   4   1 34.3423 7.46321   2
 -16   4   1 30.2620 11.0477  -3
  16   4   1 30.2620 11.0477   1
 -16   4   1 30.4098 14.5001  -4
  16   4   1 30.4098 14.5001   2
  -2   5  13 240.684 13.8454  -4
  13   5   1 240.684 13.8454  -3
   0   5  13 240.684 13.8454  -2
 -13   5   1 240.684 13.8454   1
  -2   5  12 319.415 15.4452  -4
  12   5   1 319.415 15.4452  -3
   0   5  12 319.415 15.4452  -2
 -12   5   1 319.415 15.4452   1
  -2   5  11 34.1448 6.22582  -4
  11   5   1 34.1448 6.22582  -3
   0   5  11 34.1448 6.22582  -2
 -11   5   1 34.1448 6.22582   1
  -2   5  10 308.434 16.9993  -4
  10   5   1 308.434 16.9993  -3
   0   5  10 308.434 16.9993  -2
 -10   5   1 308.434 16.9993   1
  -2   5   9 94.1338 13.5090  -4
   9   5   1 94.1338 13.5090  -3
   0   5   9 94.1338 13.5090  -2
  -9   5   1 94.1338 13.5090   1
   9   5   1 13.5122 3.41310  -3
  -9   5   1 13.5122 3.41310   1
  -2   5   8 468.836 34.6477  -3
  -8   5   1 468.836 34.6477   2
   8   5   1 1176.00 44.4150  -3
  -8   5   1 1176.00 44.4150   1
   7   5   1 -4.0228 1.69305  -3
  -7   5   1 -4.0228 1.69305   1
   6   5   1 626.836 16.4295  -3
  -6   5   1 626.836 16.4295   1
   6   5   1 417.806 12.0381  -4
  -6   5   1 417.806 12.0381   2
   5   5   1 1.36529 2.29340  -3
  -5   5   1 1.36529 2.29340   1
   5   5   1 6.14063 3.02276  -4
  -5   5   1 6.14063 3.02276   2
   4   5   1 133.716 5.78624  -3
  -4   5   1 133.716 5.78624   1
   4   5   1 103.284 9.58233  -4
  -4   5   1 103.284 9.58233   2
  -3   5   1 1.03162 1.60767   3
   3   5   1 -1.6319 1.66635  -3
  -3   5   1 -1.6319 1.66635   1
   3   5   1 5.35860 2.75365  -4
  -3   5   1 5.35860 2.75365   2
  -1   5   2 1005.71 34.3344  -4
   2   5   1 1005.71 34.3344  -3
   1   5   2 1005.71 34.3344  -2
  -2   5   1 1005.71 34.3344   1
  -1   5   1 -2.4508 1.69278  -4
   1   5   1 -2.4508 1.69278  -3
   1   5   1 -2.4508 1.69278  -2
  -1   5   1 -2.4508 1.69278   1
   1   5   0 186.647 5.50314  -4
   0   5   1 186.647 5.50314  -3
   1   5   0 186.647 5.50314  -2
   0   5   1 186.647 5.50314   1
   1   5   1 -1.0805 1.34319  -4
  -1   5   1 -1.0805 1.34319  -3
  -1   5   1 -1.0805 1.34319  -2
   1   5   1 -1.0805 1.34319   1
   1   5   2 996.049 29.7082  -4
  -2   5   1 996.049 29.7082  -3
  -1   5   2 996.049 29.7082  -2
   2   5   1 996.049 29.7082   1
  -3   5   1 -2.4148 1.98054  -4
   3   5   1 -2.4148 1.98054   2
  -1   5   3 -1.7787 2.91185  -2
   3   5   1 -1.7787 2.91185   1
  -4   5   1 86.0153 4.32224  -4
   4   5   1 86.0153 4.32224   2
  -4   5   1 148.051 8.32727  -3
   4   5   1 148.051 8.32727   1
  -5   5   1 -0.0843 1.39698  -4
   5   5   1 -0.0843 1.39698   2
  -5   5   1 -1.4660 2.66935  -3
   5   5   1 -1.4660 2.66935   1
  -6   5   1 409.921 9.94571  -4
   6   5   1 409.921 9.94571   2
  -6   5   1 606.584 27.5876  -3
   6   5   1 606.584 27.5876   1
  -7   5   1 0.88809 2.59602  -4
   7   5   1 0.88809 2.59602   2
  -7   5   1 97.3216 11.1541  -4
   0   5   7 97.3216 11.1541  -3
   7   5   1 97.3216 11.1541   2
  -7   5   1 -1.5232 2.86848  -3
   7   5   1 -1.5232 2.86848   1
   0   5   8 1048.38 51.5663  -4
  -8   5   1 1048.38 51.5663  -3
   8   5   1 1048.38 51.5663   1
   0   5   9 71.8893 6.71625  -4
  -9   5   1 71.8893 6.71625  -3
  -2   5   9 71.8893 6.71625  -2
   9   5   1 71.8893 6.71625   1
   0   5  10 313.581 13.8149  -4
 -10   5   1 313.581 13.8149  -3
  -2   5  10 313.581 13.8149  -2
  10   5   1 313.581 13.8149   1
   0   5  11 47.5231 7.93946  -4
 -11   5   1 47.5231 7.93946  -3
  -2   5  11 47.5231 7.93946  -2
  11   5   1 47.5231 7.93946   1
   0   5  12 347.156 16.1086  -4
 -12   5   1 347.156 16.1086  -3
  -2   5  12 347.156 16.1086  -2
  12   5   1 347.156 16.1086   1
   0   5  13 277.879 19.9904  -4
 -13   5   1 277.879 19.9904  -3
  -2   5  13 277.879 19.9904  -2
  13   5   1 277.879 19.9904   1
   0   5  14 172.623 24.9185  -4
 -14   5   1 172.623 24.9185  -3
  -2   5  14 172.623 24.9185  -2
  14   5   1 172.623 24.9185   1
 -14   5   1 136.096 12.0999  -3
  14   5   1 136.096 12.0999   1
 -15   5   1 -6.5844 5.29789  -4
  15   5   1 -6.5844 5.29789   2
  -2   6  13 181.877 16.2263  -4
  13   6   1 181.877 16.2263  -3
   0   6  13 181.877 16.2263  -2
 -13   6   1 181.877 16.2263   1
  13   6   1 147.387 17.1672  -3
   0   6  13 147.387 17.1672  -2
 -13   6   1 147.387 17.1672   1
  -2   6  12 290.424 14.2937  -4
  12   6   1 290.424 14.2937  -3
   0   6  12 290.424 14.2937  -2
 -12   6   1 290.424 14.2937   1
  -2   6  11 45.0040 6.13284  -4
  11   6   1 45.0040 6.13284  -3
   0   6  11 45.0040 6.13284  -2
 -11   6   1 45.0040 6.13284   1
  -2   6  10 268.591 18.1935  -4
  10   6   1 268.591 18.1935  -3
   0   6  10 268.591 18.1935  -2
 -10   6   1 268.591 18.1935   1
  -2   6   9 274.185 29.4313  -4
   9   6   1 274.185 29.4313  -3
   0   6   9 274.185 29.4313  -2
  -9   6   1 274.185 29.4313   1
  -2   6   8 552.379 40.8694  -3
  -8   6   1 552.379 40.8694   2
  -2   6   8 300.043 13.1361  -4
   8   6   1 300.043 13.1361  -3
  -8   6   1 300.043 13.1361   1
   7   6   1 178.640 12.8656  -3
  -7   6   1 178.640 12.8656   1
   6   6   1 -0.3701 2.58621  -4
  -6   6   1 -0.3701 2.58621   2
   6   6   1 3.06985 4.72233  -3
  -6   6   1 3.06985 4.72233   1
   5   6   1 211.691 9.42615  -4
  -5   6   1 211.691 9.42615   2
   5   6   1 304.811 8.98997  -3
  -5   6   1 304.811 8.98997   1
   4   6   1 1.48298 2.07034  -3
  -4   6   1 1.48298 2.07034   1
   4   6   1 -1.0732 3.81905  -4
  -4   6   1 -1.0732 3.81905   2
   3   6   1 1000.74 35.2091  -3
  -3   6   1 1000.74 35.2091   1
  -1   6   2 -6.5149 3.71687  -4
   2   6   1 -6.5149 3.71687  -3
   1   6   2 -6.5149 3.71687  -2
  -2   6   1 -6.5149 3.71687   1
  -1   6   1 2801.52 55.2093  -4
   1   6   1 2801.52 55.2093  -3
   1   6   1 2801.52 55.2093  -2
  -1   6   1 2801.52 55.2093   1
   1   6   0 3.50807 1.83352  -4
   0   6   1 3.50807 1.83352  -3
   1   6   0 3.50807 1.83352  -2
   0   6   1 3.50807 1.83352   1
   1   6   1 2845.84 61.5932  -4
  -1   6   1 2845.84 61.5932  -3
  -1   6   1 2845.84 61.5932  -2
   1   6   1 2845.84 61.5932   1
   1   6   2 0.84315 2.98114  -4
  -2   6   1 0.84315 2.98114  -3
  -1   6   2 0.84315 2.98114  -2
   2   6   1 0.84315 2.98114   1
  -3   6   1 1048.19 36.8076  -3
   3   6   1 1048.19 36.8076   1
  -3   6   1 662.371 34.6427  -4
   3   6   1 662.371 34.6427   2
  -4   6   1 1.57385 2.68957  -3
   4   6   1 1.57385 2.68957   1
  -4   6   1 8.45745 3.46929  -4
   4   6   1 8.45745 3.46929   2
  -5   6   1 192.192 6.95018  -4
   5   6   1 192.192 6.95018   2
  -5   6   1 279.235 11.9642  -3
   5   6   1 279.235 11.9642   1
  -6   6   1 7.18977 2.37538  -4
   6   6   1 7.18977 2.37538   2
  -6   6   1 4.13363 3.12670  -3
   6   6   1 4.13363 3.12670   1
  -7   6   1 126.491 9.76820  -4
   7   6   1 126.491 9.76820   2
  -7   6   1 166.265 13.4138  -3
   7   6   1 166.265 13.4138   1
   0   6   9 268.237 12.7613  -4
  -9   6   1 268.237 12.7613  -3
  -2   6   9 268.237 12.7613  -2
   9   6   1 268.237 12.7613   1
   0   6  10 241.040 17.1382  -4
 -10   6   1 241.040 17.1382  -3
  -2   6  10 241.040 17.1382  -2
  10   6   1 241.040 17.1382   1
   0   6  11 51.5323 5.63042  -4
 -11   6   1 51.5323 5.63042  -3
  -2   6  11 51.5323 5.63042  -2
  11   6   1 51.5323 5.63042   1
   0   6  12 282.380 19.8245  -4
 -12   6   1 282.380 19.8245  -3
  -2   6  12 282.380 19.8245  -2
  12   6   1 282.380 19.8245   1
   0   6  13 187.905 16.5811  -4
 -13   6   1 187.905 16.5811  -3
  -2   6  13 187.905 16.5811  -2
  13   6   1 187.905 16.5811   1
   0   6  14 18.4578 17.6744  -4
 -14   6   1 18.4578 17.6744  -3
  -2   6  14 18.4578 17.6744  -2
  14   6   1 18.4578 17.6744   1
 -14   6   1 47.0099 14.4001  -3
  -2   6  14 47.0099 14.4001  -2
  14   6   1 47.0099 14.4001   1
 -13   7   1 10.3237 9.48717   1
  -2   7  13 27.9900 14.1909  -4
   0   7  13 27.9900 14.1909  -2
 -13   7   1 27.9900 14.1909   1
  -2   7  12 60.5425 10.4585  -4
  12   7   1 60.5425 10.4585  -3
   0   7  12 60.5425 10.4585  -2
 -12   7   1 60.5425 10.4585   1
  -2   7  11 155.431 14.3454  -4
  11   7   1 155.431 14.3454  -3
   0   7  11 155.431 14.3454  -2
 -11   7   1 155.431 14.3454   1
  -2   7  10 77.4694 10.5845  -4
  10   7   1 77.4694 10.5845  -3
   0   7  10 77.4694 10.5845  -2
 -10   7   1 77.4694 10.5845   1
   0   7  10 58.0784 6.32085  -2
 -10   7   1 58.0784 6.32085   1
  -2   7   9 35.7782 11.2311  -4
   9   7   1 35.7782 11.2311  -3
   0   7   9 35.7782 11.2311  -2
  -9   7   1 35.7782 11.2311   1
   7   7   1 6.89545 4.53643  -3
  -7   7   1 6.89545 4.53643   1
   6   7   1 334.754 17.9189  -4
  -6   7   1 334.754 17.9189   2
   6   7   1 500.153 15.6907  -3
  -6   7   1 500.153 15.6907   1
   5   7   1 0.67268 2.29240  -3
  -5   7   1 0.67268 2.29240   1
   4   7   1 1156.98 39.3048  -3
  -4   7   1 1156.98 39.3048   1
   3   7   1 0.15582 2.83940  -3
  -3   7   1 0.15582 2.83940   1
  -1   7   2 1421.43 33.2551  -4
   2   7   1 1421.43 33.2551  -3
   1   7   2 1421.43 33.2551  -2
  -2   7   1 1421.43 33.2551   1
  -1   7   1 -0.2971 2.67307  -4
   1   7   1 -0.2971 2.67307  -3
   1   7   1 -0.2971 2.67307  -2
  -1   7   1 -0.2971 2.67307   1
   1   7   0 1221.89 25.9712  -4
   0   7   1 1221.89 25.9712  -3
   1   7   0 1221.89 25.9712  -2
   0   7   1 1221.89 25.9712   1
   1   7   1 7.63613 3.28636  -4
  -1   7   1 7.63613 3.28636  -3
  -1   7   1 7.63613 3.28636  -2
   1   7   1 7.63613 3.28636   1
   1   7   2 1409.31 37.3424  -4
  -2   7   1 1409.31 37.3424  -3
  -1   7   2 1409.31 37.3424  -2
   2   7   1 1409.31 37.3424   1
  -3   7   1 6.04373 5.32811  -3
   3   7   1 6.04373 5.32811   1
  -3   7   1 -2.3454 3.30028  -4
   3   7   1 -2.3454 3.30028   2
  -4   7   1 783.081 23.2594  -4
   4   7   1 783.081 23.2594   2
  -4   7   1 1138.78 40.4617  -3
   4   7   1 1138.78 40.4617   1
  -5   7   1 8.14522 6.12025  -3
   5   7   1 8.14522 6.12025   1
  -5   7   1 -2.5479 2.87855  -4
   5   7   1 -2.5479 2.87855   2
  -6   7   1 312.575 9.46566  -4
   6   7   1 312.575 9.46566   2
  -6   7   1 480.721 24.8104  -3
   6   7   1 480.721 24.8104   1
  -7   7   1 0.98078 5.09512  -3
   7   7   1 0.98078 5.09512   1
  -7   7   1 5.16362 3.61768  -4
   7   7   1 5.16362 3.61768   2
  -8   7   1 113.795 9.07287  -4
   8   7   1 113.795 9.07287   2
   0   7   8 158.130 13.6481  -4
  -8   7   1 158.130 13.6481  -3
   8   7   1 158.130 13.6481   1
   0   7   9 37.1293 12.1520  -4
  -9   7   1 37.1293 12.1520  -3
  -2   7   9 37.1293 12.1520  -2
   9   7   1 37.1293 12.1520   1
   0   7  10 82.4095 7.13621  -4
 -10   7   1 82.4095 7.13621  -3
  -2   7  10 82.4095 7.13621  -2
  10   7   1 82.4095 7.13621   1
   0   7  11 161.901 9.63070  -4
 -11   7   1 161.901 9.63070  -3
  -2   7  11 161.901 9.63070  -2
  11   7   1 161.901 9.63070   1
   0   7  12 58.0339 10.6949  -4
 -12   7   1 58.0339 10.6949  -3
  -2   7  12 58.0339 10.6949  -2
  12   7   1 58.0339 10.6949   1
  -2   8  11 613.112 43.0649  -4
   0   8  11 613.112 43.0649  -2
 -11   8   1 613.112 43.0649   1
  -2   8  10 29.5153 9.53434  -4
  10   8   1 29.5153 9.53434  -3
   0   8  10 29.5153 9.53434  -2
 -10   8   1 29.5153 9.53434   1
  -2   8   9 714.079 46.4367  -4
   9   8   1 714.079 46.4367  -3
   0   8   9 714.079 46.4367  -2
  -9   8   1 714.079 46.4367   1
   7   8   1 345.698 17.7609  -3
  -7   8   1 345.698 17.7609   1
   6   8   1 -0.8301 5.91452  -3
  -6   8   1 -0.8301 5.91452   1
   5   8   1 36.9066 5.44946  -4
  -5   8   1 36.9066 5.44946   2
   5   8   1 91.7728 6.31422  -3
  -5   8   1 91.7728 6.31422   1
   4   8   1 0.57292 3.18192  -3
  -4   8   1 0.57292 3.18192   1
  -1   8   3 133.334 17.4678  -4
   3   8   1 133.334 17.4678  -3
   1   8   3 133.334 17.4678  -2
  -3   8   1 133.334 17.4678   1
   3   8   1 81.4611 4.65576  -3
  -3   8   1 81.4611 4.65576   1
  -1   8   2 9.23501 3.82787  -4
   2   8   1 9.23501 3.82787  -3
   1   8   2 9.23501 3.82787  -2
  -2   8   1 9.23501 3.82787   1
  -1   8   1 5.99134 3.44337  -4
   1   8   1 5.99134 3.44337  -3
   1   8   1 5.99134 3.44337  -2
  -1   8   1 5.99134 3.44337   1
  -1   8   1 2.62414 2.33130  -3
  -1   8   1 2.62414 2.33130   2
   1   8   0 3.77743 2.75854  -4
   0   8   1 3.77743 2.75854  -3
   1   8   0 3.77743 2.75854  -2
   0   8   1 3.77743 2.75854   1
   1   8   1 -1.3747 3.75166  -4
  -1   8   1 -1.3747 3.75166  -3
  -1   8   1 -1.3747 3.75166  -2
   1   8   1 -1.3747 3.75166   1
   1   8   2 5.97671 4.26506  -4
  -2   8   1 5.97671 4.26506  -3
  -1   8   2 5.97671 4.26506  -2
   2   8   1 5.97671 4.26506   1
  -3   8   1 56.6432 6.25329  -4
   3   8   1 56.6432 6.25329   2
  -3   8   1 111.959 13.6637  -3
  -1   8   3 111.959 13.6637  -2
   3   8   1 111.959 13.6637   1
  -4   8   1 -2.4882 2.89700  -4
   4   8   1 -2.4882 2.89700   2
  -4   8   1 7.83002 4.07932  -3
   4   8   1 7.83002 4.07932   1
  -5   8   1 51.9183 4.88339  -3
   5   8   1 51.9183 4.88339   1
  -5   8   1 46.1736 3.66220  -4
   5   8   1 46.1736 3.66220   2
  -6   8   1 -2.4117 3.18274  -4
   6   8   1 -2.4117 3.18274   2
  -6   8   1 -1.3362 5.49751  -3
   6   8   1 -1.3362 5.49751   1
  -7   8   1 314.529 17.2061  -3
   7   8   1 314.529 17.2061   1
  -7   8   1 219.784 12.4795  -4
   7   8   1 219.784 12.4795   2
   0   8   8 16.2613 10.1210  -4
  -8   8   1 16.2613 10.1210  -3
  -2   8   8 16.2613 10.1210  -2
   8   8   1 16.2613 10.1210   1
   0   8   9 689.522 30.6206  -4
  -9   8   1 689.522 30.6206  -3
  -2   8   9 689.522 30.6206  -2
   9   8   1 689.522 30.6206   1
   0   8  10 10.1952 5.89144  -4
 -10   8   1 10.1952 5.89144  -3
  -2   8  10 10.1952 5.89144  -2
  10   8   1 10.1952 5.89144   1
  -2   9   8 43.9705 11.9593  -4
   8   9   1 43.9705 11.9593  -3
   0   9   8 43.9705 11.9593  -2
  -8   9   1 43.9705 11.9593   1
   7   9   1 -0.6946 5.15116  -3
  -7   9   1 -0.6946 5.15116   1
   6   9   1 325.092 21.0900  -3
  -6   9   1 325.092 21.0900   1
   5   9   1 4.38683 4.44589  -4
  -5   9   1 4.38683 4.44589   2
   5   9   1 -1.9826 4.47231  -3
  -5   9   1 -1.9826 4.47231   1
   4   9   1 83.8704 7.99425  -3
  -4   9   1 83.8704 7.99425   1
   3   9   1 4.18420 6.63491  -3
  -3   9   1 4.18420 6.63491   1
  -1   9   2 172.951 8.80258  -4
   2   9   1 172.951 8.80258  -3
   1   9   2 172.951 8.80258  -2
  -2   9   1 172.951 8.80258   1
  -2   9   1 68.6557 6.64295   1
  -1   9   1 0.79061 4.30415  -4
   1   9   1 0.79061 4.30415  -3
   1   9   1 0.79061 4.30415  -2
  -1   9   1 0.79061 4.30415   1
   1   9   0 42.0820 4.19377  -4
   0   9   1 42.0820 4.19377  -3
   1   9   0 42.0820 4.19377  -2
   0   9   1 42.0820 4.19377   1
   1   9   1 0.99910 4.48449  -4
  -1   9   1 0.99910 4.48449  -3
  -1   9   1 0.99910 4.48449  -2
   1   9   1 0.99910 4.48449   1
   1   9   2 172.948 9.33902  -4
  -2   9   1 172.948 9.33902  -3
  -1   9   2 172.948 9.33902  -2
   2   9   1 172.948 9.33902   1
  -3   9   1 1.13872 7.46213  -3
   3   9   1 1.13872 7.46213   1
  -4   9   1 89.3460 8.34126  -3
   4   9   1 89.3460 8.34126   1
  -5   9   1 -0.9942 4.90401  -3
   5   9   1 -0.9942 4.90401   1
  -5   9   1 -3.5369 4.21514  -4
   5   9   1 -3.5369 4.21514   2
  -6   9   1 280.604 19.3147  -3
   6   9   1 280.604 19.3147   1
  -7   9   1 -3.6705 5.63924  -3
   7   9   1 -3.6705 5.63924   1
   0   9   8 43.8510 13.5008  -4
  -8   9   1 43.8510 13.5008  -3
  -2   9   8 43.8510 13.5008  -2
   8   9   1 43.8510 13.5008   1
   0   9   8 18.7731 12.4606  -4
  -8   9   1 18.7731 12.4606  -3
   8   9   1 18.7731 12.4606   1
  -1  10   3 696.197 49.5225  -4
   3  10   1 696.197 49.5225  -3
   1  10   3 696.197 49.5225  -2
  -3  10   1 696.197 49.5225   1
  -1  10   3 410.621 28.0854  -3
  -3  10   1 410.621 28.0854   2
  -3  10   1 230.357 18.7421   4
   3  10   1 463.933 33.8019  -3
  -3  10   1 463.933 33.8019   1
  -1  10   2 15.9485 6.49571  -4
   2  10   1 15.9485 6.49571  -3
   1  10   2 15.9485 6.49571  -2
  -2  10   1 15.9485 6.49571   1
  -1  10   1 1513.76 41.5718  -4
   1  10   1 1513.76 41.5718  -3
   1  10   1 1513.76 41.5718  -2
  -1  10   1 1513.76 41.5718   1
   1  10   0 1.84040 4.76768  -4
   0  10   1 1.84040 4.76768  -3
   1  10   0 1.84040 4.76768  -2
   0  10   1 1.84040 4.76768   1
   1  10   1 1504.47 36.4082  -4
  -1  10   1 1504.47 36.4082  -3
  -1  10   1 1504.47 36.4082  -2
   1  10   1 1504.47 36.4082   1
   1  10   2 -3.9001 5.58632  -4
  -2  10   1 -3.9001 5.58632  -3
  -1  10   2 -3.9001 5.58632  -2
   2  10   1 -3.9001 5.58632   1
  -3  10   1 488.628 34.1171  -3
   3  10   1 488.628 34.1171   1
   1  10   3 663.848 52.5414  -4
  -3  10   1 663.848 52.5414  -3
  -1  10   3 663.848 52.5414  -2
   3  10   1 663.848 52.5414   1
  -3  10   1 541.112 33.2336  -3
  -1  10   3 541.112 33.2336  -2
   3  10   1 541.112 33.2336   1
 -18   0   2 186.660 21.5821   2
 -18   0   2 564.495 41.0436   3
 -18   0   2 190.589 21.0804   4
 -18   0   2 620.011 45.0503   1
 -17   0   2 0.64078 5.26244   2
 -17   0   2 2.59304 5.52187   4
 -16   0   2 7.05941 3.68248   4
 -16   0   2 3.16379 5.23833   2
 -16   0   2 2.52660 6.27179   1
 -16   0   2 4.71723 6.13201   3
  -3   0  13 149.253 15.7681  -4
  13   0   2 149.253 15.7681  -3
   1   0  13 149.253 15.7681  -2
 -13   0   2 149.253 15.7681   1
  -3   0  12 253.215 14.8217  -4
  12   0   2 253.215 14.8217  -3
   1   0  12 253.215 14.8217  -2
 -12   0   2 253.215 14.8217   1
  -3   0  11 243.907 19.4439  -4
  11   0   2 243.907 19.4439  -3
   1   0  11 243.907 19.4439  -2
 -11   0   2 243.907 19.4439   1
  -3   0  10 37.8261 8.67968  -4
  10   0   2 37.8261 8.67968  -3
   1   0  10 37.8261 8.67968  -2
 -10   0   2 37.8261 8.67968   1
  -8   0   2 403.019 17.9552   1
  -8   0   2 381.012 23.7066   3
  -3   0   8 364.791 22.6919  -4
  -8   0   2 364.791 22.6919   1
  -8   0   2 223.821 16.7918   2
  -7   0   2 5.43667 1.81457   3
  -7   0   2 0.47803 1.21444   1
  -7   0   2 3.38199 0.86806   4
  -7   0   2 2.30678 1.02016   2
  -6   0   2 11.5721 1.46884   4
  -6   0   2 18.6682 2.85560   1
  -6   0   2 17.2624 2.22787   3
  -6   0   2 11.4472 1.66579   2
   6   0   2 42.1579 5.81780  -3
  -6   0   2 42.1579 5.81780   1
  -5   0   2 0.37577 0.54146   2
  -5   0   2 0.06859 0.45903   4
  -5   0   2 0.74214 0.78727   1
  -5   0   2 1.57533 0.99181   3
  -4   0   2 594.085 13.5150   4
  -4   0   2 690.083 17.4827   2
  -4   0   2 1070.49 40.1477   3
  -4   0   2 950.169 24.7878   1
  -3   0   2 0.25540 0.61528   2
  -3   0   2 -1.1174 0.80122   3
  -3   0   2 0.09476 0.39950   4
  -3   0   2 0.22366 0.46246   1
  -2   0   2 7.48655 1.19442   3
   2   0   2 57.0591 3.28734  -2
  -2   0   2 57.0591 3.28734   1
  -2   0   2 7.23882 1.34912   1
  -2   0   2 2.86825 0.91444   4
  -1   0   2 -0.1283 0.34362   4
  -1   0   2 0.11722 0.58759   2
  -1   0   2 0.05875 0.25127   3
  -1   0   2 -0.2133 0.21981   1
   0   0   2 2620.67 63.4561   4
   0   0   2 4396.79 88.4426   3
   0   0   2 3072.49 74.3051   2
   0   0   2 4488.28 118.732   1
   1   0   2 -0.4346 0.50452   1
   1   0   2 0.26835 0.42112   3
   1   0   2 -0.2088 0.52247   4
   1   0   2 -0.0425 0.38956   2
   2   0   2 37.5168 2.54594   4
  -2   0   2 69.5170 3.76218  -4
   2   0   2 69.5170 3.76218   3
   2   0   2 46.7217 2.98906   2
  -2   0   2 72.5970 3.95971  -2
   2   0   2 72.5970 3.95971   1
   2   0   2 70.8973 3.80836   3
   3   0   2 0.69200 0.35503   4
   3   0   2 0.66297 0.46990   3
   3   0   2 0.22493 0.62542   1
   3   0   2 0.75899 0.52253   2
   4   0   2 492.980 14.9422   4
   4   0   2 805.698 20.9561   3
   4   0   2 563.301 13.0350   2
   4   0   2 858.900 33.0806   1
   5   0   2 0.52599 0.95956   1
   5   0   2 0.14606 0.52935   4
   5   0   2 -0.0963 0.53761   2
   5   0   2 -0.7125 0.63370   3
   6   0   2 14.9230 2.01957   4
   6   0   2 31.4338 2.63946   1
   6   0   2 26.5352 3.89374   3
   6   0   2 22.6929 1.68417   2
   7   0   2 -0.0396 1.18741   4
   7   0   2 0.32236 1.46837   2
   7   0   2 1.25023 1.11416   3
   7   0   2 1.30360 1.61614   1
   8   0   2 367.921 13.3013   3
   8   0   2 249.688 12.3947   2
   8   0   2 228.660 11.5480   4
   8   0   2 386.462 17.8285   1
   1   0  10 58.7146 9.78347  -4
 -10   0   2 58.7146 9.78347  -3
  -3   0  10 58.7146 9.78347  -2
  10   0   2 58.7146 9.78347   1
   1   0  11 216.236 13.5372  -4
 -11   0   2 216.236 13.5372  -3
  -3   0  11 216.236 13.5372  -2
  11   0   2 216.236 13.5372   1
   1   0  12 255.354 15.4872  -4
 -12   0   2 255.354 15.4872  -3
  -3   0  12 255.354 15.4872  -2
  12   0   2 255.354 15.4872   1
   1   0  13 167.172 17.6981  -4
 -13   0   2 167.172 17.6981  -3
  -3   0  13 167.172 17.6981  -2
  13   0   2 167.172 17.6981   1
  14   0   2 35.6078 8.53726   3
   1   0  14 42.1408 11.0425  -4
  14   0   2 42.1408 11.0425   1
  15   0   2 -5.0187 3.34399   2
  15   0   2 1.73016 4.29980   3
  15   0   2 3.12099 4.48880   4
  15   0   2 -1.1043 5.17996   1
  16   0   2 2.10377 3.44150   2
  16   0   2 1.57476 4.58487   4
  16   0   2 1.61218 4.91273   3
  16   0   2 13.8122 7.78103   1
  17   0   2 -4.8069 5.49182   3
  17   0   2 -2.7406 4.96817   4
  17   0   2 6.75601 6.86876   1
 -18   1   2 9.63522 7.45116   1
 -18   1   2 1.81080 4.19853   2
 -18   1   2 2.19230 2.89568   4
  17   1   2 67.5123 14.3079  -3
 -17   1   2 67.5123 14.3079   1
 -17   1   2 4.23143 6.62180   4
 -17   1   2 1.75480 4.38940   2
 -16   1   2 5.51889 4.03204   3
 -16   1   2 4.49107 4.10151   2
 -16   1   2 3.37751 2.14540   4
 -16   1   2 -0.0249 5.79015   1
 -15   1   2 76.5210 15.1699   2
 -15   1   2 82.9958 5.94920   4
  -3   1  14 133.778 14.4261  -4
  14   1   2 133.778 14.4261  -3
   1   1  14 133.778 14.4261  -2
 -14   1   2 133.778 14.4261   1
  -3   1  13 560.115 38.6695  -4
  13   1   2 560.115 38.6695  -3
   1   1  13 560.115 38.6695  -2
 -13   1   2 560.115 38.6695   1
  -3   1  12 764.597 23.2953  -4
  12   1   2 764.597 23.2953  -3
   1   1  12 764.597 23.2953  -2
 -12   1   2 764.597 23.2953   1
  -3   1  11 72.0257 10.0769  -4
   1   1  11 72.0257 10.0769  -2
 -11   1   2 72.0257 10.0769   1
  -3   1  11 107.110 8.34691  -4
  11   1   2 107.110 8.34691  -3
   1   1  11 107.110 8.34691  -2
 -11   1   2 107.110 8.34691   1
  -3   1  10 125.558 7.38182  -4
  10   1   2 125.558 7.38182  -3
   1   1  10 125.558 7.38182  -2
 -10   1   2 125.558 7.38182   1
   1   1   8 103.734 5.89096  -4
  -8   1   2 103.734 5.89096   3
  -8   1   2 1.81691 0.96776   2
  -3   1   8 174.355 9.12425  -4
  -8   1   2 174.355 9.12425   1
  -8   1   2 3.01917 1.39234   4
  -8   1   2 0.46924 1.42213   1
  -8   1   2 -1.7775 1.57224   3
  -7   1   2 149.343 4.43414   4
  -7   1   2 255.243 7.41076   1
  -7   1   2 250.168 7.46042   3
  -7   1   2 150.769 4.84939   2
   7   1   2 274.092 20.0597  -3
  -7   1   2 274.092 20.0597   1
  -6   1   2 0.18638 0.66506   3
  -6   1   2 -0.1274 0.34719   4
  -6   1   2 0.28406 0.68403   1
  -6   1   2 -0.1703 0.68262   2
   6   1   2 4.05819 2.90331  -3
  -6   1   2 4.05819 2.90331   1
  -5   1   2 1223.71 31.9438   3
  -5   1   2 1202.03 21.7893   1
  -5   1   2 707.924 12.3228   4
  -5   1   2 769.607 15.0503   2
  -4   1   2 0.28323 0.32203   2
  -4   1   2 0.09945 0.32357   4
  -4   1   2 1.26911 0.54535   1
  -4   1   2 0.79275 0.43197   3
  -3   1   2 193.591 4.34647   2
  -3   1   2 296.698 7.57299   3
  -3   1   2 304.223 7.23150   1
  -3   1   2 175.083 4.01016   4
  -2   1   2 -0.2570 0.18258   4
  -2   1   2 0.26409 0.26300   3
  -2   1   2 0.16789 0.15593   1
  -2   1   2 -0.0867 0.24442   2
   2   1   2 2.91148 2.58108  -2
  -2   1   2 2.91148 2.58108   1
   2   1   1 229.612 6.72070  -2
  -1   1   2 229.612 6.72070   1
  -1   1   2 48.7833 1.93809   2
  -1   1   2 65.6381 1.97317   3
  -1   1   2 69.1906 2.23874   1
  -1   1   2 44.4245 2.42075   4
  -2   1   1 129.217 8.13094  -3
  -1   1   2 129.217 8.13094   2
  -2   1   1 140.509 8.34441  -4
  -1   1   2 140.509 8.34441   1
   0   1   2 -0.2738 0.23335   3
   0   1   2 0.19656 0.27023   1
   0   1   2 0.19253 0.32198   2
   0   1   2 0.26383 0.38665   4
   1   1   2 127.725 3.88204   4
  -2   1   1 267.770 7.61224  -4
   1   1   2 267.770 7.61224   3
   1   1   2 150.258 4.42992   2
   1   1   2 204.667 6.51912   3
   1   1   2 215.902 5.75633   1
   2   1   2 0.02050 0.35550   3
   2   1   2 -0.0696 0.26580   1
  -2   1   2 1.41676 1.68844  -4
   2   1   2 1.41676 1.68844   3
   2   1   2 0.30938 0.30524   4
   2   1   2 0.36237 0.21622   2
  -2   1   2 0.87572 2.17341  -2
   2   1   2 0.87572 2.17341   1
   3   1   2 36.5294 1.39801   4
   3   1   2 34.7519 1.32379   2
   3   1   2 55.4159 2.14567   3
   3   1   2 59.1420 2.56836   1
   4   1   2 0.17466 0.33835   4
   4   1   2 0.31077 0.37503   2
   4   1   2 -0.1465 0.51015   3
   4   1   2 -0.2702 0.43638   1
   5   1   2 956.910 20.4819   3
   5   1   2 571.956 12.0423   4
   5   1   2 983.809 21.4090   1
   5   1   2 631.564 12.6762   2
   6   1   2 1.44600 0.75514   3
   6   1   2 -0.0691 0.66226   1
   6   1   2 0.70930 0.47919   4
   6   1   2 0.29716 0.60687   2
   7   1   2 8.64440 1.17031   4
   7   1   2 25.7892 2.07517   3
   7   1   2 21.9983 2.11701   1
   7   1   2 15.3005 1.64134   2
   8   1   2 -0.1768 0.71607   2
   8   1   2 -0.0164 0.69523   4
   8   1   2 1.58393 1.11662   1
   8   1   2 0.82155 0.98020   3
   1   1   9 57.7284 8.90298  -4
  -9   1   2 57.7284 8.90298  -3
  -3   1   9 57.7284 8.90298  -2
   9   1   2 57.7284 8.90298   1
   1   1  10 121.266 6.74762  -4
 -10   1   2 121.266 6.74762  -3
  -3   1  10 121.266 6.74762  -2
  10   1   2 121.266 6.74762   1
   1   1  11 108.673 9.37090  -4
 -11   1   2 108.673 9.37090  -3
  -3   1  11 108.673 9.37090  -2
  11   1   2 108.673 9.37090   1
  11   1   2 31.0498 7.36066   3
   1   1  13 615.658 29.3715  -4
 -13   1   2 615.658 29.3715  -3
  -3   1  13 615.658 29.3715  -2
  13   1   2 615.658 29.3715   1
   1   1  14 113.723 17.5411  -4
 -14   1   2 113.723 17.5411  -3
  -3   1  14 113.723 17.5411  -2
  14   1   2 113.723 17.5411   1
   1   1  14 99.3867 15.4352  -4
  14   1   2 99.3867 15.4352   1
  14   1   2 -2.6690 2.94412   3
  15   1   2 93.8246 9.79340   1
  15   1   2 104.321 9.91679   3
  15   1   2 85.3765 11.5769   2
  15   1   2 57.8476 13.5677   4
   1   1  15 81.2660 13.1509  -3
  15   1   2 81.2660 13.1509   2
  16   1   2 4.69209 4.74430   3
  16   1   2 3.53250 2.88313   2
  16   1   2 8.74573 7.17840   1
  16   1   2 0.99175 3.74699   4
  17   1   2 26.7891 7.11432   2
  17   1   2 31.1443 7.39721   4
  17   1   2 82.3290 11.9930   1
   0   1  17 50.9434 17.0232  -4
 -17   1   2 50.9434 17.0232  -3
  -3   1  17 50.9434 17.0232  -2
  17   1   2 50.9434 17.0232   1
  17   1   2 52.9491 9.54648   3
 -17   2   2 -3.0408 4.96357   2
 -17   2   2 3.51406 5.21339   4
 -16   2   2 5.83335 3.88020   2
  16   2   2 14.2017 8.81294  -3
 -16   2   2 14.2017 8.81294   1
 -16   2   2 1.25350 1.72737   4
 -16   2   2 2.21354 4.98228   1
 -16   2   2 -0.4317 3.61682   3
 -15   2   2 -0.4469 2.02806   4
  15   2   2 74.9599 10.6147  -3
 -15   2   2 74.9599 10.6147   1
  -3   2  14 13.8232 12.5832  -4
  14   2   2 13.8232 12.5832  -3
   1   2  14 13.8232 12.5832  -2
 -14   2   2 13.8232 12.5832   1
  -3   2  13 161.759 13.3911  -4
  13   2   2 161.759 13.3911  -3
   1   2  13 161.759 13.3911  -2
 -13   2   2 161.759 13.3911   1
  -3   2  12 764.024 26.3028  -4
  12   2   2 764.024 26.3028  -3
   1   2  12 764.024 26.3028  -2
 -12   2   2 764.024 26.3028   1
  -3   2  11 35.0923 4.33502  -4
  11   2   2 35.0923 4.33502  -3
   1   2  11 35.0923 4.33502  -2
 -11   2   2 35.0923 4.33502   1
  -3   2  11 33.1369 5.00309  -4
   1   2  11 33.1369 5.00309  -2
 -11   2   2 33.1369 5.00309   1
  -3   2  10 1161.60 37.3344  -4
  10   2   2 1161.60 37.3344  -3
   1   2  10 1161.60 37.3344  -2
 -10   2   2 1161.60 37.3344   1
  -3   2   9 227.062 13.2245  -4
  -9   2   2 227.062 13.2245   1
  -8   2   2 229.871 12.7912   2
  -8   2   2 327.664 22.3296   1
  -8   2   2 188.278 7.57258   4
   1   2   8 345.812 14.9705  -4
  -8   2   2 345.812 14.9705   3
  -8   2   2 314.996 16.4818   3
   1   2   8 384.224 24.0202  -2
  -8   2   2 384.224 24.0202   1
  -7   2   2 -0.1990 0.72380   3
  -7   2   2 1.74885 0.83555   2
  -7   2   2 -0.0100 0.57460   4
  -7   2   2 -0.7153 0.94473   1
   6   2   2 510.665 32.0700  -4
  -6   2   2 510.665 32.0700   2
  -6   2   2 207.717 6.39106   4
  -6   2   2 240.949 7.46640   2
  -6   2   2 375.045 10.1107   3
  -6   2   2 340.568 9.35468   1
  -5   2   2 0.25878 0.45895   4
  -5   2   2 1.03110 0.54327   2
  -5   2   2 1.55499 0.89557   1
  -5   2   2 -0.0189 0.61273   3
   5   2   2 -0.8507 4.52651  -3
  -5   2   2 -0.8507 4.52651   1
  -4   2   2 405.793 8.61157   4
  -4   2   2 691.132 13.7066   1
  -4   2   2 635.951 12.6130   3
  -4   2   2 440.303 8.62754   2
  -3   2   2 0.46767 0.24019   4
  -3   2   2 0.17583 0.34334   1
  -3   2   2 0.38000 0.38970   3
  -3   2   2 0.50134 0.57906   2
   2   2   3 -0.0306 1.66675  -2
  -3   2   2 -0.0306 1.66675   1
  -2   2   2 0.17181 0.23963   4
  -2   2   2 -0.4924 0.47996   2
   2   2   2 -0.6067 2.48238  -2
  -2   2   2 -0.6067 2.48238   1
  -2   2   2 -1.4033 2.71308  -3
  -2   2   2 -1.4033 2.71308   2
  -2   2   2 0.27302 0.49676   3
  -2   2   2 0.39783 0.28416   1
  -1   2   2 0.32233 0.81195   4
  -1   2   2 -0.6149 0.35137   3
  -1   2   2 -0.2341 0.33727   1
  -2   2   1 -0.4822 2.48619  -4
   1   2   2 -0.4822 2.48619  -3
   2   2   1 -0.4822 2.48619  -2
  -1   2   2 -0.4822 2.48619   1
   2   2   1 0.96941 1.14471  -2
  -1   2   2 0.96941 1.14471   1
  -2   2   1 -0.9901 0.87289  -3
  -1   2   2 -0.9901 0.87289   2
   0   2   2 106.951 3.58811   1
   0   2   2 66.4086 2.46675   4
   0   2   2 104.835 3.49337   3
   0   2   2 71.2220 3.23005   2
   1   2   2 -0.1141 0.73946   2
   1   2   2 0.44071 0.36009   3
   1   2   2 -0.4513 0.41745   4
  -2   2   1 1.50827 1.08696  -4
   1   2   2 1.50827 1.08696   3
   1   2   2 -0.1609 0.65397   1
   2   2   1 3.75534 3.18831  -4
  -1   2   2 3.75534 3.18831  -3
  -2   2   1 3.75534 3.18831  -2
   1   2   2 3.75534 3.18831   1
   2   2   1 -0.1133 1.05038  -3
   1   2   2 -0.1133 1.05038   2
   2   2   2 0.82126 0.62054   1
   2   2   2 0.40317 0.26495   2
   2   2   2 0.29038 0.47907   4
   2   2   2 -0.1154 0.28058   3
  -2   2   2 1.59706 1.38321  -4
   2   2   2 1.59706 1.38321   3
   2   2   2 0.61391 2.74726  -4
   2   2   2 0.61391 2.74726   1
   3   2   2 0.21574 0.21924   2
   3   2   2 0.53848 0.35368   3
   3   2   2 -0.4354 0.41310   1
   3   2   2 0.66022 0.39842   4
   4   2   2 420.372 8.90521   3
   4   2   2 255.733 6.48557   4
   4   2   2 286.190 5.88780   2
   4   2   2 432.524 11.8866   1
   5   2   2 0.28113 0.69454   3
   5   2   2 -0.1970 0.81385   1
   5   2   2 0.40248 0.52893   4
   5   2   2 0.33128 0.60741   2
   6   2   2 266.061 7.78243   2
   6   2   2 223.862 6.96493   4
   6   2   2 386.153 11.2006   3
   6   2   2 399.880 10.9096   1
   7   2   2 0.33642 0.61541   2
   7   2   2 0.78982 1.11062   3
   7   2   2 0.10554 0.64741   4
   7   2   2 -1.0917 1.01349   1
   8   2   2 96.4464 3.50978   4
   8   2   2 153.686 9.13268   3
   8   2   2 106.098 4.33660   2
   8   2   2 164.237 8.43536   1
   1   2  10 1199.71 33.2199  -4
 -10   2   2 1199.71 33.2199  -3
  -3   2  10 1199.71 33.2199  -2
  10   2   2 1199.71 33.2199   1
   1   2  11 34.9670 4.43449  -4
 -11   2   2 34.9670 4.43449  -3
  -3   2  11 34.9670 4.43449  -2
  11   2   2 34.9670 4.43449   1
  11   2   2 1.07865 2.32433   3
   1   2  12 762.671 27.0346  -4
 -12   2   2 762.671 27.0346  -3
  -3   2  12 762.671 27.0346  -2
  12   2   2 762.671 27.0346   1
   1   2  13 124.981 11.1347  -4
 -13   2   2 124.981 11.1347  -3
  -3   2  13 124.981 11.1347  -2
  13   2   2 124.981 11.1347   1
  14   2   2 19.3435 5.08160   3
   1   2  14 21.8067 6.80559  -4
  14   2   2 21.8067 6.80559   1
  14   2   2 5.21392 5.82634   4
  15   2   2 2.38554 1.97948   2
   1   2  15 94.6356 14.1889  -3
  15   2   2 94.6356 14.1889   2
  15   2   2 -2.0956 4.37612   4
  15   2   2 -5.7106 3.12027   1
  15   2   2 0.46177 3.30771   3
  16   2   2 3.08741 3.90764   4
  16   2   2 13.8004 4.17012   2
  16   2   2 35.1697 6.67583   3
  16   2   2 15.9226 5.96320   1
  17   2   2 0.18358 4.28500   3
  17   2   2 0.19686 5.13888   1
  17   2   2 0.99136 4.76073   4
 -17   2   2 82.4269 16.1880  -3
  17   2   2 82.4269 16.1880   1
  17   2   2 -6.1756 9.22923   2
 -17   3   2 20.4509 8.57911   4
 -17   3   2 18.8595 8.08413   2
 -16   3   2 1.68815 1.79906   4
 -16   3   2 2.81277 5.69307   1
 -16   3   2 -2.6947 4.31164   2
 -16   3   2 -1.6755 3.86112   3
 -15   3   2 5.81505 2.74237   4
 -15   3   2 1.41151 2.88088   2
  -3   3  13 88.5922 15.0152  -4
  13   3   2 88.5922 15.0152  -3
   1   3  13 88.5922 15.0152  -2
 -13   3   2 88.5922 15.0152   1
  -3   3  12 116.088 8.87267  -4
  12   3   2 116.088 8.87267  -3
   1   3  12 116.088 8.87267  -2
 -12   3   2 116.088 8.87267   1
  -3   3  11 296.428 26.3900  -4
  11   3   2 296.428 26.3900  -3
   1   3  11 296.428 26.3900  -2
 -11   3   2 296.428 26.3900   1
  -3   3  11 111.897 12.1933  -4
   1   3  11 111.897 12.1933  -2
 -11   3   2 111.897 12.1933   1
  -3   3  10 132.460 8.49930  -4
  10   3   2 132.460 8.49930  -3
   1   3  10 132.460 8.49930  -2
 -10   3   2 132.460 8.49930   1
   1   3   8 146.198 7.00024  -4
  -8   3   2 146.198 7.00024   3
  -8   3   2 0.56384 1.94397   2
   1   3   8 171.331 13.4589  -2
  -8   3   2 171.331 13.4589   1
  -8   3   2 2.13598 1.87261   4
  -7   3   2 242.047 7.79919   2
  -7   3   2 350.916 11.0033   3
   7   3   2 433.200 29.8758  -4
  -7   3   2 433.200 29.8758   2
  -7   3   2 209.359 6.57787   4
   7   3   2 705.523 45.7204  -3
  -7   3   2 705.523 45.7204   1
  -7   3   2 390.521 17.3173   1
  -6   3   2 2.08888 0.69400   4
  -6   3   2 0.56703 0.74582   2
  -6   3   2 -0.5524 0.65696   3
  -6   3   2 -0.5261 1.04010   1
   6   3   2 4.11219 5.52548  -4
  -6   3   2 4.11219 5.52548   2
  -5   3   2 639.018 13.9041   1
  -5   3   2 598.092 15.9812   3
   5   3   2 865.923 51.1149  -4
  -5   3   2 865.923 51.1149   2
  -5   3   2 360.481 7.64159   4
  -5   3   2 404.174 15.1357   2
  -4   3   2 0.27302 0.76590   3
  -4   3   2 0.11720 0.41405   4
  -4   3   2 0.33627 0.44191   1
  -4   3   2 -0.3359 0.68038   2
  -3   3   2 554.711 12.0499   4
  -3   3   2 939.979 16.7471   1
  -3   3   2 405.897 27.8478   2
  -3   3   2 843.173 31.1753   3
  -2   3   3 1589.58 86.7678  -3
  -3   3   2 1589.58 86.7678   2
   2   3   3 1509.70 80.0254  -2
  -3   3   2 1509.70 80.0254   1
  -2   3   2 -0.0456 0.77752   2
  -2   3   2 0.28461 0.39677   4
  -2   3   2 3.10593 3.26140  -3
  -2   3   2 3.10593 3.26140   2
  -2   3   2 0.60031 0.58195   1
   2   3   2 -2.1235 3.85173  -2
  -2   3   2 -2.1235 3.85173   1
  -2   3   2 1.83360 1.22621   3
  -1   3   2 1335.81 43.1834   3
  -1   3   2 1376.74 43.6222   1
  -2   3   1 5298.61 181.951  -4
   1   3   2 5298.61 181.951  -3
   2   3   1 5298.61 181.951  -2
  -1   3   2 5298.61 181.951   1
  -1   3   2 885.490 44.9093   4
   0   3   2 0.28714 0.85240   1
   0   3   2 1.40996 0.66079   3
   0   3   2 -0.0415 1.37701   4
   1   3   2 1030.10 51.4968   2
   2   3   1 5414.72 278.891  -4
  -1   3   2 5414.72 278.891  -3
  -2   3   1 5414.72 278.891  -2
   1   3   2 5414.72 278.891   1
   1   3   2 1511.68 48.2043   1
   1   3   2 1458.16 63.8174   3
   2   3   2 0.94995 0.90221   1
   2   3   2 -0.1056 0.42949   2
  -2   3   2 3.63464 4.13939  -4
   2   3   2 3.63464 4.13939   3
   2   3   2 -1.7424 2.23312  -3
   2   3   2 -1.7424 2.23312   2
   2   3   2 0.22014 0.47104   3
   2   3   2 0.52576 0.85516   4
   3   3   2 680.011 12.3384   3
   3   3   2 462.066 9.31098   2
   3   3   2 706.826 19.8513   1
   3   3   2 452.773 18.0310   4
  -2   3   3 1348.33 71.4294  -4
   3   3   2 1348.33 71.4294   3
   4   3   2 0.37299 0.64522   1
   4   3   2 0.89325 0.44284   2
   4   3   2 0.58463 0.48607   3
   4   3   2 0.46414 0.78610   4
   5   3   2 434.339 10.5338   2
   5   3   2 603.790 14.4950   3
   5   3   2 393.385 10.7849   4
   5   3   2 657.959 15.9460   1
  -5   3   2 947.185 52.5166  -4
   5   3   2 947.185 52.5166   2
   6   3   2 -0.8371 0.77594   2
   6   3   2 -0.7516 0.73001   1
   6   3   2 1.16830 0.87522   3
   6   3   2 0.46968 0.59685   4
  -6   3   2 5.78929 4.63726  -4
   6   3   2 5.78929 4.63726   2
   7   3   2 367.794 11.8189   1
   7   3   2 299.074 14.8647   3
  -7   3   2 529.872 32.7516  -4
   7   3   2 529.872 32.7516   2
   7   3   2 216.765 7.16497   4
   7   3   2 222.113 7.02637   2
   8   3   2 0.49872 1.04323   2
   8   3   2 -0.3144 1.13058   1
   8   3   2 -0.6790 1.41251   3
   8   3   2 1.15355 0.82193   4
   1   3   8 152.091 16.7450  -4
   8   3   2 152.091 16.7450   1
   1   3   9 34.4034 7.61007  -3
   9   3   2 34.4034 7.61007   2
   1   3  10 117.638 6.40990  -4
 -10   3   2 117.638 6.40990  -3
  -3   3  10 117.638 6.40990  -2
  10   3   2 117.638 6.40990   1
   1   3  11 319.242 13.6369  -4
 -11   3   2 319.242 13.6369  -3
  -3   3  11 319.242 13.6369  -2
  11   3   2 319.242 13.6369   1
  11   3   2 163.560 14.5431   3
   1   3  12 122.120 7.94114  -4
 -12   3   2 122.120 7.94114  -3
  -3   3  12 122.120 7.94114  -2
  12   3   2 122.120 7.94114   1
   1   3  13 95.6861 8.45112  -4
 -13   3   2 95.6861 8.45112  -3
  -3   3  13 95.6861 8.45112  -2
  13   3   2 95.6861 8.45112   1
  13   3   2 46.0720 5.93836   4
  14   3   2 -3.6200 6.33068   3
   1   3  14 34.9746 16.2130  -4
 -14   3   2 34.9746 16.2130  -3
  -3   3  14 34.9746 16.2130  -2
  14   3   2 34.9746 16.2130   1
  14   3   2 1.43515 2.26018   4
   1   3  14 21.9345 11.2631  -3
  14   3   2 21.9345 11.2631   2
   1   3  14 29.0295 7.18241  -4
  14   3   2 29.0295 7.18241   1
  15   3   2 30.0957 4.69262   2
  15   3   2 41.2841 17.3898   1
  15   3   2 28.5294 6.45466   3
   1   3  15 31.8627 11.2181  -3
  15   3   2 31.8627 11.2181   2
  15   3   2 16.6323 9.07858   4
  16   3   2 -0.8051 2.18562   2
  16   3   2 -1.4395 3.03207   3
  16   3   2 1.16183 4.43726   1
  16   3   2 2.77156 6.32818   4
 -16   3   2 -7.5511 11.2965  -3
  16   3   2 -7.5511 11.2965   1
 -17   3   2 29.3877 16.1803  -4
  17   3   2 29.3877 16.1803   2
 -17   3   2 140.072 18.3765  -3
  17   3   2 140.072 18.3765   1
  17   3   2 2.90088 9.94062   4
 -16   4   2 84.3591 7.86520   4
 -16   4   2 90.4772 8.43070   2
 -16   4   2 122.336 15.9650   1
  16   4   2 99.9129 20.9319  -4
 -16   4   2 99.9129 20.9319   2
 -15   4   2 -1.6975 2.91803   2
  15   4   2 -13.401 14.9484  -4
  -3   4  15 -13.401 14.9484  -3
 -15   4   2 -13.401 14.9484   2
 -15   4   2 1.83313 3.22011   4
  -3   4  13 57.9428 10.5835  -4
  13   4   2 57.9428 10.5835  -3
   1   4  13 57.9428 10.5835  -2
 -13   4   2 57.9428 10.5835   1
  -3   4  11 603.227 36.1612  -4
  11   4   2 603.227 36.1612  -3
   1   4  11 603.227 36.1612  -2
 -11   4   2 603.227 36.1612   1
  -3   4  10 38.4575 5.84013  -4
  10   4   2 38.4575 5.84013  -3
   1   4  10 38.4575 5.84013  -2
 -10   4   2 38.4575 5.84013   1
  -3   4   9 112.173 11.3255  -4
   1   4   9 112.173 11.3255  -2
  -9   4   2 112.173 11.3255   1
  -3   4   9 113.944 11.2654  -4
   9   4   2 113.944 11.2654  -3
   1   4   9 113.944 11.2654  -2
  -9   4   2 113.944 11.2654   1
   1   4   8 19.6741 6.57874  -4
  -8   4   2 19.6741 6.57874   3
   1   4   8 6.61047 5.17627  -2
  -8   4   2 6.61047 5.17627   1
  -7   4   2 0.55278 1.03604   2
  -7   4   2 7.65850 2.58169   3
   7   4   2 16.5606 7.96658  -4
  -7   4   2 16.5606 7.96658   2
  -7   4   2 5.00809 1.22956   4
  -7   4   2 -0.4419 1.70125   1
  -6   4   2 84.8281 3.14516   1
  -6   4   2 53.0116 2.28990   4
  -6   4   2 76.2571 3.17217   3
  -6   4   2 58.1356 3.64704   2
   6   4   2 72.1421 10.7210  -4
  -6   4   2 72.1421 10.7210   2
  -5   4   2 -0.9586 0.60985   1
  -5   4   2 -0.6114 1.06229   3
  -5   4   2 0.53173 0.52321   4
  -5   4   2 -0.8124 1.13610   2
   5   4   2 1.27514 5.22478  -4
  -5   4   2 1.27514 5.22478   2
   4   4   2 351.969 25.6753  -4
  -4   4   2 351.969 25.6753   2
  -4   4   2 280.676 6.15232   1
  -4   4   2 178.537 9.33747   2
  -4   4   2 157.353 4.23610   4
  -4   4   2 268.655 12.7670   3
  -3   4   2 1.06794 0.63864   4
  -3   4   2 0.94342 0.54065   1
  -3   4   2 0.97918 1.34263   2
   2   4   3 3.43361 4.64959  -4
  -3   4   2 3.43361 4.64959   3
  -3   4   2 -1.0600 1.12770   3
   2   4   2 1601.85 77.1140  -2
  -2   4   2 1601.85 77.1140   1
  -2   4   2 655.365 22.6220   4
  -2   4   2 1146.27 37.7398   1
  -2   4   2 1802.08 81.0108  -3
  -2   4   2 1802.08 81.0108   2
  -2   4   1 3.20463 2.55296  -4
   1   4   2 3.20463 2.55296  -3
   2   4   1 3.20463 2.55296  -2
  -1   4   2 3.20463 2.55296   1
   2   4   2 659.758 22.9631   3
   2   4   2 453.741 23.9939   4
   2   4   2 714.467 35.2941   1
   2   4   2 460.340 14.1375   2
   3   4   2 0.08681 0.52540   3
   3   4   2 -0.5580 1.08809   4
   3   4   2 0.44516 0.51759   2
   3   4   2 0.25289 1.53054   1
   4   4   2 123.800 7.25188   4
   4   4   2 127.654 3.81312   2
   4   4   2 198.350 4.61618   3
   4   4   2 206.706 10.7626   1
  -4   4   2 323.554 21.2217  -4
   4   4   2 323.554 21.2217   2
   5   4   2 0.85269 1.01663   1
  -5   4   2 4.64642 4.67831  -4
   5   4   2 4.64642 4.67831   2
   5   4   2 -0.5569 0.81039   4
   5   4   2 0.18654 0.62997   2
   5   4   2 1.60022 0.78431   3
   6   4   2 9.56254 1.07164   3
   6   4   2 6.17605 1.00791   2
   6   4   2 11.8451 1.61744   1
  -6   4   2 32.6538 7.22573  -4
   6   4   2 32.6538 7.22573   2
   6   4   2 4.54023 1.70003   4
   7   4   2 0.75019 1.21774   1
   7   4   2 0.09391 1.00994   4
   7   4   2 -1.1216 1.36148   2
   7   4   2 1.10218 1.29745   3
   8   4   2 35.7686 4.38001   2
   8   4   2 43.5594 6.36643   3
   8   4   2 30.1082 3.27171   4
   8   4   2 47.7429 9.50417   1
   1   4   8 44.1830 5.94010  -4
   8   4   2 44.1830 5.94010   1
   9   4   2 -1.3734 2.42446   3
   1   4   9 85.4593 7.79412  -4
  -9   4   2 85.4593 7.79412  -3
  -3   4   9 85.4593 7.79412  -2
   9   4   2 85.4593 7.79412   1
   1   4  10 34.8453 5.33916  -4
 -10   4   2 34.8453 5.33916  -3
  -3   4  10 34.8453 5.33916  -2
  10   4   2 34.8453 5.33916   1
   1   4  11 520.113 22.1996  -4
 -11   4   2 520.113 22.1996  -3
  -3   4  11 520.113 22.1996  -2
  11   4   2 520.113 22.1996   1
   1   4  12 36.8602 5.42620  -4
 -12   4   2 36.8602 5.42620  -3
  -3   4  12 36.8602 5.42620  -2
  12   4   2 36.8602 5.42620   1
  13   4   2 -4.8013 4.36713   1
   1   4  13 55.3765 7.04657  -4
 -13   4   2 55.3765 7.04657  -3
  -3   4  13 55.3765 7.04657  -2
  13   4   2 55.3765 7.04657   1
   1   4  14 134.411 22.4618  -4
 -14   4   2 134.411 22.4618  -3
  -3   4  14 134.411 22.4618  -2
  14   4   2 134.411 22.4618   1
  14   4   2 49.8639 10.1633   1
  14   4   2 31.1344 6.66325   4
  14   4   2 40.7948 9.91579   3
  15   4   2 2.53481 3.20341   3
  15   4   2 9.68877 6.94982   1
 -15   4   2 12.8563 10.7394  -3
  15   4   2 12.8563 10.7394   1
  15   4   2 -0.5616 3.07997   2
  15   4   2 -3.5943 2.11086   4
  16   4   2 72.6193 10.5119   3
 -16   4   2 177.075 18.0260  -3
  16   4   2 177.075 18.0260   1
  16   4   2 88.3700 11.8374   1
  16   4   2 66.1378 8.17721   2
 -16   4   2 108.673 20.6792  -4
  16   4   2 108.673 20.6792   2
  16   4   2 47.7993 7.90231   4
 -15   5   2 38.1806 7.85177   2
 -15   5   2 18.9970 6.31288   4
  -3   5  13 466.737 26.8502  -4
  13   5   2 466.737 26.8502  -3
   1   5  13 466.737 26.8502  -2
 -13   5   2 466.737 26.8502   1
  -3   5  13 274.132 23.1966  -4
 -13   5   2 274.132 23.1966   1
  -3   5  12 204.059 24.1976  -4
   1   5  12 204.059 24.1976  -2
 -12   5   2 204.059 24.1976   1
   1   5  12 172.721 13.7807  -4
 -12   5   2 172.721 13.7807   3
  -3   5  12 261.487 25.1367  -4
  12   5   2 261.487 25.1367  -3
   1   5  12 261.487 25.1367  -2
 -12   5   2 261.487 25.1367   1
 -11   5   2 42.3691 12.2569   3
  -3   5  10 224.083 25.3457  -4
  10   5   2 224.083 25.3457  -3
   1   5  10 224.083 25.3457  -2
 -10   5   2 224.083 25.3457   1
  -3   5   9 201.389 19.6700  -4
   9   5   2 201.389 19.6700  -3
   1   5   9 201.389 19.6700  -2
  -9   5   2 201.389 19.6700   1
  -8   5   2 -2.8543 3.43132   2
  -7   5   2 92.0667 4.15601   4
  -7   5   2 89.7139 5.43466   2
  -7   5   2 148.642 6.44316   3
   7   5   2 172.248 18.5611  -4
  -7   5   2 172.248 18.5611   2
  -7   5   2 143.956 5.52014   1
  -6   5   2 0.68160 0.85783   4
  -6   5   2 -1.7561 1.16241   1
  -6   5   2 0.56571 1.16238   3
  -6   5   2 0.07236 1.39076   2
   6   5   2 7.17040 7.80803  -4
  -6   5   2 7.17040 7.80803   2
  -5   5   2 599.781 13.6757   1
  -5   5   2 382.198 22.8364   2
   5   5   2 849.741 47.1907  -3
  -5   5   2 849.741 47.1907   1
   5   5   2 810.836 51.7186  -4
  -5   5   2 810.836 51.7186   2
  -5   5   2 327.274 10.8269   4
  -5   5   2 548.955 18.9473   3
  -4   5   2 -0.1384 0.79300   4
  -4   5   2 -0.2126 1.49202   3
  -4   5   2 -0.8420 0.77899   1
   4   5   2 -1.0859 3.82127  -3
  -4   5   2 -1.0859 3.82127   1
  -3   5   2 136.794 5.86045   4
  -2   5   3 300.989 24.5212  -4
  -3   5   2 300.989 24.5212   1
  -3   5   2 240.619 7.83489   1
  -3   5   2 149.143 11.5478   2
  -3   5   2 215.854 14.3247   3
  -2   5   2 1.56640 1.71089   4
  -2   5   1 1009.44 32.3069  -4
   1   5   2 1009.44 32.3069  -3
   2   5   1 1009.44 32.3069  -2
  -1   5   2 1009.44 32.3069   1
  -2   5   1 422.983 20.9394  -3
  -1   5   2 422.983 20.9394   2
  -1   5   2 164.681 9.11189   2
   2   5   0 1.59966 4.13071  -4
   0   5   2 1.59966 4.13071  -3
   2   5   0 1.59966 4.13071  -2
   0   5   2 1.59966 4.13071   1
   2   5   1 1005.27 42.0294  -4
  -1   5   2 1005.27 42.0294  -3
  -2   5   1 1005.27 42.0294  -2
   1   5   2 1005.27 42.0294   1
   2   5   2 1.54656 1.80254   3
   2   5   2 6.65323 4.90346  -4
  -2   5   2 6.65323 4.90346  -3
  -2   5   2 6.65323 4.90346  -2
   2   5   2 6.65323 4.90346   1
   2   5   2 -0.5872 1.39220   2
   3   5   2 170.584 6.87036   3
   3   5   2 113.531 5.33284   2
   2   5   3 197.209 18.5282  -3
   3   5   2 197.209 18.5282   2
   3   5   2 165.670 12.2826   1
   3   5   2 96.0151 8.91199   4
   4   5   2 0.70385 0.86224   3
   4   5   2 0.66615 1.31742   1
   4   5   2 1.97150 1.40245   2
   4   5   2 -1.3650 1.23481   4
   5   5   2 575.391 13.1132   3
   5   5   2 562.656 17.0385   1
   5   5   2 367.081 12.0159   2
   5   5   2 360.195 21.9329   4
  -5   5   2 689.522 44.2458  -4
   5   5   2 689.522 44.2458   2
   6   5   2 1.11326 1.06923   1
   6   5   2 -0.4090 1.11322   4
  -6   5   2 0.42364 4.47009  -4
   6   5   2 0.42364 4.47009   2
   6   5   2 -0.0354 1.60612   2
   6   5   2 1.69999 0.95386   3
   7   5   2 110.968 4.28416   3
   7   5   2 63.4347 4.68332   4
   7   5   2 70.0564 3.47385   2
   7   5   2 108.133 6.87413   1
  -7   5   2 192.620 17.2898  -4
   7   5   2 192.620 17.2898   2
   1   5   8 277.002 15.0010  -4
   8   5   2 277.002 15.0010   1
  -3   5   8 248.902 17.1952  -4
   8   5   2 248.902 17.1952   3
   8   5   2 0.76530 2.85773   1
   1   5   9 240.558 17.2503  -4
  -9   5   2 240.558 17.2503  -3
  -3   5   9 240.558 17.2503  -2
   9   5   2 240.558 17.2503   1
   1   5   9 158.315 11.6173  -4
   9   5   2 158.315 11.6173   1
   1   5  10 187.103 10.2802  -4
 -10   5   2 187.103 10.2802  -3
  -3   5  10 187.103 10.2802  -2
  10   5   2 187.103 10.2802   1
   1   5  11 241.069 17.9375  -4
 -11   5   2 241.069 17.9375  -3
  -3   5  11 241.069 17.9375  -2
  11   5   2 241.069 17.9375   1
   1   5  11 174.102 22.1976  -4
  -3   5  11 174.102 22.1976  -2
  11   5   2 174.102 22.1976   1
   1   5  12 187.229 13.2382  -4
 -12   5   2 187.229 13.2382  -3
  -3   5  12 187.229 13.2382  -2
  12   5   2 187.229 13.2382   1
  -3   5  12 113.529 12.1721  -2
  12   5   2 113.529 12.1721   1
  12   5   2 29.4240 9.63656   3
   1   5  13 528.633 25.3290  -4
 -13   5   2 528.633 25.3290  -3
  -3   5  13 528.633 25.3290  -2
  13   5   2 528.633 25.3290   1
   1   5  14 54.2260 17.4318  -3
  14   5   2 54.2260 17.4318   2
 -14   5   2 61.1639 11.3237  -3
  -3   5  14 61.1639 11.3237  -2
  14   5   2 61.1639 11.3237   1
  14   5   2 -2.6621 5.09760   3
  14   5   2 4.78721 5.78575   1
   1   5  14 77.9291 20.6027  -4
 -14   5   2 77.9291 20.6027  -3
  -3   5  14 77.9291 20.6027  -2
  14   5   2 77.9291 20.6027   1
  15   5   2 83.7351 12.2350   1
 -15   5   2 121.916 14.2376  -3
  15   5   2 121.916 14.2376   1
   1   5  15 63.0451 14.1121  -3
  15   5   2 63.0451 14.1121   2
  15   5   2 74.0674 14.1541   3
  15   5   2 67.0495 9.91960   2
  15   5   2 60.8885 8.53852   4
 -14   6   2 35.2437 5.56108   3
  -3   6  14 70.1193 14.5726  -4
 -14   6   2 70.1193 14.5726   1
  -3   6  13 37.8062 11.2887  -4
  13   6   2 37.8062 11.2887  -3
   1   6  13 37.8062 11.2887  -2
 -13   6   2 37.8062 11.2887   1
 -13   6   2 1.97605 2.50679   2
  -3   6  12 430.684 25.6527  -4
  12   6   2 430.684 25.6527  -3
   1   6  12 430.684 25.6527  -2
 -12   6   2 430.684 25.6527   1
   1   6  12 309.061 18.6159  -4
 -12   6   2 309.061 18.6159   3
 -11   6   2 12.1591 7.20534   3
  -3   6  10 424.686 38.4248  -4
  10   6   2 424.686 38.4248  -3
   1   6  10 424.686 38.4248  -2
 -10   6   2 424.686 38.4248   1
  -3   6   9 46.8697 5.97200  -3
  -9   6   2 46.8697 5.97200   2
  -3   6   9 62.0764 17.5091  -4
   9   6   2 62.0764 17.5091  -3
   1   6   9 62.0764 17.5091  -2
  -9   6   2 62.0764 17.5091   1
  -8   6   2 527.047 29.1032   1
   1   6   8 533.628 30.4534  -2
  -8   6   2 533.628 30.4534   1
  -3   6   8 331.320 29.5957  -3
  -8   6   2 331.320 29.5957   2
   7   6   2 8.16681 10.8718  -4
  -7   6   2 8.16681 10.8718   2
  -7   6   2 2.28980 1.70817   1
  -7   6   2 0.96893 2.41964   2
  -7   6   2 -0.0140 1.65296   3
  -7   6   2 -1.9989 1.26345   4
  -6   6   2 372.071 13.0013   4
  -6   6   2 625.499 16.0829   1
  -6   6   2 597.689 18.2264   3
  -6   6   2 385.865 24.2702   2
   6   6   2 802.192 53.2998  -4
  -6   6   2 802.192 53.2998   2
   5   6   2 -9.0162 7.85340  -4
  -5   6   2 -9.0162 7.85340   2
  -5   6   2 -1.6601 1.56570   3
  -5   6   2 0.50634 0.89701   4
  -5   6   2 2.21850 1.00129   1
  -5   6   2 -0.8257 1.86556   2
  -4   6   2 146.975 6.41343   4
  -4   6   2 244.519 8.26366   1
  -4   6   2 226.979 11.5031   3
  -4   6   2 137.586 8.17568   2
  -3   6   2 0.34488 1.53447   3
  -2   6   3 -2.5786 6.18411  -4
  -3   6   2 -2.5786 6.18411   1
  -3   6   2 3.03215 1.65515   4
  -2   6   3 -8.7099 7.14139  -4
   3   6   2 -8.7099 7.14139  -3
   2   6   3 -8.7099 7.14139  -2
  -3   6   2 -8.7099 7.14139   1
  -3   6   2 -0.5895 1.30429   2
  -3   6   2 0.16976 1.36989   1
  -2   6   2 15.2185 9.14893  -4
   2   6   2 15.2185 9.14893  -3
   2   6   2 15.2185 9.14893  -2
  -2   6   2 15.2185 9.14893   1
  -2   6   1 -3.7149 4.99314  -4
   1   6   2 -3.7149 4.99314  -3
   2   6   1 -3.7149 4.99314  -2
  -1   6   2 -3.7149 4.99314   1
  -1   6   2 1.56239 1.10632   3
   2   6   0 78.8927 8.32914  -4
   0   6   2 78.8927 8.32914  -3
   2   6   0 78.8927 8.32914  -2
   0   6   2 78.8927 8.32914   1
   0   6   2 25.1222 4.44813   1
   0   6   2 14.6632 2.78905   4
   2   6   1 9.13031 5.61457  -4
  -1   6   2 9.13031 5.61457  -3
  -2   6   1 9.13031 5.61457  -2
   1   6   2 9.13031 5.61457   1
   2   6   2 -2.9637 6.00161  -4
  -2   6   2 -2.9637 6.00161  -3
  -2   6   2 -2.9637 6.00161  -2
   2   6   2 -2.9637 6.00161   1
  -2   6   2 -0.5777 4.96412  -4
   2   6   2 -0.5777 4.96412   3
   3   6   2 -0.2517 1.61931   3
   3   6   2 1.88761 1.14561   2
   3   6   2 -0.4051 1.85911   1
   3   6   2 -0.1173 1.27362   4
   2   6   3 6.83833 8.85899  -4
  -3   6   2 6.83833 8.85899  -3
  -2   6   3 6.83833 8.85899  -2
   3   6   2 6.83833 8.85899   1
   4   6   2 148.085 5.83855   3
   4   6   2 100.749 5.09385   2
   4   6   2 137.223 8.45120   1
   4   6   2 89.7783 6.31893   4
   5   6   2 -1.4310 1.46254   2
   5   6   2 0.93269 1.40780   1
   5   6   2 -0.8027 1.48086   3
   5   6   2 3.48874 2.53102   4
  -5   6   2 2.04742 6.48876  -4
   5   6   2 2.04742 6.48876   2
   6   6   2 450.262 12.2102   3
   6   6   2 488.831 15.8416   1
   6   6   2 292.648 19.9970   4
  -6   6   2 748.977 33.6510  -4
   6   6   2 748.977 33.6510   2
   6   6   2 310.006 10.8929   2
   7   6   2 0.07528 2.35652   4
   7   6   2 1.25214 1.29071   3
   7   6   2 1.88169 1.23806   2
   7   6   2 2.42589 1.90308   1
   8   6   2 356.097 19.8257   3
   1   6   8 928.238 52.5201  -4
  -8   6   2 928.238 52.5201  -3
   8   6   2 928.238 52.5201   1
   8   6   2 232.907 11.3254   2
   8   6   2 232.486 17.5400   4
  -3   6   8 125.132 9.34183  -4
   8   6   2 125.132 9.34183   3
   1   6   9 53.6056 7.52002  -4
  -9   6   2 53.6056 7.52002  -3
  -3   6   9 53.6056 7.52002  -2
   9   6   2 53.6056 7.52002   1
   1   6  10 435.062 18.6859  -4
 -10   6   2 435.062 18.6859  -3
  -3   6  10 435.062 18.6859  -2
  10   6   2 435.062 18.6859   1
   1   6  11 67.6029 7.66339  -4
 -11   6   2 67.6029 7.66339  -3
  -3   6  11 67.6029 7.66339  -2
  11   6   2 67.6029 7.66339   1
   1   6  11 50.0210 15.3950  -4
  -3   6  11 50.0210 15.3950  -2
  11   6   2 50.0210 15.3950   1
   1   6  12 470.149 24.0257  -4
 -12   6   2 470.149 24.0257  -3
  -3   6  12 470.149 24.0257  -2
  12   6   2 470.149 24.0257   1
  -3   6  12 164.970 13.0747  -2
  12   6   2 164.970 13.0747   1
  13   6   2 -0.9462 2.38789   4
   1   6  13 44.2790 7.77108  -4
 -13   6   2 44.2790 7.77108  -3
  -3   6  13 44.2790 7.77108  -2
  13   6   2 44.2790 7.77108   1
  14   6   2 1.34637 3.21063   4
   1   6  14 79.0122 21.9298  -4
 -14   6   2 79.0122 21.9298  -3
  -3   6  14 79.0122 21.9298  -2
  14   6   2 79.0122 21.9298   1
  14   6   2 -8.2414 6.47526   1
  14   6   2 -1.2085 6.92571   3
 -13   7   2 13.3217 12.1279   4
  -3   7  13 6.22073 11.3395  -4
 -13   7   2 6.22073 11.3395   1
 -13   7   2 32.9659 10.9151   1
 -13   7   2 42.6768 12.4794   3
 -13   7   2 6.50644 8.75361   2
  -3   7  12 36.1508 10.4112  -4
  12   7   2 36.1508 10.4112  -3
   1   7  12 36.1508 10.4112  -2
 -12   7   2 36.1508 10.4112   1
 -11   7   2 130.281 20.5541   3
  -3   7  11 305.305 33.1296  -4
  11   7   2 305.305 33.1296  -3
   1   7  11 305.305 33.1296  -2
 -11   7   2 305.305 33.1296   1
  -3   7  10 52.2778 17.5703  -4
  10   7   2 52.2778 17.5703  -3
   1   7  10 52.2778 17.5703  -2
 -10   7   2 52.2778 17.5703   1
  -3   7   9 178.855 19.3841  -4
   9   7   2 178.855 19.3841  -3
   1   7   9 178.855 19.3841  -2
  -9   7   2 178.855 19.3841   1
  -8   7   2 -0.6953 2.01907   1
   1   7   8 69.4900 15.2416  -2
  -8   7   2 69.4900 15.2416   1
  -7   7   2 56.2160 5.00237   1
  -7   7   2 45.0635 7.44094   2
  -7   7   2 31.9286 4.69959   4
  -7   7   2 64.4660 8.01025   3
  -6   7   2 -0.5059 1.24189   4
  -6   7   2 2.93181 1.95851   2
  -6   7   2 1.27564 1.50224   1
  -6   7   2 -1.9254 1.51403   3
   6   7   2 -1.6996 11.1340  -4
  -6   7   2 -1.6996 11.1340   2
  -5   7   2 81.1680 4.47155   1
  -5   7   2 83.5689 6.84409   3
  -5   7   2 53.1506 5.28855   2
   5   7   2 119.302 17.7191  -4
  -5   7   2 119.302 17.7191   2
   5   7   2 232.634 18.1836  -3
  -5   7   2 232.634 18.1836   1
  -5   7   2 43.9897 4.51116   4
  -4   7   2 -0.0377 1.80776   2
  -4   7   2 1.03215 1.52872   3
  -4   7   2 -0.1681 2.13823   4
  -4   7   2 -0.5193 1.26919   1
  -2   7   3 637.056 41.1831  -4
   3   7   2 637.056 41.1831  -3
   2   7   3 637.056 41.1831  -2
  -3   7   2 637.056 41.1831   1
  -2   7   3 261.181 18.7652  -3
  -3   7   2 261.181 18.7652   2
  -3   7   2 169.407 10.1481   3
  -3   7   2 146.248 9.12198   1
  -3   7   2 87.6038 6.50096   4
  -2   7   2 5.85742 6.98047  -4
   2   7   2 5.85742 6.98047  -3
   2   7   2 5.85742 6.98047  -2
  -2   7   2 5.85742 6.98047   1
  -2   7   1 1397.34 58.2512  -4
   1   7   2 1397.34 58.2512  -3
   2   7   1 1397.34 58.2512  -2
  -1   7   2 1397.34 58.2512   1
   2   7   0 10.7920 6.36298  -4
   0   7   2 10.7920 6.36298  -3
   2   7   0 10.7920 6.36298  -2
   0   7   2 10.7920 6.36298   1
   0   7   2 1.28267 1.58610   1
   0   7   2 -1.0436 1.36971   4
   0   7   2 1.30851 1.47688   2
   2   7   1 1418.37 59.1378  -4
  -1   7   2 1418.37 59.1378  -3
  -2   7   1 1418.37 59.1378  -2
   1   7   2 1418.37 59.1378   1
   2   7   2 9.26084 7.53573  -4
  -2   7   2 9.26084 7.53573  -3
  -2   7   2 9.26084 7.53573  -2
   2   7   2 9.26084 7.53573   1
   3   7   2 180.865 9.13201   3
   3   7   2 124.689 8.03651   4
   3   7   2 216.308 11.7609   1
   3   7   2 145.846 10.9595   2
   2   7   3 356.093 25.0752  -4
   3   7   2 356.093 25.0752   1
   4   7   2 -1.2909 1.37872   3
   4   7   2 -0.4759 1.49935   4
   4   7   2 1.51930 1.36111   1
   4   7   2 -0.2882 1.59846   2
   5   7   2 75.1755 5.59501   2
   5   7   2 114.376 4.97736   3
   5   7   2 119.935 8.35214   1
   5   7   2 69.6674 5.89359   4
  -5   7   2 180.696 23.3378  -3
   5   7   2 180.696 23.3378   1
   6   7   2 -1.3158 1.56029   4
  -6   7   2 3.74553 6.09402  -4
   6   7   2 3.74553 6.09402   2
   6   7   2 1.43805 2.16151   1
   6   7   2 1.59265 1.29346   3
   6   7   2 0.45956 1.34482   2
  -6   7   2 3.65085 6.59792  -3
   6   7   2 3.65085 6.59792   1
  -7   7   2 110.526 14.9879  -4
   7   7   2 110.526 14.9879   2
   7   7   2 49.6464 4.42215   2
   7   7   2 71.5713 6.64178   1
  -7   7   2 147.599 13.9531  -3
   7   7   2 147.599 13.9531   1
   7   7   2 65.5074 6.03721   3
   7   7   2 57.8506 5.24198   4
   8   7   2 1.56506 1.84487   3
   1   7   8 62.2006 9.69384  -4
  -8   7   2 62.2006 9.69384  -3
   8   7   2 62.2006 9.69384   1
   8   7   2 2.51434 1.82684   2
   8   7   2 1.37813 2.48638   4
   1   7   9 210.352 13.5203  -4
  -9   7   2 210.352 13.5203  -3
  -3   7   9 210.352 13.5203  -2
   9   7   2 210.352 13.5203   1
   9   7   2 86.1923 17.1607   4
   1   7  10 35.4813 6.70894  -4
 -10   7   2 35.4813 6.70894  -3
  -3   7  10 35.4813 6.70894  -2
  10   7   2 35.4813 6.70894   1
   1   7  11 277.173 32.1372  -4
  -3   7  11 277.173 32.1372  -2
  11   7   2 277.173 32.1372   1
   1   7  11 427.321 21.2740  -4
 -11   7   2 427.321 21.2740  -3
  -3   7  11 427.321 21.2740  -2
  11   7   2 427.321 21.2740   1
   1   7  12 14.3889 10.5313  -4
 -12   7   2 14.3889 10.5313  -3
  -3   7  12 14.3889 10.5313  -2
  12   7   2 14.3889 10.5313   1
 -11   8   2 210.102 15.8789   3
 -11   8   2 310.736 29.3581   2
  -3   8  10 61.5969 19.6758  -4
  10   8   2 61.5969 19.6758  -3
   1   8  10 61.5969 19.6758  -2
 -10   8   2 61.5969 19.6758   1
  -3   8   9 340.406 20.3806  -4
   9   8   2 340.406 20.3806  -3
   1   8   9 340.406 20.3806  -2
  -9   8   2 340.406 20.3806   1
   1   8   8 12.2676 8.38327  -2
  -8   8   2 12.2676 8.38327   1
  -8   8   2 -0.1469 4.06728   4
  -8   8   2 0.26126 3.21993   1
  -7   8   2 1.65656 2.79034   3
  -7   8   2 5.38352 5.17626   1
  -6   8   2 7.84637 2.36361   1
  -6   8   2 11.8164 2.66984   3
   6   8   2 2.93508 12.8301  -4
  -6   8   2 2.93508 12.8301   2
  -6   8   2 3.70036 1.88657   4
  -6   8   2 4.43975 2.36438   2
  -5   8   2 5.12665 2.29578   2
  -5   8   2 3.34115 2.11660   3
  -5   8   2 -0.9423 1.66064   4
  -5   8   2 0.16827 1.62240   1
   5   8   2 -10.824 7.84571  -3
  -5   8   2 -10.824 7.84571   1
   5   8   2 -4.0317 11.6119  -4
  -5   8   2 -4.0317 11.6119   2
  -4   8   2 138.561 9.15855   2
  -4   8   2 212.096 10.2846   1
  -4   8   2 114.686 7.68018   4
  -4   8   2 202.969 12.0454   3
   4   8   2 355.620 26.9527  -3
  -4   8   2 355.620 26.9527   1
  -2   8   3 8.50316 11.8404  -4
   3   8   2 8.50316 11.8404  -3
   2   8   3 8.50316 11.8404  -2
  -3   8   2 8.50316 11.8404   1
   2   8   3 7.71656 6.50764  -2
  -3   8   2 7.71656 6.50764   1
  -3   8   2 0.12814 2.89389   3
  -3   8   2 5.11021 2.87914   1
  -2   8   2 355.435 16.5044  -4
   2   8   2 355.435 16.5044  -3
   2   8   2 355.435 16.5044  -2
  -2   8   2 355.435 16.5044   1
  -2   8   1 -4.7519 11.1211  -4
   1   8   2 -4.7519 11.1211  -3
   2   8   1 -4.7519 11.1211  -2
  -1   8   2 -4.7519 11.1211   1
   2   8   0 362.691 16.0106  -4
   0   8   2 362.691 16.0106  -3
   2   8   0 362.691 16.0106  -2
   0   8   2 362.691 16.0106   1
   0   8   2 118.994 8.31999   3
   2   8   1 3.25827 7.99224  -4
  -1   8   2 3.25827 7.99224  -3
  -2   8   1 3.25827 7.99224  -2
   1   8   2 3.25827 7.99224   1
   2   8   2 339.811 31.3796  -4
  -2   8   2 339.811 31.3796  -3
  -2   8   2 339.811 31.3796  -2
   2   8   2 339.811 31.3796   1
   3   8   2 1.62847 2.19782   1
   3   8   2 -1.0861 2.10401   4
   3   8   2 3.41282 2.02063   3
   2   8   3 -4.4570 7.32886  -4
   3   8   2 -4.4570 7.32886   1
   2   8   3 -1.6976 6.86960  -3
   3   8   2 -1.6976 6.86960   2
   4   8   2 81.5348 6.56880   2
   4   8   2 74.1716 6.50967   4
   4   8   2 152.821 8.31630   1
   4   8   2 146.896 6.87080   3
   5   8   2 7.35497 3.33297   1
   5   8   2 2.87441 1.93654   4
   5   8   2 -2.5019 1.50049   3
   5   8   2 -0.9898 2.40546   2
   6   8   2 3.81600 2.03758   4
   6   8   2 2.96125 2.50329   1
   6   8   2 0.56260 1.64823   3
  -6   8   2 2.11545 8.01726  -3
   6   8   2 2.11545 8.01726   1
   6   8   2 0.43107 2.31794   2
   7   8   2 -2.7984 2.33863   2
   7   8   2 -0.7362 1.96271   4
  -7   8   2 -8.3520 7.17911  -3
   7   8   2 -8.3520 7.17911   1
   7   8   2 3.99628 2.75787   1
   7   8   2 0.46612 3.67570   3
  -3   8   8 -5.0280 7.62331  -4
   8   8   2 -5.0280 7.62331   3
   8   8   2 1.82223 3.93589   2
   9   8   2 27.0635 12.3951   4
   1   8   9 293.693 17.9364  -4
  -9   8   2 293.693 17.9364  -3
  -3   8   9 293.693 17.9364  -2
   9   8   2 293.693 17.9364   1
   1   8  10 45.0237 8.66499  -4
 -10   8   2 45.0237 8.66499  -3
  -3   8  10 45.0237 8.66499  -2
  10   8   2 45.0237 8.66499   1
  -8   9   2 -4.8401 3.73259   1
   1   9   8 18.5201 10.2110  -2
  -8   9   2 18.5201 10.2110   1
  -7   9   2 57.8060 13.0666   3
  -7   9   2 58.7084 7.13436   1
   7   9   2 81.3746 11.4426  -3
  -7   9   2 81.3746 11.4426   1
   6   9   2 3.93211 9.11606  -3
  -6   9   2 3.93211 9.11606   1
  -6   9   2 -0.6747 2.60788   1
  -6   9   2 -1.4834 4.79131   3
  -6   9   2 1.37505 2.71641   2
  -6   9   2 3.51190 2.32392   4
  -5   9   2 122.000 6.02713   4
  -5   9   2 206.631 17.5041   1
  -5   9   2 135.796 9.58094   2
   5   9   2 428.266 16.7558  -3
  -5   9   2 428.266 16.7558   1
  -5   9   2 230.245 21.3258   3
  -4   9   2 3.13807 1.91027   4
   4   9   2 2.34693 4.95975  -3
  -4   9   2 2.34693 4.95975   1
  -4   9   2 -0.1799 4.16081   1
   3   9   2 309.991 22.8630  -4
  -2   9   3 309.991 22.8630  -3
  -3   9   2 309.991 22.8630   2
  -2   9   3 374.815 31.6126  -4
   3   9   2 374.815 31.6126  -3
   2   9   3 374.815 31.6126  -2
  -3   9   2 374.815 31.6126   1
  -3   9   2 113.443 7.24359   1
  -3   9   2 130.134 13.2955   3
   2   9   3 190.897 16.3238  -2
  -3   9   2 190.897 16.3238   1
   3   9   2 258.473 22.9479  -3
  -3   9   2 258.473 22.9479   1
  -2   9   2 10.5055 6.51202  -4
   2   9   2 10.5055 6.51202  -3
   2   9   2 10.5055 6.51202  -2
  -2   9   2 10.5055 6.51202   1
  -2   9   1 183.563 9.47747  -4
   1   9   2 183.563 9.47747  -3
   2   9   1 183.563 9.47747  -2
  -1   9   2 183.563 9.47747   1
   2   9   0 4.38364 3.84377  -4
   0   9   2 4.38364 3.84377  -3
   2   9   0 4.38364 3.84377  -2
   0   9   2 4.38364 3.84377   1
   2   9   1 180.121 8.18475  -4
  -1   9   2 180.121 8.18475  -3
  -2   9   1 180.121 8.18475  -2
   1   9   2 180.121 8.18475   1
   1   9   2 64.1196 6.83408   2
   2   9   2 3.76529 5.25600  -4
  -2   9   2 3.76529 5.25600  -3
  -2   9   2 3.76529 5.25600  -2
   2   9   2 3.76529 5.25600   1
   3   9   2 106.138 11.8335   1
   3   9   2 92.1701 6.24628   3
   2   9   3 217.201 20.3529  -3
   3   9   2 217.201 20.3529   2
  -3   9   2 356.774 27.1854  -3
  -2   9   3 356.774 27.1854  -2
   3   9   2 356.774 27.1854   1
   2   9   3 185.907 17.9323  -4
   3   9   2 185.907 17.9323   1
  -4   9   2 4.41934 5.21025  -3
   4   9   2 4.41934 5.21025   1
   4   9   2 1.06698 2.03604   2
   4   9   2 5.28755 2.35986   4
   5   9   2 114.587 5.83083   2
   5   9   2 109.306 8.52759   4
   5   9   2 176.988 16.4042   3
  -5   9   2 380.265 21.4472  -3
   5   9   2 380.265 21.4472   1
   5   9   2 192.101 13.0388   1
   6   9   2 -0.2474 3.38463   1
  -6   9   2 28.0244 9.07498  -3
   6   9   2 28.0244 9.07498   1
   6   9   2 8.36418 4.19612   3
   6   9   2 -0.2994 2.36648   2
   6   9   2 -3.3145 3.22149   4
   7   9   2 18.5366 4.48870   2
   7   9   2 14.0629 7.64592   3
   7   9   2 24.8473 5.64957   4
  -7   9   2 85.6603 13.6355  -3
   7   9   2 85.6603 13.6355   1
   7   9   2 32.3376 10.7724   1
   1   9   8 -5.2747 9.87630  -4
   8   9   2 -5.2747 9.87630   1
  -3  10   2 3.80985 3.09612   3
  -3  10   2 0.81608 2.98894   1
  -2  10   2 -1.6907 9.77359  -4
   2  10   2 -1.6907 9.77359  -3
   2  10   2 -1.6907 9.77359  -2
  -2  10   2 -1.6907 9.77359   1
  -2  10   1 3.74772 6.00912  -4
   1  10   2 3.74772 6.00912  -3
   2  10   1 3.74772 6.00912  -2
  -1  10   2 3.74772 6.00912   1
   2  10   0 1561.68 42.7234  -4
   0  10   2 1561.68 42.7234  -3
   2  10   0 1561.68 42.7234  -2
   0  10   2 1561.68 42.7234   1
   0  10   2 338.210 23.4731   4
   2  10   1 -3.0036 5.77209  -4
  -1  10   2 -3.0036 5.77209  -3
  -2  10   1 -3.0036 5.77209  -2
   1  10   2 -3.0036 5.77209   1
   2  10   2 0.93093 6.50325  -4
  -2  10   2 0.93093 6.50325  -3
  -2  10   2 0.93093 6.50325  -2
   2  10   2 0.93093 6.50325   1
   2  10   3 -22.718 16.9204  -4
  -3  10   2 -22.718 16.9204  -3
  -2  10   3 -22.718 16.9204  -2
   3  10   2 -22.718 16.9204   1
 -18   0   3 6.12442 5.98753   1
 -18   0   3 -0.7070 7.28854   2
 -18   0   3 -1.7527 3.83327   4
 -18   0   3 9.88936 8.00818   3
 -17   0   3 7.73623 6.74947   4
 -17   0   3 -0.6666 5.00311   2
 -17   0   3 13.3190 6.13782   1
 -16   0   3 3.69586 3.58807   4
 -16   0   3 -2.2593 4.09339   2
 -16   0   3 -1.4384 5.23843   1
 -16   0   3 6.75600 6.34287   3
 -15   0   3 10.7776 5.60171   4
 -15   0   3 6.10112 6.12707   1
 -15   0   3 5.17304 5.14891   2
 -14   0   3 0.62964 4.23497   1
  -4   0  13 145.435 16.2911  -4
  13   0   3 145.435 16.2911  -3
   2   0  13 145.435 16.2911  -2
 -13   0   3 145.435 16.2911   1
 -13   0   3 66.3662 5.53801   4
  -4   0  12 202.044 19.3112  -4
   2   0  12 202.044 19.3112  -2
 -12   0   3 202.044 19.3112   1
  -4   0  11 50.5053 9.32423  -4
   2   0  11 50.5053 9.32423  -2
 -11   0   3 50.5053 9.32423   1
  -4   0  10 154.843 14.3463  -4
  10   0   3 154.843 14.3463  -3
   2   0  10 154.843 14.3463  -2
 -10   0   3 154.843 14.3463   1
  -4   0  10 145.097 14.5135  -4
   2   0  10 145.097 14.5135  -2
 -10   0   3 145.097 14.5135   1
   2   0   9 149.293 13.6173  -4
  -9   0   3 149.293 13.6173   3
   9   0   3 332.323 22.7655  -3
   2   0   9 332.323 22.7655  -2
  -9   0   3 332.323 22.7655   1
   2   0   9 176.720 15.1359  -2
  -9   0   3 176.720 15.1359   1
  -9   0   3 95.3873 9.56517   4
  -8   0   3 -0.1368 1.92151   2
  -8   0   3 0.77169 1.56427   1
  -8   0   3 2.22225 1.72078   3
  -8   0   3 1.12859 0.84376   4
  -7   0   3 419.488 11.7139   4
  -7   0   3 707.979 22.9131   1
  -7   0   3 722.071 28.5502   3
  -7   0   3 429.968 27.2880   2
  -6   0   3 -0.2358 1.24085   1
  -6   0   3 -0.0596 0.50801   4
  -6   0   3 0.36772 1.48418   3
  -6   0   3 -1.5415 0.83585   2
  -5   0   3 695.407 27.3637   3
  -5   0   3 458.359 12.4543   2
  -5   0   3 690.330 18.6880   1
  -5   0   3 401.113 10.8902   4
  -4   0   3 0.66027 0.84923   3
  -4   0   3 0.27799 0.84855   2
  -4   0   3 -0.0488 0.71742   1
  -4   0   3 -0.3543 0.50047   4
  -3   0   3 0.59203 0.60536   3
  -3   0   3 -0.2989 0.48241   1
  -3   0   3 0.15315 0.45020   4
  -3   0   3 -0.1445 0.74610   2
  -2   0   3 0.30305 0.33168   3
  -2   0   3 -0.1357 0.41971   4
  -2   0   3 0.17723 0.35728   1
  -2   0   3 0.10332 0.85800   2
  -1   0   3 156.088 4.87652   4
  -1   0   3 269.686 5.82208   3
  -1   0   3 284.788 6.59863   1
  -1   0   3 187.557 6.67169   2
   0   0   3 0.18450 0.25238   1
   0   0   3 -0.0117 0.44775   4
   0   0   3 -0.1017 0.48967   2
   0   0   3 0.11082 0.23163   3
   1   0   3 353.147 14.2101   4
   1   0   3 586.487 14.8085   1
   1   0   3 554.371 13.7363   3
   1   0   3 380.220 10.4051   2
   2   0   3 0.03788 0.45746   2
   2   0   3 0.61670 0.59970   1
   2   0   3 0.45523 0.59861   3
   2   0   3 0.39802 0.64017   4
   3   0   3 0.28106 0.60287   4
   3   0   3 0.04446 0.52821   3
   3   0   3 -0.2275 0.67143   2
   3   0   3 0.75288 0.82310   1
   4   0   3 0.47046 0.45912   4
   4   0   3 0.04709 0.61337   3
   4   0   3 0.07103 0.63001   2
   4   0   3 0.13050 0.90160   1
   5   0   3 613.102 18.1561   4
   5   0   3 704.928 20.6380   2
   5   0   3 1034.85 31.5529   3
   5   0   3 1052.34 40.5744   1
   6   0   3 -0.2104 0.63764   2
   6   0   3 1.22728 2.12200   1
   6   0   3 1.36690 1.14128   3
   6   0   3 1.43756 1.79362   4
   7   0   3 477.072 20.7897   1
   7   0   3 281.376 9.75410   2
   7   0   3 413.026 17.9657   3
   7   0   3 224.588 16.7451   4
   8   0   3 1.81054 0.91335   2
   8   0   3 1.82932 1.35915   3
   8   0   3 3.61367 1.96313   1
   8   0   3 -0.7843 1.74059   4
   9   0   3 106.254 7.02850   3
   9   0   3 74.0157 4.10910   2
   9   0   3 128.494 8.87656   1
   9   0   3 74.5037 9.10882   4
  10   0   3 -3.3995 2.81605   1
   2   0  10 136.068 15.1396  -4
 -10   0   3 136.068 15.1396  -3
  -4   0  10 136.068 15.1396  -2
  10   0   3 136.068 15.1396   1
  10   0   3 1.65337 1.26804   2
  10   0   3 1.73156 3.26295   4
  10   0   3 3.09851 2.27290   3
  11   0   3 12.4881 5.70877   1
  11   0   3 9.63281 4.51009   3
  11   0   3 11.9393 2.33116   2
  12   0   3 1.55906 1.84044   2
  12   0   3 -3.3327 2.81598   3
  12   0   3 6.56167 5.57335   1
  13   0   3 0.29738 4.32622   1
  13   0   3 4.01408 4.31771   4
   2   0  13 9.71031 6.92472  -3
  13   0   3 9.71031 6.92472   2
  13   0   3 2.42043 4.29915   3
  14   0   3 1.92135 3.91018   1
  14   0   3 2.60760 3.72706   4
  14   0   3 -0.4188 4.29379   3
  14   0   3 5.82522 4.58118   2
  15   0   3 12.3209 4.28517   2
  15   0   3 11.8844 5.71423   1
  15   0   3 9.87495 4.48844   3
  15   0   3 -1.7822 4.91444   4
  16   0   3 -2.7947 5.08761   3
  16   0   3 -3.4755 3.10037   2
  16   0   3 -0.1666 4.53703   1
  17   0   3 0.56311 5.27745   3
  17   0   3 3.53521 5.60178   4
  17   0   3 -2.7814 3.70580   2
  17   0   3 1.93088 5.97609   1
 -18   1   3 26.8954 6.96031   1
 -18   1   3 38.2051 11.8814   2
 -18   1   3 37.8473 8.69182   3
 -17   1   3 5.62250 3.50711   1
 -17   1   3 1.09532 4.08584   2
 -16   1   3 49.0049 3.78661   4
 -16   1   3 87.5956 7.56271   1
 -16   1   3 96.1612 9.63621   3
 -16   1   3 42.1571 8.12341   2
 -15   1   3 -0.2970 3.44017   2
 -15   1   3 2.30932 1.93572   4
 -15   1   3 -2.7805 2.76829   1
 -14   1   3 89.5110 9.05441   1
  -4   1  13 330.735 17.5309  -4
  13   1   3 330.735 17.5309  -3
   2   1  13 330.735 17.5309  -2
 -13   1   3 330.735 17.5309   1
  -4   1  13 339.806 26.8357  -4
 -13   1   3 339.806 26.8357   1
  -4   1  12 657.599 29.4837  -4
   2   1  12 657.599 29.4837  -2
 -12   1   3 657.599 29.4837   1
  -4   1  12 1090.65 60.9546  -4
  12   1   3 1090.65 60.9546  -3
   2   1  12 1090.65 60.9546  -2
 -12   1   3 1090.65 60.9546   1
  -4   1  11 105.064 9.28454  -4
   2   1  11 105.064 9.28454  -2
 -11   1   3 105.064 9.28454   1
  -4   1  11 119.679 11.5268  -4
  11   1   3 119.679 11.5268  -3
   2   1  11 119.679 11.5268  -2
 -11   1   3 119.679 11.5268   1
  -4   1  10 305.911 15.2719  -4
  10   1   3 305.911 15.2719  -3
   2   1  10 305.911 15.2719  -2
 -10   1   3 305.911 15.2719   1
  -4   1  10 202.380 18.1227  -4
   2   1  10 202.380 18.1227  -2
 -10   1   3 202.380 18.1227   1
  -4   1   9 99.0770 11.6224  -4
   2   1   9 99.0770 11.6224  -2
  -9   1   3 99.0770 11.6224   1
   2   1   9 -0.1035 2.13238  -4
  -9   1   3 -0.1035 2.13238   3
  -9   1   3 1.32523 2.24015   4
   2   1   9 10.9609 5.84290  -2
  -9   1   3 10.9609 5.84290   1
  -8   1   3 167.047 4.26710   4
  -8   1   3 285.986 9.79439   3
  -8   1   3 272.047 8.12405   1
  -8   1   3 178.624 10.5864   2
  -7   1   3 -1.1999 1.15131   2
  -7   1   3 0.11485 0.38861   4
  -7   1   3 0.01096 0.71987   1
  -7   1   3 0.14643 0.82848   3
  -6   1   3 836.159 18.4993   1
  -6   1   3 873.990 23.7777   3
  -6   1   3 552.442 18.2612   2
  -6   1   3 467.595 9.49539   4
  -5   1   3 0.67265 0.73392   3
  -5   1   3 1.25650 0.62259   1
  -5   1   3 -0.3643 0.78439   2
  -5   1   3 0.70423 0.32107   4
  -4   1   3 69.0153 2.46322   2
  -4   1   3 60.9980 1.93028   4
  -4   1   3 108.362 3.01055   1
  -4   1   3 108.790 3.66346   3
  -3   1   3 -0.0759 0.44757   2
  -3   1   3 0.27442 0.34240   3
  -3   1   3 0.01947 0.29868   4
  -3   1   3 0.12607 0.36076   1
  -2   1   3 290.121 5.50623   1
  -2   1   3 282.784 5.97312   3
  -2   1   3 199.346 5.50210   2
  -2   1   3 154.831 4.17772   4
  -1   1   3 0.71192 0.19097   1
  -1   1   3 1.02941 0.29654   4
  -1   1   3 0.33926 0.28275   3
  -1   1   3 0.52911 0.27940   2
   0   1   3 1635.86 26.0550   1
   0   1   3 924.938 16.2883   4
   0   1   3 1043.35 18.6304   2
   0   1   3 1542.63 24.5759   3
   1   1   3 0.37862 0.32450   4
   1   1   3 0.11149 0.28980   3
   1   1   3 0.48542 0.34828   1
   1   1   3 0.84933 0.44035   2
   2   1   3 55.8852 1.99845   3
   2   1   3 25.6297 2.31560   4
  -3   1   2 225.072 14.5520  -4
   2   1   3 225.072 14.5520   3
   2   1   3 58.3817 2.05176   1
   2   1   3 41.7345 1.86714   2
   3   1   3 0.57942 0.28628   3
   3   1   3 -0.1210 0.52614   1
   3   1   3 0.07059 0.32966   2
   3   1   3 0.14175 0.50664   4
   4   1   3 167.639 4.06488   2
   4   1   3 159.210 4.42582   4
   4   1   3 280.363 7.66933   1
   4   1   3 250.697 5.91544   3
   5   1   3 -0.2178 0.73026   1
   5   1   3 0.92410 0.36182   2
   5   1   3 0.83889 1.08569   4
   5   1   3 1.15689 0.80767   3
   6   1   3 356.841 13.0407   1
   6   1   3 200.599 5.10489   2
   6   1   3 312.132 7.91531   3
   6   1   3 193.765 7.95190   4
   7   1   3 0.24012 0.68126   2
   7   1   3 -0.6551 0.97827   1
   7   1   3 1.42886 0.82008   3
   7   1   3 0.13146 1.10653   4
   8   1   3 142.331 5.22620   3
   8   1   3 79.5537 6.38900   4
   8   1   3 96.7937 3.27288   2
   8   1   3 153.723 6.71783   1
   9   1   3 0.07935 0.84649   2
   9   1   3 0.12785 1.55965   4
   9   1   3 0.88031 1.36090   1
   9   1   3 1.96580 2.44779   3
  10   1   3 56.3386 5.96520   4
  10   1   3 106.185 11.5736   3
  10   1   3 108.069 8.32512   1
   2   1  10 337.483 26.4084  -4
 -10   1   3 337.483 26.4084  -3
  -4   1  10 337.483 26.4084  -2
  10   1   3 337.483 26.4084   1
  10   1   3 64.5891 5.04876   2
   2   1  11 121.872 15.5656  -4
 -11   1   3 121.872 15.5656  -3
  -4   1  11 121.872 15.5656  -2
  11   1   3 121.872 15.5656   1
  11   1   3 2.78394 2.04176   2
  11   1   3 4.75735 2.88105   1
  11   1   3 1.82819 2.46336   3
  12   1   3 329.965 18.5985   2
  12   1   3 469.616 31.5978   3
  12   1   3 511.019 24.5594   1
  13   1   3 1.17089 3.40941   3
  13   1   3 17.3705 4.76271   4
   2   1  13 238.228 15.3234  -3
  13   1   3 238.228 15.3234   2
  13   1   3 9.72899 4.26272   1
  14   1   3 46.7287 7.66128   4
  14   1   3 92.2267 8.72698   3
  14   1   3 57.2276 4.03487   2
  14   1   3 91.2103 7.62589   1
  15   1   3 -1.2690 1.56980   2
  15   1   3 0.22469 3.12319   3
  15   1   3 0.69278 3.87611   1
  15   1   3 -3.6704 3.02832   4
  16   1   3 64.9321 6.05115   3
  16   1   3 17.3666 6.07290   4
  16   1   3 56.2219 7.66558   1
  16   1   3 31.4868 4.71886   2
  17   1   3 -0.3287 3.94479   2
  17   1   3 -5.2502 3.29777   3
  17   1   3 -3.5668 3.87878   1
  17   1   3 -0.0962 6.57849   4
 -17   2   3 194.029 12.3850   1
 -17   2   3 85.2663 10.4900   2
 -17   2   3 90.5646 10.5954   4
 -17   2   3 233.471 22.1251   3
 -16   2   3 0.44163 1.73761   4
 -16   2   3 -3.7912 4.81855   3
 -16   2   3 1.27402 3.57103   2
 -16   2   3 1.48754 4.20932   1
 -15   2   3 38.0829 10.5056   2
 -15   2   3 40.7441 4.33255   4
 -15   2   3 66.9441 9.43757   1
 -14   2   3 2.63555 4.13888   1
 -14   2   3 2.00783 2.34329   4
  -4   2  14 3.79877 8.45418  -3
 -14   2   3 3.79877 8.45418   2
   2   2  13 42.2743 5.52765  -2
 -13   2   3 42.2743 5.52765   1
  -4   2  13 121.686 19.3451  -4
  13   2   3 121.686 19.3451  -3
   2   2  13 121.686 19.3451  -2
 -13   2   3 121.686 19.3451   1
  -4   2  13 91.1050 15.5032  -4
   2   2  13 91.1050 15.5032  -2
 -13   2   3 91.1050 15.5032   1
 -13   2   3 89.5498 11.5710   1
  -4   2  12 225.345 14.1068  -4
  12   2   3 225.345 14.1068  -3
   2   2  12 225.345 14.1068  -2
 -12   2   3 225.345 14.1068   1
  -4   2  11 15.0800 6.10478  -4
 -11   2   3 15.0800 6.10478   1
  -4   2  11 83.8435 14.7942  -4
  11   2   3 83.8435 14.7942  -3
   2   2  11 83.8435 14.7942  -2
 -11   2   3 83.8435 14.7942   1
  -4   2  11 30.3134 8.75051  -4
   2   2  11 30.3134 8.75051  -2
 -11   2   3 30.3134 8.75051   1
  -4   2  10 591.007 26.2145  -4
   2   2  10 591.007 26.2145  -2
 -10   2   3 591.007 26.2145   1
  -4   2  10 662.079 43.7878  -4
  10   2   3 662.079 43.7878  -3
   2   2  10 662.079 43.7878  -2
 -10   2   3 662.079 43.7878   1
  -9   2   3 143.767 12.6915   4
  -9   2   3 322.970 21.9553   1
   2   2   9 358.377 16.7082  -4
  -9   2   3 358.377 16.7082   3
   2   2   9 402.641 27.4083  -2
  -9   2   3 402.641 27.4083   1
  -8   2   3 0.13102 0.84771   2
  -8   2   3 1.09944 0.93935   4
  -8   2   3 2.37238 1.48984   3
   2   2   8 29.0361 7.78649  -2
  -8   2   3 29.0361 7.78649   1
  -8   2   3 -0.1694 1.58146   1
   2   2   8 97.9477 9.60531  -4
  -8   2   3 97.9477 9.60531   3
  -7   2   3 12.8764 1.76121   2
  -7   2   3 9.04931 1.27021   4
  -7   2   3 16.7922 2.93936   1
  -7   2   3 17.8758 2.04397   3
  -6   2   3 -0.6170 0.71117   1
  -6   2   3 0.80814 0.56930   4
  -6   2   3 1.15093 0.73803   3
  -6   2   3 -1.0706 0.69850   2
  -5   2   3 337.274 11.6874   3
  -5   2   3 352.062 9.68680   1
  -5   2   3 201.521 5.18400   4
  -5   2   3 213.592 7.26881   2
  -4   2   3 0.74783 0.49100   1
  -4   2   3 0.03847 0.64987   2
  -4   2   3 0.71023 0.29265   4
  -4   2   3 1.38781 0.51092   3
  -3   2   3 63.5258 1.76027   4
  -3   2   3 112.790 2.67999   1
  -3   2   3 72.4636 2.30036   2
  -3   2   3 109.011 3.05899   3
  -2   2   3 0.37469 0.43632   3
  -2   2   3 0.08718 0.28147   4
  -2   2   3 1.08981 0.30392   1
  -2   2   3 -0.2049 0.34814   2
  -3   2   2 0.21980 2.57033  -3
  -2   2   3 0.21980 2.57033   2
  -1   2   3 295.836 7.47933   2
  -1   2   3 266.600 5.28336   4
  -1   2   3 453.425 9.02892   3
  -3   2   1 1149.35 61.5821  -4
   1   2   3 1149.35 61.5821  -3
   3   2   1 1149.35 61.5821  -2
  -1   2   3 1149.35 61.5821   1
  -1   2   3 462.065 9.24216   1
   0   2   3 0.25367 0.26070   4
   0   2   3 -0.2639 0.29971   2
   0   2   3 0.14971 0.34555   1
   0   2   3 0.24048 0.40998   3
   1   2   3 92.3949 2.69389   4
   1   2   3 139.570 3.17236   3
   1   2   3 160.310 4.05605   1
   1   2   3 102.419 2.33647   2
   2   2   3 0.54895 0.43137   2
   2   2   3 0.34151 0.31069   3
   2   2   3 -0.3304 0.29416   4
   2   2   3 -0.2180 0.39358   1
  -3   2   2 0.49712 1.90179  -4
   2   2   3 0.49712 1.90179   3
   3   2   3 45.7327 1.81193   4
   3   2   3 52.3233 1.56238   2
   3   2   3 83.8601 2.69039   1
   3   2   3 76.8358 2.56488   3
   4   2   3 -0.5770 0.47917   3
   4   2   3 0.11515 0.46157   2
   4   2   3 0.88011 0.69850   1
   4   2   3 0.83315 0.66409   4
   5   2   3 86.9896 3.14044   2
   5   2   3 148.251 5.61986   1
   5   2   3 84.5499 3.58348   4
   5   2   3 128.936 5.24165   3
   6   2   3 0.03370 0.63990   2
   6   2   3 0.14883 0.68604   3
   6   2   3 0.41318 0.72057   4
   6   2   3 0.53063 0.98810   1
   7   2   3 5.21068 1.54305   4
   7   2   3 11.7242 2.02499   1
   7   2   3 9.46864 1.31204   2
   7   2   3 8.91965 2.25732   3
   8   2   3 0.77426 1.02488   4
   8   2   3 -0.5180 0.98401   2
   8   2   3 -0.7853 1.22602   1
   8   2   3 1.06235 1.65225   3
   9   2   3 188.654 8.39847   4
   9   2   3 225.342 7.47925   2
   9   2   3 357.431 14.6170   1
  -4   2   9 419.719 27.1475  -2
   9   2   3 419.719 27.1475   1
   9   2   3 313.946 15.5029   3
  10   2   3 3.35966 2.28731   1
  10   2   3 2.43550 1.20195   4
  10   2   3 4.59571 2.07527   3
  10   2   3 0.02677 2.61097   2
  11   2   3 52.9124 8.51977   3
  11   2   3 71.6130 6.94424   1
  11   2   3 40.8402 4.10850   2
   2   2  11 64.9919 12.9130  -4
 -11   2   3 64.9919 12.9130  -3
  -4   2  11 64.9919 12.9130  -2
  11   2   3 64.9919 12.9130   1
  12   2   3 2.31913 1.91276   2
  12   2   3 1.93753 4.12695   1
  12   2   3 3.27760 3.22394   3
  13   2   3 15.8781 3.49396   2
   2   2  13 13.5781 9.67781  -4
  13   2   3 13.5781 9.67781   1
  13   2   3 27.9283 5.65979   3
  13   2   3 9.52226 3.63247   4
  13   2   3 36.4214 8.54483   1
  14   2   3 -1.6644 2.81460   4
  14   2   3 -0.3059 3.98333   1
  14   2   3 0.58449 3.10250   3
  14   2   3 0.20344 1.91538   2
  15   2   3 15.3614 4.06910   1
  15   2   3 9.35618 4.49996   4
  15   2   3 14.6408 5.30030   3
  15   2   3 13.6915 3.31043   2
   2   2  15 3.11126 9.07142  -3
  15   2   3 3.11126 9.07142   2
  16   2   3 3.37094 3.66041   1
  16   2   3 3.75574 2.29405   2
  16   2   3 2.31927 3.38917   3
  17   2   3 75.7161 6.09767   2
  17   2   3 87.9190 9.12866   3
  17   2   3 109.766 10.3149   1
  17   2   3 36.8554 7.92740   4
 -17   3   3 0.63954 4.60532   2
 -17   3   3 2.34252 3.07420   4
 -17   3   3 2.26967 4.27559   1
 -17   3   3 1.49910 7.43498   3
 -16   3   3 22.5173 8.41610   3
 -16   3   3 16.2276 3.30621   4
 -16   3   3 28.4159 6.66195   1
 -16   3   3 27.8811 9.68254   2
 -15   3   3 -1.9018 1.81217   4
 -15   3   3 -3.4899 5.99374   2
 -15   3   3 4.17428 4.82835   1
  -4   3  14 27.5316 12.1760  -3
 -14   3   3 27.5316 12.1760   2
 -14   3   3 35.2527 9.35173   4
 -14   3   3 39.8355 14.7958   1
 -13   3   3 1.38505 2.11593   2
  -4   3  13 73.5924 12.2018  -4
 -13   3   3 73.5924 12.2018   1
  -4   3  13 139.089 18.4805  -4
   2   3  13 139.089 18.4805  -2
 -13   3   3 139.089 18.4805   1
  -4   3  12 115.579 10.7838  -4
   2   3  12 115.579 10.7838  -2
 -12   3   3 115.579 10.7838   1
  -4   3  11 278.212 21.0943  -4
 -11   3   3 278.212 21.0943   1
  -4   3  11 336.666 29.4394  -4
  11   3   3 336.666 29.4394  -3
   2   3  11 336.666 29.4394  -2
 -11   3   3 336.666 29.4394   1
  -4   3  10 147.605 10.5685  -4
   2   3  10 147.605 10.5685  -2
 -10   3   3 147.605 10.5685   1
  -4   3  10 348.224 29.6973  -4
  10   3   3 348.224 29.6973  -3
   2   3  10 348.224 29.6973  -2
 -10   3   3 348.224 29.6973   1
  -4   3   9 99.6273 11.5778  -4
   2   3   9 99.6273 11.5778  -2
  -9   3   3 99.6273 11.5778   1
  -9   3   3 2.87329 3.20419   3
   2   3   9 27.4907 5.67365  -4
  -9   3   3 27.4907 5.67365   3
  -8   3   3 289.593 11.5471   3
  -8   3   3 200.899 7.58247   2
  -8   3   3 170.804 5.79440   4
  -8   3   3 296.302 14.7589   1
   2   3   8 295.997 19.3044  -4
  -8   3   3 295.997 19.3044   3
   2   3   8 365.100 29.1455  -2
  -8   3   3 365.100 29.1455   1
  -7   3   3 -0.4343 0.80418   3
  -7   3   3 -1.3112 0.79683   2
  -7   3   3 0.22430 0.84075   4
  -7   3   3 -1.0323 1.17157   1
  -6   3   3 340.785 10.5466   2
  -6   3   3 307.354 7.84109   4
  -6   3   3 470.635 16.0002   3
  -6   3   3 497.197 14.3210   1
  -5   3   3 -1.1097 0.82091   2
  -5   3   3 1.12419 0.60166   4
  -5   3   3 1.53839 0.77043   1
  -5   3   3 0.80969 0.60930   3
  -4   3   3 699.534 13.9843   1
  -4   3   3 413.148 8.07742   4
  -4   3   3 702.193 22.1369   3
  -4   3   3 437.503 12.4425   2
  -3   3   3 -0.2853 0.39993   1
  -3   3   3 0.25963 0.83689   2
  -3   3   3 1.29718 0.96019   3
  -3   3   3 -0.0111 0.35199   4
   3   3   2 1445.74 77.4068  -2
  -2   3   3 1445.74 77.4068   1
  -3   3   2 1771.13 94.8211  -3
  -2   3   3 1771.13 94.8211   2
  -2   3   3 894.527 16.3676   1
  -2   3   3 559.250 10.3424   4
  -2   3   3 560.826 22.5353   2
  -1   3   3 0.57191 0.45561   4
  -1   3   3 -0.0020 0.45759   3
  -1   3   3 0.75915 0.51324   1
  -1   3   3 1.70274 0.42006   2
   0   3   3 348.000 7.65353   4
   0   3   3 571.736 12.7278   3
   0   3   3 395.475 8.59975   2
   0   3   3 603.677 15.1846   1
   1   3   3 0.93895 0.48810   3
   1   3   3 -0.0426 0.67150   4
   1   3   3 0.40066 0.51216   2
   1   3   3 0.64537 0.44431   1
   3   3   1 7.40061 5.02674  -4
  -1   3   3 7.40061 5.02674  -3
  -3   3   1 7.40061 5.02674  -2
   1   3   3 7.40061 5.02674   1
   2   3   3 463.298 9.39964   2
  -3   3   2 1289.05 68.9589  -4
   2   3   3 1289.05 68.9589   3
   2   3   3 411.765 15.8757   4
   2   3   3 650.402 11.9768   3
   2   3   3 701.891 26.5759   1
   3   3   3 -0.2792 0.97204   4
   3   3   3 0.85324 0.38731   3
   3   3   3 0.39094 0.39243   2
   3   3   3 1.27025 1.00333   1
   4   3   3 702.766 16.2207   1
   4   3   3 442.925 9.92506   2
   4   3   3 420.519 11.8237   4
   4   3   3 669.002 16.0568   3
   5   3   3 0.52783 0.97161   3
   5   3   3 0.97505 0.80530   2
   5   3   3 0.03363 0.67330   4
   5   3   3 -0.2614 0.59586   1
   6   3   3 292.604 9.36965   3
   6   3   3 223.572 6.50299   2
   6   3   3 188.773 6.73092   4
   6   3   3 301.163 11.6745   1
   7   3   3 0.48931 0.96862   2
   7   3   3 2.01014 1.10096   1
   7   3   3 -0.4555 0.84227   4
   7   3   3 -0.3107 0.99166   3
   8   3   3 174.988 6.35623   2
   8   3   3 140.368 7.08447   4
   8   3   3 223.323 10.3977   3
   8   3   3 281.312 10.0741   1
   9   3   3 -0.1324 1.57828   1
   9   3   3 -1.5867 1.78525   3
   9   3   3 1.66519 1.31015   2
  -4   3   9 64.2151 8.18596  -2
   9   3   3 64.2151 8.18596   1
   9   3   3 -0.8244 1.21724   4
  10   3   3 156.265 6.85719   2
  10   3   3 216.594 12.5785   3
   2   3  10 346.714 19.8778  -4
 -10   3   3 346.714 19.8778  -3
  -4   3  10 346.714 19.8778  -2
  10   3   3 346.714 19.8778   1
  10   3   3 122.766 8.13324   4
  10   3   3 237.891 16.6704   1
  11   3   3 -2.7572 2.13923   1
  11   3   3 -1.1295 1.68992   4
  11   3   3 -1.2784 3.43919   3
  11   3   3 0.75952 2.52600   2
   2   3  11 290.165 27.1833  -4
 -11   3   3 290.165 27.1833  -3
  -4   3  11 290.165 27.1833  -2
  11   3   3 290.165 27.1833   1
  12   3   3 200.863 11.6430   2
  12   3   3 151.229 17.0987   4
  12   3   3 237.900 14.1414   3
  12   3   3 258.739 19.6031   1
  13   3   3 0.43312 1.50680   4
   2   3  13 165.442 21.8418  -4
 -13   3   3 165.442 21.8418  -3
  -4   3  13 165.442 21.8418  -2
  13   3   3 165.442 21.8418   1
  13   3   3 4.25705 3.44986   2
  13   3   3 -0.5279 4.22445   1
  13   3   3 -2.5825 2.96908   3
   2   3  13 34.6103 10.3937  -4
  13   3   3 34.6103 10.3937   1
  14   3   3 112.013 9.91264   3
  14   3   3 39.5981 7.31146   4
  14   3   3 76.2894 6.46198   2
  14   3   3 124.545 8.84093   1
  15   3   3 0.73667 3.45749   1
  15   3   3 -2.3762 2.65962   2
  15   3   3 -0.3254 3.36867   4
  15   3   3 2.45909 3.04635   3
   2   3  15 47.4181 11.9886  -3
  15   3   3 47.4181 11.9886   2
  16   3   3 24.4165 6.67887   4
  16   3   3 69.7805 8.56404   3
  16   3   3 54.6184 5.40446   2
  16   3   3 80.0752 7.74715   1
 -16   4   3 4.36030 2.19559   4
 -16   4   3 -0.5139 4.80669   2
 -16   4   3 2.85737 4.11608   3
 -16   4   3 0.77206 3.86943   1
 -15   4   3 10.7460 4.27768   2
 -15   4   3 29.9598 7.90674   3
 -15   4   3 12.8894 7.11029   1
 -15   4   3 10.3218 3.30575   4
 -14   4   3 -1.6345 3.86363   4
 -14   4   3 5.31799 6.39205   1
 -14   4   3 0.54003 3.00854   2
  -4   4  13 114.283 20.0238  -4
  13   4   3 114.283 20.0238  -3
   2   4  13 114.283 20.0238  -2
 -13   4   3 114.283 20.0238   1
  -4   4  13 90.2330 15.0285  -4
   2   4  13 90.2330 15.0285  -2
 -13   4   3 90.2330 15.0285   1
  -4   4  12 7.20602 7.17090  -4
   2   4  12 7.20602 7.17090  -2
 -12   4   3 7.20602 7.17090   1
  -4   4  11 528.743 36.4889  -4
   2   4  11 528.743 36.4889  -2
 -11   4   3 528.743 36.4889   1
  -4   4  10 59.8834 15.7056  -4
  10   4   3 59.8834 15.7056  -3
   2   4  10 59.8834 15.7056  -2
 -10   4   3 59.8834 15.7056   1
  -4   4  10 36.7795 6.45426  -4
   2   4  10 36.7795 6.45426  -2
 -10   4   3 36.7795 6.45426   1
   2   4   9 111.738 9.95988  -4
  -9   4   3 111.738 9.95988   3
  -9   4   3 104.845 11.7790   3
  -9   4   3 79.2738 8.58542   4
  -4   4   9 147.537 10.5692  -4
   2   4   9 147.537 10.5692  -2
  -9   4   3 147.537 10.5692   1
  -8   4   3 -0.9273 1.21391   3
  -8   4   3 1.05642 1.84395   1
   2   4   8 29.1196 5.46917  -4
  -8   4   3 29.1196 5.46917   3
  -8   4   3 1.22730 1.37811   2
  -8   4   3 -0.8909 0.91590   4
  -7   4   3 842.382 23.2905   3
  -7   4   3 526.483 12.6425   4
  -7   4   3 581.276 16.9314   2
  -7   4   3 935.385 30.7152   1
  -6   4   3 0.16686 1.11191   1
  -6   4   3 0.37674 0.81409   4
  -6   4   3 0.51895 0.83403   2
  -6   4   3 -0.1850 0.91269   3
  -5   4   3 142.840 4.60626   4
  -5   4   3 251.659 6.63934   1
  -5   4   3 221.352 9.32355   3
  -5   4   3 151.574 8.96440   2
  -4   4   3 0.37175 1.29414   3
  -4   4   3 0.27448 0.46266   4
  -4   4   3 0.77732 0.60577   1
  -4   4   3 1.03364 1.96799   2
  -3   4   3 0.39664 0.64961   1
  -3   4   3 0.80419 0.50474   4
  -3   4   3 0.54447 1.29979   3
  -3   4   3 1.14882 0.99540   2
  -2   4   3 1.00590 0.75406   1
  -2   4   3 0.21105 1.40073   3
  -2   4   3 -0.7809 0.56222   4
  -2   4   3 0.80219 1.13833   2
  -1   4   3 19.2220 1.78026   3
  -1   4   3 22.0537 1.80217   1
  -3   4   1 42.4038 8.32318  -4
   1   4   3 42.4038 8.32318  -3
   3   4   1 42.4038 8.32318  -2
  -1   4   3 42.4038 8.32318   1
  -1   4   3 17.1621 3.50884   2
  -1   4   3 15.9050 1.95961   4
   0   4   3 0.73941 0.90981   2
   0   4   3 0.34252 0.59538   3
   0   4   3 0.31954 0.59535   1
   0   4   3 -0.6270 0.56556   4
   1   4   3 12.5527 1.30732   2
   1   4   3 7.04421 2.66927   4
   1   4   3 16.8680 1.78147   3
   1   4   3 13.6962 3.41988   1
   2   4   3 0.84548 0.55390   2
   2   4   3 -0.3589 0.90594   4
   2   4   3 -0.1509 0.52362   3
   2   4   3 1.63198 1.42969   1
   3   4   3 0.00915 0.51743   2
   3   4   3 0.74881 1.19619   1
   3   4   3 1.67057 0.81180   3
   3   4   3 2.34006 1.09400   4
   4   4   3 0.47089 1.13708   1
   4   4   3 0.11366 0.60452   2
   4   4   3 -0.0947 0.54597   3
   4   4   3 0.68850 1.10079   4
   5   4   3 352.297 8.53048   3
   5   4   3 235.952 5.77821   2
   5   4   3 359.196 13.4341   1
   5   4   3 224.563 9.74919   4
   6   4   3 1.80306 0.82035   2
   6   4   3 0.16695 1.35226   3
   6   4   3 -0.7158 0.86723   4
   6   4   3 0.14824 0.79825   1
   7   4   3 852.466 24.0119   1
   7   4   3 739.507 25.0832   3
   7   4   3 550.157 13.3619   2
   7   4   3 495.017 14.8492   4
   8   4   3 0.38357 1.19634   1
   8   4   3 -1.3344 1.09755   2
   8   4   3 1.06306 1.31658   4
   8   4   3 -0.1609 1.44777   3
   9   4   3 66.1369 4.45492   2
  -4   4   9 130.203 11.5488  -2
   9   4   3 130.203 11.5488   1
   9   4   3 115.361 7.12524   1
   9   4   3 64.5983 6.07839   4
   9   4   3 102.255 7.89980   3
  10   4   3 0.12387 2.30341   4
  10   4   3 -0.6819 2.02715   2
  10   4   3 0.56396 2.46643   3
  11   4   3 317.177 24.6370   3
  11   4   3 150.399 12.4658   4
  11   4   3 207.489 12.1959   2
  11   4   3 321.051 21.4323   1
   2   4  11 802.068 55.6009  -4
 -11   4   3 802.068 55.6009  -3
  -4   4  11 802.068 55.6009  -2
  11   4   3 802.068 55.6009   1
  12   4   3 0.08026 4.09250   1
  12   4   3 -2.6578 1.92442   4
  12   4   3 -1.5445 3.60489   2
  12   4   3 1.09683 3.16762   3
  13   4   3 18.8347 4.69445   3
   2   4  13 0.78875 8.73608  -4
  13   4   3 0.78875 8.73608   1
  13   4   3 8.05205 2.81368   2
  13   4   3 4.32863 2.45577   4
  13   4   3 30.1281 7.06369   1
  14   4   3 3.05909 2.21613   4
  14   4   3 -1.0856 3.34078   1
  14   4   3 -3.4234 2.25070   2
  14   4   3 1.58209 5.52914   3
  15   4   3 -0.9703 3.22403   3
  15   4   3 3.55793 3.30373   1
  15   4   3 -2.3148 2.31162   2
   2   4  15 0.54499 9.76173  -3
  15   4   3 0.54499 9.76173   2
  15   4   3 -0.6817 3.81020   4
  16   4   3 1.40173 2.28404   2
  16   4   3 -0.7563 5.15957   4
  16   4   3 -0.6539 5.89337   1
  16   4   3 2.03167 8.72970   3
 -15   5   3 7.48685 8.06599   1
 -15   5   3 -3.0487 2.76466   4
 -15   5   3 5.57278 5.54302   3
 -15   5   3 -1.3181 3.20309   2
 -14   5   3 85.0617 14.9536   1
 -14   5   3 64.3830 9.34406   3
 -14   5   3 46.3904 8.41113   2
  -4   5  13 363.452 31.6579  -4
   2   5  13 363.452 31.6579  -2
 -13   5   3 363.452 31.6579   1
  -4   5  13 296.369 33.5891  -4
  13   5   3 296.369 33.5891  -3
   2   5  13 296.369 33.5891  -2
 -13   5   3 296.369 33.5891   1
  -4   5  13 137.038 17.8120  -4
 -13   5   3 137.038 17.8120   1
  -4   5  12 163.180 13.1577  -4
   2   5  12 163.180 13.1577  -2
 -12   5   3 163.180 13.1577   1
  -4   5  11 153.361 13.5703  -4
   2   5  11 153.361 13.5703  -2
 -11   5   3 153.361 13.5703   1
  -4   5  10 247.161 27.4445  -4
  10   5   3 247.161 27.4445  -3
   2   5  10 247.161 27.4445  -2
 -10   5   3 247.161 27.4445   1
  -4   5   9 140.470 10.4524  -4
   2   5   9 140.470 10.4524  -2
  -9   5   3 140.470 10.4524   1
  -8   5   3 217.544 9.59078   4
  -8   5   3 225.358 9.40790   2
  -8   5   3 363.865 17.5602   1
  -8   5   3 303.798 20.1072   3
   2   5   8 370.822 26.9403  -4
  -8   5   3 370.822 26.9403   3
  -7   5   3 0.25950 1.11378   3
  -7   5   3 1.58175 0.61162   4
  -7   5   3 0.15677 1.19148   2
  -7   5   3 -1.3869 2.12405   1
  -6   5   3 147.587 7.50194   3
  -6   5   3 101.395 7.85765   2
  -6   5   3 168.118 6.39560   1
  -6   5   3 97.2905 3.54545   4
  -5   5   3 1.04127 0.77907   1
  -5   5   3 -0.2087 1.40065   2
  -5   5   3 1.40513 0.96090   4
  -5   5   3 1.84111 1.06193   3
  -4   5   3 42.3714 2.23906   1
  -4   5   3 26.6882 2.01308   4
  -4   5   3 44.3917 3.91474   3
  -4   5   3 33.1775 4.05434   2
  -3   5   3 0.47175 0.84162   1
  -3   5   3 -0.3147 0.73500   4
  -3   5   3 -0.3711 5.47668  -4
  -3   5   3 -0.3711 5.47668   1
   3   5   3 5.62934 6.69867  -4
  -3   5   3 5.62934 6.69867   3
  -3   5   3 -0.9516 1.20541   3
  -3   5   3 0.52930 1.79239   2
  -2   5   3 139.491 10.7379   2
  -2   5   3 141.673 5.94198   4
  -2   5   3 201.299 14.0619   3
  -2   5   3 235.313 8.77235   1
  -3   5   2 292.956 23.2339  -4
  -2   5   3 292.956 23.2339   1
  -1   5   3 1.11272 0.79781   4
  -1   5   3 1.82156 0.79023   3
  -1   5   3 0.10022 1.46419   1
   0   5   3 39.4466 2.76618   3
   0   5   3 27.0768 2.48982   2
   0   5   3 35.8631 2.58662   1
   0   5   3 22.2573 2.00961   4
   1   5   3 1.14740 0.86857   3
   1   5   3 1.40253 1.74026   4
   1   5   3 1.11396 1.04226   2
   1   5   3 -0.5303 1.69716   1
   3   5   2 203.185 19.4848  -3
   2   5   3 203.185 19.4848   2
   2   5   3 112.835 6.01240   2
   2   5   3 171.221 6.90165   3
   2   5   3 95.6505 8.54070   4
   2   5   3 141.915 11.2099   1
   3   5   3 0.86355 0.83860   2
   3   5   3 0.89294 0.76608   3
   3   5   3 1.41539 1.52975   4
   3   5   3 1.55736 1.67381   1
   4   5   3 3.92446 0.99065   2
   4   5   3 7.76637 1.12600   3
   4   5   3 2.11733 1.59791   1
   4   5   3 1.79124 1.84843   4
   5   5   3 0.32032 1.22524   4
   5   5   3 0.99512 0.68920   2
   5   5   3 0.82473 1.14248   1
   5   5   3 -0.0466 1.05419   3
   6   5   3 82.1042 3.17925   2
   6   5   3 120.438 4.46317   3
   6   5   3 74.9793 5.49451   4
   6   5   3 117.565 5.84535   1
   7   5   3 -1.8898 1.22945   2
   7   5   3 0.34992 1.42974   4
   7   5   3 4.52930 2.38664   3
   7   5   3 -0.0219 1.37125   1
   8   5   3 254.040 12.0355   3
   8   5   3 164.802 7.05576   4
   8   5   3 196.363 8.06368   2
   8   5   3 292.525 13.3414   1
   9   5   3 -1.1974 1.95229   4
   9   5   3 0.29067 2.39983   3
   9   5   3 1.09285 1.75011   2
   9   5   3 -1.3204 2.11619   1
  10   5   3 86.1024 10.9726   3
  10   5   3 65.2170 8.29437   4
  10   5   3 81.9450 7.31247   2
  10   5   3 87.6754 8.31159   1
  11   5   3 1.56767 3.49932   1
  11   5   3 -2.3605 1.99112   2
  11   5   3 -1.8025 4.52545   3
  11   5   3 -0.6825 2.13004   4
  12   5   3 116.867 10.0842   3
   2   5  12 280.080 29.8546  -4
 -12   5   3 280.080 29.8546  -3
  -4   5  12 280.080 29.8546  -2
  12   5   3 280.080 29.8546   1
  12   5   3 81.9970 7.84612   2
  12   5   3 70.0937 8.68343   4
  12   5   3 100.229 10.4640   1
  13   5   3 -0.1371 2.33667   4
  13   5   3 0.31454 3.18471   3
   2   5  13 145.859 20.0215  -4
  13   5   3 145.859 20.0215   1
   2   5  13 329.584 33.7959  -4
 -13   5   3 329.584 33.7959  -3
  -4   5  13 329.584 33.7959  -2
  13   5   3 329.584 33.7959   1
  13   5   3 2.34820 2.73762   2
  13   5   3 5.62097 4.95683   1
  14   5   3 53.6828 6.80648   1
  14   5   3 62.7264 9.11410   2
  14   5   3 45.9853 7.38528   3
  14   5   3 27.9827 6.14895   4
  15   5   3 2.59053 4.71328   1
   2   5  15 80.5530 16.1398  -3
  15   5   3 80.5530 16.1398   2
  15   5   3 -2.5381 3.58802   3
  15   5   3 -4.4765 2.64457   4
  15   5   3 -5.0765 4.64723   2
 -14   6   3 8.28419 8.17729   1
  -4   6  13 84.5477 16.9526  -4
   2   6  13 84.5477 16.9526  -2
 -13   6   3 84.5477 16.9526   1
  -4   6  12 150.636 11.1699  -4
   2   6  12 150.636 11.1699  -2
 -12   6   3 150.636 11.1699   1
  -4   6  11 48.9113 14.0847  -4
   2   6  11 48.9113 14.0847  -2
 -11   6   3 48.9113 14.0847   1
  -4   6  10 121.014 12.9745  -4
   2   6  10 121.014 12.9745  -2
 -10   6   3 121.014 12.9745   1
   2   6   9 67.4242 10.1386  -2
  -9   6   3 67.4242 10.1386   1
  -8   6   3 5.39578 4.00770   1
  -8   6   3 1.39610 2.04017   2
  -8   6   3 9.41183 5.81942   4
  -8   6   3 2.80215 2.39368   3
  -4   6   8 168.286 18.4079  -3
  -8   6   3 168.286 18.4079   2
   2   6   8 239.459 16.9723  -2
  -8   6   3 239.459 16.9723   1
  -7   6   3 90.2725 7.92230   2
  -7   6   3 130.005 5.36690   1
  -7   6   3 82.6852 3.78960   4
  -7   6   3 124.995 6.44291   3
  -6   6   3 0.42129 0.88810   1
  -6   6   3 5.93040 5.39467   3
  -6   6   3 1.24441 0.95847   4
  -6   6   3 -0.0370 1.77029   2
  -5   6   3 36.0651 4.29268   3
  -5   6   3 21.7662 2.89051   4
  -5   6   3 30.0074 4.13243   2
  -5   6   3 41.6617 2.98576   1
  -4   6   3 1.80177 1.68707   3
  -4   6   3 -1.5624 1.47550   2
  -4   6   3 2.02795 1.36875   4
  -4   6   3 -0.9268 1.04493   1
  -3   6   3 143.773 6.57801   4
  -3   6   3 237.980 9.32427   1
   3   6   3 437.753 33.3325  -4
  -3   6   3 437.753 33.3325   3
  -3   6   3 236.369 16.3599   3
  -3   6   3 159.583 12.6890   2
  -3   6   3 306.592 26.5088  -4
  -3   6   3 306.592 26.5088   1
  -2   6   3 0.70442 1.19687   2
  -2   6   3 0.41349 1.05553   4
  -2   6   3 2.60149 1.65050   3
   3   6   2 4.20074 8.14434  -4
  -2   6   3 4.20074 8.14434   3
  -2   6   3 -1.3159 1.13870   1
  -3   6   2 6.78440 6.20646  -4
  -2   6   3 6.78440 6.20646   1
  -1   6   3 536.181 28.0460   1
  -1   6   3 358.869 15.4315   2
  -1   6   3 314.024 10.7257   4
   0   6   3 -0.1280 1.48098   3
   0   6   3 1.68702 1.10365   2
   0   6   3 -0.6987 1.05844   4
   0   6   3 -0.1907 1.23688   1
   1   6   3 238.576 11.4624   4
   1   6   3 397.875 22.2295   3
   1   6   3 260.644 9.70568   2
   1   6   3 431.584 25.0660   1
   2   6   3 -0.7986 1.46243   4
   2   6   3 3.23066 1.54233   3
   2   6   3 0.72619 1.15385   2
   3   6   2 2.69454 6.77889  -3
   2   6   3 2.69454 6.77889   2
   2   6   3 0.57411 2.30961   1
  -3   6   3 447.913 35.0463  -2
   3   6   3 447.913 35.0463   1
   3   6   3 290.474 10.6041   3
   3   6   3 351.155 28.9428  -3
   3   6   3 351.155 28.9428   2
   3   6   3 186.890 7.93788   2
   3   6   3 294.089 19.3369   1
   3   6   3 163.056 12.9665   4
   4   6   3 1.80750 1.26496   2
   4   6   3 3.75468 1.18683   3
   4   6   3 -1.7238 1.44354   4
   4   6   3 -1.1173 1.43851   1
   5   6   3 29.9952 2.30218   3
   5   6   3 38.4358 4.10234   1
   5   6   3 20.2297 3.49917   4
   5   6   3 27.0864 2.57117   2
   6   6   3 2.60436 1.52120   3
   6   6   3 -0.1881 1.26398   1
   6   6   3 0.73770 5.76995   4
   6   6   3 -0.7443 1.05874   2
   7   6   3 61.8569 6.75083   4
   7   6   3 84.1871 6.13722   3
   7   6   3 93.9488 5.47091   1
   7   6   3 63.7157 3.18056   2
   8   6   3 -1.3748 2.93561   3
   8   6   3 -0.0719 1.71210   2
   8   6   3 0.27926 2.86757   1
   8   6   3 -0.3314 2.14452   4
   9   6   3 20.4544 5.76325   4
   9   6   3 24.6919 5.64631   2
   2   6   9 103.846 16.5394  -4
  -9   6   3 103.846 16.5394  -3
  -4   6   9 103.846 16.5394  -2
   9   6   3 103.846 16.5394   1
   9   6   3 32.8137 5.82745   3
   9   6   3 17.9615 9.11371   1
  10   6   3 2.10916 2.50325   2
  10   6   3 2.10532 2.97730   3
  10   6   3 1.39669 2.49852   4
  11   6   3 19.3458 5.22167   4
  11   6   3 21.4176 6.13620   2
   2   6  11 4.94199 13.1488  -4
  11   6   3 4.94199 13.1488   1
  11   6   3 37.5779 11.1519   3
  12   6   3 1.83632 6.71989   1
  12   6   3 2.34261 3.43528   3
  12   6   3 -1.6650 2.37297   4
  13   6   3 33.5378 6.87340   3
  13   6   3 19.5362 5.99216   2
  13   6   3 33.1713 7.17503   1
  13   6   3 33.8631 7.10595   4
   2   6  13 49.5693 14.6871  -4
  13   6   3 49.5693 14.6871   1
  14   6   3 0.45621 4.49719   1
  14   6   3 4.87846 3.79638   2
  14   6   3 -1.8751 7.26190   3
  14   6   3 5.56791 3.22470   4
 -13   7   3 2.83394 2.57010   2
 -13   7   3 5.54592 2.38456   4
 -13   7   3 -3.3534 4.55088   1
  -4   7  12 61.5227 15.2343  -4
   2   7  12 61.5227 15.2343  -2
 -12   7   3 61.5227 15.2343   1
  -4   7  11 177.107 23.6059  -4
   2   7  11 177.107 23.6059  -2
 -11   7   3 177.107 23.6059   1
  -4   7  10 28.5155 12.7233  -4
   2   7  10 28.5155 12.7233  -2
 -10   7   3 28.5155 12.7233   1
  -4   7   9 131.022 18.0135  -4
   2   7   9 131.022 18.0135  -2
  -9   7   3 131.022 18.0135   1
  -9   7   3 1.80809 2.90536   2
   2   7   8 83.4607 13.4708  -4
  -8   7   3 83.4607 13.4708   3
  -8   7   3 62.2839 5.14827   1
  -8   7   3 33.9627 3.16498   4
  -8   7   3 57.1417 7.81658   3
  -8   7   3 38.3847 7.81203   2
  -4   7   8 15.5164 15.3774  -3
  -8   7   3 15.5164 15.3774   2
  -7   7   3 -0.7926 1.95574   1
  -7   7   3 0.67232 2.39833   2
  -7   7   3 -0.3637 1.51868   3
  -7   7   3 1.41626 1.15522   4
  -6   7   3 111.822 6.32723   2
  -6   7   3 148.806 7.48830   3
  -6   7   3 102.027 4.40506   4
  -6   7   3 174.619 6.79481   1
  -5   7   3 0.31562 1.18135   4
  -5   7   3 -2.4098 1.24370   1
  -5   7   3 2.04978 1.46976   2
  -5   7   3 -4.4412 3.97675   3
  -4   7   3 375.228 14.2867   3
  -4   7   3 232.774 11.7586   2
  -4   7   3 375.648 13.5613   1
  -4   7   3 222.286 9.08325   4
  -3   7   3 1.39309 1.36579   1
  -3   7   3 -0.3054 1.41456   3
  -3   7   3 0.11523 1.61253   2
  -3   7   3 0.59969 1.31108   4
   3   7   3 5.75612 9.07625  -4
  -3   7   3 5.75612 9.07625   3
   3   7   2 306.106 26.9111  -4
  -2   7   3 306.106 26.9111   3
  -3   7   2 223.861 17.9686  -3
  -2   7   3 223.861 17.9686   2
  -2   7   3 105.702 7.30554   2
  -2   7   3 147.143 12.9790   3
  -2   7   3 82.2000 4.81343   4
  -2   7   3 140.182 7.87900   1
  -1   7   3 -0.0023 1.84843   1
  -1   7   3 -0.2831 1.08755   4
  -1   7   3 -1.9180 2.56141   2
   0   7   3 57.6635 3.27712   2
   0   7   3 87.0202 4.98599   3
   0   7   3 49.1322 5.26337   4
   1   7   3 0.44816 1.27549   2
   1   7   3 2.04371 2.07139   4
   1   7   3 -1.9948 1.92920   3
   2   7   3 178.854 14.5142   1
  -3   7   2 289.729 16.1366  -2
   2   7   3 289.729 16.1366   1
   2   7   3 102.459 7.33154   4
   2   7   3 185.817 9.24999   3
   2   7   3 120.054 9.94536   2
   3   7   3 1.72694 1.71066   4
   3   7   3 1.33701 1.79475   1
   3   7   3 -0.2486 1.26606   2
   3   7   3 -1.9169 1.50663   3
   3   7   3 5.87898 8.37210  -3
   3   7   3 5.87898 8.37210   2
  -3   7   3 1.18560 10.2102  -2
   3   7   3 1.18560 10.2102   1
   4   7   3 419.067 13.5191   3
   4   7   3 267.626 10.4244   2
   4   7   3 408.089 20.7715   1
   4   7   3 245.562 12.4953   4
   5   7   3 0.52119 1.27245   2
   5   7   3 1.23439 1.35499   4
   5   7   3 2.72603 7.04552   1
   5   7   3 -2.3456 1.13300   3
   6   7   3 101.923 4.67676   2
   6   7   3 156.059 6.25123   3
   6   7   3 154.789 7.89941   1
   6   7   3 92.1939 5.87980   4
   7   7   3 -0.3559 1.19044   2
   7   7   3 1.31134 1.38644   3
   7   7   3 3.59400 2.25158   4
   7   7   3 3.40326 1.82626   1
   8   7   3 63.7165 5.87061   2
   8   7   3 45.8344 7.46026   4
   8   7   3 85.8483 8.27305   3
   8   7   3 83.7609 7.55287   1
   9   7   3 1.25000 4.33060   3
   9   7   3 -3.2871 2.32106   4
   9   7   3 -0.6836 3.49392   2
   2   7   9 152.744 21.0991  -4
  -9   7   3 152.744 21.0991  -3
  -4   7   9 152.744 21.0991  -2
   9   7   3 152.744 21.0991   1
  10   7   3 30.9253 7.33332   4
   2   7  10 68.0697 17.1708  -4
 -10   7   3 68.0697 17.1708  -3
  -4   7  10 68.0697 17.1708  -2
  10   7   3 68.0697 17.1708   1
  10   7   3 33.1595 9.46620   3
  10   7   3 19.5570 6.77764   2
  11   7   3 0.60561 6.49415   3
  11   7   3 11.9657 5.89794   2
  11   7   3 1.68141 2.30485   4
  12   7   3 35.1964 8.85669   2
  12   7   3 42.8285 11.3569   3
  12   7   3 29.0046 4.35441   4
 -11   8   3 137.021 9.12479   4
 -11   8   3 133.103 11.0744   2
  -4   8  10 50.3588 9.02587  -4
   2   8  10 50.3588 9.02587  -2
 -10   8   3 50.3588 9.02587   1
  -4   8   9 281.508 25.9143  -4
   2   8   9 281.508 25.9143  -2
  -9   8   3 281.508 25.9143   1
  -4   8   9 377.372 31.3501  -4
   9   8   3 377.372 31.3501  -3
   2   8   9 377.372 31.3501  -2
  -9   8   3 377.372 31.3501   1
   2   8   8 8.80787 6.49789  -4
  -8   8   3 8.80787 6.49789   3
  -4   8   8 -9.1141 14.3498  -3
  -8   8   3 -9.1141 14.3498   2
  -8   8   3 0.12985 2.59161   1
  -8   8   3 -0.3718 2.50257   2
   2   8   8 1.94052 8.41770  -2
  -8   8   3 1.94052 8.41770   1
  -7   8   3 73.5224 6.72689   3
  -7   8   3 80.6241 8.30446   1
  -7   8   3 49.2463 3.47788   4
  -7   8   3 57.2164 5.56964   2
  -6   8   3 0.43004 1.81579   2
  -6   8   3 0.94977 1.80507   4
  -6   8   3 -0.8138 1.46424   1
  -6   8   3 3.18552 2.47296   3
  -5   8   3 8.78690 2.15054   4
  -5   8   3 5.79000 2.44812   3
  -5   8   3 12.3397 2.67036   1
  -5   8   3 6.81680 2.75486   2
  -4   8   3 0.22509 2.08012   3
  -4   8   3 1.71926 1.93232   1
  -4   8   3 3.57841 5.79164   2
  -4   8   3 0.56299 1.59048   4
  -3   8   3 -3.6285 1.56660   2
  -3   8   3 -0.9098 7.24581  -3
  -3   8   3 -0.9098 7.24581   2
   3   8   3 -8.7255 9.84055  -4
  -3   8   3 -8.7255 9.84055   3
  -3   8   3 2.37636 1.64977   4
  -3   8   3 3.53563 1.52972   1
  -3   8   3 5.34261 3.78196   3
  -3   8   3 4.18077 8.46917  -4
  -3   8   3 4.18077 8.46917   1
  -2   8   3 -0.6361 1.46366   4
  -3   8   2 -2.0546 5.41535  -4
  -2   8   3 -2.0546 5.41535   1
  -2   8   3 -3.4938 2.32085   2
  -3   8   2 9.48832 6.76739  -3
  -2   8   3 9.48832 6.76739   2
  -1   8   3 33.3289 7.50291   4
  -1   8   3 39.2725 4.74665   1
   0   8   3 -1.3789 2.45940   4
   0   8   3 5.16160 3.56526   2
   1   8   3 19.5080 3.56650   2
   1   8   3 19.9792 4.10973   4
   1   8   3 42.7243 4.84328   3
   2   8   3 0.87862 1.99426   2
   2   8   3 2.63965 2.03549   4
   3   8   3 2.48046 1.59451   2
   3   8   3 2.02485 1.79493   3
   3   8   3 -1.4570 1.86337   1
   3   8   3 2.07316 2.26140   4
   3   8   3 1.87024 8.48143  -3
   3   8   3 1.87024 8.48143   2
  -3   8   3 11.6876 11.3475  -2
   3   8   3 11.6876 11.3475   1
   4   8   3 0.94153 1.87871   1
   4   8   3 0.13576 1.95554   2
   4   8   3 1.06031 1.92045   3
   4   8   3 1.36306 1.80155   4
   5   8   3 -0.3212 1.61333   3
   5   8   3 3.29620 1.58466   2
   5   8   3 -1.1878 1.87408   1
   5   8   3 -1.2018 1.89613   4
   6   8   3 -0.0436 1.76533   3
   6   8   3 -0.2951 2.20319   2
   6   8   3 -0.5247 1.89560   1
   6   8   3 0.85886 2.09844   4
   7   8   3 61.3719 5.71286   3
   7   8   3 64.3601 5.27215   1
   7   8   3 40.9789 5.28093   4
   7   8   3 41.7401 3.34248   2
   2   8   8 19.6389 14.2152  -4
   8   8   3 19.6389 14.2152   1
   8   8   3 -2.2732 2.01416   4
   8   8   3 5.20227 3.09013   3
   8   8   3 2.22587 3.54919   2
   8   8   3 2.05546 4.19548   1
   9   8   3 87.7686 6.77112   4
   9   8   3 100.710 7.89835   2
   2   8   9 387.501 33.1017  -4
  -9   8   3 387.501 33.1017  -3
  -4   8   9 387.501 33.1017  -2
   9   8   3 387.501 33.1017   1
   9   8   3 150.153 17.1909   3
  10   8   3 0.71532 2.22816   4
  10   8   3 -0.3814 5.38382   3
   2   8  10 -8.8582 15.1365  -4
 -10   8   3 -8.8582 15.1365  -3
  -4   8  10 -8.8582 15.1365  -2
  10   8   3 -8.8582 15.1365   1
  -8   9   3 48.8263 6.02847   3
  -8   9   3 26.7680 6.45946   2
  -8   9   3 17.1695 3.55377   4
  -8   9   3 31.1564 9.50101   1
  -4   9   8 19.1183 19.6659  -3
  -8   9   3 19.1183 19.6659   2
  -7   9   3 4.47497 2.08372   3
  -7   9   3 1.29566 1.93585   4
  -7   9   3 -0.9002 2.29789   2
  -7   9   3 -0.1094 4.73865   1
  -6   9   3 165.425 8.33018   3
  -6   9   3 89.3026 4.98794   4
  -6   9   3 156.437 7.76152   1
  -6   9   3 107.782 7.83896   2
  -5   9   3 1.01107 1.78256   4
  -5   9   3 -1.0942 2.18915   2
  -5   9   3 -2.2972 2.08628   3
  -5   9   3 1.53019 2.21981   1
  -4   9   3 97.7128 8.06180   1
   3   9   3 110.694 16.2460  -3
  -4   9   3 110.694 16.2460   1
  -4   9   3 56.1915 4.72201   4
  -4   9   3 109.265 9.03736   3
  -4   9   3 64.9021 6.83637   2
  -3   9   3 -1.4802 2.09034   2
  -3   9   3 -3.1810 3.31817   1
  -3   9   3 0.69510 1.92567   4
  -3   9   3 -7.9403 9.92867  -3
  -3   9   3 -7.9403 9.92867   2
   3   9   3 19.8179 13.7921  -4
  -3   9   3 19.8179 13.7921   3
  -3   9   3 6.35258 10.8582  -4
  -3   9   3 6.35258 10.8582   1
  -2   9   3 75.3743 5.03156   4
  -2   9   3 87.8029 10.5306   2
  -2   9   3 126.768 11.4723   1
  -3   9   2 205.700 18.6504  -3
  -2   9   3 205.700 18.6504   2
  -1   9   3 -1.6034 4.06639   2
  -1   9   3 -2.2371 3.61916   4
   3   9   0 58.8553 12.5894  -4
   0   9   3 58.8553 12.5894  -3
   3   9   0 58.8553 12.5894  -2
   0   9   3 58.8553 12.5894   1
   0   9   3 20.6442 6.74727   2
   0   9   3 7.82168 5.24700   4
   1   9   3 1.25191 3.00931   2
   1   9   3 3.80397 3.25378   4
   1   9   3 5.69561 3.09068   3
   2   9   3 119.052 10.4918   3
   2   9   3 125.462 13.1840   1
   2   9   3 69.3847 5.53500   2
   2   9   3 66.3230 6.44652   4
   3   9   3 3.40077 2.34147   2
   3   9   3 -0.3787 2.08350   4
   3   9   3 2.48287 3.32337   3
   3   9   3 -1.7691 2.38703   1
  -3   9   3 -7.7285 12.4089  -2
   3   9   3 -7.7285 12.4089   1
   3   9   3 1.68891 10.5312  -3
   3   9   3 1.68891 10.5312   2
   4   9   3 123.461 7.73118   3
   4   9   3 83.3809 5.71684   2
   4   9   3 123.923 7.91888   1
   4   9   3 70.9440 7.22980   4
   5   9   3 1.97162 2.19143   4
   5   9   3 2.58789 1.93056   2
   5   9   3 0.10765 2.21866   1
   5   9   3 -0.0469 2.31993   3
   6   9   3 139.715 8.18603   3
   6   9   3 134.340 7.19609   1
   6   9   3 73.0019 6.74795   4
   6   9   3 90.3203 4.97433   2
   7   9   3 2.15228 2.48143   3
   7   9   3 -2.4082 2.06160   4
   7   9   3 -2.4395 1.81384   2
   7   9   3 -3.3835 2.64390   1
  -2  10   3 -2.0523 2.63809   2
  -2  10   3 -2.8358 2.41350   4
  -3  10   2 12.2976 7.89007  -4
  -2  10   3 12.2976 7.89007   1
  -1  10   3 162.317 14.1859   1
  -1  10   3 115.944 17.7687   2
  -1  10   3 109.889 8.56967   4
   3  10   0 -13.473 12.4445  -4
   0  10   3 -13.473 12.4445  -3
   3  10   0 -13.473 12.4445  -2
   0  10   3 -13.473 12.4445   1
   0  10   3 0.99873 4.34586   2
   1  10   3 149.176 15.7025   2
   1  10   3 136.483 9.61614   4
  17   0   4 272.437 24.1287  -3
 -18   0   4 272.437 24.1287   1
  16   0   4 2.68406 7.64773  -3
 -17   0   4 2.68406 7.64773   1
  16   0   4 -5.5628 9.49367  -4
 -17   0   4 -5.5628 9.49367   2
  15   0   4 -4.2945 7.77032  -3
 -16   0   4 -4.2945 7.77032   1
  15   0   4 -11.929 9.10104  -4
 -16   0   4 -11.929 9.10104   2
  14   0   4 3.86892 9.12390  -4
 -15   0   4 3.86892 9.12390   2
  14   0   4 24.4940 9.64103  -3
 -15   0   4 24.4940 9.64103   1
  13   0   4 4.75747 8.05050  -4
 -14   0   4 4.75747 8.05050   2
  13   0   4 13.1084 8.60475  -3
 -14   0   4 13.1084 8.60475   1
  11   0   4 168.008 17.1308  -3
 -12   0   4 168.008 17.1308   1
  10   0   4 364.880 25.9608  -3
 -11   0   4 364.880 25.9608   1
   9   0   4 169.118 10.6313  -3
 -10   0   4 169.118 10.6313   1
   8   0   4 40.5173 4.08419  -3
  -9   0   4 40.5173 4.08419   1
  -9   0   4 0.26589 2.71511   2
  -9   0   4 1.69886 1.84537   4
   7   0   4 34.4314 6.05569  -4
  -8   0   4 34.4314 6.05569   2
   7   0   4 58.1629 4.40354  -3
  -8   0   4 58.1629 4.40354   1
  -8   0   4 36.5598 4.91942   4
   6   0   4 527.183 21.8725  -3
  -7   0   4 527.183 21.8725   1
  -7   0   4 5.10597 2.16881   4
   6   0   4 294.310 20.5040  -4
  -7   0   4 294.310 20.5040   2
  -6   0   4 209.242 8.78807   4
   5   0   4 231.420 16.6422  -4
  -6   0   4 231.420 16.6422   2
   5   0   4 328.783 14.6116  -3
  -6   0   4 328.783 14.6116   1
  -5   0   4 2.40426 1.28313   4
  -5   0   4 3.68832 1.52156   1
   4   0   4 145.209 10.5110  -3
  -5   0   4 145.209 10.5110   1
   4   0   4 87.0365 8.46919  -4
  -5   0   4 87.0365 8.46919   2
  -4   0   4 0.45539 0.78783   4
  -4   0   4 -0.0771 0.76656   1
  -4   0   4 0.70429 0.98019   3
  -4   0   4 12.2509 3.22810   2
  -3   0   4 1.17005 0.61148   4
  -3   0   4 -0.0467 0.68603   3
  -3   0   4 1.98633 0.80838   1
  -2   0   4 654.105 20.4415   2
  -2   0   4 1024.19 22.7314   1
  -2   0   4 564.134 17.6478   4
  -2   0   4 996.543 24.7316   3
  -1   0   4 22.8629 2.03646   2
  -1   0   4 44.7192 2.35926   1
  -1   0   4 7.12316 1.19754   4
  -1   0   4 35.3501 2.06652   3
   0   0   4 5626.50 159.795   4
   0   0   4 6755.26 163.127   2
   0   0   4 9999.99 273.104   1
   0   0   4 9326.44 246.593   3
   1   0   4 1.93532 0.62631   1
   1   0   4 1.88704 0.59664   3
   1   0   4 0.25070 0.66441   4
   1   0   4 1.33000 0.68804   2
   2   0   4 737.464 18.3869   3
   2   0   4 534.890 14.6174   2
   2   0   4 479.768 20.5794   4
   2   0   4 824.862 31.7585   1
   3   0   4 0.73785 0.69518   2
   3   0   4 0.75792 0.81186   1
   3   0   4 0.60681 0.70017   3
   3   0   4 -0.4870 1.32779   4
   4   0   4 147.426 7.75906   3
   4   0   4 95.0119 5.71449   2
  -5   0   4 16.9450 3.22573  -4
   4   0   4 16.9450 3.22573   2
  -5   0   4 151.579 11.6882  -3
   4   0   4 151.579 11.6882   1
  -6   0   4 213.253 14.8836  -4
   5   0   4 213.253 14.8836   2
   5   0   4 2.22844 1.38301   2
  -7   0   4 334.948 11.3621  -4
   6   0   4 334.948 11.3621   2
  -7   0   4 513.356 31.4481  -3
   6   0   4 513.356 31.4481   1
   6   0   4 323.297 20.1941   2
  -8   0   4 71.5799 6.35108  -3
   7   0   4 71.5799 6.35108   1
  -8   0   4 35.2421 3.11352  -4
   7   0   4 35.2421 3.11352   2
  -9   0   4 15.4236 2.56551  -4
   8   0   4 15.4236 2.56551   2
   8   0   4 14.5180 5.16786   4
  -9   0   4 48.5644 8.43909  -3
   8   0   4 48.5644 8.43909   1
   8   0   4 26.3120 4.55063   2
 -10   0   4 106.868 6.08151  -4
   9   0   4 106.868 6.08151   2
   9   0   4 1.67272 2.64782   4
 -11   0   4 243.250 19.1069  -4
  10   0   4 243.250 19.1069   2
 -11   0   4 425.781 28.9989  -3
  10   0   4 425.781 28.9989   1
  10   0   4 160.714 15.3528   4
 -12   0   4 113.755 7.92879  -4
  11   0   4 113.755 7.92879   2
 -14   0   4 8.13694 4.73754  -4
  13   0   4 8.13694 4.73754   2
 -15   0   4 14.1825 7.98504  -4
  14   0   4 14.1825 7.98504   2
 -16   0   4 4.05501 5.82795  -4
  15   0   4 4.05501 5.82795   2
 -16   0   4 0.20473 7.35844  -3
  15   0   4 0.20473 7.35844   1
 -17   0   4 -8.7642 9.41041  -4
  16   0   4 -8.7642 9.41041   2
 -17   0   4 -13.243 13.1194  -3
  16   0   4 -13.243 13.1194   1
  17   0   4 26.7102 8.07712   2
 -18   0   4 344.803 34.0984  -3
  17   0   4 344.803 34.0984   1
  17   0   4 21.6856 8.42906   3
  17   0   4 2.21819 7.78498   4
  16   1   4 34.8085 12.9888  -4
 -17   1   4 34.8085 12.9888   2
  16   1   4 58.4202 8.46308  -3
 -17   1   4 58.4202 8.46308   1
 -16   1   4 0.90236 4.89921   2
  15   1   4 89.1474 14.9069  -4
 -16   1   4 89.1474 14.9069   2
  15   1   4 165.972 11.2919  -3
 -16   1   4 165.972 11.2919   1
  14   1   4 72.3212 13.2099  -4
 -15   1   4 72.3212 13.2099   2
  14   1   4 182.484 9.24702  -3
 -15   1   4 182.484 9.24702   1
 -15   1   4 82.1536 12.8244   2
  13   1   4 295.345 13.0008  -3
 -14   1   4 295.345 13.0008   1
  -5   1  14 100.500 15.1080  -3
 -14   1   4 100.500 15.1080   2
  13   1   4 155.220 18.0133  -4
 -14   1   4 155.220 18.0133   2
  12   1   4 526.339 36.3220  -3
 -13   1   4 526.339 36.3220   1
  11   1   4 195.001 12.7082  -3
 -12   1   4 195.001 12.7082   1
  11   1   4 76.2233 11.6340  -4
 -12   1   4 76.2233 11.6340   2
  10   1   4 118.457 9.52774  -3
 -11   1   4 118.457 9.52774   1
   9   1   4 84.0758 5.14657  -3
 -10   1   4 84.0758 5.14657   1
   8   1   4 85.8787 7.33011  -4
  -9   1   4 85.8787 7.33011   2
   8   1   4 137.555 5.56264  -3
  -9   1   4 137.555 5.56264   1
  -9   1   4 75.4272 7.64106   4
  -8   1   4 0.85550 1.55468   4
   7   1   4 263.164 13.8308  -4
  -8   1   4 263.164 13.8308   2
   7   1   4 501.830 13.1349  -3
  -8   1   4 501.830 13.1349   1
   6   1   4 100.024 7.48600  -4
  -7   1   4 100.024 7.48600   2
   6   1   4 137.372 4.71027  -3
  -7   1   4 137.372 4.71027   1
  -7   1   4 48.3966 5.76412   4
  -6   1   4 1.22303 0.64365   4
   5   1   4 954.461 25.8616  -3
  -6   1   4 954.461 25.8616   1
  -6   1   4 3.51609 1.93026   2
   5   1   4 527.487 22.6532  -4
  -6   1   4 527.487 22.6532   2
  -5   1   4 605.638 34.3924   3
  -5   1   4 602.000 19.2820   1
  -5   1   4 325.702 9.72914   4
  -5   1   4 392.134 15.9777   2
   4   1   4 395.752 25.3082  -3
  -5   1   4 395.752 25.3082   1
  -4   1   4 1.13742 0.87570   3
  -4   1   4 0.30843 0.40394   4
  -4   1   4 1.39610 0.60245   1
  -4   1   4 0.74107 0.74693   2
   3   1   4 271.645 15.3401  -3
  -4   1   4 271.645 15.3401   1
  -3   1   4 103.384 2.87212   1
  -3   1   4 59.0361 2.43186   4
  -3   1   4 105.490 3.14190   3
  -3   1   4 73.7651 3.45207   2
   2   1   4 114.098 7.37766  -3
  -3   1   4 114.098 7.37766   1
  -2   1   4 0.72738 0.40385   1
  -2   1   4 0.76290 0.38805   3
  -2   1   4 -0.0460 0.64468   4
  -2   1   4 0.21646 0.49965   2
   1   1   4 169.471 10.5759  -3
  -2   1   4 169.471 10.5759   1
  -1   1   4 421.304 9.01437   2
  -1   1   4 608.808 11.0418   3
  -1   1   4 649.357 10.8059   1
  -1   1   4 365.230 7.32007   4
   0   1   4 610.568 33.4653  -3
  -1   1   4 610.568 33.4653   1
   0   1   4 2.91524 0.47730   2
   0   1   4 2.75955 0.47724   1
   0   1   4 1.21927 0.44163   4
   0   1   4 2.13128 0.35734   3
  -1   1   4 668.812 36.8129  -3
   0   1   4 668.812 36.8129   1
   1   1   4 156.787 3.87818   1
   1   1   4 101.581 3.44710   4
   1   1   4 155.138 3.87225   3
   1   1   4 111.615 3.11951   2
  -2   1   4 202.067 13.5280  -3
   1   1   4 202.067 13.5280   1
   2   1   4 -0.2003 0.57144   2
   2   1   4 0.66995 0.68119   4
   2   1   4 0.07441 0.44409   3
  -3   1   4 96.1686 8.30770  -3
   2   1   4 96.1686 8.30770   1
   2   1   4 0.79792 0.53055   1
   3   1   4 178.968 4.21794   2
   3   1   4 253.268 6.45036   3
   3   1   4 151.902 5.63421   4
  -4   1   4 280.947 11.7989  -3
   3   1   4 280.947 11.7989   1
   3   1   4 281.517 8.73866   1
   4   1   4 1.16097 0.57885   2
   4   1   4 0.87376 1.45477   4
   4   1   4 1.76976 1.37254   1
   4   1   4 -0.8563 0.63257   3
   5   1   4 551.828 28.7598   4
   5   1   4 572.183 16.1583   2
  -6   1   4 1022.12 57.9586  -3
   5   1   4 1022.12 57.9586   1
   5   1   4 844.591 44.5379   3
   6   1   4 0.74349 1.00746   2
  -7   1   4 173.917 9.91814  -3
   6   1   4 173.917 9.91814   1
  -7   1   4 86.4857 3.31991  -4
   6   1   4 86.4857 3.31991   2
  -8   1   4 326.976 9.28724  -4
   7   1   4 326.976 9.28724   2
  -8   1   4 528.512 18.6828  -3
   7   1   4 528.512 18.6828   1
   7   1   4 313.653 13.9276   2
  -9   1   4 155.982 7.07979  -3
   8   1   4 155.982 7.07979   1
  -9   1   4 102.266 4.17181  -4
   8   1   4 102.266 4.17181   2
   8   1   4 2.06805 2.16198   2
 -10   1   4 96.1332 10.8086  -3
   9   1   4 96.1332 10.8086   1
 -10   1   4 55.3432 4.82773  -4
   9   1   4 55.3432 4.82773   2
   9   1   4 42.8470 6.96528   4
 -11   1   4 77.8280 4.97806  -4
  10   1   4 77.8280 4.97806   2
 -11   1   4 138.615 10.2427  -3
  10   1   4 138.615 10.2427   1
 -12   1   4 141.309 10.4178  -4
  11   1   4 141.309 10.4178   2
 -13   1   4 358.837 19.8751  -4
  12   1   4 358.837 19.8751   2
  13   1   4 140.325 16.0373   4
 -14   1   4 196.000 9.34818  -4
  13   1   4 196.000 9.34818   2
  14   1   4 4.74311 4.16902   4
 -15   1   4 125.827 7.17334  -4
  14   1   4 125.827 7.17334   2
  14   1   4 -4.7098 5.91773   3
 -16   1   4 123.534 10.7630  -4
  15   1   4 123.534 10.7630   2
 -16   1   4 165.866 11.8813  -3
  15   1   4 165.866 11.8813   1
 -17   1   4 36.5626 7.62719  -4
  16   1   4 36.5626 7.62719   2
 -17   1   4 65.8443 11.7749  -3
  16   1   4 65.8443 11.7749   1
  17   1   4 107.815 9.21480   3
  17   1   4 37.3714 8.09309   4
  17   1   4 31.7490 7.00189   2
  17   1   4 123.648 8.97617   1
  16   2   4 16.0779 8.61875  -4
 -17   2   4 16.0779 8.61875   2
  16   2   4 51.4205 8.42437  -3
 -17   2   4 51.4205 8.42437   1
  15   2   4 15.6599 6.93584  -3
 -16   2   4 15.6599 6.93584   1
  15   2   4 8.90556 7.10116  -4
 -16   2   4 8.90556 7.10116   2
  14   2   4 19.6054 6.22239  -3
 -15   2   4 19.6054 6.22239   1
  14   2   4 5.99559 6.21144  -4
 -15   2   4 5.99559 6.21144   2
  13   2   4 1.17260 4.95105  -3
 -14   2   4 1.17260 4.95105   1
  13   2   4 7.63344 5.48714  -4
 -14   2   4 7.63344 5.48714   2
  12   2   4 54.5996 7.21591  -3
 -13   2   4 54.5996 7.21591   1
  -5   2  12 358.058 29.6812  -4
  11   2   4 358.058 29.6812  -3
   3   2  12 358.058 29.6812  -2
 -12   2   4 358.058 29.6812   1
  11   2   4 265.860 21.4374  -3
 -12   2   4 265.860 21.4374   1
  11   2   4 166.567 18.1984  -4
 -12   2   4 166.567 18.1984   2
  10   2   4 361.002 18.1018  -3
 -11   2   4 361.002 18.1018   1
  -5   2  11 456.771 33.6551  -4
  10   2   4 456.771 33.6551  -3
   3   2  11 456.771 33.6551  -2
 -11   2   4 456.771 33.6551   1
   9   2   4 436.851 20.6829  -3
 -10   2   4 436.851 20.6829   1
 -10   2   4 182.812 14.4338   4
   8   2   4 170.714 8.85586  -3
  -9   2   4 170.714 8.85586   1
   8   2   4 86.2398 7.56949  -4
  -9   2   4 86.2398 7.56949   2
  -9   2   4 -2.4336 1.60710   4
  -8   2   4 358.266 15.2539   4
   7   2   4 408.497 19.8773  -4
  -8   2   4 408.497 19.8773   2
   7   2   4 669.457 23.0433  -3
  -8   2   4 669.457 23.0433   1
   6   2   4 546.431 19.0386  -3
  -7   2   4 546.431 19.0386   1
   6   2   4 328.271 14.7004  -4
  -7   2   4 328.271 14.7004   2
  -7   2   4 -1.9896 1.53918   4
  -7   2   4 1.02115 1.62044   2
  -6   2   4 793.883 35.4022   1
  -6   2   4 414.516 13.5551   4
   5   2   4 783.475 25.4782  -3
  -6   2   4 783.475 25.4782   1
   5   2   4 434.675 29.4340  -4
  -6   2   4 434.675 29.4340   2
  -6   2   4 464.098 29.0149   2
  -5   2   4 0.00213 0.76135   2
   4   2   4 0.11941 3.81524  -4
  -5   2   4 0.11941 3.81524   2
  -5   2   4 -0.1811 0.37755   4
  -5   2   4 0.78494 0.83621   1
  -5   2   4 1.65277 1.27324   3
  -4   2   4 1.82185 1.29766   4
  -4   2   4 0.74825 0.69019   3
  -4   2   4 0.97319 1.00805   2
   3   2   4 1.31584 4.24870  -3
  -4   2   4 1.31584 4.24870   1
  -4   2   4 0.91843 0.56807   1
  -3   2   4 0.35248 0.81936   4
  -3   2   4 1.24189 0.71444   2
  -3   2   4 0.84343 0.47322   1
   2   2   4 447.708 25.1565  -3
  -3   2   4 447.708 25.1565   1
  -3   2   4 1.69802 0.87511   3
  -2   2   4 420.160 10.9590   2
  -2   2   4 682.608 13.8060   1
  -2   2   4 640.531 13.2315   3
  -2   2   4 389.288 10.0527   4
   1   2   4 709.051 38.9680  -3
  -2   2   4 709.051 38.9680   1
   1   2   4 426.955 21.1196  -4
  -2   2   4 426.955 21.1196   2
  -1   2   4 0.95895 0.36878   4
  -1   2   4 1.74902 0.50612   2
  -1   2   4 0.89191 0.45115   3
  -1   2   4 2.53936 0.67087   1
   0   2   4 289.286 12.4774  -3
  -1   2   4 289.286 12.4774   1
   0   2   4 161.670 9.41877  -4
  -1   2   4 161.670 9.41877   2
   0   2   4 178.328 4.44055   2
   0   2   4 279.297 5.67171   1
   0   2   4 264.254 5.92116   3
   0   2   4 156.534 3.98719   4
  -1   2   4 300.010 19.1944  -3
   0   2   4 300.010 19.1944   1
  -1   2   4 171.734 9.86050  -4
   0   2   4 171.734 9.86050   2
   1   2   4 2.78569 0.66830   1
   1   2   4 0.41438 0.47389   3
  -2   2   4 669.776 22.1352  -3
   1   2   4 669.776 22.1352   1
   1   2   4 2.36946 0.76173   4
   1   2   4 1.24386 0.69736   2
  -2   2   4 437.202 20.4413  -4
   1   2   4 437.202 20.4413   2
  -3   2   4 283.852 10.6722  -4
   2   2   4 283.852 10.6722   2
   2   2   4 277.188 8.14468   2
   2   2   4 376.742 7.73019   3
   2   2   4 422.018 11.6876   1
   2   2   4 234.680 7.37910   4
  -3   2   4 437.542 27.4401  -3
   2   2   4 437.542 27.4401   1
   3   2   4 0.82510 0.38298   3
   3   2   4 -0.9177 0.78685   4
   3   2   4 0.53140 0.78793   1
  -4   2   4 1.37735 1.09330  -4
   3   2   4 1.37735 1.09330   2
   3   2   4 0.25047 1.12833   2
   4   2   4 0.51607 0.43042   2
   4   2   4 -1.1641 1.03140   4
   4   2   4 -0.0720 0.73118   1
  -5   2   4 0.52416 4.11761  -3
   4   2   4 0.52416 4.11761   1
   4   2   4 -0.4766 0.64464   3
  -6   2   4 428.746 14.4243  -4
   5   2   4 428.746 14.4243   2
   5   2   4 1.44326 1.64374   4
   5   2   4 0.46512 0.87552   2
  -6   2   4 752.785 29.4809  -3
   5   2   4 752.785 29.4809   1
  -7   2   4 357.806 11.1410  -4
   6   2   4 357.806 11.1410   2
  -7   2   4 585.519 19.8347  -3
   6   2   4 585.519 19.8347   1
   6   2   4 281.324 19.6350   4
   6   2   4 326.541 18.7889   2
   7   2   4 3.14374 1.57912   2
  -8   2   4 400.093 13.7624  -4
   7   2   4 400.093 13.7624   2
  -8   2   4 660.192 22.3085  -3
   7   2   4 660.192 22.3085   1
   8   2   4 92.9296 5.94709   2
  -9   2   4 163.744 8.79452  -3
   8   2   4 163.744 8.79452   1
  -9   2   4 102.144 5.85468  -4
   8   2   4 102.144 5.85468   2
   9   2   4 -0.2996 3.39118   2
 -10   2   4 451.718 27.5943  -3
   9   2   4 451.718 27.5943   1
 -10   2   4 270.555 10.7541  -4
   9   2   4 270.555 10.7541   2
 -11   2   4 394.901 25.9401  -3
  10   2   4 394.901 25.9401   1
 -11   2   4 203.125 11.8994  -4
  10   2   4 203.125 11.8994   2
 -13   2   4 33.6664 4.86448  -4
  12   2   4 33.6664 4.86448   2
 -14   2   4 -2.7067 3.36429  -4
  13   2   4 -2.7067 3.36429   2
 -15   2   4 8.13319 3.20588  -4
  14   2   4 8.13319 3.20588   2
 -16   2   4 14.5600 3.78420  -4
  15   2   4 14.5600 3.78420   2
 -16   2   4 7.60159 6.62372  -3
  15   2   4 7.60159 6.62372   1
  15   2   4 -2.5780 5.62803   2
 -17   2   4 71.2592 12.6512  -3
  16   2   4 71.2592 12.6512   1
 -17   2   4 36.0243 9.01373  -4
  16   2   4 36.0243 9.01373   2
  16   3   4 110.471 17.3736  -3
 -17   3   4 110.471 17.3736   1
  15   3   4 61.4017 10.0546  -3
 -16   3   4 61.4017 10.0546   1
  15   3   4 25.1611 8.30850  -4
 -16   3   4 25.1611 8.30850   2
  14   3   4 15.4912 7.46269  -4
 -15   3   4 15.4912 7.46269   2
  14   3   4 58.6352 7.66209  -3
 -15   3   4 58.6352 7.66209   1
  13   3   4 64.4201 8.45723  -3
 -14   3   4 64.4201 8.45723   1
  13   3   4 50.3534 9.04019  -4
 -14   3   4 50.3534 9.04019   2
  12   3   4 134.656 11.2867  -3
 -13   3   4 134.656 11.2867   1
  -5   3  12 522.729 39.8379  -4
  11   3   4 522.729 39.8379  -3
   3   3  12 522.729 39.8379  -2
 -12   3   4 522.729 39.8379   1
  11   3   4 255.708 15.2127  -3
 -12   3   4 255.708 15.2127   1
  10   3   4 249.641 14.9116  -3
 -11   3   4 249.641 14.9116   1
  -5   3  11 321.301 28.9400  -4
  10   3   4 321.301 28.9400  -3
   3   3  11 321.301 28.9400  -2
 -11   3   4 321.301 28.9400   1
   9   3   4 70.3414 6.93447  -3
 -10   3   4 70.3414 6.93447   1
   8   3   4 53.5084 6.80331  -4
  -9   3   4 53.5084 6.80331   2
   8   3   4 93.8468 8.02342  -3
  -9   3   4 93.8468 8.02342   1
   7   3   4 304.808 12.1338  -4
  -8   3   4 304.808 12.1338   2
   7   3   4 554.005 15.9236  -3
  -8   3   4 554.005 15.9236   1
  -8   3   4 -2.2921 1.94810   4
   6   3   4 392.290 15.4238  -3
  -7   3   4 392.290 15.4238   1
   6   3   4 242.964 20.9791  -4
  -7   3   4 242.964 20.9791   2
  -7   3   4 201.252 12.6394   4
  -7   3   4 249.321 19.2633   2
   5   3   4 1093.92 27.8753  -3
  -6   3   4 1093.92 27.8753   1
   5   3   4 634.558 20.8066  -4
  -6   3   4 634.558 20.8066   2
  -6   3   4 2.14034 1.65739   3
  -6   3   4 2.99203 2.27003   4
   4   3   4 373.948 12.3808  -4
  -5   3   4 373.948 12.3808   2
  -5   3   4 569.895 33.6127   3
  -5   3   4 336.363 11.2278   4
   4   3   4 614.435 19.1892  -3
  -5   3   4 614.435 19.1892   1
  -5   3   4 389.698 25.2472   2
  -4   3   4 2.42570 0.97211   3
   3   3   4 395.905 12.5491  -4
  -4   3   4 395.905 12.5491   2
   3   3   4 681.332 18.6153  -3
  -4   3   4 681.332 18.6153   1
  -4   3   4 2.32812 1.30477   4
  -4   3   4 1.29898 1.07887   2
  -3   3   4 416.512 12.1929   4
   2   3   4 439.787 15.0288  -4
  -3   3   4 439.787 15.0288   2
  -3   3   4 706.261 19.9272   1
  -3   3   4 474.600 28.2864   2
   2   3   4 725.441 19.4710  -3
  -3   3   4 725.441 19.4710   1
  -3   3   4 638.025 21.8535   3
   1   3   4 1681.33 42.9122  -3
  -2   3   4 1681.33 42.9122   1
  -2   3   4 3.22996 0.83004   4
   1   3   4 1114.10 40.0918  -4
  -2   3   4 1114.10 40.0918   2
  -2   3   4 6.99622 1.30013   3
  -2   3   4 4.63185 1.46850   2
  -1   3   4 1742.83 36.4647   1
   0   3   4 1721.53 51.0993  -3
  -1   3   4 1721.53 51.0993   1
  -1   3   4 1607.34 52.3350   3
  -1   3   4 1127.91 29.4470   2
  -1   3   4 1054.09 24.7124   4
   0   3   4 1086.72 35.9627  -4
  -1   3   4 1086.72 35.9627   2
  -1   3   4 1025.58 33.8569  -4
   0   3   4 1025.58 33.8569   2
   0   3   4 4.22493 1.08480   4
   0   3   4 6.18005 0.91494   2
   0   3   4 12.7043 1.76169   1
  -1   3   4 1707.46 44.2110  -3
   0   3   4 1707.46 44.2110   1
   0   3   4 8.14315 1.43505   3
   1   3   4 1676.59 39.3125   3
   1   3   4 1129.00 26.4215   2
   1   3   4 1089.27 42.8611   4
  -2   3   4 1874.84 66.5381  -3
   1   3   4 1874.84 66.5381   1
   1   3   4 1726.06 55.8892   1
  -2   3   4 1104.21 53.6604  -4
   1   3   4 1104.21 53.6604   2
  -3   3   4 406.318 12.3503  -4
   2   3   4 406.318 12.3503   2
   2   3   4 2.10293 0.84028   2
   2   3   4 1.31185 0.58271   3
   2   3   4 3.48925 0.92852   1
  -3   3   4 759.194 45.4716  -3
   2   3   4 759.194 45.4716   1
   2   3   4 1.00094 1.34508   4
   3   3   4 730.883 27.6044   3
  -4   3   4 722.338 27.6573  -3
   3   3   4 722.338 27.6573   1
  -4   3   4 468.251 16.7325  -4
   3   3   4 468.251 16.7325   2
   3   3   4 499.014 20.8630   2
   3   3   4 704.917 26.0692   1
   3   3   4 398.690 15.4279   4
   4   3   4 1.33771 0.62971   2
  -5   3   4 347.021 14.4893  -4
   4   3   4 347.021 14.4893   2
  -5   3   4 555.865 17.2281  -3
   4   3   4 555.865 17.2281   1
   4   3   4 1.81237 1.75830   4
   4   3   4 2.07097 1.72949   1
   5   3   4 1038.16 57.4828   1
  -6   3   4 556.823 36.1597  -4
   5   3   4 556.823 36.1597   2
  -6   3   4 1094.10 40.9595  -3
   5   3   4 1094.10 40.9595   1
   5   3   4 670.291 25.7854   2
  -7   3   4 223.387 7.17551  -4
   6   3   4 223.387 7.17551   2
  -7   3   4 363.706 13.2301  -3
   6   3   4 363.706 13.2301   1
   6   3   4 0.53919 1.46860   2
   6   3   4 3.42352 2.13734   4
  -8   3   4 354.262 11.3189  -4
   7   3   4 354.262 11.3189   2
   7   3   4 171.442 14.4974   2
  -8   3   4 523.974 18.4136  -3
   7   3   4 523.974 18.4136   1
  -9   3   4 108.559 6.63046  -3
   8   3   4 108.559 6.63046   1
  -9   3   4 61.0170 4.08997  -4
   8   3   4 61.0170 4.08997   2
 -10   3   4 72.8724 8.38878  -3
   9   3   4 72.8724 8.38878   1
 -10   3   4 27.8486 6.27750  -4
   9   3   4 27.8486 6.27750   2
 -11   3   4 267.643 18.5763  -3
  10   3   4 267.643 18.5763   1
 -11   3   4 196.099 17.0475  -4
  10   3   4 196.099 17.0475   2
 -12   3   4 285.178 20.4297  -3
  11   3   4 285.178 20.4297   1
 -13   3   4 72.9007 7.04964  -4
  12   3   4 72.9007 7.04964   2
 -14   3   4 41.4254 4.67091  -4
  13   3   4 41.4254 4.67091   2
 -15   3   4 34.4555 5.61070  -4
  14   3   4 34.4555 5.61070   2
 -16   3   4 27.6794 4.81740  -4
  15   3   4 27.6794 4.81740   2
 -16   3   4 34.8939 9.95017  -3
  15   3   4 34.8939 9.95017   1
 -17   3   4 142.503 11.6571  -3
  16   3   4 142.503 11.6571   1
 -17   3   4 98.9839 7.58113  -4
  16   3   4 98.9839 7.58113   2
  15   4   4 24.4427 9.11808  -4
 -16   4   4 24.4427 9.11808   2
  15   4   4 74.1154 9.10743  -3
 -16   4   4 74.1154 9.10743   1
  14   4   4 3.40235 7.45295  -4
 -15   4   4 3.40235 7.45295   2
  14   4   4 20.1560 6.31127  -3
 -15   4   4 20.1560 6.31127   1
  13   4   4 11.3863 8.73624  -3
 -14   4   4 11.3863 8.73624   1
  13   4   4 -1.0042 13.9323  -4
  -5   4  14 -1.0042 13.9323  -3
 -14   4   4 -1.0042 13.9323   2
  12   4   4 47.6401 7.70331  -3
 -13   4   4 47.6401 7.70331   1
  12   4   4 30.2112 12.5541  -4
 -13   4   4 30.2112 12.5541   2
  11   4   4 22.7015 6.44119  -3
 -12   4   4 22.7015 6.44119   1
  10   4   4 132.619 15.0090  -3
 -11   4   4 132.619 15.0090   1
   9   4   4 73.5299 11.1360  -3
 -10   4   4 73.5299 11.1360   1
   8   4   4 126.543 8.10993  -3
  -9   4   4 126.543 8.10993   1
   8   4   4 65.9511 5.72703  -4
  -9   4   4 65.9511 5.72703   2
  -9   4   4 3.23288 2.47347   4
  -8   4   4 59.2349 5.30213   3
   7   4   4 48.2631 4.80535  -4
  -8   4   4 48.2631 4.80535   2
   7   4   4 75.4491 6.37917  -3
  -8   4   4 75.4491 6.37917   1
  -8   4   4 39.7063 4.70523   4
  -7   4   4 -0.7440 1.03412   3
   6   4   4 83.0611 5.85892  -4
  -7   4   4 83.0611 5.85892   2
   6   4   4 157.887 6.72667  -3
  -7   4   4 157.887 6.72667   1
  -7   4   4 3.08375 2.21830   2
  -7   4   4 0.91912 2.40565   4
   5   4   4 70.0584 5.56259  -3
  -6   4   4 70.0584 5.56259   1
  -6   4   4 37.9550 4.30444   4
   5   4   4 44.2588 4.34007  -4
  -6   4   4 44.2588 4.34007   2
   4   4   4 384.627 11.6784  -3
  -5   4   4 384.627 11.6784   1
   4   4   4 234.493 9.95545  -4
  -5   4   4 234.493 9.95545   2
  -5   4   4 0.11026 1.72295   3
  -5   4   4 2.62185 1.95967   4
   3   4   4 91.5743 5.61682  -4
  -4   4   4 91.5743 5.61682   2
  -4   4   4 83.9322 5.15536   4
   3   4   4 157.043 5.05194  -3
  -4   4   4 157.043 5.05194   1
  -3   4   4 0.31979 1.12839   4
   2   4   4 185.726 6.25944  -3
  -3   4   4 185.726 6.25944   1
   2   4   4 103.205 8.28494  -4
  -3   4   4 103.205 8.28494   2
   1   4   4 271.765 8.22565  -3
  -2   4   4 271.765 8.22565   1
  -2   4   4 162.028 6.96557   4
   1   4   4 177.499 9.61947  -4
  -2   4   4 177.499 9.61947   2
  -2   4   4 262.462 16.0712   1
  -1   4   4 4.57853 1.22468   1
  -1   4   4 1.57566 2.28678   2
  -1   4   4 2.87426 0.91835   3
  -1   4   4 2.06841 0.84435   4
   0   4   4 380.191 14.5830  -3
  -1   4   4 380.191 14.5830   1
   0   4   4 247.947 11.6571  -4
  -1   4   4 247.947 11.6571   2
   0   4   4 371.516 13.9686   3
   0   4   4 392.701 14.3726   1
   0   4   4 217.758 7.19303   4
   0   4   4 237.548 8.15025   2
  -1   4   4 267.119 13.5435  -4
   0   4   4 267.119 13.5435   2
  -1   4   4 393.521 22.7636  -3
   0   4   4 393.521 22.7636   1
   1   4   4 2.28441 1.87855   3
   1   4   4 -0.8718 0.82437   2
  -2   4   4 221.685 14.6522  -3
   1   4   4 221.685 14.6522   1
  -2   4   4 158.111 5.02696  -4
   1   4   4 158.111 5.02696   2
   2   4   4 130.660 5.91520   2
  -3   4   4 132.248 4.52547  -4
   2   4   4 132.248 4.52547   2
  -3   4   4 199.843 10.7094  -3
   2   4   4 199.843 10.7094   1
  -4   4   4 86.2862 4.35705  -4
   3   4   4 86.2862 4.35705   2
  -4   4   4 146.034 8.88231  -3
   3   4   4 146.034 8.88231   1
   3   4   4 0.69281 1.08515   2
   4   4   4 239.454 14.6721   2
  -5   4   4 271.454 8.91519  -4
   4   4   4 271.454 8.91519   2
  -5   4   4 387.252 17.6152  -3
   4   4   4 387.252 17.6152   1
   4   4   4 402.248 16.0634   3
   4   4   4 357.766 24.1597   1
  -6   4   4 40.5292 2.89800  -4
   5   4   4 40.5292 2.89800   2
   5   4   4 0.52654 1.51100   2
  -6   4   4 62.2073 6.29801  -3
   5   4   4 62.2073 6.29801   1
  -7   4   4 150.167 10.0599  -3
   6   4   4 150.167 10.0599   1
  -7   4   4 102.672 5.06375  -4
   6   4   4 102.672 5.06375   2
   6   4   4 143.204 5.98790   1
   6   4   4 85.2083 7.05569   2
   6   4   4 87.5570 6.43050   4
   7   4   4 3.63199 2.52893   4
   7   4   4 2.09957 1.81093   1
  -8   4   4 42.9539 3.55450  -4
   7   4   4 42.9539 3.55450   2
  -8   4   4 60.8375 6.20304  -3
   7   4   4 60.8375 6.20304   1
   7   4   4 -2.3294 1.79653   2
  -9   4   4 77.6305 4.84570  -4
   8   4   4 77.6305 4.84570   2
  -9   4   4 116.044 6.92482  -3
   8   4   4 116.044 6.92482   1
   8   4   4 74.6933 7.30241   2
 -10   4   4 33.3081 5.02791  -4
   9   4   4 33.3081 5.02791   2
 -10   4   4 60.8362 7.17487  -3
   9   4   4 60.8362 7.17487   1
 -12   4   4 11.1640 6.64918  -3
  11   4   4 11.1640 6.64918   1
 -13   4   4 48.3987 8.88455  -3
  12   4   4 48.3987 8.88455   1
 -13   4   4 45.3060 8.12524  -4
  12   4   4 45.3060 8.12524   2
 -14   4   4 40.9092 8.93117  -3
  13   4   4 40.9092 8.93117   1
 -14   4   4 17.9138 5.67798  -4
  13   4   4 17.9138 5.67798   2
 -15   4   4 12.0550 9.18515  -3
  14   4   4 12.0550 9.18515   1
 -15   4   4 3.12651 6.12287  -4
  14   4   4 3.12651 6.12287   2
 -16   4   4 67.1924 8.21370  -3
  15   4   4 67.1924 8.21370   1
 -16   4   4 45.5589 5.69211  -4
  15   4   4 45.5589 5.69211   2
  14   5   4 -1.0540 8.73818  -4
 -15   5   4 -1.0540 8.73818   2
  14   5   4 54.6695 9.72678  -3
 -15   5   4 54.6695 9.72678   1
  13   5   4 156.713 18.9004  -3
 -14   5   4 156.713 18.9004   1
  13   5   4 84.0866 18.7999  -4
 -14   5   4 84.0866 18.7999   2
  12   5   4 231.700 16.0567  -3
 -13   5   4 231.700 16.0567   1
  11   5   4 162.794 12.1552  -3
 -12   5   4 162.794 12.1552   1
  -5   5  12 249.285 27.8381  -4
  11   5   4 249.285 27.8381  -3
   3   5  12 249.285 27.8381  -2
 -12   5   4 249.285 27.8381   1
  10   5   4 77.4293 18.1791  -3
   3   5  11 77.4293 18.1791  -2
 -11   5   4 77.4293 18.1791   1
  10   5   4 39.8019 10.3538  -3
 -11   5   4 39.8019 10.3538   1
 -11   5   4 51.6801 6.03603   3
 -10   5   4 1.43830 2.36716   3
   9   5   4 64.9496 8.53126  -4
 -10   5   4 64.9496 8.53126   2
 -10   5   4 -3.2340 4.67709   2
   9   5   4 107.399 13.2690  -3
 -10   5   4 107.399 13.2690   1
  -9   5   4 37.4927 5.89125   2
   8   5   4 47.4271 6.63547  -3
  -9   5   4 47.4271 6.63547   1
   8   5   4 13.1839 10.9431  -4
  -9   5   4 13.1839 10.9431   2
   7   5   4 11.9010 3.79374  -4
  -8   5   4 11.9010 3.79374   2
   7   5   4 28.6794 4.91306  -3
  -8   5   4 28.6794 4.91306   1
  -8   5   4 0.26396 2.83399   4
   6   5   4 108.864 7.25617  -4
  -7   5   4 108.864 7.25617   2
   6   5   4 163.641 9.21522  -3
  -7   5   4 163.641 9.21522   1
   5   5   4 254.683 9.88168  -3
  -6   5   4 254.683 9.88168   1
   5   5   4 164.050 8.81559  -4
  -6   5   4 164.050 8.81559   2
  -6   5   4 0.87013 1.81309   1
   4   5   4 219.084 12.4838  -4
  -5   5   4 219.084 12.4838   2
  -5   5   4 352.683 15.0935   1
   4   5   4 338.422 14.1529  -3
  -5   5   4 338.422 14.1529   1
   3   5   4 6.00944 1.67897  -3
  -4   5   4 6.00944 1.67897   1
   3   5   4 1.11264 3.00239  -4
  -4   5   4 1.11264 3.00239   2
  -3   5   4 25.3938 4.92247   4
   2   5   4 20.8935 4.17982  -4
  -3   5   4 20.8935 4.17982   2
   2   5   4 39.6048 2.86773  -3
  -3   5   4 39.6048 2.86773   1
   1   5   4 80.0094 5.45352  -3
  -2   5   4 80.0094 5.45352   1
   1   5   4 51.9242 4.94653  -4
  -2   5   4 51.9242 4.94653   2
  -2   5   4 2.58860 2.11492   4
   0   5   4 35.8473 4.07292  -4
  -1   5   4 35.8473 4.07292   2
   0   5   4 40.5651 4.05567  -3
  -1   5   4 40.5651 4.05567   1
  -1   5   4 55.1123 4.08321   3
  -1   5   4 45.9287 4.64750   1
  -1   5   4 23.5833 3.40049   4
  -1   5   4 26.8945 3.40258  -4
   0   5   4 26.8945 3.40258   2
   0   5   4 1.12659 1.19836   1
  -1   5   4 59.4211 7.27055  -3
   0   5   4 59.4211 7.27055   1
   0   5   4 2.23622 1.56553   2
   0   5   4 -0.5473 1.06136   3
   1   5   4 82.2318 6.91153   3
  -2   5   4 52.1034 4.46191  -4
   1   5   4 52.1034 4.46191   2
   1   5   4 41.1858 5.72813   2
  -2   5   4 95.1137 9.41624  -3
   1   5   4 95.1137 9.41624   1
  -3   5   4 19.9857 2.59706  -4
   2   5   4 19.9857 2.59706   2
  -3   5   4 45.1457 5.06565  -3
   2   5   4 45.1457 5.06565   1
  -4   5   4 4.09897 1.47872  -4
   3   5   4 4.09897 1.47872   2
  -4   5   4 3.70041 3.06632  -3
   3   5   4 3.70041 3.06632   1
   4   5   4 0.71729 2.56128   3
  -5   5   4 199.047 6.86769  -4
   4   5   4 199.047 6.86769   2
  -5   5   4 355.200 14.2376  -3
   4   5   4 355.200 14.2376   1
  -6   5   4 163.315 6.13912  -4
   5   5   4 163.315 6.13912   2
   5   5   4 157.759 8.38358   2
  -6   5   4 268.186 15.8134  -3
   5   5   4 268.186 15.8134   1
   5   5   4 251.115 10.7211   3
  -7   5   4 89.5490 4.42603  -4
   6   5   4 89.5490 4.42603   2
  -7   5   4 142.586 12.5033  -3
   6   5   4 142.586 12.5033   1
   7   5   4 26.5172 5.11357   2
  -8   5   4 24.0396 3.80293  -4
   7   5   4 24.0396 3.80293   2
  -8   5   4 36.0042 5.32565  -3
   7   5   4 36.0042 5.32565   1
   8   5   4 0.70884 2.75499   4
  -9   5   4 30.7728 5.45357  -4
   8   5   4 30.7728 5.45357   2
   9   5   4 69.1275 8.66734   4
 -10   5   4 65.1492 9.45062  -4
   9   5   4 65.1492 9.45062   2
 -10   5   4 72.1599 15.8225  -3
   9   5   4 72.1599 15.8225   1
  10   5   4 0.66474 3.14123   1
 -12   5   4 115.708 11.4979  -3
  11   5   4 115.708 11.4979   1
 -14   5   4 110.877 11.2543  -4
  13   5   4 110.877 11.2543   2
 -14   5   4 137.083 14.6345  -3
  13   5   4 137.083 14.6345   1
 -15   5   4 25.2520 6.11101  -4
  14   5   4 25.2520 6.11101   2
 -15   5   4 50.7361 8.40429  -3
  14   5   4 50.7361 8.40429   1
  13   6   4 -1.1396 14.7324  -4
 -14   6   4 -1.1396 14.7324   2
  13   6   4 -2.3525 9.08474  -3
 -14   6   4 -2.3525 9.08474   1
  12   6   4 26.8908 8.58742  -3
 -13   6   4 26.8908 8.58742   1
  11   6   4 107.483 10.9455  -3
 -12   6   4 107.483 10.9455   1
  -5   6  12 103.369 21.7442  -4
  11   6   4 103.369 21.7442  -3
 -12   6   4 103.369 21.7442   1
  10   6   4 15.4971 9.15634  -3
 -11   6   4 15.4971 9.15634   1
  10   6   4 14.6613 6.23564  -4
 -11   6   4 14.6613 6.23564   2
   9   6   4 52.1371 8.06205  -4
 -10   6   4 52.1371 8.06205   2
   9   6   4 53.1079 10.7921  -3
 -10   6   4 53.1079 10.7921   1
   8   6   4 275.517 21.3463  -3
  -9   6   4 275.517 21.3463   1
   8   6   4 180.700 12.3523  -4
  -9   6   4 180.700 12.3523   2
   7   6   4 178.736 10.3902  -3
  -8   6   4 178.736 10.3902   1
   7   6   4 133.081 12.8245  -4
  -8   6   4 133.081 12.8245   2
   6   6   4 113.475 8.04940  -4
  -7   6   4 113.475 8.04940   2
   6   6   4 175.515 10.0960  -3
  -7   6   4 175.515 10.0960   1
   5   6   4 124.252 12.9271  -3
  -6   6   4 124.252 12.9271   1
  -6   6   4 124.328 7.05782   1
   5   6   4 69.3343 8.92454  -4
  -6   6   4 69.3343 8.92454   2
   4   6   4 4.55098 3.27907  -3
  -5   6   4 4.55098 3.27907   1
   4   6   4 3.14225 3.30136  -4
  -5   6   4 3.14225 3.30136   2
   3   6   4 3.41284 2.32827  -3
  -4   6   4 3.41284 2.32827   1
   3   6   4 0.28951 7.86302  -4
  -4   6   4 0.28951 7.86302   2
  -3   6   4 -1.3527 1.99879   1
   2   6   4 83.4411 9.05261  -4
  -3   6   4 83.4411 9.05261   2
   2   6   4 138.144 8.07075  -3
  -3   6   4 138.144 8.07075   1
  -2   6   4 145.837 10.3253   4
   1   6   4 248.456 11.8700  -3
  -2   6   4 248.456 11.8700   1
   1   6   4 148.147 9.17229  -4
  -2   6   4 148.147 9.17229   2
  -2   6   4 244.557 15.6899   1
   0   6   4 92.0272 6.61393  -3
  -1   6   4 92.0272 6.61393   1
  -1   6   4 0.98078 1.99663   4
   0   6   4 58.2400 5.19797  -4
  -1   6   4 58.2400 5.19797   2
  -1   6   4 -0.7281 1.46864   1
  -1   6   4 71.9613 6.04722  -3
   0   6   4 71.9613 6.04722   1
   0   6   4 53.1023 4.73076   2
  -1   6   4 57.7781 4.51398  -4
   0   6   4 57.7781 4.51398   2
   0   6   4 76.7239 6.02631   3
  -2   6   4 236.150 11.8091  -3
   1   6   4 236.150 11.8091   1
  -2   6   4 140.780 8.04068  -4
   1   6   4 140.780 8.04068   2
   1   6   4 -0.9467 1.58048   3
   2   6   4 88.5467 8.49623   2
  -3   6   4 90.4510 5.40220  -4
   2   6   4 90.4510 5.40220   2
  -3   6   4 139.160 10.0519  -3
   2   6   4 139.160 10.0519   1
  -4   6   4 0.33326 3.46659  -3
   3   6   4 0.33326 3.46659   1
  -4   6   4 3.42636 3.22508  -4
   3   6   4 3.42636 3.22508   2
  -5   6   4 -2.2748 3.63802  -4
   4   6   4 -2.2748 3.63802   2
  -5   6   4 3.39664 3.33104  -3
   4   6   4 3.39664 3.33104   1
  -6   6   4 106.060 7.31983  -3
   5   6   4 106.060 7.31983   1
  -6   6   4 74.6827 9.21916  -4
   5   6   4 74.6827 9.21916   2
   5   6   4 0.31488 1.93634   3
  -7   6   4 173.102 11.7290  -3
   6   6   4 173.102 11.7290   1
  -7   6   4 126.530 9.05680  -4
   6   6   4 126.530 9.05680   2
   6   6   4 149.637 9.92609   3
  -8   6   4 166.766 12.0746  -3
   7   6   4 166.766 12.0746   1
  -8   6   4 108.617 8.05177  -4
   7   6   4 108.617 8.05177   2
  -9   6   4 177.206 9.06115  -4
   8   6   4 177.206 9.06115   2
  -9   6   4 218.651 26.0051  -3
   8   6   4 218.651 26.0051   1
 -10   6   4 38.8728 8.73994  -4
   9   6   4 38.8728 8.73994   2
 -11   6   4 13.5271 7.32423  -4
  10   6   4 13.5271 7.32423   2
 -11   6   4 35.5891 14.3004  -3
  10   6   4 35.5891 14.3004   1
 -12   6   4 109.177 20.2408  -3
  11   6   4 109.177 20.2408   1
 -14   6   4 1.96471 7.13624  -4
  13   6   4 1.96471 7.13624   2
  11   7   4 130.954 16.8459  -3
 -12   7   4 130.954 16.8459   1
  10   7   4 49.8564 12.0138  -3
 -11   7   4 49.8564 12.0138   1
  10   7   4 43.7198 8.71499  -4
 -11   7   4 43.7198 8.71499   2
   9   7   4 129.910 9.77135  -3
 -10   7   4 129.910 9.77135   1
   9   7   4 74.0385 10.4359  -4
 -10   7   4 74.0385 10.4359   2
   8   7   4 95.7881 9.62551  -3
  -9   7   4 95.7881 9.62551   1
   8   7   4 66.8700 9.87855  -4
  -9   7   4 66.8700 9.87855   2
   7   7   4 85.3355 7.71120  -4
  -8   7   4 85.3355 7.71120   2
   7   7   4 122.574 14.5693  -3
  -8   7   4 122.574 14.5693   1
   6   7   4 189.561 11.3919  -3
  -7   7   4 189.561 11.3919   1
  -7   7   4 102.496 6.41559   4
   6   7   4 108.963 8.39201  -4
  -7   7   4 108.963 8.39201   2
  -7   7   4 160.807 11.9405   1
   5   7   4 252.951 12.9476  -3
  -6   7   4 252.951 12.9476   1
  -6   7   4 9.33365 5.24979   1
   5   7   4 159.837 12.1155  -4
  -6   7   4 159.837 12.1155   2
   4   7   4 210.287 8.62090  -3
  -5   7   4 210.287 8.62090   1
   4   7   4 145.205 13.1377  -4
  -5   7   4 145.205 13.1377   2
   3   7   4 434.054 14.8833  -3
  -4   7   4 434.054 14.8833   1
   2   7   4 357.532 15.8575  -3
  -3   7   4 357.532 15.8575   1
  -3   7   4 365.934 22.5291   1
   2   7   4 227.597 10.4125  -4
  -3   7   4 227.597 10.4125   2
  -2   7   4 -0.7185 3.02996   4
   1   7   4 582.511 23.1673  -3
  -2   7   4 582.511 23.1673   1
   1   7   4 335.171 15.3858  -4
  -2   7   4 335.171 15.3858   2
  -2   7   4 8.89224 2.89841   1
   0   7   4 338.965 15.5199  -4
  -1   7   4 338.965 15.5199   2
  -1   7   4 515.492 26.8372   1
  -1   7   4 313.088 19.3395  -4
   0   7   4 313.088 19.3395   2
   1   7   4 563.935 30.1348   3
  -2   7   4 387.228 22.1247  -4
   1   7   4 387.228 22.1247   2
  -2   7   4 563.987 31.8305  -3
   1   7   4 563.987 31.8305   1
  -3   7   4 214.529 9.24516  -4
   2   7   4 214.529 9.24516   2
  -3   7   4 362.238 24.1200  -3
   2   7   4 362.238 24.1200   1
   2   7   4 3.50441 2.59376   3
  -4   7   4 283.496 11.1413  -4
   3   7   4 283.496 11.1413   2
  -4   7   4 434.446 26.7764  -3
   3   7   4 434.446 26.7764   1
  -5   7   4 127.589 6.02760  -4
   4   7   4 127.589 6.02760   2
  -5   7   4 188.651 13.1658  -3
   4   7   4 188.651 13.1658   1
  -6   7   4 236.523 12.1803  -3
   5   7   4 236.523 12.1803   1
  -6   7   4 177.918 6.70597  -4
   5   7   4 177.918 6.70597   2
   5   7   4 108.805 13.9402   3
  -7   7   4 90.8909 6.62269  -4
   6   7   4 90.8909 6.62269   2
   6   7   4 1.73714 1.41377   2
  -7   7   4 158.656 10.3163  -3
   6   7   4 158.656 10.3163   1
  -8   7   4 80.3857 6.54170  -4
   7   7   4 80.3857 6.54170   2
  -8   7   4 113.933 10.8898  -3
   7   7   4 113.933 10.8898   1
  -9   7   4 70.5079 11.2208  -4
   8   7   4 70.5079 11.2208   2
  -9   7   4 94.3739 19.2588  -3
   8   7   4 94.3739 19.2588   1
 -10   7   4 90.1762 12.4283  -4
   9   7   4 90.1762 12.4283   2
   9   7   4 75.7617 19.9587   1
  10   7   4 -5.0923 5.02923   1
  11   7   4 60.8118 16.7944   1
  12   7   4 -3.7045 5.09586   4
  12   7   4 -1.0552 3.30681   3
  12   7   4 8.33347 4.81103   1
  12   7   4 -3.5137 3.08450   2
   9   8   4 2.23650 4.81612  -4
 -10   8   4 2.23650 4.81612   2
   9   8   4 15.5346 6.40600  -3
 -10   8   4 15.5346 6.40600   1
   8   8   4 10.1613 4.71084  -4
  -9   8   4 10.1613 4.71084   2
   8   8   4 6.16949 6.54238  -3
  -9   8   4 6.16949 6.54238   1
  -5   8   9 218.672 30.8914  -4
   3   8   9 218.672 30.8914  -2
  -9   8   4 218.672 30.8914   1
   7   8   4 7.19928 4.49168  -4
  -8   8   4 7.19928 4.49168   2
   7   8   4 -3.7279 8.64894  -3
  -8   8   4 -3.7279 8.64894   1
   6   8   4 1.43173 5.46614  -3
  -7   8   4 1.43173 5.46614   1
   6   8   4 5.73429 4.71623  -4
  -7   8   4 5.73429 4.71623   2
  -7   8   4 0.60779 1.73550   4
   5   8   4 9.80281 4.46671  -4
  -6   8   4 9.80281 4.46671   2
   5   8   4 26.9154 4.65327  -3
  -6   8   4 26.9154 4.65327   1
   4   8   4 97.4340 7.26511  -4
  -5   8   4 97.4340 7.26511   2
   4   8   4 173.350 8.42705  -3
  -5   8   4 173.350 8.42705   1
   3   8   4 164.341 9.06493  -4
  -4   8   4 164.341 9.06493   2
   3   8   4 289.099 14.4914  -3
  -4   8   4 289.099 14.4914   1
  -4   8   4 317.401 21.3269   1
  -3   8   4 0.13645 2.67030   1
   2   8   4 143.296 9.35661  -3
  -3   8   4 143.296 9.35661   1
   2   8   4 84.3197 7.40930  -4
  -3   8   4 84.3197 7.40930   2
   1   8   4 125.338 9.04996  -4
  -2   8   4 125.338 9.04996   2
  -2   8   4 217.592 14.0251   1
   1   8   4 217.969 15.8185  -3
  -2   8   4 217.969 15.8185   1
   0   8   4 124.018 13.6589  -4
  -1   8   4 124.018 13.6589   2
  -1   8   4 134.321 8.99011  -4
   0   8   4 134.321 8.99011   2
  -2   8   4 114.444 8.34261  -4
   1   8   4 114.444 8.34261   2
   1   8   4 0.42602 2.27660   3
  -3   8   4 141.362 9.87378  -3
   2   8   4 141.362 9.87378   1
  -3   8   4 95.0338 6.27223  -4
   2   8   4 95.0338 6.27223   2
   2   8   4 140.865 11.3007   3
  -4   8   4 172.670 8.34168  -4
   3   8   4 172.670 8.34168   2
  -4   8   4 268.180 20.2264  -3
   3   8   4 268.180 20.2264   1
   3   8   4 2.53089 3.22144   3
  -5   8   4 149.244 10.4692  -3
   4   8   4 149.244 10.4692   1
  -5   8   4 120.167 6.36233  -4
   4   8   4 120.167 6.36233   2
  -6   8   4 20.2866 4.30698  -3
   5   8   4 20.2866 4.30698   1
  -6   8   4 7.19706 2.75168  -4
   5   8   4 7.19706 2.75168   2
   6   8   4 0.09209 4.51149   3
  -7   8   4 15.1550 5.66561  -3
   6   8   4 15.1550 5.66561   1
  -7   8   4 -1.0349 3.97084  -4
   6   8   4 -1.0349 3.97084   2
   6   8   4 0.56836 1.96939   2
  -8   8   4 7.12127 6.63957  -3
   7   8   4 7.12127 6.63957   1
  -8   8   4 -1.5822 4.34374  -4
   7   8   4 -1.5822 4.34374   2
   7   8   4 -1.4032 2.69188   3
  -9   8   4 11.2769 8.32609  -4
   8   8   4 11.2769 8.32609   2
   8   8   4 22.0787 11.2082   3
 -10   8   4 11.6582 8.65218  -4
   9   8   4 11.6582 8.65218   2
  10   8   4 27.3349 18.4786   3
  10   8   4 42.1342 5.61564   4
  10   8   4 50.5886 7.95523   2
  10   8   4 24.7694 19.4860   1
   7   9   4 28.8426 18.3570  -4
  -8   9   4 28.8426 18.3570   2
   6   9   4 83.7105 9.53432  -3
  -7   9   4 83.7105 9.53432   1
   6   9   4 49.8386 5.80464  -4
  -7   9   4 49.8386 5.80464   2
   5   9   4 85.7365 6.87174  -4
  -6   9   4 85.7365 6.87174   2
   5   9   4 145.640 9.10649  -3
  -6   9   4 145.640 9.10649   1
   4   9   4 126.273 8.49608  -4
  -5   9   4 126.273 8.49608   2
   4   9   4 198.292 9.36499  -3
  -5   9   4 198.292 9.36499   1
   3   9   4 81.1248 6.87738  -4
  -4   9   4 81.1248 6.87738   2
   3   9   4 108.226 8.73311  -3
  -4   9   4 108.226 8.73311   1
  -4   9   4 1.12303 4.26811   1
  -3   9   4 105.713 9.81478   1
   2   9   4 56.3270 6.93542  -4
  -3   9   4 56.3270 6.93542   2
   2   9   4 77.6366 7.97051  -3
  -3   9   4 77.6366 7.97051   1
  -2   9   4 2.90908 3.13221   1
   1   9   4 37.9601 6.07858  -4
  -2   9   4 37.9601 6.07858   2
   0   9   4 12.9342 4.48697  -4
  -1   9   4 12.9342 4.48697   2
  -1   9   4 2.18179 4.31116  -4
   0   9   4 2.18179 4.31116   2
  -2   9   4 49.2878 6.22506  -4
   1   9   4 49.2878 6.22506   2
   2   9   4 -3.5830 3.66986   2
  -3   9   4 52.7485 7.37485  -4
   2   9   4 52.7485 7.37485   2
   2   9   4 2.12457 3.71995   3
  -3   9   4 91.2801 11.8962  -3
   2   9   4 91.2801 11.8962   1
   3   9   4 122.749 11.2894   3
  -4   9   4 69.0381 5.97195  -4
   3   9   4 69.0381 5.97195   2
  -4   9   4 132.858 8.57863  -3
   3   9   4 132.858 8.57863   1
  -5   9   4 196.244 10.3491  -3
   4   9   4 196.244 10.3491   1
  -5   9   4 111.036 6.79205  -4
   4   9   4 111.036 6.79205   2
  -6   9   4 125.325 7.65431  -3
   5   9   4 125.325 7.65431   1
  -6   9   4 95.9760 5.95555  -4
   5   9   4 95.9760 5.95555   2
  -7   9   4 70.8787 7.48447  -3
   6   9   4 70.8787 7.48447   1
  -7   9   4 49.9327 7.13158  -4
   6   9   4 49.9327 7.13158   2
   6   9   4 4.98875 6.44570   3
   7   9   4 39.5915 8.03320   2
   7   9   4 40.4771 5.98063   4
   7   9   4 41.5631 6.66913   1
  -8   9   4 42.1892 16.4823  -4
   7   9   4 42.1892 16.4823   2
  16   0   5 20.3027 8.90378  -4
 -17   0   5 20.3027 8.90378   2
  16   0   5 -0.9198 5.75815  -3
 -17   0   5 -0.9198 5.75815   1
  15   0   5 21.9403 6.08917  -3
 -16   0   5 21.9403 6.08917   1
  15   0   5 2.64209 7.86159  -4
 -16   0   5 2.64209 7.86159   2
  14   0   5 4.15349 5.04408  -3
 -15   0   5 4.15349 5.04408   1
  13   0   5 8.49033 4.44919  -3
 -14   0   5 8.49033 4.44919   1
  12   0   5 19.9590 8.43088  -4
 -13   0   5 19.9590 8.43088   2
  12   0   5 48.8861 6.39733  -3
 -13   0   5 48.8861 6.39733   1
  11   0   5 1.78460 5.13770  -3
 -12   0   5 1.78460 5.13770   1
  10   0   5 6.83091 3.72253  -3
 -11   0   5 6.83091 3.72253   1
  10   0   5 7.72923 5.80939  -4
 -11   0   5 7.72923 5.80939   2
   9   0   5 13.2130 4.81453  -4
 -10   0   5 13.2130 4.81453   2
   9   0   5 20.4162 3.49920  -3
 -10   0   5 20.4162 3.49920   1
   8   0   5 41.0412 6.85200  -4
  -9   0   5 41.0412 6.85200   2
   8   0   5 50.7446 4.34570  -3
  -9   0   5 50.7446 4.34570   1
   7   0   5 4.95065 3.66668  -3
  -8   0   5 4.95065 3.66668   1
   7   0   5 1.91014 3.81032  -4
  -8   0   5 1.91014 3.81032   2
   6   0   5 149.459 6.98781  -3
  -7   0   5 149.459 6.98781   1
   6   0   5 92.0540 9.89504  -4
  -7   0   5 92.0540 9.89504   2
   5   0   5 3.63367 2.53102  -3
  -6   0   5 3.63367 2.53102   1
   5   0   5 -2.0157 2.57628  -4
  -6   0   5 -2.0157 2.57628   2
   4   0   5 -0.8083 1.84255  -3
  -5   0   5 -0.8083 1.84255   1
   4   0   5 -0.5267 2.64202  -4
  -5   0   5 -0.5267 2.64202   2
   3   0   5 1138.94 42.2070  -3
  -4   0   5 1138.94 42.2070   1
   3   0   5 640.776 37.2241  -4
  -4   0   5 640.776 37.2241   2
   2   0   5 706.361 16.4827  -3
  -3   0   5 706.361 16.4827   1
   2   0   5 462.488 19.4743  -4
  -3   0   5 462.488 19.4743   2
   1   0   5 3682.05 75.5071  -3
  -2   0   5 3682.05 75.5071   1
   1   0   5 2169.84 76.9204  -4
  -2   0   5 2169.84 76.9204   2
   0   0   5 2450.07 47.1590  -3
  -1   0   5 2450.07 47.1590   1
   0   0   5 1645.66 41.7867  -4
  -1   0   5 1645.66 41.7867   2
  -1   0   5 1501.52 38.2354  -4
   0   0   5 1501.52 38.2354   2
  -1   0   5 2444.43 52.5316  -3
   0   0   5 2444.43 52.5316   1
  -2   0   5 3826.67 91.2553  -3
   1   0   5 3826.67 91.2553   1
  -2   0   5 2483.49 70.3670  -4
   1   0   5 2483.49 70.3670   2
  -3   0   5 716.675 22.6640  -3
   2   0   5 716.675 22.6640   1
  -3   0   5 432.387 12.4832  -4
   2   0   5 432.387 12.4832   2
  -4   0   5 667.194 21.2736  -4
   3   0   5 667.194 21.2736   2
  -4   0   5 1042.53 57.2013  -3
   3   0   5 1042.53 57.2013   1
  -5   0   5 -0.5700 1.31532  -4
   4   0   5 -0.5700 1.31532   2
  -5   0   5 -0.3960 2.96543  -3
   4   0   5 -0.3960 2.96543   1
  -6   0   5 -2.0598 1.93488  -4
   5   0   5 -2.0598 1.93488   2
  -6   0   5 0.12284 2.84516  -3
   5   0   5 0.12284 2.84516   1
  -7   0   5 94.8849 4.70430  -4
   6   0   5 94.8849 4.70430   2
  -7   0   5 133.758 11.7312  -3
   6   0   5 133.758 11.7312   1
  -8   0   5 1.31908 1.26128  -4
   7   0   5 1.31908 1.26128   2
  -9   0   5 37.9958 2.86581  -4
   8   0   5 37.9958 2.86581   2
  -9   0   5 63.5204 6.29013  -3
   8   0   5 63.5204 6.29013   1
 -10   0   5 14.2759 1.91927  -4
   9   0   5 14.2759 1.91927   2
 -10   0   5 19.8205 4.45923  -3
   9   0   5 19.8205 4.45923   1
 -11   0   5 9.03319 4.19844  -3
  10   0   5 9.03319 4.19844   1
 -11   0   5 3.29180 1.87315  -4
  10   0   5 3.29180 1.87315   2
 -12   0   5 -3.0197 4.97324  -3
  11   0   5 -3.0197 4.97324   1
 -12   0   5 2.45594 2.20786  -4
  11   0   5 2.45594 2.20786   2
 -13   0   5 59.3157 10.6690  -3
  12   0   5 59.3157 10.6690   1
 -13   0   5 28.6972 5.06447  -4
  12   0   5 28.6972 5.06447   2
 -14   0   5 7.37754 4.22565  -4
  13   0   5 7.37754 4.22565   2
 -14   0   5 14.6424 7.85208  -3
  13   0   5 14.6424 7.85208   1
 -15   0   5 4.54513 2.10691  -4
  14   0   5 4.54513 2.10691   2
 -15   0   5 6.26421 5.91816  -3
  14   0   5 6.26421 5.91816   1
 -16   0   5 12.2786 5.12364  -4
  15   0   5 12.2786 5.12364   2
 -16   0   5 12.6308 7.31200  -3
  15   0   5 12.6308 7.31200   1
 -17   0   5 3.21281 5.14707  -4
  16   0   5 3.21281 5.14707   2
 -17   0   5 0.57300 11.2479  -3
  16   0   5 0.57300 11.2479   1
  17   0   5 -6.7301 6.22503   3
  17   0   5 13.2642 11.5246   1
  16   1   5 40.3954 6.55817  -3
 -17   1   5 40.3954 6.55817   1
  16   1   5 23.5089 7.50492  -4
 -17   1   5 23.5089 7.50492   2
  15   1   5 24.0042 5.44397  -3
 -16   1   5 24.0042 5.44397   1
  15   1   5 18.6457 6.73207  -4
 -16   1   5 18.6457 6.73207   2
  14   1   5 23.8758 3.92157  -3
 -15   1   5 23.8758 3.92157   1
  14   1   5 19.8485 6.41413  -4
 -15   1   5 19.8485 6.41413   2
  13   1   5 108.236 6.06813  -3
 -14   1   5 108.236 6.06813   1
  13   1   5 43.0739 10.8437  -4
 -14   1   5 43.0739 10.8437   2
  12   1   5 276.585 10.6363  -3
 -13   1   5 276.585 10.6363   1
  12   1   5 174.352 13.0773  -4
 -13   1   5 174.352 13.0773   2
 -12   1   5 146.298 18.8391   2
  11   1   5 252.705 11.0909  -3
 -12   1   5 252.705 11.0909   1
  10   1   5 343.634 10.2581  -3
 -11   1   5 343.634 10.2581   1
  10   1   5 193.117 17.8243  -4
 -11   1   5 193.117 17.8243   2
   9   1   5 302.389 9.12498  -3
 -10   1   5 302.389 9.12498   1
   9   1   5 190.783 12.2612  -4
 -10   1   5 190.783 12.2612   2
   8   1   5 77.9288 7.10172  -4
  -9   1   5 77.9288 7.10172   2
   8   1   5 139.363 5.10560  -3
  -9   1   5 139.363 5.10560   1
   7   1   5 171.410 10.7371  -4
  -8   1   5 171.410 10.7371   2
   7   1   5 263.399 10.5186  -3
  -8   1   5 263.399 10.5186   1
   6   1   5 1722.34 44.5668  -3
  -7   1   5 1722.34 44.5668   1
   6   1   5 953.468 38.9684  -4
  -7   1   5 953.468 38.9684   2
   5   1   5 1566.22 36.4136  -3
  -6   1   5 1566.22 36.4136   1
   5   1   5 992.376 40.0577  -4
  -6   1   5 992.376 40.0577   2
   4   1   5 977.014 21.5008  -3
  -5   1   5 977.014 21.5008   1
   4   1   5 542.806 33.5808  -4
  -5   1   5 542.806 33.5808   2
   3   1   5 614.818 15.0758  -3
  -4   1   5 614.818 15.0758   1
   3   1   5 415.325 17.8775  -4
  -4   1   5 415.325 17.8775   2
   2   1   5 970.214 18.3393  -3
  -3   1   5 970.214 18.3393   1
   2   1   5 570.786 16.1315  -4
  -3   1   5 570.786 16.1315   2
  -3   1   5 48.8353 3.51992   4
   1   1   5 1185.11 23.0200  -3
  -2   1   5 1185.11 23.0200   1
   1   1   5 793.432 17.6669  -4
  -2   1   5 793.432 17.6669   2
   0   1   5 1599.20 30.8282  -4
  -1   1   5 1599.20 30.8282   2
   0   1   5 2715.12 46.4438  -3
  -1   1   5 2715.12 46.4438   1
  -1   1   5 1732.95 33.4146  -4
   0   1   5 1732.95 33.4146   2
  -1   1   5 2678.19 53.2447  -3
   0   1   5 2678.19 53.2447   1
  -2   1   5 1177.74 23.9209  -3
   1   1   5 1177.74 23.9209   1
  -2   1   5 727.339 13.8952  -4
   1   1   5 727.339 13.8952   2
  -3   1   5 613.402 13.9387  -4
   2   1   5 613.402 13.9387   2
  -3   1   5 963.361 28.5965  -3
   2   1   5 963.361 28.5965   1
   2   1   5 639.262 33.4751   2
  -4   1   5 403.764 11.9717  -4
   3   1   5 403.764 11.9717   2
  -5   1   5 584.253 13.5016  -4
   4   1   5 584.253 13.5016   2
  -5   1   5 931.466 36.9881  -3
   4   1   5 931.466 36.9881   1
  -6   1   5 1672.25 63.9688  -3
   5   1   5 1672.25 63.9688   1
  -6   1   5 1075.92 25.5059  -4
   5   1   5 1075.92 25.5059   2
  -7   1   5 1765.03 67.8579  -3
   6   1   5 1765.03 67.8579   1
  -7   1   5 1069.69 21.8180  -4
   6   1   5 1069.69 21.8180   2
  -8   1   5 165.081 5.14883  -4
   7   1   5 165.081 5.14883   2
  -8   1   5 276.306 14.3438  -3
   7   1   5 276.306 14.3438   1
  -9   1   5 89.2598 3.37070  -4
   8   1   5 89.2598 3.37070   2
  -9   1   5 153.427 8.08951  -3
   8   1   5 153.427 8.08951   1
 -10   1   5 346.507 14.6413  -3
   9   1   5 346.507 14.6413   1
 -10   1   5 195.145 5.50329  -4
   9   1   5 195.145 5.50329   2
 -11   1   5 376.531 15.9838  -3
  10   1   5 376.531 15.9838   1
 -11   1   5 227.225 6.27524  -4
  10   1   5 227.225 6.27524   2
 -12   1   5 348.098 15.5223  -3
  11   1   5 348.098 15.5223   1
 -12   1   5 184.763 8.36147  -4
  11   1   5 184.763 8.36147   2
 -13   1   5 201.076 7.41600  -4
  12   1   5 201.076 7.41600   2
 -13   1   5 329.090 18.2932  -3
  12   1   5 329.090 18.2932   1
 -14   1   5 118.873 9.23729  -3
  13   1   5 118.873 9.23729   1
 -14   1   5 66.2194 4.16032  -4
  13   1   5 66.2194 4.16032   2
 -15   1   5 20.1365 2.91933  -4
  14   1   5 20.1365 2.91933   2
 -15   1   5 52.0377 8.42022  -3
  14   1   5 52.0377 8.42022   1
 -16   1   5 21.1470 5.82085  -3
  15   1   5 21.1470 5.82085   1
 -16   1   5 16.0678 2.94937  -4
  15   1   5 16.0678 2.94937   2
 -17   1   5 26.4365 7.31149  -3
  16   1   5 26.4365 7.31149   1
 -17   1   5 30.7456 3.42251  -4
  16   1   5 30.7456 3.42251   2
  16   2   5 34.4549 11.3456  -4
 -17   2   5 34.4549 11.3456   2
  16   2   5 83.9556 8.96259  -3
 -17   2   5 83.9556 8.96259   1
  15   2   5 11.5715 5.85086  -3
 -16   2   5 11.5715 5.85086   1
  15   2   5 1.38139 5.50326  -4
 -16   2   5 1.38139 5.50326   2
  14   2   5 2.23550 5.15579  -4
 -15   2   5 2.23550 5.15579   2
  14   2   5 15.4834 5.14633  -3
 -15   2   5 15.4834 5.14633   1
  13   2   5 27.3533 6.39334  -4
 -14   2   5 27.3533 6.39334   2
  13   2   5 56.7538 6.37584  -3
 -14   2   5 56.7538 6.37584   1
  12   2   5 6.64108 4.61354  -4
 -13   2   5 6.64108 4.61354   2
  12   2   5 8.76435 5.17871  -3
 -13   2   5 8.76435 5.17871   1
  11   2   5 110.734 13.6330  -4
 -12   2   5 110.734 13.6330   2
  11   2   5 203.169 10.8770  -3
 -12   2   5 203.169 10.8770   1
  10   2   5 96.2759 7.18841  -3
 -11   2   5 96.2759 7.18841   1
  10   2   5 62.5436 7.48307  -4
 -11   2   5 62.5436 7.48307   2
   9   2   5 453.604 17.8775  -3
 -10   2   5 453.604 17.8775   1
   9   2   5 255.488 15.1076  -4
 -10   2   5 255.488 15.1076   2
   8   2   5 187.720 12.0891  -4
  -9   2   5 187.720 12.0891   2
   8   2   5 300.850 13.0808  -3
  -9   2   5 300.850 13.0808   1
   7   2   5 21.7018 3.26682  -3
  -8   2   5 21.7018 3.26682   1
   7   2   5 10.9170 3.51519  -4
  -8   2   5 10.9170 3.51519   2
   6   2   5 49.3674 4.15404  -3
  -7   2   5 49.3674 4.15404   1
   6   2   5 20.0534 3.88841  -4
  -7   2   5 20.0534 3.88841   2
   5   2   5 166.898 8.09694  -3
  -6   2   5 166.898 8.09694   1
   5   2   5 96.2061 7.06934  -4
  -6   2   5 96.2061 7.06934   2
   4   2   5 745.297 17.5699  -3
  -5   2   5 745.297 17.5699   1
   4   2   5 455.844 20.7344  -4
  -5   2   5 455.844 20.7344   2
   3   2   5 148.667 5.35715  -3
  -4   2   5 148.667 5.35715   1
   3   2   5 90.4929 4.68157  -4
  -4   2   5 90.4929 4.68157   2
   2   2   5 356.630 9.18349  -3
  -3   2   5 356.630 9.18349   1
   2   2   5 229.720 8.89004  -4
  -3   2   5 229.720 8.89004   2
   1   2   5 1057.01 21.8245  -3
  -2   2   5 1057.01 21.8245   1
   1   2   5 624.601 23.4872  -4
  -2   2   5 624.601 23.4872   2
   0   2   5 1864.87 40.8866  -3
  -1   2   5 1864.87 40.8866   1
   0   2   5 1232.20 25.1538  -4
  -1   2   5 1232.20 25.1538   2
  -1   2   5 1158.50 22.0807  -4
   0   2   5 1158.50 22.0807   2
  -1   2   5 1906.57 41.4699  -3
   0   2   5 1906.57 41.4699   1
  -2   2   5 1034.49 25.6842  -3
   1   2   5 1034.49 25.6842   1
  -2   2   5 646.283 17.7652  -4
   1   2   5 646.283 17.7652   2
  -3   2   5 212.903 6.70833  -4
   2   2   5 212.903 6.70833   2
  -3   2   5 346.184 13.3346  -3
   2   2   5 346.184 13.3346   1
  -4   2   5 93.9292 4.12012  -4
   3   2   5 93.9292 4.12012   2
  -4   2   5 145.357 6.54050  -3
   3   2   5 145.357 6.54050   1
  -5   2   5 473.802 16.4118  -4
   4   2   5 473.802 16.4118   2
  -5   2   5 716.346 29.6859  -3
   4   2   5 716.346 29.6859   1
  -6   2   5 111.572 3.26980  -4
   5   2   5 111.572 3.26980   2
  -6   2   5 165.041 9.58817  -3
   5   2   5 165.041 9.58817   1
  -7   2   5 27.7045 2.08083  -4
   6   2   5 27.7045 2.08083   2
  -7   2   5 47.3800 4.87801  -3
   6   2   5 47.3800 4.87801   1
  -8   2   5 12.7112 1.77864  -4
   7   2   5 12.7112 1.77864   2
  -8   2   5 20.4548 3.70573  -3
   7   2   5 20.4548 3.70573   1
  -9   2   5 321.420 13.1540  -3
   8   2   5 321.420 13.1540   1
  -9   2   5 189.784 7.14328  -4
   8   2   5 189.784 7.14328   2
 -10   2   5 290.346 11.1250  -4
   9   2   5 290.346 11.1250   2
 -10   2   5 485.996 18.6985  -3
   9   2   5 485.996 18.6985   1
 -11   2   5 106.478 7.42408  -3
  10   2   5 106.478 7.42408   1
 -11   2   5 64.3087 3.83227  -4
  10   2   5 64.3087 3.83227   2
 -12   2   5 129.595 5.67581  -4
  11   2   5 129.595 5.67581   2
 -12   2   5 196.232 16.8704  -3
  11   2   5 196.232 16.8704   1
 -13   2   5 1.05203 2.04804  -4
  12   2   5 1.05203 2.04804   2
 -13   2   5 12.1536 4.56761  -3
  12   2   5 12.1536 4.56761   1
 -14   2   5 32.5745 3.59603  -4
  13   2   5 32.5745 3.59603   2
 -14   2   5 57.7005 5.55428  -3
  13   2   5 57.7005 5.55428   1
 -15   2   5 5.75194 2.62005  -4
  14   2   5 5.75194 2.62005   2
 -15   2   5 9.68420 10.8074  -3
  14   2   5 9.68420 10.8074   1
 -16   2   5 9.99455 4.73745  -3
  15   2   5 9.99455 4.73745   1
 -16   2   5 2.23534 2.61152  -4
  15   2   5 2.23534 2.61152   2
 -17   2   5 88.5583 10.6504  -3
  16   2   5 88.5583 10.6504   1
 -17   2   5 68.1227 7.11257  -4
  16   2   5 68.1227 7.11257   2
  16   3   5 0.36143 10.5747  -4
 -17   3   5 0.36143 10.5747   2
  16   3   5 32.3901 13.8298  -3
 -17   3   5 32.3901 13.8298   1
  15   3   5 42.0224 8.80485  -3
 -16   3   5 42.0224 8.80485   1
  14   3   5 39.0340 5.92370  -3
 -15   3   5 39.0340 5.92370   1
  14   3   5 12.2901 7.61122  -4
 -15   3   5 12.2901 7.61122   2
  13   3   5 83.6000 9.20574  -3
 -14   3   5 83.6000 9.20574   1
  13   3   5 32.9879 10.5098  -4
 -14   3   5 32.9879 10.5098   2
  12   3   5 68.7787 8.86455  -4
 -13   3   5 68.7787 8.86455   2
  12   3   5 144.676 11.7219  -3
 -13   3   5 144.676 11.7219   1
  11   3   5 92.3130 9.52645  -4
 -12   3   5 92.3130 9.52645   2
  11   3   5 149.402 9.68580  -3
 -12   3   5 149.402 9.68580   1
  10   3   5 231.837 14.5799  -3
 -11   3   5 231.837 14.5799   1
  10   3   5 128.365 16.5336  -4
 -11   3   5 128.365 16.5336   2
   9   3   5 108.160 7.42600  -3
 -10   3   5 108.160 7.42600   1
   9   3   5 63.3306 7.53093  -4
 -10   3   5 63.3306 7.53093   2
   8   3   5 120.713 5.66425  -3
  -9   3   5 120.713 5.66425   1
   8   3   5 60.2454 4.62445  -4
  -9   3   5 60.2454 4.62445   2
   7   3   5 92.4890 4.68670  -4
  -8   3   5 92.4890 4.68670   2
   7   3   5 149.165 8.43656  -3
  -8   3   5 149.165 8.43656   1
   6   3   5 331.391 10.5125  -4
  -7   3   5 331.391 10.5125   2
   6   3   5 590.455 16.5569  -3
  -7   3   5 590.455 16.5569   1
   5   3   5 316.016 9.88179  -4
  -6   3   5 316.016 9.88179   2
   5   3   5 497.955 14.2868  -3
  -6   3   5 497.955 14.2868   1
   4   3   5 648.450 15.4730  -4
  -5   3   5 648.450 15.4730   2
   4   3   5 1158.07 27.1603  -3
  -5   3   5 1158.07 27.1603   1
   3   3   5 579.437 13.3999  -3
  -4   3   5 579.437 13.3999   1
   3   3   5 368.798 10.8895  -4
  -4   3   5 368.798 10.8895   2
   2   3   5 386.641 10.0523  -4
  -3   3   5 386.641 10.0523   2
   2   3   5 671.061 15.1280  -3
  -3   3   5 671.061 15.1280   1
   1   3   5 605.215 11.5077  -3
  -2   3   5 605.215 11.5077   1
   1   3   5 377.896 10.3412  -4
  -2   3   5 377.896 10.3412   2
   0   3   5 523.123 13.3291  -3
  -1   3   5 523.123 13.3291   1
   0   3   5 319.087 7.89916  -4
  -1   3   5 319.087 7.89916   2
  -1   3   5 330.390 7.40485  -4
   0   3   5 330.390 7.40485   2
  -1   3   5 529.074 14.2919  -3
   0   3   5 529.074 14.2919   1
  -2   3   5 591.834 17.3287  -3
   1   3   5 591.834 17.3287   1
  -2   3   5 364.333 7.94343  -4
   1   3   5 364.333 7.94343   2
  -3   3   5 649.554 17.7714  -3
   2   3   5 649.554 17.7714   1
  -3   3   5 414.841 12.5653  -4
   2   3   5 414.841 12.5653   2
  -4   3   5 594.032 16.4464  -3
   3   3   5 594.032 16.4464   1
  -4   3   5 383.047 11.1458  -4
   3   3   5 383.047 11.1458   2
  -5   3   5 712.244 18.8547  -4
   4   3   5 712.244 18.8547   2
  -5   3   5 1097.74 34.1520  -3
   4   3   5 1097.74 34.1520   1
  -6   3   5 316.755 9.02105  -4
   5   3   5 316.755 9.02105   2
  -6   3   5 506.664 12.8147  -3
   5   3   5 506.664 12.8147   1
  -7   3   5 352.049 10.0330  -4
   6   3   5 352.049 10.0330   2
  -7   3   5 568.842 19.5165  -3
   6   3   5 568.842 19.5165   1
  -8   3   5 94.3000 4.32661  -4
   7   3   5 94.3000 4.32661   2
  -8   3   5 164.585 7.81256  -3
   7   3   5 164.585 7.81256   1
  -9   3   5 117.358 6.65064  -3
   8   3   5 117.358 6.65064   1
  -9   3   5 68.0126 4.09877  -4
   8   3   5 68.0126 4.09877   2
 -10   3   5 73.6684 4.43481  -4
   9   3   5 73.6684 4.43481   2
 -10   3   5 133.292 7.88639  -3
   9   3   5 133.292 7.88639   1
 -11   3   5 141.115 8.86235  -4
  10   3   5 141.115 8.86235   2
 -11   3   5 214.678 16.0257  -3
  10   3   5 214.678 16.0257   1
 -12   3   5 158.097 9.53325  -3
  11   3   5 158.097 9.53325   1
 -12   3   5 106.452 5.76675  -4
  11   3   5 106.452 5.76675   2
 -13   3   5 95.1743 5.26424  -4
  12   3   5 95.1743 5.26424   2
 -13   3   5 164.625 11.4078  -3
  12   3   5 164.625 11.4078   1
 -14   3   5 111.542 7.17899  -3
  13   3   5 111.542 7.17899   1
 -14   3   5 52.3449 5.21264  -4
  13   3   5 52.3449 5.21264   2
 -15   3   5 22.0662 3.21799  -4
  14   3   5 22.0662 3.21799   2
 -15   3   5 39.0419 6.21227  -3
  14   3   5 39.0419 6.21227   1
 -16   3   5 36.4908 4.18693  -4
  15   3   5 36.4908 4.18693   2
 -16   3   5 76.5291 7.03838  -3
  15   3   5 76.5291 7.03838   1
  16   3   5 26.7525 12.5430   4
 -17   3   5 39.8027 10.2515  -3
  16   3   5 39.8027 10.2515   1
  16   3   5 22.2929 5.76415   2
 -17   3   5 7.61191 5.58006  -4
  16   3   5 7.61191 5.58006   2
  15   4   5 37.1872 6.73034  -3
 -16   4   5 37.1872 6.73034   1
  15   4   5 17.8040 10.6387  -4
 -16   4   5 17.8040 10.6387   2
  14   4   5 -0.9061 5.70091  -4
 -15   4   5 -0.9061 5.70091   2
  14   4   5 1.04298 4.51159  -3
 -15   4   5 1.04298 4.51159   1
  13   4   5 12.8643 6.31884  -4
 -14   4   5 12.8643 6.31884   2
  13   4   5 24.2553 5.50607  -3
 -14   4   5 24.2553 5.50607   1
  12   4   5 25.9449 6.36129  -3
 -13   4   5 25.9449 6.36129   1
  12   4   5 25.1646 6.92148  -4
 -13   4   5 25.1646 6.92148   2
  11   4   5 34.5357 5.50514  -3
 -12   4   5 34.5357 5.50514   1
  11   4   5 15.2383 3.84368  -4
 -12   4   5 15.2383 3.84368   2
  10   4   5 129.455 8.11706  -4
 -11   4   5 129.455 8.11706   2
  10   4   5 232.846 14.3682  -3
 -11   4   5 232.846 14.3682   1
   9   4   5 31.0915 4.31776  -3
 -10   4   5 31.0915 4.31776   1
   9   4   5 5.65523 7.93719  -4
 -10   4   5 5.65523 7.93719   2
   8   4   5 17.3629 2.80200  -3
  -9   4   5 17.3629 2.80200   1
   8   4   5 4.20244 2.46824  -4
  -9   4   5 4.20244 2.46824   2
   7   4   5 132.107 5.93500  -3
  -8   4   5 132.107 5.93500   1
   7   4   5 69.0486 5.21826  -4
  -8   4   5 69.0486 5.21826   2
   6   4   5 420.497 13.0015  -3
  -7   4   5 420.497 13.0015   1
   6   4   5 259.404 8.97523  -4
  -7   4   5 259.404 8.97523   2
   5   4   5 -0.1102 1.15477  -4
  -6   4   5 -0.1102 1.15477   2
   5   4   5 -2.2548 1.37994  -3
  -6   4   5 -2.2548 1.37994   1
   4   4   5 2.31302 1.44314  -3
  -5   4   5 2.31302 1.44314   1
   4   4   5 -0.1412 1.52714  -4
  -5   4   5 -0.1412 1.52714   2
   3   4   5 388.255 9.93930  -3
  -4   4   5 388.255 9.93930   1
   3   4   5 215.607 9.17152  -4
  -4   4   5 215.607 9.17152   2
   2   4   5 236.365 6.97129  -3
  -3   4   5 236.365 6.97129   1
  -3   4   5 249.346 15.9339   1
   2   4   5 154.301 7.14671  -4
  -3   4   5 154.301 7.14671   2
   1   4   5 162.985 6.34665  -4
  -2   4   5 162.985 6.34665   2
   1   4   5 277.604 6.61439  -3
  -2   4   5 277.604 6.61439   1
   0   4   5 283.359 6.60738  -4
  -1   4   5 283.359 6.60738   2
   0   4   5 439.331 12.3258  -3
  -1   4   5 439.331 12.3258   1
  -1   4   5 262.751 8.41689  -4
   0   4   5 262.751 8.41689   2
  -1   4   5 455.514 11.7203  -3
   0   4   5 455.514 11.7203   1
  -2   4   5 269.674 8.04860  -3
   1   4   5 269.674 8.04860   1
  -2   4   5 183.035 5.93009  -4
   1   4   5 183.035 5.93009   2
  -3   4   5 150.123 4.12918  -4
   2   4   5 150.123 4.12918   2
  -3   4   5 249.371 12.5746  -3
   2   4   5 249.371 12.5746   1
  -4   4   5 234.869 6.70925  -4
   3   4   5 234.869 6.70925   2
  -4   4   5 345.391 13.5030  -3
   3   4   5 345.391 13.5030   1
  -5   4   5 0.71137 0.89657  -4
   4   4   5 0.71137 0.89657   2
  -5   4   5 1.45723 1.57476  -3
   4   4   5 1.45723 1.57476   1
  -6   4   5 -0.7565 1.60991  -4
   5   4   5 -0.7565 1.60991   2
  -6   4   5 1.23625 2.06855  -3
   5   4   5 1.23625 2.06855   1
  -7   4   5 396.533 11.7865  -3
   6   4   5 396.533 11.7865   1
  -7   4   5 268.014 8.31559  -4
   6   4   5 268.014 8.31559   2
  -8   4   5 115.471 4.99152  -3
   7   4   5 115.471 4.99152   1
  -8   4   5 80.7771 3.49891  -4
   7   4   5 80.7771 3.49891   2
  -9   4   5 8.34809 2.12703  -4
   8   4   5 8.34809 2.12703   2
  -9   4   5 13.4847 2.57836  -3
   8   4   5 13.4847 2.57836   1
 -10   4   5 16.4564 2.85258  -4
   9   4   5 16.4564 2.85258   2
 -10   4   5 20.8075 4.56433  -3
   9   4   5 20.8075 4.56433   1
 -11   4   5 155.857 8.35138  -4
  10   4   5 155.857 8.35138   2
 -11   4   5 260.279 17.2819  -3
  10   4   5 260.279 17.2819   1
 -12   4   5 22.5123 3.93682  -4
  11   4   5 22.5123 3.93682   2
 -12   4   5 33.1095 5.61277  -3
  11   4   5 33.1095 5.61277   1
 -13   4   5 29.2243 5.60422  -3
  12   4   5 29.2243 5.60422   1
 -13   4   5 18.7754 3.46368  -4
  12   4   5 18.7754 3.46368   2
 -14   4   5 14.2910 3.53001  -4
  13   4   5 14.2910 3.53001   2
 -14   4   5 17.8380 5.00012  -3
  13   4   5 17.8380 5.00012   1
 -15   4   5 1.05350 4.20368  -3
  14   4   5 1.05350 4.20368   1
 -15   4   5 -0.8744 3.25876  -4
  14   4   5 -0.8744 3.25876   2
 -16   4   5 16.8542 4.18813  -4
  15   4   5 16.8542 4.18813   2
 -16   4   5 18.3543 7.59773  -3
  15   4   5 18.3543 7.59773   1
  14   5   5 49.1526 8.86900  -4
 -15   5   5 49.1526 8.86900   2
  14   5   5 64.8821 7.96635  -3
 -15   5   5 64.8821 7.96635   1
  13   5   5 66.2750 7.83046  -3
 -14   5   5 66.2750 7.83046   1
  13   5   5 27.5179 8.24527  -4
 -14   5   5 27.5179 8.24527   2
  12   5   5 67.9767 6.60073  -4
 -13   5   5 67.9767 6.60073   2
  12   5   5 108.923 11.3377  -3
 -13   5   5 108.923 11.3377   1
  11   5   5 124.727 9.26493  -3
 -12   5   5 124.727 9.26493   1
  11   5   5 80.8689 6.87093  -4
 -12   5   5 80.8689 6.87093   2
  10   5   5 103.826 7.96883  -3
 -11   5   5 103.826 7.96883   1
  10   5   5 47.4588 5.57689  -4
 -11   5   5 47.4588 5.57689   2
   9   5   5 130.159 8.96268  -3
 -10   5   5 130.159 8.96268   1
   9   5   5 91.6550 7.71595  -4
 -10   5   5 91.6550 7.71595   2
   8   5   5 168.236 13.4821  -4
  -9   5   5 168.236 13.4821   2
   8   5   5 304.578 16.3270  -3
  -9   5   5 304.578 16.3270   1
   7   5   5 438.153 14.0641  -3
  -8   5   5 438.153 14.0641   1
   7   5   5 259.082 16.4658  -4
  -8   5   5 259.082 16.4658   2
   6   5   5 198.858 9.84998  -4
  -7   5   5 198.858 9.84998   2
   6   5   5 351.229 12.7138  -3
  -7   5   5 351.229 12.7138   1
   5   5   5 277.391 12.1104  -4
  -6   5   5 277.391 12.1104   2
   5   5   5 452.899 12.8231  -3
  -6   5   5 452.899 12.8231   1
   4   5   5 285.079 10.3558  -3
  -5   5   5 285.079 10.3558   1
   4   5   5 160.083 8.22663  -4
  -5   5   5 160.083 8.22663   2
   3   5   5 233.081 10.3475  -4
  -4   5   5 233.081 10.3475   2
   3   5   5 347.570 8.88254  -3
  -4   5   5 347.570 8.88254   1
   2   5   5 557.913 16.0088  -3
  -3   5   5 557.913 16.0088   1
   2   5   5 350.434 13.5065  -4
  -3   5   5 350.434 13.5065   2
   1   5   5 550.691 12.7860  -3
  -2   5   5 550.691 12.7860   1
   1   5   5 362.407 13.9479  -4
  -2   5   5 362.407 13.9479   2
   0   5   5 313.118 13.9762  -4
  -1   5   5 313.118 13.9762   2
   0   5   5 506.798 13.1544  -3
  -1   5   5 506.798 13.1544   1
  -1   5   5 321.767 9.24069  -4
   0   5   5 321.767 9.24069   2
  -1   5   5 516.871 13.3646  -3
   0   5   5 516.871 13.3646   1
  -2   5   5 341.462 8.74996  -4
   1   5   5 341.462 8.74996   2
  -2   5   5 565.572 23.9941  -3
   1   5   5 565.572 23.9941   1
  -3   5   5 533.982 23.2683  -3
   2   5   5 533.982 23.2683   1
  -3   5   5 375.780 11.9982  -4
   2   5   5 375.780 11.9982   2
  -4   5   5 207.889 6.23271  -4
   3   5   5 207.889 6.23271   2
  -4   5   5 339.767 16.7234  -3
   3   5   5 339.767 16.7234   1
  -5   5   5 173.801 5.52736  -4
   4   5   5 173.801 5.52736   2
  -5   5   5 262.944 11.7040  -3
   4   5   5 262.944 11.7040   1
  -6   5   5 264.700 7.49925  -4
   5   5   5 264.700 7.49925   2
  -6   5   5 437.308 16.6178  -3
   5   5   5 437.308 16.6178   1
  -7   5   5 315.812 13.2260  -3
   6   5   5 315.812 13.2260   1
  -7   5   5 222.398 6.70786  -4
   6   5   5 222.398 6.70786   2
  -8   5   5 281.083 9.88365  -4
   7   5   5 281.083 9.88365   2
  -8   5   5 389.342 26.0374  -3
   7   5   5 389.342 26.0374   1
  -9   5   5 177.743 8.58387  -4
   8   5   5 177.743 8.58387   2
  -9   5   5 255.095 12.6921  -3
   8   5   5 255.095 12.6921   1
 -10   5   5 154.966 13.1057  -3
   9   5   5 154.966 13.1057   1
 -10   5   5 74.2294 5.23628  -4
   9   5   5 74.2294 5.23628   2
 -11   5   5 66.9125 6.45002  -4
  10   5   5 66.9125 6.45002   2
 -11   5   5 88.8756 6.19721  -3
  10   5   5 88.8756 6.19721   1
 -12   5   5 148.076 8.69821  -3
  11   5   5 148.076 8.69821   1
 -12   5   5 87.5041 8.08703  -4
  11   5   5 87.5041 8.08703   2
 -13   5   5 93.8270 8.19798  -4
  12   5   5 93.8270 8.19798   2
 -13   5   5 129.356 20.3498  -3
  12   5   5 129.356 20.3498   1
 -14   5   5 60.2305 6.55101  -3
  13   5   5 60.2305 6.55101   1
 -14   5   5 40.4734 5.49571  -4
  13   5   5 40.4734 5.49571   2
 -15   5   5 39.8568 5.67804  -4
  14   5   5 39.8568 5.67804   2
 -15   5   5 46.8558 8.56262  -3
  14   5   5 46.8558 8.56262   1
  13   6   5 11.3766 5.09266  -4
 -14   6   5 11.3766 5.09266   2
  13   6   5 30.0535 6.63976  -3
 -14   6   5 30.0535 6.63976   1
  12   6   5 15.5686 11.3965  -4
 -13   6   5 15.5686 11.3965   2
  12   6   5 0.91239 5.75595  -3
 -13   6   5 0.91239 5.75595   1
  11   6   5 73.7721 7.89573  -4
 -12   6   5 73.7721 7.89573   2
  11   6   5 120.269 9.38294  -3
 -12   6   5 120.269 9.38294   1
  10   6   5 138.780 9.83737  -3
 -11   6   5 138.780 9.83737   1
  10   6   5 87.2576 8.25290  -4
 -11   6   5 87.2576 8.25290   2
   9   6   5 45.1537 5.74708  -3
 -10   6   5 45.1537 5.74708   1
   9   6   5 24.9697 4.60101  -4
 -10   6   5 24.9697 4.60101   2
   8   6   5 23.4957 4.69592  -3
  -9   6   5 23.4957 4.69592   1
   8   6   5 9.46262 3.68600  -4
  -9   6   5 9.46262 3.68600   2
   7   6   5 327.138 12.7009  -3
  -8   6   5 327.138 12.7009   1
   7   6   5 194.258 12.5847  -4
  -8   6   5 194.258 12.5847   2
   6   6   5 232.303 10.0072  -3
  -7   6   5 232.303 10.0072   1
   6   6   5 164.084 10.6261  -4
  -7   6   5 164.084 10.6261   2
   5   6   5 40.8866 6.90924  -4
  -6   6   5 40.8866 6.90924   2
   5   6   5 77.8202 4.38863  -3
  -6   6   5 77.8202 4.38863   1
   4   6   5 27.7811 3.88375  -4
  -5   6   5 27.7811 3.88375   2
   4   6   5 36.7843 3.00021  -3
  -5   6   5 36.7843 3.00021   1
   3   6   5 19.7688 3.23085  -4
  -4   6   5 19.7688 3.23085   2
   3   6   5 38.3668 3.02623  -3
  -4   6   5 38.3668 3.02623   1
   2   6   5 17.8168 3.11805  -4
  -3   6   5 17.8168 3.11805   2
   2   6   5 31.9449 3.31990  -3
  -3   6   5 31.9449 3.31990   1
   1   6   5 42.1239 3.06197  -3
  -2   6   5 42.1239 3.06197   1
   1   6   5 24.9686 3.55465  -4
  -2   6   5 24.9686 3.55465   2
   0   6   5 242.403 7.80590  -3
  -1   6   5 242.403 7.80590   1
   0   6   5 158.970 8.28460  -4
  -1   6   5 158.970 8.28460   2
  -1   6   5 258.801 8.47193  -3
   0   6   5 258.801 8.47193   1
  -1   6   5 145.750 5.80161  -4
   0   6   5 145.750 5.80161   2
  -2   6   5 32.6855 3.38610  -4
   1   6   5 32.6855 3.38610   2
  -2   6   5 45.0071 4.18345  -3
   1   6   5 45.0071 4.18345   1
  -3   6   5 16.4986 2.04642  -4
   2   6   5 16.4986 2.04642   2
  -3   6   5 27.8863 4.74156  -3
   2   6   5 27.8863 4.74156   1
  -4   6   5 16.3777 2.49959  -4
   3   6   5 16.3777 2.49959   2
  -4   6   5 21.3187 4.29319  -3
   3   6   5 21.3187 4.29319   1
  -5   6   5 26.0407 4.27528  -4
   4   6   5 26.0407 4.27528   2
  -5   6   5 36.2643 4.51065  -3
   4   6   5 36.2643 4.51065   1
  -6   6   5 45.3486 3.36034  -4
   5   6   5 45.3486 3.36034   2
  -6   6   5 68.7520 10.0432  -3
   5   6   5 68.7520 10.0432   1
  -7   6   5 224.278 10.9719  -3
   6   6   5 224.278 10.9719   1
  -7   6   5 146.212 5.82295  -4
   6   6   5 146.212 5.82295   2
  -8   6   5 308.172 12.1017  -3
   7   6   5 308.172 12.1017   1
  -8   6   5 212.862 8.04574  -4
   7   6   5 212.862 8.04574   2
  -9   6   5 10.0318 4.09669  -3
   8   6   5 10.0318 4.09669   1
  -9   6   5 8.86030 2.98078  -4
   8   6   5 8.86030 2.98078   2
 -10   6   5 20.8177 4.09619  -4
   9   6   5 20.8177 4.09619   2
 -10   6   5 52.2697 8.28261  -3
   9   6   5 52.2697 8.28261   1
 -11   6   5 87.5283 7.75006  -4
  10   6   5 87.5283 7.75006   2
 -11   6   5 135.405 13.3012  -3
  10   6   5 135.405 13.3012   1
 -12   6   5 142.103 14.1597  -3
  11   6   5 142.103 14.1597   1
 -12   6   5 92.1334 7.99722  -4
  11   6   5 92.1334 7.99722   2
 -13   6   5 8.30085 7.74311  -3
  12   6   5 8.30085 7.74311   1
 -13   6   5 12.5757 6.97870  -4
  12   6   5 12.5757 6.97870   2
 -14   6   5 22.2328 4.43197  -4
  13   6   5 22.2328 4.43197   2
  11   7   5 17.0962 5.58692  -4
 -12   7   5 17.0962 5.58692   2
  11   7   5 48.3658 5.96718  -3
 -12   7   5 48.3658 5.96718   1
  10   7   5 72.6317 6.51177  -3
 -11   7   5 72.6317 6.51177   1
  10   7   5 27.6547 8.90547  -4
 -11   7   5 27.6547 8.90547   2
   9   7   5 53.7067 6.67177  -3
 -10   7   5 53.7067 6.67177   1
   9   7   5 33.2219 5.22965  -4
 -10   7   5 33.2219 5.22965   2
   8   7   5 78.4422 7.13148  -4
  -9   7   5 78.4422 7.13148   2
   8   7   5 117.743 7.56397  -3
  -9   7   5 117.743 7.56397   1
   7   7   5 33.9556 5.12484  -4
  -8   7   5 33.9556 5.12484   2
   7   7   5 45.4202 5.83812  -3
  -8   7   5 45.4202 5.83812   1
   6   7   5 64.9019 6.42233  -4
  -7   7   5 64.9019 6.42233   2
   6   7   5 115.213 8.35831  -3
  -7   7   5 115.213 8.35831   1
   5   7   5 118.016 6.64901  -3
  -6   7   5 118.016 6.64901   1
   5   7   5 66.9297 7.40084  -4
  -6   7   5 66.9297 7.40084   2
   4   7   5 252.674 8.52156  -3
  -5   7   5 252.674 8.52156   1
   4   7   5 165.088 9.44676  -4
  -5   7   5 165.088 9.44676   2
   3   7   5 127.165 8.20419  -4
  -4   7   5 127.165 8.20419   2
   3   7   5 221.104 7.81609  -3
  -4   7   5 221.104 7.81609   1
   2   7   5 114.113 5.16742  -3
  -3   7   5 114.113 5.16742   1
   2   7   5 87.6550 8.96091  -4
  -3   7   5 87.6550 8.96091   2
   1   7   5 75.1322 4.65458  -3
  -2   7   5 75.1322 4.65458   1
   1   7   5 46.4695 4.93365  -4
  -2   7   5 46.4695 4.93365   2
   0   7   5 37.9738 4.73988  -4
  -1   7   5 37.9738 4.73988   2
   0   7   5 51.7544 3.56499  -3
  -1   7   5 51.7544 3.56499   1
  -1   7   5 60.3057 5.59234  -3
   0   7   5 60.3057 5.59234   1
  -1   7   5 32.3079 3.26493  -4
   0   7   5 32.3079 3.26493   2
  -2   7   5 47.6659 3.61983  -4
   1   7   5 47.6659 3.61983   2
  -2   7   5 85.6147 6.22928  -3
   1   7   5 85.6147 6.22928   1
  -3   7   5 119.216 7.49125  -3
   2   7   5 119.216 7.49125   1
  -3   7   5 74.7301 4.20236  -4
   2   7   5 74.7301 4.20236   2
  -4   7   5 124.805 6.85297  -4
   3   7   5 124.805 6.85297   2
  -4   7   5 204.053 16.0814  -3
   3   7   5 204.053 16.0814   1
  -5   7   5 168.660 9.47879  -4
   4   7   5 168.660 9.47879   2
  -5   7   5 239.194 14.9592  -3
   4   7   5 239.194 14.9592   1
  -6   7   5 64.5922 5.85113  -4
   5   7   5 64.5922 5.85113   2
  -6   7   5 101.694 7.43964  -3
   5   7   5 101.694 7.43964   1
  -7   7   5 78.5190 6.36275  -4
   6   7   5 78.5190 6.36275   2
  -7   7   5 113.583 6.95337  -3
   6   7   5 113.583 6.95337   1
  -8   7   5 37.6806 5.38575  -4
   7   7   5 37.6806 5.38575   2
  -8   7   5 58.0548 4.88377  -3
   7   7   5 58.0548 4.88377   1
  -9   7   5 111.284 8.80248  -3
   8   7   5 111.284 8.80248   1
  -9   7   5 91.9728 7.88794  -4
   8   7   5 91.9728 7.88794   2
  -9   7   5 158.213 19.3629  -4
   4   7   9 158.213 19.3629  -3
   8   7   5 158.213 19.3629   2
 -10   7   5 41.1484 5.65906  -4
   9   7   5 41.1484 5.65906   2
 -10   7   5 54.1028 9.88291  -3
   9   7   5 54.1028 9.88291   1
 -11   7   5 82.7126 11.4459  -3
  10   7   5 82.7126 11.4459   1
 -11   7   5 60.3784 10.2913  -4
  10   7   5 60.3784 10.2913   2
 -12   7   5 29.9529 5.39823  -4
  11   7   5 29.9529 5.39823   2
 -12   7   5 53.9695 12.5738  -3
  11   7   5 53.9695 12.5738   1
   9   8   5 29.9367 10.7857  -3
 -10   8   5 29.9367 10.7857   1
   9   8   5 21.6746 8.71073  -4
 -10   8   5 21.6746 8.71073   2
   8   8   5 156.617 10.8544  -3
  -9   8   5 156.617 10.8544   1
   8   8   5 84.4785 7.94262  -4
  -9   8   5 84.4785 7.94262   2
   7   8   5 11.1542 4.35026  -4
  -8   8   5 11.1542 4.35026   2
   7   8   5 18.4359 5.32404  -3
  -8   8   5 18.4359 5.32404   1
   6   8   5 98.5152 8.16135  -3
  -7   8   5 98.5152 8.16135   1
   6   8   5 34.6331 9.15715  -4
  -7   8   5 34.6331 9.15715   2
   5   8   5 -1.3817 4.36752  -3
  -6   8   5 -1.3817 4.36752   1
   5   8   5 2.68549 2.03760  -4
  -6   8   5 2.68549 2.03760   2
   4   8   5 -0.5613 2.10533  -3
  -5   8   5 -0.5613 2.10533   1
   4   8   5 1.09050 2.20062  -4
  -5   8   5 1.09050 2.20062   2
   3   8   5 -1.8604 2.25978  -4
  -4   8   5 -1.8604 2.25978   2
   3   8   5 3.00846 2.30869  -3
  -4   8   5 3.00846 2.30869   1
   2   8   5 12.8277 2.71524  -3
  -3   8   5 12.8277 2.71524   1
   2   8   5 6.41178 2.56670  -4
  -3   8   5 6.41178 2.56670   2
   1   8   5 19.9299 3.46564  -4
  -2   8   5 19.9299 3.46564   2
   1   8   5 35.3055 3.55932  -3
  -2   8   5 35.3055 3.55932   1
   0   8   5 29.4932 4.79216  -3
  -1   8   5 29.4932 4.79216   1
   0   8   5 14.3484 3.31414  -4
  -1   8   5 14.3484 3.31414   2
  -1   8   5 21.9916 3.69207  -4
   0   8   5 21.9916 3.69207   2
  -1   8   5 30.7864 4.77807  -3
   0   8   5 30.7864 4.77807   1
  -2   8   5 38.8847 4.96123  -3
   1   8   5 38.8847 4.96123   1
  -2   8   5 25.0247 3.42243  -4
   1   8   5 25.0247 3.42243   2
  -3   8   5 7.86854 3.30293  -3
   2   8   5 7.86854 3.30293   1
  -3   8   5 7.73474 2.47853  -4
   2   8   5 7.73474 2.47853   2
  -4   8   5 5.75202 3.49484  -3
   3   8   5 5.75202 3.49484   1
  -4   8   5 -1.7372 2.12884  -4
   3   8   5 -1.7372 2.12884   2
  -5   8   5 0.54859 3.00613  -4
   4   8   5 0.54859 3.00613   2
  -5   8   5 -1.4198 2.75499  -3
   4   8   5 -1.4198 2.75499   1
  -6   8   5 -3.0413 3.22998  -4
   5   8   5 -3.0413 3.22998   2
  -6   8   5 0.97950 2.90010  -3
   5   8   5 0.97950 2.90010   1
  -7   8   5 87.1406 6.38105  -3
   6   8   5 87.1406 6.38105   1
  -7   8   5 44.9220 4.52569  -4
   6   8   5 44.9220 4.52569   2
  -8   8   5 24.5463 4.29031  -3
   7   8   5 24.5463 4.29031   1
  -8   8   5 15.5607 3.90078  -4
   7   8   5 15.5607 3.90078   2
  -9   8   5 80.4338 6.37440  -4
   8   8   5 80.4338 6.37440   2
  -9   8   5 142.899 10.2922  -3
   8   8   5 142.899 10.2922   1
 -10   8   5 22.0262 4.63729  -4
   9   8   5 22.0262 4.63729   2
 -10   8   5 30.1580 6.72754  -3
   9   8   5 30.1580 6.72754   1
   6   9   5 58.7522 5.33153  -4
  -7   9   5 58.7522 5.33153   2
   6   9   5 126.973 14.7424  -3
  -7   9   5 126.973 14.7424   1
   5   9   5 81.5928 5.95949  -4
  -6   9   5 81.5928 5.95949   2
   5   9   5 155.816 8.83564  -3
  -6   9   5 155.816 8.83564   1
   4   9   5 84.6327 5.81073  -4
  -5   9   5 84.6327 5.81073   2
   4   9   5 147.489 7.32083  -3
  -5   9   5 147.489 7.32083   1
   3   9   5 128.533 8.15166  -4
  -4   9   5 128.533 8.15166   2
   3   9   5 198.114 9.08885  -3
  -4   9   5 198.114 9.08885   1
   2   9   5 109.943 6.90301  -4
  -3   9   5 109.943 6.90301   2
   2   9   5 179.114 10.8267  -3
  -3   9   5 179.114 10.8267   1
   1   9   5 233.941 12.8918  -3
  -2   9   5 233.941 12.8918   1
   1   9   5 128.917 8.46120  -4
  -2   9   5 128.917 8.46120   2
   0   9   5 28.7552 4.42413  -4
  -1   9   5 28.7552 4.42413   2
   0   9   5 44.6645 5.68219  -3
  -1   9   5 44.6645 5.68219   1
  -1   9   5 33.5886 4.57538  -4
   0   9   5 33.5886 4.57538   2
  -1   9   5 43.3146 8.94814  -3
   0   9   5 43.3146 8.94814   1
  -2   9   5 133.617 8.92547  -4
   1   9   5 133.617 8.92547   2
  -2   9   5 235.265 13.5286  -3
   1   9   5 235.265 13.5286   1
  -3   9   5 116.670 6.35051  -4
   2   9   5 116.670 6.35051   2
  -3   9   5 199.017 11.3473  -3
   2   9   5 199.017 11.3473   1
  -4   9   5 120.854 5.95813  -4
   3   9   5 120.854 5.95813   2
  -4   9   5 215.201 10.2513  -3
   3   9   5 215.201 10.2513   1
  -5   9   5 81.0532 6.60164  -4
   4   9   5 81.0532 6.60164   2
  -5   9   5 146.148 7.67321  -3
   4   9   5 146.148 7.67321   1
  -6   9   5 91.3518 6.74852  -4
   5   9   5 91.3518 6.74852   2
  -6   9   5 146.835 7.89630  -3
   5   9   5 146.835 7.89630   1
  -7   9   5 78.6260 6.04026  -3
   6   9   5 78.6260 6.04026   1
  -7   9   5 66.8179 7.84472  -4
   6   9   5 66.8179 7.84472   2
  16   0   6 9.26901 5.75823  -3
 -17   0   6 9.26901 5.75823   1
  16   0   6 8.57525 8.12742  -4
 -17   0   6 8.57525 8.12742   2
  15   0   6 28.6457 6.55809  -3
 -16   0   6 28.6457 6.55809   1
  15   0   6 27.5647 9.25827  -4
 -16   0   6 27.5647 9.25827   2
  14   0   6 11.1127 4.90657  -3
 -15   0   6 11.1127 4.90657   1
  14   0   6 16.9619 7.66799  -4
 -15   0   6 16.9619 7.66799   2
  13   0   6 -0.8725 3.90343  -3
 -14   0   6 -0.8725 3.90343   1
  13   0   6 3.41478 5.30889  -4
 -14   0   6 3.41478 5.30889   2
  12   0   6 11.2800 6.16596  -4
 -13   0   6 11.2800 6.16596   2
  12   0   6 23.2612 4.73408  -3
 -13   0   6 23.2612 4.73408   1
  11   0   6 11.8785 6.05858  -4
 -12   0   6 11.8785 6.05858   2
  10   0   6 387.894 27.9289  -3
 -11   0   6 387.894 27.9289   1
  10   0   6 221.252 19.9796  -4
 -11   0   6 221.252 19.9796   2
   9   0   6 49.2547 6.78994  -3
 -10   0   6 49.2547 6.78994   1
   9   0   6 40.5149 7.87474  -4
 -10   0   6 40.5149 7.87474   2
   8   0   6 651.182 22.1490  -3
  -9   0   6 651.182 22.1490   1
   8   0   6 370.262 26.8438  -4
  -9   0   6 370.262 26.8438   2
   7   0   6 507.169 17.8131  -3
  -8   0   6 507.169 17.8131   1
   7   0   6 308.377 22.8153  -4
  -8   0   6 308.377 22.8153   2
   6   0   6 430.765 15.3573  -3
  -7   0   6 430.765 15.3573   1
   6   0   6 258.802 19.5201  -4
  -7   0   6 258.802 19.5201   2
   5   0   6 1.51492 1.72757  -3
  -6   0   6 1.51492 1.72757   1
   5   0   6 -1.9715 2.70528  -4
  -6   0   6 -1.9715 2.70528   2
   4   0   6 482.364 20.6047  -3
  -5   0   6 482.364 20.6047   1
   4   0   6 276.058 19.6020  -4
  -5   0   6 276.058 19.6020   2
   3   0   6 387.454 11.1834  -3
  -4   0   6 387.454 11.1834   1
   2   0   6 14.4892 2.24764  -4
  -3   0   6 14.4892 2.24764   2
   2   0   6 30.0734 2.54495  -3
  -3   0   6 30.0734 2.54495   1
   1   0   6 17.8539 1.73470  -3
  -2   0   6 17.8539 1.73470   1
   1   0   6 10.4823 1.98749  -4
  -2   0   6 10.4823 1.98749   2
  -2   0   6 19.8163 3.08469   1
   0   0   6 773.910 21.1399  -4
  -1   0   6 773.910 21.1399   2
   0   0   6 1233.30 29.3523  -3
  -1   0   6 1233.30 29.3523   1
  -1   0   6 1271.67 35.9786  -3
   0   0   6 1271.67 35.9786   1
  -1   0   6 848.832 26.6645  -4
   0   0   6 848.832 26.6645   2
  -2   0   6 7.32488 1.75826  -4
   1   0   6 7.32488 1.75826   2
  -2   0   6 15.4426 2.11333  -3
   1   0   6 15.4426 2.11333   1
   1   0   6 0.51066 1.14799   3
  -3   0   6 18.5031 2.52076  -4
   2   0   6 18.5031 2.52076   2
  -3   0   6 29.4864 2.84119  -3
   2   0   6 29.4864 2.84119   1
  -4   0   6 381.441 23.9951  -3
   3   0   6 381.441 23.9951   1
  -4   0   6 231.988 11.1657  -4
   3   0   6 231.988 11.1657   2
  -5   0   6 333.699 12.1495  -4
   4   0   6 333.699 12.1495   2
  -5   0   6 475.620 29.4642  -3
   4   0   6 475.620 29.4642   1
  -6   0   6 8.02060 3.19462  -3
   5   0   6 8.02060 3.19462   1
  -6   0   6 0.97706 2.18593  -4
   5   0   6 0.97706 2.18593   2
  -7   0   6 468.347 29.8507  -3
   6   0   6 468.347 29.8507   1
  -7   0   6 351.704 16.3740  -4
   6   0   6 351.704 16.3740   2
  -8   0   6 494.119 31.8040  -3
   7   0   6 494.119 31.8040   1
  -8   0   6 300.375 10.7440  -4
   7   0   6 300.375 10.7440   2
  -9   0   6 476.697 15.8123  -4
   8   0   6 476.697 15.8123   2
  -9   0   6 709.654 43.9163  -3
   8   0   6 709.654 43.9163   1
 -10   0   6 40.0009 3.30935  -4
   9   0   6 40.0009 3.30935   2
 -10   0   6 81.1112 7.58977  -3
   9   0   6 81.1112 7.58977   1
 -11   0   6 290.855 11.0525  -4
  10   0   6 290.855 11.0525   2
 -11   0   6 554.631 36.0000  -3
  10   0   6 554.631 36.0000   1
 -12   0   6 5.76220 4.40104  -3
  11   0   6 5.76220 4.40104   1
 -12   0   6 13.4300 3.65827  -4
  11   0   6 13.4300 3.65827   2
 -13   0   6 25.1738 4.69677  -4
  12   0   6 25.1738 4.69677   2
 -14   0   6 -0.7931 3.70201  -4
  13   0   6 -0.7931 3.70201   2
 -14   0   6 12.2098 7.77795  -3
  13   0   6 12.2098 7.77795   1
 -15   0   6 30.3587 10.3531  -3
  14   0   6 30.3587 10.3531   1
 -15   0   6 7.79241 4.73725  -4
  14   0   6 7.79241 4.73725   2
 -16   0   6 56.0127 9.40903  -3
  15   0   6 56.0127 9.40903   1
 -16   0   6 26.6560 6.21642  -4
  15   0   6 26.6560 6.21642   2
 -17   0   6 25.3666 12.5793  -3
  16   0   6 25.3666 12.5793   1
 -17   0   6 9.55805 8.28116  -4
  16   0   6 9.55805 8.28116   2
  16   1   6 70.9099 7.40189  -3
 -17   1   6 70.9099 7.40189   1
  16   1   6 24.3819 7.42503  -4
 -17   1   6 24.3819 7.42503   2
  15   1   6 92.2094 10.3381  -3
 -16   1   6 92.2094 10.3381   1
  15   1   6 37.0553 7.31152  -4
 -16   1   6 37.0553 7.31152   2
  14   1   6 149.256 9.80191  -3
 -15   1   6 149.256 9.80191   1
  14   1   6 52.0021 11.2243  -4
 -15   1   6 52.0021 11.2243   2
  13   1   6 75.3931 8.52316  -4
 -14   1   6 75.3931 8.52316   2
  13   1   6 79.3779 7.18806  -3
 -14   1   6 79.3779 7.18806   1
  12   1   6 215.037 11.1062  -3
 -13   1   6 215.037 11.1062   1
  12   1   6 166.820 12.8055  -4
 -13   1   6 166.820 12.8055   2
  11   1   6 30.8368 5.54139  -4
 -12   1   6 30.8368 5.54139   2
  11   1   6 51.5624 3.97786  -3
 -12   1   6 51.5624 3.97786   1
  10   1   6 74.7574 7.66226  -4
 -11   1   6 74.7574 7.66226   2
  10   1   6 112.384 4.67788  -3
 -11   1   6 112.384 4.67788   1
   9   1   6 27.1727 4.73586  -4
 -10   1   6 27.1727 4.73586   2
   9   1   6 44.6117 3.43246  -3
 -10   1   6 44.6117 3.43246   1
   8   1   6 66.6076 6.50558  -4
  -9   1   6 66.6076 6.50558   2
   8   1   6 123.519 5.70255  -3
  -9   1   6 123.519 5.70255   1
   7   1   6 134.810 9.31635  -4
  -8   1   6 134.810 9.31635   2
   7   1   6 226.989 7.28071  -3
  -8   1   6 226.989 7.28071   1
   6   1   6 934.003 22.9278  -3
  -7   1   6 934.003 22.9278   1
   6   1   6 544.598 24.5072  -4
  -7   1   6 544.598 24.5072   2
   5   1   6 1555.11 40.1369  -3
  -6   1   6 1555.11 40.1369   1
   5   1   6 928.745 37.9829  -4
  -6   1   6 928.745 37.9829   2
   4   1   6 1723.63 35.4287  -3
  -5   1   6 1723.63 35.4287   1
   4   1   6 1027.28 41.1764  -4
  -5   1   6 1027.28 41.1764   2
   3   1   6 200.024 8.57078  -4
  -4   1   6 200.024 8.57078   2
   3   1   6 287.533 7.38584  -3
  -4   1   6 287.533 7.38584   1
   2   1   6 575.442 16.3961  -4
  -3   1   6 575.442 16.3961   2
   2   1   6 820.874 20.2001  -3
  -3   1   6 820.874 20.2001   1
   1   1   6 587.331 12.8061  -3
  -2   1   6 587.331 12.8061   1
   1   1   6 370.307 11.3144  -4
  -2   1   6 370.307 11.3144   2
   0   1   6 562.913 13.0772  -4
  -1   1   6 562.913 13.0772   2
   0   1   6 857.017 15.2461  -3
  -1   1   6 857.017 15.2461   1
  -1   1   6 501.647 11.7959  -4
   0   1   6 501.647 11.7959   2
  -1   1   6 830.071 14.7957  -3
   0   1   6 830.071 14.7957   1
  -2   1   6 416.460 10.0420  -4
   1   1   6 416.460 10.0420   2
  -2   1   6 629.130 16.1625  -3
   1   1   6 629.130 16.1625   1
  -3   1   6 501.197 12.7737  -4
   2   1   6 501.197 12.7737   2
  -3   1   6 872.650 27.4236  -3
   2   1   6 872.650 27.4236   1
  -4   1   6 224.556 6.14395  -4
   3   1   6 224.556 6.14395   2
  -4   1   6 332.979 12.2491  -3
   3   1   6 332.979 12.2491   1
  -5   1   6 981.788 26.3514  -4
   4   1   6 981.788 26.3514   2
  -5   1   6 1543.84 59.2213  -3
   4   1   6 1543.84 59.2213   1
  -6   1   6 1119.45 26.7056  -4
   5   1   6 1119.45 26.7056   2
  -6   1   6 1602.37 61.8158  -3
   5   1   6 1602.37 61.8158   1
  -7   1   6 539.510 14.0429  -4
   6   1   6 539.510 14.0429   2
  -7   1   6 876.452 36.2326  -3
   6   1   6 876.452 36.2326   1
  -8   1   6 167.405 4.91539  -4
   7   1   6 167.405 4.91539   2
  -8   1   6 269.750 14.4221  -3
   7   1   6 269.750 14.4221   1
  -9   1   6 73.3326 2.92204  -4
   8   1   6 73.3326 2.92204   2
  -9   1   6 119.952 8.69684  -3
   8   1   6 119.952 8.69684   1
 -10   1   6 31.9475 2.27416  -4
   9   1   6 31.9475 2.27416   2
 -10   1   6 58.5411 5.04489  -3
   9   1   6 58.5411 5.04489   1
 -11   1   6 88.7738 3.41957  -4
  10   1   6 88.7738 3.41957   2
 -11   1   6 144.076 7.43164  -3
  10   1   6 144.076 7.43164   1
 -12   1   6 44.4061 2.97156  -4
  11   1   6 44.4061 2.97156   2
 -12   1   6 90.4133 7.26837  -3
  11   1   6 90.4133 7.26837   1
 -13   1   6 197.485 8.82968  -4
  12   1   6 197.485 8.82968   2
 -13   1   6 332.983 19.6371  -3
  12   1   6 332.983 19.6371   1
 -14   1   6 128.886 6.57062  -4
  13   1   6 128.886 6.57062   2
 -14   1   6 203.935 21.9147  -3
  13   1   6 203.935 21.9147   1
 -15   1   6 87.1728 4.97045  -4
  14   1   6 87.1728 4.97045   2
 -15   1   6 141.569 13.3115  -3
  14   1   6 141.569 13.3115   1
 -16   1   6 105.528 8.10575  -3
  15   1   6 105.528 8.10575   1
 -16   1   6 83.3810 6.12386  -4
  15   1   6 83.3810 6.12386   2
 -17   1   6 34.6634 5.07371  -4
  16   1   6 34.6634 5.07371   2
 -17   1   6 81.6281 11.8781  -3
  16   1   6 81.6281 11.8781   1
  16   2   6 40.5063 11.3227  -4
 -17   2   6 40.5063 11.3227   2
  16   2   6 79.7668 10.3248  -3
 -17   2   6 79.7668 10.3248   1
  15   2   6 45.2740 8.58131  -3
 -16   2   6 45.2740 8.58131   1
  15   2   6 11.8572 5.88310  -4
 -16   2   6 11.8572 5.88310   2
  14   2   6 29.9576 6.63114  -4
 -15   2   6 29.9576 6.63114   2
  14   2   6 58.0455 6.67624  -3
 -15   2   6 58.0455 6.67624   1
  13   2   6 8.32112 4.31711  -4
 -14   2   6 8.32112 4.31711   2
  13   2   6 12.0352 4.59940  -3
 -14   2   6 12.0352 4.59940   1
  12   2   6 9.79134 3.97194  -3
 -13   2   6 9.79134 3.97194   1
  12   2   6 6.11396 4.04945  -4
 -13   2   6 6.11396 4.04945   2
  11   2   6 74.6954 8.19148  -4
 -12   2   6 74.6954 8.19148   2
  11   2   6 157.015 11.8369  -3
 -12   2   6 157.015 11.8369   1
  10   2   6 65.0197 7.26722  -3
 -11   2   6 65.0197 7.26722   1
   9   2   6 147.603 8.80925  -3
 -10   2   6 147.603 8.80925   1
   9   2   6 77.7048 7.56779  -4
 -10   2   6 77.7048 7.56779   2
   8   2   6 -2.1747 3.92098  -4
  -9   2   6 -2.1747 3.92098   2
   8   2   6 3.94889 2.81342  -3
  -9   2   6 3.94889 2.81342   1
   7   2   6 90.6125 7.61758  -4
  -8   2   6 90.6125 7.61758   2
   7   2   6 162.235 8.66687  -3
  -8   2   6 162.235 8.66687   1
   6   2   6 -2.6631 2.41735  -3
  -7   2   6 -2.6631 2.41735   1
   6   2   6 -1.0629 2.01332  -4
  -7   2   6 -1.0629 2.01332   2
   5   2   6 2.69925 2.11544  -4
  -6   2   6 2.69925 2.11544   2
   5   2   6 0.07468 1.11496  -3
  -6   2   6 0.07468 1.11496   1
  -6   2   6 0.60099 0.82933   1
   4   2   6 500.722 12.6055  -3
  -5   2   6 500.722 12.6055   1
   4   2   6 307.962 15.3778  -4
  -5   2   6 307.962 15.3778   2
   3   2   6 734.865 17.9101  -3
  -4   2   6 734.865 17.9101   1
   3   2   6 489.981 20.7773  -4
  -4   2   6 489.981 20.7773   2
   2   2   6 358.231 11.1726  -3
  -3   2   6 358.231 11.1726   1
   2   2   6 208.268 7.33689  -4
  -3   2   6 208.268 7.33689   2
   1   2   6 374.820 11.3085  -3
  -2   2   6 374.820 11.3085   1
   1   2   6 229.439 7.03475  -4
  -2   2   6 229.439 7.03475   2
   0   2   6 904.216 21.4050  -3
  -1   2   6 904.216 21.4050   1
   0   2   6 541.719 12.5871  -4
  -1   2   6 541.719 12.5871   2
  -1   2   6 610.248 15.3074  -4
   0   2   6 610.248 15.3074   2
  -1   2   6 917.279 21.3358  -3
   0   2   6 917.279 21.3358   1
   0   2   6 895.525 38.5210   3
  -2   2   6 203.882 6.81164  -4
   1   2   6 203.882 6.81164   2
  -2   2   6 353.673 10.2878  -3
   1   2   6 353.673 10.2878   1
  -3   2   6 378.091 11.2808  -3
   2   2   6 378.091 11.2808   1
  -3   2   6 234.673 9.79143  -4
   2   2   6 234.673 9.79143   2
  -4   2   6 725.946 23.6118  -3
   3   2   6 725.946 23.6118   1
  -4   2   6 442.433 18.8189  -4
   3   2   6 442.433 18.8189   2
  -5   2   6 550.748 18.8129  -3
   4   2   6 550.748 18.8129   1
  -5   2   6 376.690 14.1333  -4
   4   2   6 376.690 14.1333   2
  -6   2   6 2.75541 1.82960  -4
   5   2   6 2.75541 1.82960   2
   5   2   6 -0.4720 0.81363   3
  -6   2   6 -0.0417 1.83958  -3
   5   2   6 -0.0417 1.83958   1
  -7   2   6 -0.2388 1.27092  -4
   6   2   6 -0.2388 1.27092   2
  -7   2   6 -3.0096 2.13241  -3
   6   2   6 -3.0096 2.13241   1
  -8   2   6 86.5274 3.42009  -4
   7   2   6 86.5274 3.42009   2
  -8   2   6 140.072 9.47574  -3
   7   2   6 140.072 9.47574   1
  -9   2   6 -0.1261 1.81005  -4
   8   2   6 -0.1261 1.81005   2
  -9   2   6 1.76936 2.41169  -3
   8   2   6 1.76936 2.41169   1
 -10   2   6 136.849 7.90873  -3
   9   2   6 136.849 7.90873   1
 -10   2   6 91.1278 4.88064  -4
   9   2   6 91.1278 4.88064   2
 -11   2   6 76.9844 6.35552  -3
  10   2   6 76.9844 6.35552   1
 -11   2   6 36.6480 4.87132  -4
  10   2   6 36.6480 4.87132   2
 -12   2   6 166.611 9.88292  -3
  11   2   6 166.611 9.88292   1
 -12   2   6 90.5370 6.46200  -4
  11   2   6 90.5370 6.46200   2
 -13   2   6 6.47275 2.70590  -4
  12   2   6 6.47275 2.70590   2
 -13   2   6 18.4973 5.21220  -3
  12   2   6 18.4973 5.21220   1
 -13   2   6 42.3050 8.38489  -3
  -7   2  13 42.3050 8.38489  -2
  12   2   6 42.3050 8.38489   1
 -14   2   6 2.59938 2.62790  -4
  13   2   6 2.59938 2.62790   2
 -14   2   6 6.33931 5.60269  -3
  13   2   6 6.33931 5.60269   1
 -14   2   6 21.4179 11.5156  -3
  -7   2  14 21.4179 11.5156  -2
  13   2   6 21.4179 11.5156   1
 -15   2   6 42.2347 4.18110  -4
  14   2   6 42.2347 4.18110   2
 -15   2   6 57.0498 9.06073  -3
  14   2   6 57.0498 9.06073   1
 -16   2   6 23.5822 3.87004  -4
  15   2   6 23.5822 3.87004   2
 -16   2   6 32.7370 8.39191  -3
  15   2   6 32.7370 8.39191   1
 -17   2   6 70.1944 9.29494  -4
  16   2   6 70.1944 9.29494   2
 -17   2   6 124.128 9.24226  -3
  16   2   6 124.128 9.24226   1
  15   3   6 20.1735 7.53747  -3
 -16   3   6 20.1735 7.53747   1
  15   3   6 5.66722 5.84620  -4
 -16   3   6 5.66722 5.84620   2
  14   3   6 73.2344 7.85113  -3
 -15   3   6 73.2344 7.85113   1
  14   3   6 26.3405 7.00792  -4
 -15   3   6 26.3405 7.00792   2
  13   3   6 43.5807 6.23563  -3
 -14   3   6 43.5807 6.23563   1
  13   3   6 22.0769 8.37080  -4
 -14   3   6 22.0769 8.37080   2
  12   3   6 151.599 10.0625  -3
 -13   3   6 151.599 10.0625   1
  12   3   6 76.4220 8.92838  -4
 -13   3   6 76.4220 8.92838   2
  11   3   6 128.649 10.9169  -3
 -12   3   6 128.649 10.9169   1
  11   3   6 64.1950 8.07136  -4
 -12   3   6 64.1950 8.07136   2
  10   3   6 152.436 11.7476  -3
 -11   3   6 152.436 11.7476   1
  10   3   6 81.4169 8.77222  -4
 -11   3   6 81.4169 8.77222   2
   9   3   6 2.21465 3.39226  -3
 -10   3   6 2.21465 3.39226   1
   9   3   6 -0.7400 3.09094  -4
 -10   3   6 -0.7400 3.09094   2
   8   3   6 7.66623 3.63680  -4
  -9   3   6 7.66623 3.63680   2
   8   3   6 27.6869 3.09245  -3
  -9   3   6 27.6869 3.09245   1
   7   3   6 190.045 7.24239  -3
  -8   3   6 190.045 7.24239   1
   7   3   6 100.886 8.52221  -4
  -8   3   6 100.886 8.52221   2
   6   3   6 496.985 14.5330  -3
  -7   3   6 496.985 14.5330   1
   6   3   6 296.182 11.7730  -4
  -7   3   6 296.182 11.7730   2
   5   3   6 311.738 12.3157  -4
  -6   3   6 311.738 12.3157   2
   5   3   6 531.870 16.1880  -3
  -6   3   6 531.870 16.1880   1
   4   3   6 304.052 11.7166  -4
  -5   3   6 304.052 11.7166   2
   4   3   6 505.910 13.5476  -3
  -5   3   6 505.910 13.5476   1
   3   3   6 318.003 8.34191  -3
  -4   3   6 318.003 8.34191   1
   3   3   6 184.877 7.89036  -4
  -4   3   6 184.877 7.89036   2
   2   3   6 329.516 12.0469  -4
  -3   3   6 329.516 12.0469   2
   2   3   6 533.670 15.8359  -3
  -3   3   6 533.670 15.8359   1
   1   3   6 591.966 13.4148  -3
  -2   3   6 591.966 13.4148   1
   1   3   6 341.646 10.4029  -4
  -2   3   6 341.646 10.4029   2
   0   3   6 349.553 8.77886  -4
  -1   3   6 349.553 8.77886   2
   0   3   6 546.948 15.1168  -3
  -1   3   6 546.948 15.1168   1
  -1   3   6 313.029 7.96827  -4
   0   3   6 313.029 7.96827   2
  -1   3   6 476.531 18.1774  -3
   0   3   6 476.531 18.1774   1
  -2   3   6 405.026 8.87460  -4
   1   3   6 405.026 8.87460   2
  -2   3   6 608.263 15.0562  -3
   1   3   6 608.263 15.0562   1
  -3   3   6 506.738 14.6322  -3
   2   3   6 506.738 14.6322   1
  -3   3   6 311.429 10.7786  -4
   2   3   6 311.429 10.7786   2
  -4   3   6 338.793 10.6612  -3
   3   3   6 338.793 10.6612   1
  -4   3   6 232.026 10.1017  -4
   3   3   6 232.026 10.1017   2
  -5   3   6 500.099 17.4404  -3
   4   3   6 500.099 17.4404   1
  -5   3   6 293.610 9.29707  -4
   4   3   6 293.610 9.29707   2
  -6   3   6 369.326 11.0283  -4
   5   3   6 369.326 11.0283   2
  -6   3   6 551.889 25.1258  -3
   5   3   6 551.889 25.1258   1
  -7   3   6 297.779 10.4248  -4
   6   3   6 297.779 10.4248   2
  -7   3   6 462.035 14.0549  -3
   6   3   6 462.035 14.0549   1
  -8   3   6 190.227 8.97375  -3
   7   3   6 190.227 8.97375   1
  -8   3   6 143.184 6.74106  -4
   7   3   6 143.184 6.74106   2
  -9   3   6 15.0078 2.07098  -4
   8   3   6 15.0078 2.07098   2
  -9   3   6 16.8303 4.08085  -3
   8   3   6 16.8303 4.08085   1
 -10   3   6 -0.2603 2.84250  -3
   9   3   6 -0.2603 2.84250   1
 -10   3   6 1.17988 2.62765  -4
   9   3   6 1.17988 2.62765   2
 -11   3   6 157.527 9.24235  -3
  10   3   6 157.527 9.24235   1
 -11   3   6 79.1228 4.65966  -4
  10   3   6 79.1228 4.65966   2
   5   3  11 119.079 13.4537  -4
 -11   3   6 119.079 13.4537  -3
  -7   3  11 119.079 13.4537  -2
  10   3   6 119.079 13.4537   1
 -12   3   6 92.9761 8.61716  -4
  11   3   6 92.9761 8.61716   2
 -12   3   6 144.434 11.1332  -3
  11   3   6 144.434 11.1332   1
 -13   3   6 76.9103 4.83936  -4
  12   3   6 76.9103 4.83936   2
 -13   3   6 165.191 20.9716  -3
  -7   3  13 165.191 20.9716  -2
  12   3   6 165.191 20.9716   1
 -13   3   6 113.570 10.2247  -3
  12   3   6 113.570 10.2247   1
 -14   3   6 29.1662 4.39809  -4
  13   3   6 29.1662 4.39809   2
 -14   3   6 43.8452 11.5525  -3
  13   3   6 43.8452 11.5525   1
 -15   3   6 38.7546 4.15854  -4
  14   3   6 38.7546 4.15854   2
 -15   3   6 51.4609 8.49342  -3
  14   3   6 51.4609 8.49342   1
 -16   3   6 34.3032 6.63335  -3
  15   3   6 34.3032 6.63335   1
 -16   3   6 20.8473 4.31849  -4
  15   3   6 20.8473 4.31849   2
 -16   4   6 2.12050 7.09432   1
 -16   4   6 0.76343 2.80104   4
  15   4   6 14.0414 11.4084  -3
 -16   4   6 14.0414 11.4084   1
  14   4   6 15.3868 5.83275  -3
 -15   4   6 15.3868 5.83275   1
  14   4   6 1.89564 5.62366  -4
 -15   4   6 1.89564 5.62366   2
  13   4   6 2.84986 4.95917  -3
 -14   4   6 2.84986 4.95917   1
  13   4   6 6.89855 5.07534  -4
 -14   4   6 6.89855 5.07534   2
  12   4   6 59.6618 8.19320  -4
 -13   4   6 59.6618 8.19320   2
  12   4   6 88.6384 8.20354  -3
 -13   4   6 88.6384 8.20354   1
  11   4   6 69.9826 8.43265  -4
 -12   4   6 69.9826 8.43265   2
  11   4   6 113.358 11.1810  -3
 -12   4   6 113.358 11.1810   1
  10   4   6 51.7296 11.8018  -4
 -11   4   6 51.7296 11.8018   2
  10   4   6 162.281 12.3578  -3
 -11   4   6 162.281 12.3578   1
   9   4   6 86.2643 13.9563  -4
 -10   4   6 86.2643 13.9563   2
   9   4   6 172.457 8.76509  -3
 -10   4   6 172.457 8.76509   1
   8   4   6 482.179 19.3781  -3
  -9   4   6 482.179 19.3781   1
   8   4   6 257.266 11.3112  -4
  -9   4   6 257.266 11.3112   2
   7   4   6 143.556 10.9056  -4
  -8   4   6 143.556 10.9056   2
   7   4   6 277.639 9.68673  -3
  -8   4   6 277.639 9.68673   1
   6   4   6 190.787 6.98731  -4
  -7   4   6 190.787 6.98731   2
   6   4   6 339.015 12.2673  -3
  -7   4   6 339.015 12.2673   1
   5   4   6 76.6716 3.49790  -4
  -6   4   6 76.6716 3.49790   2
   5   4   6 122.576 6.34368  -3
  -6   4   6 122.576 6.34368   1
  -6   4   6 69.0117 4.76872   4
   4   4   6 143.779 5.12019  -3
  -5   4   6 143.779 5.12019   1
   4   4   6 78.1134 3.28250  -4
  -5   4   6 78.1134 3.28250   2
   3   4   6 76.5476 3.95863  -3
  -4   4   6 76.5476 3.95863   1
   3   4   6 44.2097 4.97148  -4
  -4   4   6 44.2097 4.97148   2
   2   4   6 2.62218 1.97967  -4
  -3   4   6 2.62218 1.97967   2
   2   4   6 9.01308 1.72704  -3
  -3   4   6 9.01308 1.72704   1
  -3   4   6 0.10902 0.60550   1
   1   4   6 86.4174 3.51944  -3
  -2   4   6 86.4174 3.51944   1
   1   4   6 55.1781 3.12900  -4
  -2   4   6 55.1781 3.12900   2
   0   4   6 37.4689 2.07596  -3
  -1   4   6 37.4689 2.07596   1
   0   4   6 17.6373 1.63726  -4
  -1   4   6 17.6373 1.63726   2
  -1   4   6 33.7654 3.04201  -3
   0   4   6 33.7654 3.04201   1
  -1   4   6 24.5555 2.09284  -4
   0   4   6 24.5555 2.09284   2
  -2   4   6 50.2045 2.49338  -4
   1   4   6 50.2045 2.49338   2
  -2   4   6 75.6944 3.57868  -3
   1   4   6 75.6944 3.57868   1
  -3   4   6 9.29347 1.78455  -3
   2   4   6 9.29347 1.78455   1
   2   4   6 8.18527 1.10057   3
  -3   4   6 7.05466 1.40720  -4
   2   4   6 7.05466 1.40720   2
  -4   4   6 44.5097 3.17735  -4
   3   4   6 44.5097 3.17735   2
  -4   4   6 73.7713 3.82943  -3
   3   4   6 73.7713 3.82943   1
  -5   4   6 156.073 6.10859  -3
   4   4   6 156.073 6.10859   1
  -5   4   6 106.075 6.51963  -4
   4   4   6 106.075 6.51963   2
  -6   4   6 73.4053 4.66106  -4
   5   4   6 73.4053 4.66106   2
  -6   4   6 110.848 4.48961  -3
   5   4   6 110.848 4.48961   1
  -7   4   6 253.998 9.79454  -4
   6   4   6 253.998 9.79454   2
  -7   4   6 348.732 10.9601  -3
   6   4   6 348.732 10.9601   1
  -8   4   6 175.387 7.76536  -4
   7   4   6 175.387 7.76536   2
  -8   4   6 261.299 10.7374  -3
   7   4   6 261.299 10.7374   1
  -9   4   6 354.202 14.1549  -4
   8   4   6 354.202 14.1549   2
  -9   4   6 501.706 16.6738  -3
   8   4   6 501.706 16.6738   1
 -10   4   6 176.593 7.85872  -3
   9   4   6 176.593 7.85872   1
 -10   4   6 98.5911 4.41649  -4
   9   4   6 98.5911 4.41649   2
 -11   4   6 168.979 9.52497  -3
  10   4   6 168.979 9.52497   1
 -11   4   6 117.555 7.04794  -4
  10   4   6 117.555 7.04794   2
   5   4  11 189.284 17.1874  -4
 -11   4   6 189.284 17.1874  -3
  -7   4  11 189.284 17.1874  -2
  10   4   6 189.284 17.1874   1
 -12   4   6 107.184 8.60768  -3
  11   4   6 107.184 8.60768   1
 -12   4   6 59.1283 5.55997  -4
  11   4   6 59.1283 5.55997   2
 -13   4   6 107.681 6.77263  -3
  12   4   6 107.681 6.77263   1
 -13   4   6 90.8570 8.56036  -4
  12   4   6 90.8570 8.56036   2
 -14   4   6 0.20391 3.76569  -4
  13   4   6 0.20391 3.76569   2
 -14   4   6 4.55972 5.09812  -3
  13   4   6 4.55972 5.09812   1
 -15   4   6 7.13296 3.61372  -4
  14   4   6 7.13296 3.61372   2
 -15   4   6 11.3960 4.56089  -3
  14   4   6 11.3960 4.56089   1
 -16   4   6 6.34341 7.61489  -3
  15   4   6 6.34341 7.61489   1
 -16   4   6 -9.2013 11.1658  -4
  15   4   6 -9.2013 11.1658   2
 -15   5   6 85.8363 11.0769   1
 -15   5   6 44.4945 4.79198   4
  14   5   6 65.6183 15.7887  -3
 -15   5   6 65.6183 15.7887   1
 -15   5   6 60.9561 10.4764   3
  14   5   6 48.7317 13.7082  -4
 -15   5   6 48.7317 13.7082   2
 -15   5   6 39.6492 13.1313   2
  13   5   6 24.8345 7.45226  -4
 -14   5   6 24.8345 7.45226   2
  13   5   6 44.6964 7.16260  -3
 -14   5   6 44.6964 7.16260   1
  12   5   6 217.798 13.1239  -3
 -13   5   6 217.798 13.1239   1
  12   5   6 109.083 11.4038  -4
 -13   5   6 109.083 11.4038   2
  11   5   6 44.4341 7.95389  -4
 -12   5   6 44.4341 7.95389   2
  11   5   6 72.6785 9.62518  -3
 -12   5   6 72.6785 9.62518   1
  10   5   6 104.961 8.62403  -3
 -11   5   6 104.961 8.62403   1
  10   5   6 58.6211 6.30957  -4
 -11   5   6 58.6211 6.30957   2
   9   5   6 43.9637 7.19884  -4
 -10   5   6 43.9637 7.19884   2
   9   5   6 91.6039 7.91032  -3
 -10   5   6 91.6039 7.91032   1
   8   5   6 121.303 6.36712  -3
  -9   5   6 121.303 6.36712   1
   8   5   6 71.3452 13.1612  -4
  -9   5   6 71.3452 13.1612   2
   7   5   6 31.6302 7.23751  -4
  -8   5   6 31.6302 7.23751   2
   7   5   6 50.1398 6.96279  -3
  -8   5   6 50.1398 6.96279   1
   6   5   6 400.313 14.3162  -3
  -7   5   6 400.313 14.3162   1
   6   5   6 214.487 14.0348  -4
  -7   5   6 214.487 14.0348   2
   5   5   6 312.511 8.96598  -3
  -6   5   6 312.511 8.96598   1
   5   5   6 188.684 12.9289  -4
  -6   5   6 188.684 12.9289   2
   4   5   6 272.859 15.9012  -4
  -5   5   6 272.859 15.9012   2
   4   5   6 487.003 15.1048  -3
  -5   5   6 487.003 15.1048   1
   3   5   6 121.374 5.18281  -3
  -4   5   6 121.374 5.18281   1
   3   5   6 80.4167 7.21704  -4
  -4   5   6 80.4167 7.21704   2
   2   5   6 111.409 7.09600  -4
  -3   5   6 111.409 7.09600   2
   2   5   6 163.123 6.24718  -3
  -3   5   6 163.123 6.24718   1
   1   5   6 316.550 9.08381  -3
  -2   5   6 316.550 9.08381   1
   1   5   6 190.461 9.57110  -4
  -2   5   6 190.461 9.57110   2
   0   5   6 176.464 8.86247  -4
  -1   5   6 176.464 8.86247   2
   0   5   6 264.291 7.16573  -3
  -1   5   6 264.291 7.16573   1
  -1   5   6 267.743 7.57470  -3
   0   5   6 267.743 7.57470   1
  -1   5   6 153.772 4.90000  -4
   0   5   6 153.772 4.90000   2
  -2   5   6 353.620 17.3077  -3
   1   5   6 353.620 17.3077   1
  -2   5   6 213.160 7.96418  -4
   1   5   6 213.160 7.96418   2
  -3   5   6 97.7047 5.14796  -4
   2   5   6 97.7047 5.14796   2
  -3   5   6 149.333 10.0242  -3
   2   5   6 149.333 10.0242   1
  -4   5   6 119.153 7.13978  -3
   3   5   6 119.153 7.13978   1
  -4   5   6 82.2272 4.23520  -4
   3   5   6 82.2272 4.23520   2
  -5   5   6 272.710 10.1601  -4
   4   5   6 272.710 10.1601   2
  -5   5   6 421.160 16.6080  -3
   4   5   6 421.160 16.6080   1
  -6   5   6 327.637 18.2327  -3
   5   5   6 327.637 18.2327   1
  -6   5   6 220.455 9.13226  -4
   5   5   6 220.455 9.13226   2
  -7   5   6 282.829 16.6053  -3
   6   5   6 282.829 16.6053   1
  -7   5   6 220.805 10.1532  -4
   6   5   6 220.805 10.1532   2
  -8   5   6 65.5319 6.83005  -3
   7   5   6 65.5319 6.83005   1
  -8   5   6 38.6547 5.39809  -4
   7   5   6 38.6547 5.39809   2
  -9   5   6 77.8648 5.94581  -4
   8   5   6 77.8648 5.94581   2
  -9   5   6 101.375 9.02213  -3
   8   5   6 101.375 9.02213   1
 -10   5   6 58.1432 6.68076  -4
   9   5   6 58.1432 6.68076   2
 -10   5   6 98.7164 7.44333  -3
   9   5   6 98.7164 7.44333   1
 -11   5   6 83.2982 6.14782  -3
  10   5   6 83.2982 6.14782   1
 -11   5   6 54.3887 6.12674  -4
  10   5   6 54.3887 6.12674   2
 -12   5   6 91.2390 7.30834  -3
  11   5   6 91.2390 7.30834   1
 -12   5   6 57.3067 9.38572  -4
  11   5   6 57.3067 9.38572   2
 -13   5   6 211.646 25.6011  -3
  -7   5  13 211.646 25.6011  -2
  12   5   6 211.646 25.6011   1
 -13   5   6 157.861 21.9089  -3
  12   5   6 157.861 21.9089   1
 -14   5   6 48.5579 6.32954  -3
  13   5   6 48.5579 6.32954   1
 -14   5   6 52.8069 6.82904  -4
  13   5   6 52.8069 6.82904   2
 -15   5   6 66.6897 11.6135  -3
  14   5   6 66.6897 11.6135   1
  12   6   6 -1.0120 6.89489  -3
 -13   6   6 -1.0120 6.89489   1
  12   6   6 8.40307 5.61075  -4
 -13   6   6 8.40307 5.61075   2
  11   6   6 -2.7134 5.51088  -4
 -12   6   6 -2.7134 5.51088   2
  11   6   6 6.66335 10.3997  -3
 -12   6   6 6.66335 10.3997   1
  10   6   6 19.8410 4.96087  -3
 -11   6   6 19.8410 4.96087   1
  10   6   6 -2.8277 5.26583  -4
 -11   6   6 -2.8277 5.26583   2
   9   6   6 1.79406 3.83745  -3
 -10   6   6 1.79406 3.83745   1
   9   6   6 2.80655 5.51447  -4
 -10   6   6 2.80655 5.51447   2
   8   6   6 19.8912 4.73790  -3
  -9   6   6 19.8912 4.73790   1
   8   6   6 3.80414 5.29357  -4
  -9   6   6 3.80414 5.29357   2
   7   6   6 37.3881 6.73363  -4
  -8   6   6 37.3881 6.73363   2
   7   6   6 68.1195 5.76212  -3
  -8   6   6 68.1195 5.76212   1
   6   6   6 3.91067 3.58584  -3
  -7   6   6 3.91067 3.58584   1
   6   6   6 -1.4691 3.83195  -4
  -7   6   6 -1.4691 3.83195   2
   5   6   6 5.69234 3.63628  -3
  -6   6   6 5.69234 3.63628   1
   5   6   6 0.33655 3.82937  -4
  -6   6   6 0.33655 3.82937   2
   4   6   6 101.903 11.8341  -4
  -5   6   6 101.903 11.8341   2
   4   6   6 185.048 9.13451  -3
  -5   6   6 185.048 9.13451   1
   3   6   6 80.4760 6.61208  -4
  -4   6   6 80.4760 6.61208   2
   3   6   6 137.625 6.16501  -3
  -4   6   6 137.625 6.16501   1
   2   6   6 258.963 12.6018  -4
  -3   6   6 258.963 12.6018   2
   2   6   6 430.304 13.2315  -3
  -3   6   6 430.304 13.2315   1
   1   6   6 650.993 16.6894  -3
  -2   6   6 650.993 16.6894   1
   1   6   6 386.955 16.4432  -4
  -2   6   6 386.955 16.4432   2
   0   6   6 362.410 10.4921  -3
  -1   6   6 362.410 10.4921   1
   0   6   6 216.660 14.5009  -4
  -1   6   6 216.660 14.5009   2
  -1   6   6 255.329 15.9088  -4
   0   6   6 255.329 15.9088   2
  -1   6   6 373.357 12.6907  -3
   0   6   6 373.357 12.6907   1
   0   6   6 240.660 14.1118   2
   0   6   6 352.646 18.3287   1
  -2   6   6 378.891 14.6030  -4
   1   6   6 378.891 14.6030   2
  -2   6   6 626.819 21.1163  -3
   1   6   6 626.819 21.1163   1
  -3   6   6 465.417 22.1722  -3
   2   6   6 465.417 22.1722   1
  -3   6   6 283.662 14.5026  -4
   2   6   6 283.662 14.5026   2
  -4   6   6 66.8242 10.7490  -4
   3   6   6 66.8242 10.7490   2
  -4   6   6 88.1965 15.0902  -3
   3   6   6 88.1965 15.0902   1
  -5   6   6 175.578 9.73080  -3
   4   6   6 175.578 9.73080   1
  -5   6   6 105.727 5.50903  -4
   4   6   6 105.727 5.50903   2
   4   6   6 110.205 8.45359   2
  -6   6   6 -0.3178 1.70479  -4
   5   6   6 -0.3178 1.70479   2
  -6   6   6 1.67381 2.80157  -3
   5   6   6 1.67381 2.80157   1
  -7   6   6 -1.8663 3.27065  -4
   6   6   6 -1.8663 3.27065   2
  -7   6   6 -1.6953 3.53757  -3
   6   6   6 -1.6953 3.53757   1
  -8   6   6 42.7415 5.80925  -4
   7   6   6 42.7415 5.80925   2
  -8   6   6 49.0896 6.64008  -3
   7   6   6 49.0896 6.64008   1
  -9   6   6 20.5904 4.28417  -3
   8   6   6 20.5904 4.28417   1
  -9   6   6 26.8113 10.9245  -4
   5   6   9 26.8113 10.9245  -3
   8   6   6 26.8113 10.9245   2
  -9   6   6 16.2020 4.96354  -4
   8   6   6 16.2020 4.96354   2
 -10   6   6 10.1612 6.93095  -4
   9   6   6 10.1612 6.93095   2
 -10   6   6 1.94898 3.42568  -3
   9   6   6 1.94898 3.42568   1
 -11   6   6 16.1040 7.57535  -4
  10   6   6 16.1040 7.57535   2
 -11   6   6 16.7139 7.37766  -3
  10   6   6 16.7139 7.37766   1
 -12   6   6 21.7253 7.27145  -3
  11   6   6 21.7253 7.27145   1
 -13   6   6 -4.6582 6.76650  -4
  12   6   6 -4.6582 6.76650   2
 -13   6   6 -4.4138 6.86244  -3
  12   6   6 -4.4138 6.86244   1
  11   7   6 77.7312 10.1746  -3
 -12   7   6 77.7312 10.1746   1
  11   7   6 15.5711 8.22507  -4
 -12   7   6 15.5711 8.22507   2
  10   7   6 52.3331 7.34380  -3
 -11   7   6 52.3331 7.34380   1
  10   7   6 40.1573 8.00374  -4
 -11   7   6 40.1573 8.00374   2
   9   7   6 63.5608 7.46071  -3
 -10   7   6 63.5608 7.46071   1
   9   7   6 33.0292 7.67850  -4
 -10   7   6 33.0292 7.67850   2
   8   7   6 66.1837 9.32993  -4
  -9   7   6 66.1837 9.32993   2
   8   7   6 127.894 9.45339  -3
  -9   7   6 127.894 9.45339   1
   7   7   6 2.64517 5.94934  -3
  -8   7   6 2.64517 5.94934   1
   7   7   6 16.4769 7.63909  -4
  -8   7   6 16.4769 7.63909   2
   6   7   6 96.1202 7.93858  -3
  -7   7   6 96.1202 7.93858   1
   6   7   6 45.8669 7.75808  -4
  -7   7   6 45.8669 7.75808   2
   5   7   6 47.2754 12.5638  -4
  -6   7   6 47.2754 12.5638   2
   5   7   6 116.931 6.64776  -3
  -6   7   6 116.931 6.64776   1
   4   7   6 118.077 6.74988  -3
  -5   7   6 118.077 6.74988   1
   4   7   6 68.5223 6.74596  -4
  -5   7   6 68.5223 6.74596   2
   3   7   6 160.587 7.91305  -3
  -4   7   6 160.587 7.91305   1
   3   7   6 106.226 12.5661  -4
  -4   7   6 106.226 12.5661   2
   2   7   6 170.611 6.66719  -3
  -3   7   6 170.611 6.66719   1
   2   7   6 101.537 7.90451  -4
  -3   7   6 101.537 7.90451   2
   1   7   6 147.968 9.48024  -4
  -2   7   6 147.968 9.48024   2
   1   7   6 254.208 8.43312  -3
  -2   7   6 254.208 8.43312   1
  -1   7   6 189.852 11.4980   1
   0   7   6 116.385 10.7473  -4
  -1   7   6 116.385 10.7473   2
   0   7   6 177.105 13.7341  -3
  -1   7   6 177.105 13.7341   1
  -1   7   6 180.591 10.4469  -3
   0   7   6 180.591 10.4469   1
  -1   7   6 120.165 10.7274  -4
   0   7   6 120.165 10.7274   2
  -2   7   6 250.170 10.2367  -3
   1   7   6 250.170 10.2367   1
  -2   7   6 170.392 10.0744  -4
   1   7   6 170.392 10.0744   2
  -3   7   6 104.485 8.97699  -4
   2   7   6 104.485 8.97699   2
  -3   7   6 166.418 9.31021  -3
   2   7   6 166.418 9.31021   1
  -4   7   6 104.150 7.67987  -4
   3   7   6 104.150 7.67987   2
  -4   7   6 166.967 12.1656  -3
   3   7   6 166.967 12.1656   1
  -5   7   6 101.040 7.72581  -3
   4   7   6 101.040 7.72581   1
  -5   7   6 63.4320 4.68732  -4
   4   7   6 63.4320 4.68732   2
  -6   7   6 81.4615 5.24896  -4
   5   7   6 81.4615 5.24896   2
  -6   7   6 120.727 8.19762  -3
   5   7   6 120.727 8.19762   1
  -7   7   6 67.7810 8.71620  -3
   6   7   6 67.7810 8.71620   1
  -7   7   6 58.4712 4.88268  -4
   6   7   6 58.4712 4.88268   2
  -8   7   6 23.1783 4.75860  -3
   7   7   6 23.1783 4.75860   1
  -8   7   6 16.9298 4.89518  -4
   7   7   6 16.9298 4.89518   2
  -9   7   6 95.0657 7.95892  -3
   8   7   6 95.0657 7.95892   1
  -9   7   6 16.6439 10.8820  -4
   5   7   9 16.6439 10.8820  -3
   8   7   6 16.6439 10.8820   2
  -9   7   6 78.7417 7.97320  -4
   8   7   6 78.7417 7.97320   2
 -10   7   6 52.0366 6.28785  -3
   9   7   6 52.0366 6.28785   1
 -10   7   6 58.0809 10.6004  -4
   9   7   6 58.0809 10.6004   2
 -11   7   6 27.9340 6.41453  -4
  10   7   6 27.9340 6.41453   2
 -11   7   6 49.7367 6.50104  -3
  10   7   6 49.7367 6.50104   1
 -12   7   6 70.0328 8.13143  -4
  11   7   6 70.0328 8.13143   2
 -12   7   6 80.5105 9.37149  -3
  11   7   6 80.5105 9.37149   1
 -10   8   6 38.8150 14.4418   2
   9   8   6 34.0763 15.5297  -4
 -10   8   6 34.0763 15.5297   2
   8   8   6 105.957 9.30609  -3
  -9   8   6 105.957 9.30609   1
   8   8   6 44.0647 9.37586  -4
  -9   8   6 44.0647 9.37586   2
   7   8   6 74.3102 8.03372  -3
  -8   8   6 74.3102 8.03372   1
   7   8   6 43.9640 8.45677  -4
  -8   8   6 43.9640 8.45677   2
   6   8   6 57.4569 9.09543  -4
  -7   8   6 57.4569 9.09543   2
   6   8   6 87.6712 16.0271  -3
  -7   8   6 87.6712 16.0271   1
   5   8   6 18.9648 4.22236  -3
  -6   8   6 18.9648 4.22236   1
   5   8   6 14.3806 5.12233  -4
  -6   8   6 14.3806 5.12233   2
   4   8   6 -3.1601 4.18445  -3
  -5   8   6 -3.1601 4.18445   1
   4   8   6 8.00463 4.59487  -4
  -5   8   6 8.00463 4.59487   2
   3   8   6 20.2963 2.97762  -3
  -4   8   6 20.2963 2.97762   1
   3   8   6 3.62228 5.42040  -4
  -4   8   6 3.62228 5.42040   2
   2   8   6 5.19775 3.66949  -3
  -3   8   6 5.19775 3.66949   1
   2   8   6 2.76036 2.65865  -4
  -3   8   6 2.76036 2.65865   2
   1   8   6 2.89684 3.10282  -3
  -2   8   6 2.89684 3.10282   1
   1   8   6 11.2359 5.31960  -4
  -2   8   6 11.2359 5.31960   2
   0   8   6 1.48969 4.91586  -4
  -1   8   6 1.48969 4.91586   2
   0   8   6 16.4359 6.83580  -3
  -1   8   6 16.4359 6.83580   1
  -1   8   6 6.06839 5.26162  -4
   0   8   6 6.06839 5.26162   2
  -1   8   6 1.90875 6.89155  -3
   0   8   6 1.90875 6.89155   1
  -2   8   6 -0.4843 4.16842  -3
   1   8   6 -0.4843 4.16842   1
  -2   8   6 4.75461 4.87416  -4
   1   8   6 4.75461 4.87416   2
  -3   8   6 1.79761 3.98200  -3
   2   8   6 1.79761 3.98200   1
  -3   8   6 -8.3240 6.53841  -4
   2   8   6 -8.3240 6.53841   2
  -4   8   6 6.48002 5.17017  -3
   3   8   6 6.48002 5.17017   1
  -4   8   6 14.9915 4.33405  -4
   3   8   6 14.9915 4.33405   2
  -5   8   6 3.15614 3.23262  -4
   4   8   6 3.15614 3.23262   2
  -5   8   6 3.01257 3.12560  -3
   4   8   6 3.01257 3.12560   1
  -6   8   6 6.24437 4.06374  -4
   5   8   6 6.24437 4.06374   2
  -6   8   6 16.4786 4.55660  -3
   5   8   6 16.4786 4.55660   1
  -7   8   6 73.0929 7.08778  -4
   6   8   6 73.0929 7.08778   2
  -7   8   6 112.752 9.04689  -3
   6   8   6 112.752 9.04689   1
  -8   8   6 -3.1691 11.5077  -4
   5   8   8 -3.1691 11.5077  -3
   7   8   6 -3.1691 11.5077   2
  -8   8   6 73.1852 7.49488  -3
   7   8   6 73.1852 7.49488   1
  -8   8   6 44.1854 6.97221  -4
   7   8   6 44.1854 6.97221   2
  -9   8   6 85.9176 13.0776  -4
   8   8   6 85.9176 13.0776   2
  -9   8   6 96.1817 8.89645  -3
   8   8   6 96.1817 8.89645   1
  -9   8   6 69.1048 16.2323  -4
   5   8   9 69.1048 16.2323  -3
   8   8   6 69.1048 16.2323   2
   5   9   6 96.5800 9.12485  -3
  -6   9   6 96.5800 9.12485   1
   5   9   6 59.3116 6.80545  -4
  -6   9   6 59.3116 6.80545   2
   4   9   6 162.469 8.89760  -3
  -5   9   6 162.469 8.89760   1
   4   9   6 93.2927 7.15915  -4
  -5   9   6 93.2927 7.15915   2
   3   9   6 151.246 6.83535  -3
  -4   9   6 151.246 6.83535   1
   3   9   6 83.2811 8.78740  -4
  -4   9   6 83.2811 8.78740   2
   2   9   6 106.715 7.78403  -4
  -3   9   6 106.715 7.78403   2
   2   9   6 174.481 9.63163  -3
  -3   9   6 174.481 9.63163   1
   1   9   6 69.3899 9.68169  -4
  -2   9   6 69.3899 9.68169   2
   0   9   6 61.7615 8.87112  -4
  -1   9   6 61.7615 8.87112   2
   0   9   6 120.336 11.6481  -3
  -1   9   6 120.336 11.6481   1
  -1   9   6 92.4837 12.8550  -4
   0   9   6 92.4837 12.8550   2
  -2   9   6 118.952 11.7559  -4
   1   9   6 118.952 11.7559   2
  -2   9   6 187.075 18.1368  -3
   1   9   6 187.075 18.1368   1
  -3   9   6 80.7914 9.88761  -4
   2   9   6 80.7914 9.88761   2
  -3   9   6 195.615 12.6773  -3
   2   9   6 195.615 12.6773   1
  -4   9   6 155.569 10.1864  -3
   3   9   6 155.569 10.1864   1
  -4   9   6 103.021 11.1234  -4
   3   9   6 103.021 11.1234   2
  -5   9   6 136.306 7.61350  -3
   4   9   6 136.306 7.61350   1
  -5   9   6 93.2775 9.59143  -4
   4   9   6 93.2775 9.59143   2
  -6   9   6 102.844 7.26424  -3
   5   9   6 102.844 7.26424   1
 -17   0   7 23.0545 9.44836   1
 -17   0   7 25.1909 9.85275   3
 -17   0   7 15.5136 6.88383   4
  15   0   7 9.55579 9.94176  -4
 -16   0   7 9.55579 9.94176   2
  15   0   7 55.4545 13.9397  -3
 -16   0   7 55.4545 13.9397   1
 -16   0   7 3.06924 3.02534   4
 -15   0   7 18.0821 6.50118   4
  14   0   7 2.43432 5.90674  -3
 -15   0   7 2.43432 5.90674   1
  13   0   7 26.1238 5.88655  -3
 -14   0   7 26.1238 5.88655   1
 -14   0   7 -0.4740 2.07408   4
  13   0   7 12.0538 8.26070  -4
 -14   0   7 12.0538 8.26070   2
 -13   0   7 14.6774 3.31197   4
  12   0   7 22.2640 5.61390  -3
 -13   0   7 22.2640 5.61390   1
  12   0   7 -2.8696 7.58946  -4
 -13   0   7 -2.8696 7.58946   2
 -11   0   7 5.23833 2.81919   4
   9   0   7 30.0278 7.50911  -3
 -10   0   7 30.0278 7.50911   1
 -10   0   7 0.54882 1.57630   4
   8   0   7 37.0488 8.24835  -3
  -9   0   7 37.0488 8.24835   1
   8   0   7 28.1591 7.48571  -4
  -9   0   7 28.1591 7.48571   2
  -9   0   7 26.2828 3.76908   4
   7   0   7 -2.1657 4.56606  -4
  -8   0   7 -2.1657 4.56606   2
  -7   0   7 0.50966 2.01192   4
   6   0   7 5.06475 5.24081  -4
  -7   0   7 5.06475 5.24081   2
   6   0   7 -0.9760 3.69600  -3
  -7   0   7 -0.9760 3.69600   1
   5   0   7 2.86715 4.29662  -4
  -6   0   7 2.86715 4.29662   2
   5   0   7 3.22186 6.27270  -3
  -6   0   7 3.22186 6.27270   1
  -6   0   7 1.64834 1.52970   1
  -6   0   7 0.38488 1.97981   4
   4   0   7 150.779 8.82457  -3
  -5   0   7 150.779 8.82457   1
  -5   0   7 92.8252 9.60108   4
  -5   0   7 146.648 7.56068   1
   4   0   7 83.6128 9.59440  -4
  -5   0   7 83.6128 9.59440   2
  -4   0   7 10.5216 3.76218   1
  -4   0   7 5.94739 2.96283   4
  -4   0   7 3.38285 3.03532   2
   3   0   7 231.292 17.4468  -4
  -4   0   7 231.292 17.4468   2
  -3   0   7 471.787 28.4980   2
  -3   0   7 725.269 25.6487   1
  -3   0   7 420.537 26.0735   4
   2   0   7 764.767 43.3146  -3
  -3   0   7 764.767 43.3146   1
  -2   0   7 102.791 10.1300   2
   1   0   7 2288.38 120.192  -3
  -2   0   7 2288.38 120.192   1
   1   0   7 1071.61 59.7797  -4
  -2   0   7 1071.61 59.7797   2
  -2   0   7 78.5043 8.35695   4
  -2   0   7 104.739 9.75116   3
  -1   0   7 1846.46 48.9176   1
  -1   0   7 1845.95 48.1774   3
   0   0   7 1383.07 52.9995  -4
  -1   0   7 1383.07 52.9995   2
  -1   0   7 1147.73 60.5066   2
  -1   0   7 1080.33 56.2734   4
   0   0   7 106.613 6.02544   3
  -1   0   7 1881.61 99.5517  -3
   0   0   7 1881.61 99.5517   1
   0   0   7 94.8547 5.40769   1
   0   0   7 109.299 10.1630   4
   1   0   7 1868.79 60.9081   3
   1   0   7 1430.35 72.7001   2
  -2   0   7 1624.59 87.2681  -4
   1   0   7 1624.59 87.2681   2
   1   0   7 2182.97 71.0161   1
  -2   0   7 2287.14 120.740  -3
   1   0   7 2287.14 120.740   1
   1   0   7 1256.24 64.4310   4
   2   0   7 33.1624 5.42825   4
   2   0   7 30.7993 4.84479   3
  -3   0   7 684.333 39.6097  -3
   2   0   7 684.333 39.6097   1
   2   0   7 19.8031 4.85052   2
  -3   0   7 120.202 10.0039  -4
   2   0   7 120.202 10.0039   2
   3   0   7 307.996 20.9994   2
  -4   0   7 425.209 27.0171  -3
   3   0   7 425.209 27.0171   1
   3   0   7 384.201 14.9924   3
  -4   0   7 317.459 20.0637  -4
   3   0   7 317.459 20.0637   2
   3   0   7 243.823 17.5349   4
   4   0   7 0.46107 1.02330   3
  -5   0   7 18.8470 4.10286  -4
   4   0   7 18.8470 4.10286   2
   4   0   7 0.38793 1.83578   2
  -5   0   7 143.730 12.4381  -3
   4   0   7 143.730 12.4381   1
  -6   0   7 -0.1850 3.88085  -3
   5   0   7 -0.1850 3.88085   1
   5   0   7 0.26679 1.96404   2
  -6   0   7 6.37285 2.75003  -4
   5   0   7 6.37285 2.75003   2
   5   0   7 0.44126 1.81019   3
   6   0   7 0.10799 1.97663   2
  -7   0   7 -0.1052 3.96611  -3
   6   0   7 -0.1052 3.96611   1
  -8   0   7 1.31882 4.80728  -3
   7   0   7 1.31882 4.80728   1
  -9   0   7 21.0845 5.18467  -4
   8   0   7 21.0845 5.18467   2
 -10   0   7 29.4697 5.96905  -4
   9   0   7 29.4697 5.96905   2
 -13   0   7 8.07272 6.80060  -4
  12   0   7 8.07272 6.80060   2
  13   0   7 37.5408 4.63284   2
 -14   0   7 3.74079 7.58374  -4
  13   0   7 3.74079 7.58374   2
  14   0   7 3.70063 2.35885   2
 -15   0   7 0.09546 8.19309  -4
  14   0   7 0.09546 8.19309   2
 -16   0   7 66.8654 11.1898  -3
  15   0   7 66.8654 11.1898   1
 -16   0   7 1.75493 9.70855  -4
  15   0   7 1.75493 9.70855   2
  15   0   7 52.3974 12.2309   2
 -17   0   7 26.3065 14.4976  -3
  16   0   7 26.3065 14.4976   1
 -17   0   7 11.9612 10.3762  -4
  16   0   7 11.9612 10.3762   2
 -17   1   7 0.62815 4.34376   3
 -17   1   7 -1.8413 1.99744   4
 -17   1   7 2.65705 4.19846   1
 -17   1   7 -2.9519 4.74533   2
  16   1   7 4.57478 11.6531  -3
 -17   1   7 4.57478 11.6531   1
  15   1   7 6.59681 6.81400  -4
 -16   1   7 6.59681 6.81400   2
  15   1   7 35.7561 7.10603  -3
 -16   1   7 35.7561 7.10603   1
 -16   1   7 20.5280 3.59015   4
  14   1   7 29.4620 6.10828  -3
 -15   1   7 29.4620 6.10828   1
 -15   1   7 -0.3678 2.05091   4
  14   1   7 18.6702 6.55500  -4
 -15   1   7 18.6702 6.55500   2
  13   1   7 34.0642 7.44607  -4
 -14   1   7 34.0642 7.44607   2
 -14   1   7 32.6713 4.36742   4
  13   1   7 41.1501 6.57218  -3
 -14   1   7 41.1501 6.57218   1
  12   1   7 178.302 8.96300  -3
 -13   1   7 178.302 8.96300   1
 -13   1   7 1.35753 1.22014   4
  12   1   7 83.7028 13.6839  -4
 -13   1   7 83.7028 13.6839   2
  11   1   7 278.474 11.6561  -3
 -12   1   7 278.474 11.6561   1
 -12   1   7 173.629 7.30966   4
  10   1   7 22.1662 3.89835  -3
 -11   1   7 22.1662 3.89835   1
 -11   1   7 0.43962 1.04095   4
 -11   1   7 1.81768 6.40012   1
   9   1   7 172.964 9.51482  -3
 -10   1   7 172.964 9.51482   1
 -10   1   7 206.241 18.7290   1
 -10   1   7 118.919 5.63266   4
   9   1   7 101.466 8.95440  -4
 -10   1   7 101.466 8.95440   2
   8   1   7 4.14665 3.85637  -4
  -9   1   7 4.14665 3.85637   2
  -9   1   7 -0.5167 0.89069   4
   8   1   7 6.44368 2.52347  -3
  -9   1   7 6.44368 2.52347   1
   7   1   7 79.0623 7.43015  -4
  -8   1   7 79.0623 7.43015   2
   7   1   7 112.245 5.46274  -3
  -8   1   7 112.245 5.46274   1
   6   1   7 137.494 9.86797  -4
  -7   1   7 137.494 9.86797   2
   6   1   7 226.042 8.43503  -3
  -7   1   7 226.042 8.43503   1
   5   1   7 618.823 27.4680  -4
  -6   1   7 618.823 27.4680   2
   5   1   7 956.966 30.1424  -3
  -6   1   7 956.966 30.1424   1
  -6   1   7 907.301 31.0094   1
  -6   1   7 546.777 33.1463   4
   4   1   7 424.200 15.0290  -3
  -5   1   7 424.200 15.0290   1
  -5   1   7 5.26700 1.23308   1
  -5   1   7 8.33118 2.40418   4
   4   1   7 264.802 14.0814  -4
  -5   1   7 264.802 14.0814   2
  -5   1   7 2.38546 2.78695   2
  -4   1   7 108.597 7.31158   2
  -4   1   7 155.232 5.19296   1
   3   1   7 124.531 8.32976  -4
  -4   1   7 124.531 8.32976   2
  -4   1   7 102.834 6.98836   4
   3   1   7 173.974 8.73114  -3
  -4   1   7 173.974 8.73114   1
   2   1   7 6.53435 2.87633  -4
  -3   1   7 6.53435 2.87633   2
  -3   1   7 1.20909 0.82965   3
  -3   1   7 0.51177 0.63672   1
  -3   1   7 1.34767 0.95851   4
   2   1   7 15.0564 2.58174  -3
  -3   1   7 15.0564 2.58174   1
  -3   1   7 0.64605 1.60246   2
   1   1   7 254.793 10.0574  -3
  -2   1   7 254.793 10.0574   1
  -2   1   7 240.953 7.35495   3
  -2   1   7 259.454 6.85787   1
  -2   1   7 127.189 8.64176   4
  -2   1   7 164.126 9.40732   2
   1   1   7 178.430 7.90781  -4
  -2   1   7 178.430 7.90781   2
  -1   1   7 50.8076 4.73280   2
   0   1   7 1053.06 41.1034  -3
  -1   1   7 1053.06 41.1034   1
  -1   1   7 49.0443 3.27585   3
  -1   1   7 61.5308 5.11974   4
  -1   1   7 44.5159 2.68626   1
   0   1   7 1169.28 27.9699   1
   0   1   7 1058.21 22.6073   3
   0   1   7 621.727 24.8355   4
  -1   1   7 773.025 25.0662  -4
   0   1   7 773.025 25.0662   2
   0   1   7 684.981 27.1990   2
  -1   1   7 1116.73 62.0807  -3
   0   1   7 1116.73 62.0807   1
   1   1   7 5.58181 1.05993   3
  -2   1   7 75.3713 9.06741  -4
   1   1   7 75.3713 9.06741   2
   1   1   7 5.60154 1.34280   1
  -2   1   7 237.664 11.8908  -3
   1   1   7 237.664 11.8908   1
   1   1   7 10.0769 2.44061   2
   1   1   7 5.00341 1.91839   4
   2   1   7 10.6818 2.61575   4
   2   1   7 13.7852 1.16227   3
   2   1   7 16.2411 2.28825   2
  -3   1   7 11.5092 2.24418  -4
   2   1   7 11.5092 2.24418   2
  -3   1   7 13.8265 2.78135  -3
   2   1   7 13.8265 2.78135   1
   2   1   7 15.6616 1.96665   1
   3   1   7 3.06781 0.70275   3
   3   1   7 5.41753 1.85331   2
   3   1   7 3.04129 2.51407   4
  -4   1   7 154.862 8.98366  -3
   3   1   7 154.862 8.98366   1
  -5   1   7 326.341 14.4177  -4
   4   1   7 326.341 14.4177   2
   4   1   7 318.513 15.4447   2
  -5   1   7 493.171 22.0252  -3
   4   1   7 493.171 22.0252   1
   4   1   7 451.323 15.5109   3
  -6   1   7 528.013 17.3645  -4
   5   1   7 528.013 17.3645   2
   5   1   7 12.4678 4.82116   2
   5   1   7 8.86530 2.78983   3
  -6   1   7 888.019 36.4589  -3
   5   1   7 888.019 36.4589   1
  -7   1   7 259.289 14.2702  -3
   6   1   7 259.289 14.2702   1
  -7   1   7 173.570 6.09347  -4
   6   1   7 173.570 6.09347   2
  -8   1   7 66.4288 4.43580  -4
   7   1   7 66.4288 4.43580   2
  -8   1   7 110.511 8.53260  -3
   7   1   7 110.511 8.53260   1
  -9   1   7 3.03194 2.96504  -4
   8   1   7 3.03194 2.96504   2
  -9   1   7 6.93339 3.94133  -3
   8   1   7 6.93339 3.94133   1
   9   1   7 4.44168 3.80724   3
 -11   1   7 17.8026 5.21731  -4
  10   1   7 17.8026 5.21731   2
 -13   1   7 99.3964 11.8536  -4
  12   1   7 99.3964 11.8536   2
  13   1   7 -3.6991 3.51001   2
  14   1   7 30.0542 4.97080   2
 -15   1   7 17.9102 6.47285  -4
  14   1   7 17.9102 6.47285   2
 -15   1   7 52.0676 14.5808  -3
  14   1   7 52.0676 14.5808   1
 -16   1   7 9.96730 6.64708  -4
  15   1   7 9.96730 6.64708   2
 -16   1   7 34.9516 6.58278  -3
  15   1   7 34.9516 6.58278   1
  15   1   7 -1.4216 2.41224   2
 -17   1   7 11.7871 10.0469  -3
  16   1   7 11.7871 10.0469   1
  15   2   7 2.52002 7.33009  -3
 -16   2   7 2.52002 7.33009   1
 -16   2   7 -1.7273 2.04101   4
  15   2   7 7.83041 7.22215  -4
 -16   2   7 7.83041 7.22215   2
  14   2   7 5.09018 5.68920  -3
 -15   2   7 5.09018 5.68920   1
  14   2   7 8.22271 8.20642  -4
 -15   2   7 8.22271 8.20642   2
 -15   2   7 11.8505 3.46057   4
  13   2   7 1.31708 5.88517  -4
 -14   2   7 1.31708 5.88517   2
  13   2   7 25.5851 6.05686  -3
 -14   2   7 25.5851 6.05686   1
 -14   2   7 0.32314 2.28119   4
 -13   2   7 27.6318 5.96560   4
  12   2   7 40.7243 7.55670  -3
 -13   2   7 40.7243 7.55670   1
  12   2   7 19.6958 6.07716  -4
 -13   2   7 19.6958 6.07716   2
 -12   2   7 0.68187 3.84664   4
  10   2   7 161.377 18.2387  -4
 -11   2   7 161.377 18.2387   2
  10   2   7 313.529 17.7565  -3
 -11   2   7 313.529 17.7565   1
   9   2   7 185.787 13.1190  -4
 -10   2   7 185.787 13.1190   2
   9   2   7 348.877 18.8079  -3
 -10   2   7 348.877 18.8079   1
 -10   2   7 6.22993 2.90610   4
   8   2   7 567.189 26.2635  -3
  -9   2   7 567.189 26.2635   1
  -9   2   7 347.862 20.6405   4
   8   2   7 370.277 19.8881  -4
  -9   2   7 370.277 19.8881   2
   7   2   7 138.318 8.22665  -3
  -8   2   7 138.318 8.22665   1
   7   2   7 82.8510 10.2128  -4
  -8   2   7 82.8510 10.2128   2
   6   2   7 82.6926 6.18630  -3
  -7   2   7 82.6926 6.18630   1
   6   2   7 49.4741 5.90485  -4
  -7   2   7 49.4741 5.90485   2
  -7   2   7 70.1158 3.53513   1
  -6   2   7 1.05407 1.44994   1
   5   2   7 5.64722 2.56718  -3
  -6   2   7 5.64722 2.56718   1
  -6   2   7 -2.0936 1.98848   4
   5   2   7 8.53664 4.55834  -4
  -6   2   7 8.53664 4.55834   2
   4   2   7 42.5968 2.82751  -3
  -5   2   7 42.5968 2.82751   1
  -5   2   7 28.7242 6.95909   4
   4   2   7 24.0534 4.19964  -4
  -5   2   7 24.0534 4.19964   2
  -5   2   7 40.2911 5.37350   1
  -5   2   7 32.9933 5.00644   2
   3   2   7 6.85159 2.86482  -4
  -4   2   7 6.85159 2.86482   2
   3   2   7 3.75404 3.22384  -3
  -4   2   7 3.75404 3.22384   1
  -4   2   7 1.31901 1.45146   1
  -4   2   7 -1.0794 1.28945   4
  -4   2   7 -2.1551 1.75060   2
  -4   2   7 -0.8590 1.02428   3
  -3   2   7 17.2867 2.15212   3
  -3   2   7 13.1208 2.97079   2
   2   2   7 13.8930 3.08800  -4
  -3   2   7 13.8930 3.08800   2
   2   2   7 15.6290 2.86363  -3
  -3   2   7 15.6290 2.86363   1
  -3   2   7 18.9340 2.81168   1
  -3   2   7 12.7349 4.71655   4
   1   2   7 187.661 9.28493  -3
  -2   2   7 187.661 9.28493   1
  -2   2   7 6.24572 1.39396   1
   1   2   7 117.330 5.95050  -4
  -2   2   7 117.330 5.95050   2
  -2   2   7 2.55779 1.15414   3
  -2   2   7 5.75709 1.81569   2
  -2   2   7 3.02880 2.59811   4
  -1   2   7 361.551 10.0591   3
   0   2   7 234.951 9.24635  -4
  -1   2   7 234.951 9.24635   2
  -1   2   7 239.922 9.68963   2
  -1   2   7 356.208 9.89852   1
  -1   2   7 187.870 10.2611   4
   0   2   7 365.547 17.1200  -3
  -1   2   7 365.547 17.1200   1
   0   2   7 9.21730 1.12887   1
   0   2   7 11.4500 1.92631   3
  -1   2   7 325.565 15.6392  -3
   0   2   7 325.565 15.6392   1
  -1   2   7 190.865 7.19016  -4
   0   2   7 190.865 7.19016   2
   0   2   7 11.6695 3.48234   2
   0   2   7 13.0941 2.10511   4
  -2   2   7 139.587 13.3047  -4
   1   2   7 139.587 13.3047   2
  -2   2   7 199.880 11.1096  -3
   1   2   7 199.880 11.1096   1
   1   2   7 195.257 7.64163   1
   1   2   7 120.850 8.09515   2
   1   2   7 100.908 6.68904   4
   1   2   7 180.811 7.64211   3
  -3   2   7 17.0063 3.28130  -3
   2   2   7 17.0063 3.28130   1
   2   2   7 0.84534 1.22572   4
   2   2   7 2.88865 1.06771   1
  -3   2   7 8.39810 3.11015  -4
   2   2   7 8.39810 3.11015   2
   2   2   7 0.83275 0.92204   3
   2   2   7 3.38383 2.26765   2
   3   2   7 10.0584 2.04999   3
  -4   2   7 14.6497 3.25701  -3
   3   2   7 14.6497 3.25701   1
   3   2   7 5.96004 2.37558   2
   3   2   7 12.0576 2.45024   1
  -4   2   7 3.51193 4.88970  -4
   3   2   7 3.51193 4.88970   2
   3   2   7 9.17731 3.14338   4
  -5   2   7 43.8902 4.92051  -3
   4   2   7 43.8902 4.92051   1
   4   2   7 -1.1594 1.50465   3
  -5   2   7 28.7828 5.81738  -4
   4   2   7 28.7828 5.81738   2
   4   2   7 0.75367 2.19515   4
   4   2   7 1.77333 2.30715   2
  -6   2   7 19.6584 3.90528  -3
   5   2   7 19.6584 3.90528   1
   5   2   7 16.9647 5.61192   2
  -6   2   7 16.3433 5.48839  -4
   5   2   7 16.3433 5.48839   2
   5   2   7 19.3664 3.30998   3
  -7   2   7 41.4588 5.37738  -4
   6   2   7 41.4588 5.37738   2
  -7   2   7 90.5473 7.43012  -3
   6   2   7 90.5473 7.43012   1
  -8   2   7 104.381 5.83755  -4
   7   2   7 104.381 5.83755   2
  -8   2   7 143.435 10.1339  -3
   7   2   7 143.435 10.1339   1
   7   2   7 97.2349 9.17500   2
  -9   2   7 324.456 14.0908  -4
   8   2   7 324.456 14.0908   2
  -9   2   7 506.220 36.1826  -3
   8   2   7 506.220 36.1826   1
 -10   2   7 235.322 11.9849  -4
   9   2   7 235.322 11.9849   2
 -11   2   7 114.872 11.1285  -4
  10   2   7 114.872 11.1285   2
 -13   2   7 9.36206 7.63667  -4
  12   2   7 9.36206 7.63667   2
  13   2   7 21.3164 7.68550   2
 -14   2   7 11.5176 8.53782  -4
  13   2   7 11.5176 8.53782   2
 -15   2   7 0.30752 6.28233  -4
  14   2   7 0.30752 6.28233   2
 -15   2   7 4.05564 7.75420  -3
  14   2   7 4.05564 7.75420   1
  14   2   7 2.52761 2.53354   2
  15   2   7 2.11092 2.60505   2
 -16   2   7 -8.9768 10.5056  -4
  15   2   7 -8.9768 10.5056   2
 -16   2   7 5.14812 6.00668  -3
  15   2   7 5.14812 6.00668   1
 -16   3   7 24.7253 5.19518   4
  15   3   7 68.3412 14.9782  -3
 -16   3   7 68.3412 14.9782   1
  15   3   7 31.1646 12.9023  -4
 -16   3   7 31.1646 12.9023   2
  14   3   7 9.89588 7.15951  -4
 -15   3   7 9.89588 7.15951   2
  14   3   7 8.80987 6.15742  -3
 -15   3   7 8.80987 6.15742   1
 -15   3   7 11.9567 6.70233   4
 -14   3   7 36.4298 5.24321   4
  13   3   7 44.6761 7.31747  -3
 -14   3   7 44.6761 7.31747   1
  13   3   7 30.0510 7.41949  -4
 -14   3   7 30.0510 7.41949   2
  12   3   7 12.7629 8.27075  -4
 -13   3   7 12.7629 8.27075   2
 -13   3   7 1.72240 2.49866   4
  12   3   7 21.8906 10.1385  -3
 -13   3   7 21.8906 10.1385   1
 -12   3   7 59.7567 6.35155   4
 -11   3   7 8.33079 4.85086   1
  10   3   7 19.5871 6.46956  -3
 -11   3   7 19.5871 6.46956   1
 -11   3   7 2.40642 2.08843   4
   9   3   7 122.793 15.6899  -3
 -10   3   7 122.793 15.6899   1
 -10   3   7 129.790 8.84448   1
 -10   3   7 54.4237 5.24522   4
 -10   3   7 55.9359 11.2927   2
   8   3   7 7.09454 4.85092  -4
  -9   3   7 7.09454 4.85092   2
  -9   3   7 -0.6604 1.86055   1
   8   3   7 4.44835 6.71730  -3
  -9   3   7 4.44835 6.71730   1
  -9   3   7 0.77452 1.87726   4
   7   3   7 94.1705 7.20674  -3
  -8   3   7 94.1705 7.20674   1
  -8   3   7 50.6494 6.68124   4
   7   3   7 68.1293 7.53767  -4
  -8   3   7 68.1293 7.53767   2
  -7   3   7 2.49661 2.36135   2
  -7   3   7 4.48160 2.15554   1
   6   3   7 174.406 12.1314  -3
  -7   3   7 174.406 12.1314   1
   6   3   7 104.199 6.67978  -4
  -7   3   7 104.199 6.67978   2
  -7   3   7 1.39284 1.30907   4
  -7   3   7 -0.5877 2.96101   3
   5   3   7 516.812 19.3142  -3
  -6   3   7 516.812 19.3142   1
  -6   3   7 299.802 12.5375   2
  -6   3   7 486.641 15.7438   1
  -6   3   7 306.587 15.2316   4
   5   3   7 303.542 16.5314  -4
  -6   3   7 303.542 16.5314   2
  -6   3   7 446.018 24.6712   3
   4   3   7 463.182 16.9894  -3
  -5   3   7 463.182 16.9894   1
  -5   3   7 5.67153 2.86866   2
   4   3   7 312.500 16.4103  -4
  -5   3   7 312.500 16.4103   2
  -5   3   7 7.07700 2.35597   1
  -5   3   7 8.00532 3.21555   3
  -5   3   7 1.27328 1.86728   4
  -4   3   7 228.281 14.3611   2
   3   3   7 283.902 14.9444  -4
  -4   3   7 283.902 14.9444   2
   3   3   7 438.378 16.1976  -3
  -4   3   7 438.378 16.1976   1
  -4   3   7 371.637 16.7652   1
  -4   3   7 346.914 14.1210   3
  -4   3   7 227.928 10.5766   4
   2   3   7 199.963 10.4044  -4
  -3   3   7 199.963 10.4044   2
  -3   3   7 7.24001 1.65469   1
   2   3   7 328.602 12.5340  -3
  -3   3   7 328.602 12.5340   1
  -3   3   7 9.32450 3.82434   4
  -3   3   7 6.21037 1.89451   3
  -3   3   7 8.21146 3.77186   2
  -2   3   7 370.489 16.4511   1
   1   3   7 258.876 8.05229  -4
  -2   3   7 258.876 8.05229   2
  -2   3   7 353.369 11.7693   3
  -2   3   7 204.959 16.8799   4
   1   3   7 424.866 27.3472  -3
  -2   3   7 424.866 27.3472   1
  -1   3   7 5.21567 1.32639   1
  -1   3   7 4.27078 1.89245   2
  -1   3   7 4.57675 1.14605   4
   0   3   7 69.5269 4.75993  -4
  -1   3   7 69.5269 4.75993   2
  -1   3   7 5.66169 1.72723   3
   0   3   7 91.7313 5.06635   3
   0   3   7 70.6694 3.36024   2
  -1   3   7 75.7410 6.15279  -4
   0   3   7 75.7410 6.15279   2
   0   3   7 55.8770 5.05042   4
  -1   3   7 116.804 7.70760  -3
   0   3   7 116.804 7.70760   1
   0   3   7 97.5635 5.99311   1
   1   3   7 8.94837 1.70307   3
   1   3   7 10.7207 1.85210   1
  -2   3   7 210.768 11.5358  -4
   1   3   7 210.768 11.5358   2
  -2   3   7 349.172 17.4883  -3
   1   3   7 349.172 17.4883   1
   1   3   7 14.4552 4.83295   2
   2   3   7 327.402 12.0913   3
  -3   3   7 364.955 18.3103  -3
   2   3   7 364.955 18.3103   1
   2   3   7 184.994 16.1189   4
   2   3   7 210.038 10.0501   2
   2   3   7 343.685 14.2307   1
  -3   3   7 250.490 13.1432  -4
   2   3   7 250.490 13.1432   2
   3   3   7 5.61751 1.89046   2
   3   3   7 4.26020 2.36264   4
  -4   3   7 149.145 15.1712  -4
   3   3   7 149.145 15.1712   2
   3   3   7 5.11006 2.25901   3
  -4   3   7 378.958 18.8485  -3
   3   3   7 378.958 18.8485   1
   3   3   7 8.66372 2.19840   1
   4   3   7 497.505 26.7802   1
   4   3   7 297.703 18.1062   4
  -5   3   7 549.914 19.2938  -3
   4   3   7 549.914 19.2938   1
   4   3   7 359.052 25.0546   2
  -5   3   7 391.407 18.7720  -4
   4   3   7 391.407 18.7720   2
   4   3   7 494.979 20.2341   3
   5   3   7 5.80127 3.38964   3
   5   3   7 -2.3058 1.67543   2
  -6   3   7 294.322 14.9860  -4
   5   3   7 294.322 14.9860   2
   5   3   7 4.45056 1.81052   4
  -6   3   7 451.064 16.6932  -3
   5   3   7 451.064 16.6932   1
  -7   3   7 126.956 7.73655  -4
   6   3   7 126.956 7.73655   2
   6   3   7 125.384 6.48852   2
   6   3   7 194.423 10.8168   3
  -7   3   7 203.769 12.6081  -3
   6   3   7 203.769 12.6081   1
  -8   3   7 50.6153 6.00862  -4
   7   3   7 50.6153 6.00862   2
  -8   3   7 87.9297 8.00249  -3
   7   3   7 87.9297 8.00249   1
   7   3   7 -0.8355 1.28299   3
   7   3   7 -0.8830 2.26369   2
  -9   3   7 10.3965 7.68349  -3
   8   3   7 10.3965 7.68349   1
   8   3   7 22.5512 3.35699   3
   9   3   7 1.23469 2.67892   3
 -10   3   7 31.6783 6.01217  -4
   9   3   7 31.6783 6.01217   2
 -11   3   7 17.3692 7.19928  -4
  10   3   7 17.3692 7.19928   2
 -12   3   7 35.7991 8.62938  -4
  11   3   7 35.7991 8.62938   2
   6   3  12 63.0302 17.2704  -4
 -12   3   7 63.0302 17.2704  -3
  -8   3  12 63.0302 17.2704  -2
  11   3   7 63.0302 17.2704   1
  13   3   7 1.17348 5.30503   2
 -14   3   7 6.76155 9.53072  -4
  13   3   7 6.76155 9.53072   2
  14   3   7 6.20716 3.72587   2
 -15   3   7 -1.6154 7.42264  -3
  14   3   7 -1.6154 7.42264   1
 -15   3   7 6.02502 6.77930  -4
  14   3   7 6.02502 6.77930   2
  15   3   7 2.81116 3.23233   2
 -16   3   7 54.7613 8.08962  -3
  15   3   7 54.7613 8.08962   1
 -16   3   7 37.1995 7.77332  -4
  15   3   7 37.1995 7.77332   2
  14   4   7 59.9114 8.75389  -3
 -15   4   7 59.9114 8.75389   1
  14   4   7 5.68667 12.6011  -4
 -15   4   7 5.68667 12.6011   2
 -15   4   7 48.4761 8.57448   4
 -14   4   7 0.24133 2.77006   4
  13   4   7 35.0065 9.91448  -3
 -14   4   7 35.0065 9.91448   1
  13   4   7 26.3253 7.88921  -4
 -14   4   7 26.3253 7.88921   2
  12   4   7 76.8061 14.5842  -3
 -13   4   7 76.8061 14.5842   1
 -13   4   7 34.7465 9.09000   4
 -12   4   7 1.20566 2.25453   4
  11   4   7 12.1158 10.0708  -3
 -12   4   7 12.1158 10.0708   1
 -12   4   7 -1.1055 5.09526   2
 -11   4   7 14.3278 4.56194   1
 -11   4   7 14.7585 6.36384   4
  10   4   7 32.2650 7.19263  -3
 -11   4   7 32.2650 7.19263   1
 -11   4   7 20.8824 5.27531   3
 -10   4   7 -2.0537 2.63524   3
 -10   4   7 3.13515 2.55435   4
 -10   4   7 -3.8045 2.53142   1
  -9   4   7 62.0494 6.46473   4
  -9   4   7 52.3336 6.82228   2
   8   4   7 121.446 16.7784  -3
  -9   4   7 121.446 16.7784   1
  -9   4   7 94.8259 8.13260   3
   8   4   7 62.6746 8.26457  -4
  -9   4   7 62.6746 8.26457   2
  -9   4   7 99.5229 11.7374   1
  -8   4   7 0.97470 1.93044   4
   7   4   7 0.68536 4.24691  -3
  -8   4   7 0.68536 4.24691   1
  -8   4   7 -2.2332 1.94312   3
  -8   4   7 -0.0594 2.96185   1
   7   4   7 -5.1332 4.44121  -4
  -8   4   7 -5.1332 4.44121   2
  -7   4   7 1.00983 1.91512   4
   6   4   7 1.70266 2.76264  -4
  -7   4   7 1.70266 2.76264   2
   6   4   7 2.16663 4.20018  -3
  -7   4   7 2.16663 4.20018   1
  -7   4   7 -0.1847 1.36075   3
  -7   4   7 -0.1605 2.10976   2
  -6   4   7 6.16940 2.67595   1
  -6   4   7 1.18651 2.10222   3
  -6   4   7 1.93919 1.47584   4
   5   4   7 107.261 9.62472  -3
  -6   4   7 107.261 9.62472   1
   5   4   7 68.3264 4.68972  -4
  -6   4   7 68.3264 4.68972   2
  -6   4   7 5.23828 2.04909   2
   4   4   7 462.983 14.5965  -3
  -5   4   7 462.983 14.5965   1
  -5   4   7 269.127 14.1818   2
  -5   4   7 412.103 23.9701   3
   4   4   7 259.640 10.5357  -4
  -5   4   7 259.640 10.5357   2
  -5   4   7 251.450 10.9064   4
  -5   4   7 436.403 19.1423   1
  -4   4   7 13.5216 4.22162   4
   3   4   7 786.844 20.0876  -3
  -4   4   7 786.844 20.0876   1
  -4   4   7 15.2265 4.39807   1
   3   4   7 472.183 16.5436  -4
  -4   4   7 472.183 16.5436   2
  -4   4   7 12.5824 2.57466   3
   2   4   7 618.763 18.3006  -4
  -3   4   7 618.763 18.3006   2
   2   4   7 975.017 31.9130  -3
  -3   4   7 975.017 31.9130   1
  -3   4   7 562.639 35.5617   4
  -3   4   7 821.287 41.4006   3
  -3   4   7 938.367 47.8305   1
   1   4   7 531.443 16.0615  -4
  -2   4   7 531.443 16.0615   2
   1   4   7 803.944 50.0987  -3
  -2   4   7 803.944 50.0987   1
  -2   4   7 53.0498 7.17833   1
  -2   4   7 57.4075 3.83438   4
   0   4   7 1058.44 28.2352  -4
  -1   4   7 1058.44 28.2352   2
   0   4   7 1667.41 61.1471  -3
  -1   4   7 1667.41 61.1471   1
  -1   4   7 1441.46 40.0705   3
  -1   4   7 1539.40 72.6865   1
  -1   4   7 890.880 44.6347   4
  -1   4   7 922.622 24.8917  -4
   0   4   7 922.622 24.8917   2
   0   4   7 91.0775 4.79445   1
  -1   4   7 1585.65 89.0693  -3
   0   4   7 1585.65 89.0693   1
   1   4   7 838.166 29.9779   1
  -2   4   7 670.069 30.1824  -4
   1   4   7 670.069 30.1824   2
   1   4   7 596.254 18.5491   2
   1   4   7 886.663 33.4016   3
  -2   4   7 1059.79 63.8475  -3
   1   4   7 1059.79 63.8475   1
   2   4   7 27.4556 6.67158   2
  -3   4   7 896.097 29.2230  -3
   2   4   7 896.097 29.2230   1
  -3   4   7 296.232 24.8910  -4
   2   4   7 296.232 24.8910   2
   3   4   7 846.388 30.0373   1
   3   4   7 536.521 20.0677   2
   3   4   7 820.390 42.7546   3
  -4   4   7 870.824 38.2096  -3
   3   4   7 870.824 38.2096   1
  -4   4   7 600.378 27.6638  -4
   3   4   7 600.378 27.6638   2
   4   4   7 2.63666 1.92607   2
  -5   4   7 374.932 14.2114  -3
   4   4   7 374.932 14.2114   1
  -5   4   7 248.451 14.9332  -4
   4   4   7 248.451 14.9332   2
   4   4   7 4.67256 2.91885   1
   4   4   7 -0.0040 1.62795   4
   4   4   7 5.80962 2.18097   3
  -6   4   7 126.403 7.01312  -3
   5   4   7 126.403 7.01312   1
  -6   4   7 90.4776 8.59344  -4
   5   4   7 90.4776 8.59344   2
   5   4   7 115.380 10.3292   1
   5   4   7 76.0523 4.75931   2
   5   4   7 128.474 8.64526   3
   5   4   7 70.9000 5.50462   4
   6   4   7 0.57741 1.77803   2
  -7   4   7 6.57864 3.50259  -3
   6   4   7 6.57864 3.50259   1
  -7   4   7 -0.0612 6.05576  -4
   6   4   7 -0.0612 6.05576   2
   6   4   7 -1.1166 2.12145   1
   6   4   7 1.16709 2.40050   3
   7   4   7 3.56715 2.68285   1
   7   4   7 0.53094 3.35337   2
   7   4   7 -0.1951 2.76224   4
  -8   4   7 1.18271 3.55660  -3
   7   4   7 1.18271 3.55660   1
   7   4   7 -2.0733 2.56493   3
   6   4   8 534.106 31.8234  -3
   7   4   7 534.106 31.8234   2
  -8   4   7 4.99858 6.27085  -4
   7   4   7 4.99858 6.27085   2
   8   4   7 -2.0886 1.81098   3
   8   4   7 0.26000 3.89543   2
   6   4   9 0.95364 5.35133  -4
   8   4   7 0.95364 5.35133   1
  -9   4   7 62.1617 13.4989  -3
   8   4   7 62.1617 13.4989   1
 -10   4   7 83.1509 15.0024  -3
   9   4   7 83.1509 15.0024   1
  10   4   7 -0.3206 3.57586   3
 -13   4   7 10.8595 8.71003  -4
  12   4   7 10.8595 8.71003   2
  12   4   7 3.26910 4.68866   2
 -14   4   7 118.512 22.3977  -3
  -8   4  14 118.512 22.3977  -2
  13   4   7 118.512 22.3977   1
  13   4   7 41.9012 10.7318   2
 -15   4   7 48.6878 7.74973  -3
  14   4   7 48.6878 7.74973   1
  14   4   7 0.20793 4.28522   2
 -14   5   7 74.1791 8.33984   4
  13   5   7 70.9974 16.7519  -4
 -14   5   7 70.9974 16.7519   2
 -14   5   7 74.6162 10.1701   3
  13   5   7 124.338 11.2186  -3
 -14   5   7 124.338 11.2186   1
  12   5   7 51.5294 15.4348  -3
 -13   5   7 51.5294 15.4348   1
  11   5   7 199.610 23.8811  -3
 -12   5   7 199.610 23.8811   1
 -12   5   7 111.557 13.9065   4
 -12   5   7 153.435 11.3602   3
  10   5   7 54.3854 8.71166  -3
 -11   5   7 54.3854 8.71166   1
 -11   5   7 4.89948 2.76693   4
 -11   5   7 -2.4236 2.82253   3
 -10   5   7 93.1838 5.90128   2
   9   5   7 182.865 22.2121  -3
 -10   5   7 182.865 22.2121   1
 -10   5   7 188.090 18.0326   1
 -10   5   7 109.345 8.50988   4
   8   5   7 36.7801 6.97842  -4
  -9   5   7 36.7801 6.97842   2
  -9   5   7 2.11463 4.07875   1
   8   5   7 80.9602 10.4651  -3
  -9   5   7 80.9602 10.4651   1
  -9   5   7 -1.5001 2.04677   4
  -8   5   7 238.558 13.1225   4
   7   5   7 229.217 15.3445  -4
  -8   5   7 229.217 15.3445   2
  -8   5   7 400.259 27.3990   1
  -8   5   7 250.169 17.3955   2
   7   5   7 440.473 18.9473  -3
  -8   5   7 440.473 18.9473   1
  -7   5   7 3.89652 4.02151   4
   6   5   7 29.4225 7.96459  -4
  -7   5   7 29.4225 7.96459   2
   6   5   7 47.7476 7.39294  -3
  -7   5   7 47.7476 7.39294   1
  -7   5   7 -0.1307 2.16162   2
  -6   5   7 376.729 11.6561   1
   5   5   7 417.171 22.0918  -3
  -6   5   7 417.171 22.0918   1
  -6   5   7 205.304 11.3891   4
  -6   5   7 378.971 23.5350   3
  -6   5   7 258.643 17.0743   2
   5   5   7 229.224 19.0642  -4
  -6   5   7 229.224 19.0642   2
  -5   5   7 -0.6408 1.85594   2
   4   5   7 26.4395 5.47595  -4
  -5   5   7 26.4395 5.47595   2
  -5   5   7 0.88791 2.83509   1
  -5   5   7 -2.3904 2.36266   4
  -5   5   7 2.77043 2.59688   3
   4   5   7 33.5000 4.27906  -3
  -5   5   7 33.5000 4.27906   1
   3   5   7 181.217 9.43373  -3
  -4   5   7 181.217 9.43373   1
   3   5   7 113.186 7.81451  -4
  -4   5   7 113.186 7.81451   2
  -4   5   7 99.0335 9.27636   4
  -4   5   7 155.020 12.9212   3
  -4   5   7 104.081 9.08267   2
  -4   5   7 161.149 14.3158   1
  -3   5   7 17.6404 3.23028   4
   2   5   7 67.5208 5.74377  -4
  -3   5   7 67.5208 5.74377   2
  -3   5   7 1.46983 2.62229   3
  -3   5   7 3.92669 1.07136   1
   2   5   7 95.2398 11.6105  -3
  -3   5   7 95.2398 11.6105   1
  -3   5   7 -0.0458 1.93393   2
  -2   5   7 138.613 5.72740   3
   1   5   7 113.149 8.26701  -4
  -2   5   7 113.149 8.26701   2
  -2   5   7 134.769 9.69130   1
  -2   5   7 80.4900 5.28406   4
   1   5   7 158.067 16.0831  -3
  -2   5   7 158.067 16.0831   1
  -1   5   7 2.02951 1.26642   3
  -1   5   7 -0.0668 1.37941   2
  -1   5   7 2.79912 1.99618   4
  -1   5   7 4.13819 1.29481   1
   0   5   7 55.4768 6.39724  -4
  -1   5   7 55.4768 6.39724   2
   0   5   7 88.7095 7.25883   1
  -1   5   7 102.608 13.7245  -3
   0   5   7 102.608 13.7245   1
  -1   5   7 52.4634 4.83894  -4
   0   5   7 52.4634 4.83894   2
   0   5   7 56.8036 4.25179   2
   0   5   7 45.2954 4.00834   4
   0   5   7 86.2611 4.18123   3
  -2   5   7 81.9690 4.81726  -4
   1   5   7 81.9690 4.81726   2
   1   5   7 2.46250 2.00694   1
   1   5   7 4.21152 1.07013   3
   1   5   7 5.59032 2.38464   2
  -2   5   7 143.308 16.4069  -3
   1   5   7 143.308 16.4069   1
   2   5   7 105.168 4.40343   3
  -3   5   7 83.0673 8.66232  -4
   2   5   7 83.0673 8.66232   2
   2   5   7 51.5470 5.71473   4
  -3   5   7 116.550 10.2238  -3
   2   5   7 116.550 10.2238   1
   2   5   7 75.6828 7.49511   2
   2   5   7 109.559 10.4089   1
  -4   5   7 94.4512 9.04824  -4
   3   5   7 94.4512 9.04824   2
  -4   5   7 146.790 11.6978  -3
   3   5   7 146.790 11.6978   1
   3   5   7 0.09002 3.01921   3
   3   5   7 7.54554 3.43571   1
   3   5   7 -2.1808 2.37973   2
   3   5   7 -2.1000 1.35286   4
   4   5   7 22.6915 4.52037   4
  -5   5   7 35.3149 6.16850  -4
   4   5   7 35.3149 6.16850   2
   4   5   7 26.3589 6.58350   3
   4   5   7 29.4852 3.87002   2
  -5   5   7 30.1551 6.21622  -3
   4   5   7 30.1551 6.21622   1
   4   5   7 33.8001 6.46526   1
   5   5   7 6.66473 4.70359   1
  -6   5   7 209.084 13.9582  -4
   5   5   7 209.084 13.9582   2
   5   5   7 2.76367 2.39265   4
  -6   5   7 304.348 17.9786  -3
   5   5   7 304.348 17.9786   1
   5   5   7 3.62715 2.64598   3
   5   5   7 0.55406 2.07781   2
  -7   5   7 56.2370 8.97254  -3
   6   5   7 56.2370 8.97254   1
   6   5   7 44.9785 6.61215   2
   6   5   7 58.1604 11.8292   3
   6   5   7 26.8573 5.75520   4
  -7   5   7 51.6982 9.35121  -4
   6   5   7 51.6982 9.35121   2
  -8   5   7 310.292 18.2563  -3
   7   5   7 310.292 18.2563   1
  -8   5   7 111.448 15.2684  -4
   7   5   7 111.448 15.2684   2
   7   5   7 4.14521 2.81457   2
   7   5   7 1.74949 2.37970   4
   8   5   7 56.1730 11.7481   2
  -9   5   7 97.6160 17.4099  -3
   8   5   7 97.6160 17.4099   1
   9   5   7 2.41683 3.08698   4
 -10   5   7 137.320 19.8213  -3
   9   5   7 137.320 19.8213   1
  10   5   7 24.5834 5.80594   4
  10   5   7 43.3129 5.97417   1
 -12   5   7 137.328 22.4319  -3
  11   5   7 137.328 22.4319   1
 -13   5   7 38.8950 11.8732  -4
  12   5   7 38.8950 11.8732   2
 -13   5   7 141.422 25.9646  -3
  -8   5  13 141.422 25.9646  -2
  12   5   7 141.422 25.9646   1
  13   5   7 8.04526 6.49629   2
  13   5   7 -2.8561 6.34145   1
 -13   6   7 36.2451 8.83074   1
  12   6   7 56.7051 9.01253  -3
 -13   6   7 56.7051 9.01253   1
  12   6   7 32.7997 11.1755  -4
 -13   6   7 32.7997 11.1755   2
 -12   6   7 7.03355 5.88346   1
  11   6   7 166.563 22.6465  -3
 -12   6   7 166.563 22.6465   1
 -12   6   7 1.88254 3.84897   4
 -11   6   7 235.011 19.2500   4
  10   6   7 379.262 23.3346  -3
 -11   6   7 379.262 23.3346   1
 -11   6   7 380.899 28.8555   1
 -10   6   7 4.70738 3.79445   2
   9   6   7 89.2653 17.3816  -3
 -10   6   7 89.2653 17.3816   1
   9   6   7 101.618 15.2119  -4
 -10   6   7 101.618 15.2119   2
 -10   6   7 1.53864 4.62739   1
   8   6   7 124.896 13.0340  -3
  -9   6   7 124.896 13.0340   1
   8   6   7 84.9912 10.4824  -4
  -9   6   7 84.9912 10.4824   2
  -9   6   7 145.098 11.1922   1
  -9   6   7 86.9957 10.1121   2
  -9   6   7 85.9232 10.6364   4
   7   6   7 525.870 27.3800  -3
  -8   6   7 525.870 27.3800   1
  -8   6   7 4.44606 3.67146   2
   7   6   7 301.382 19.3240  -4
  -8   6   7 301.382 19.3240   2
  -8   6   7 12.8400 3.70157   4
  -8   6   7 10.2194 6.48767   1
  -7   6   7 381.832 18.0081   4
  -7   6   7 436.191 26.3038   2
  -7   6   7 654.847 39.6953   1
   6   6   7 660.946 31.4993  -3
  -7   6   7 660.946 31.4993   1
   6   6   7 379.183 21.9340  -4
  -7   6   7 379.183 21.9340   2
   5   6   7 163.899 13.1491  -4
  -6   6   7 163.899 13.1491   2
  -6   6   7 8.21879 3.25964   1
  -6   6   7 1.89712 2.63113   4
  -6   6   7 1.55314 2.90627   2
   5   6   7 287.427 17.3713  -3
  -6   6   7 287.427 17.3713   1
  -5   6   7 144.538 9.10766   4
  -5   6   7 241.027 13.4540   1
  -5   6   7 170.402 13.5814   2
   4   6   7 249.740 15.3312  -3
  -5   6   7 249.740 15.3312   1
   4   6   7 163.950 12.6316  -4
  -5   6   7 163.950 12.6316   2
  -4   6   7 2.66400 1.00512   1
  -4   6   7 2.71829 1.39080   4
   3   6   7 64.7035 7.64104  -4
  -4   6   7 64.7035 7.64104   2
   3   6   7 74.6471 11.4864  -3
  -4   6   7 74.6471 11.4864   1
  -4   6   7 2.66849 2.43709   2
   2   6   7 96.4033 8.44741  -4
  -3   6   7 96.4033 8.44741   2
  -3   6   7 88.5517 8.56695   2
  -3   6   7 148.960 6.42641   1
  -3   6   7 132.428 12.3339   3
  -3   6   7 75.3741 7.17551   4
  -2   6   7 10.9886 3.77757   4
  -2   6   7 4.39788 2.44379   2
   1   6   7 86.0472 9.58483  -4
  -2   6   7 86.0472 9.58483   2
  -2   6   7 2.43503 2.90270   1
  -2   6   7 -2.8434 1.75294   3
  -1   6   7 28.5053 4.43621   1
  -1   6   7 33.2738 3.68368   3
  -1   6   7 20.0170 4.71297   2
  -1   6   7 17.6702 2.75778   4
   0   6   7 19.6814 5.47782  -4
  -1   6   7 19.6814 5.47782   2
   0   6   7 -0.9886 2.90534   2
   0   6   7 1.48944 2.50210   3
   0   6   7 5.66918 2.27402   1
   0   6   7 2.93087 2.15854   4
   1   6   7 134.267 6.57116   3
   1   6   7 76.6871 7.39049   4
  -2   6   7 101.463 6.85024  -4
   1   6   7 101.463 6.85024   2
   1   6   7 98.1214 6.01268   2
   1   6   7 162.276 14.1272   1
   2   6   7 1.34724 1.22100   3
  -3   6   7 80.7156 7.21994  -4
   2   6   7 80.7156 7.21994   2
   2   6   7 2.44851 2.12826   4
   2   6   7 4.02389 2.90281   1
   2   6   7 3.07855 2.54778   2
  -3   6   7 82.9998 14.8167  -3
   2   6   7 82.9998 14.8167   1
  -4   6   7 49.7610 7.75805  -4
   3   6   7 49.7610 7.75805   2
  -4   6   7 90.2507 7.38310  -3
   3   6   7 90.2507 7.38310   1
   3   6   7 58.1219 6.88185   4
   3   6   7 108.432 7.77880   3
   3   6   7 72.7731 6.09340   2
   4   6   7 2.04794 2.39067   3
   4   6   7 -0.7680 2.23494   2
   4   6   7 1.01362 2.64213   4
  -5   6   7 253.198 18.6243  -3
   4   6   7 253.198 18.6243   1
  -5   6   7 149.362 11.8270  -4
   4   6   7 149.362 11.8270   2
   5   6   7 314.467 11.3893   3
  -6   6   7 211.518 14.6143  -4
   5   6   7 211.518 14.6143   2
   5   6   7 210.304 12.3210   2
   5   6   7 186.099 14.0158   4
  -6   6   7 317.145 30.6727  -3
   5   6   7 317.145 30.6727   1
  -7   6   7 356.231 20.1817  -4
   6   6   7 356.231 20.1817   2
   6   6   7 5.25806 3.30406   2
   6   6   7 8.04297 3.62359   4
  -7   6   7 383.067 34.9731  -3
   6   6   7 383.067 34.9731   1
   6   6   7 6.22327 4.59525   3
  -8   6   7 439.025 31.1175  -4
   7   6   7 439.025 31.1175   2
   7   6   7 367.940 22.9019   4
   7   6   7 433.339 29.2511   2
  -8   6   7 599.910 47.9827  -3
   7   6   7 599.910 47.9827   1
   6   6   8 483.776 32.1991  -3
   7   6   7 483.776 32.1991   2
   8   6   7 0.75494 5.60113   3
  -9   6   7 101.365 18.0066  -3
   8   6   7 101.365 18.0066   1
 -10   6   7 142.073 22.4948  -3
   9   6   7 142.073 22.4948   1
 -12   6   7 145.740 24.9349  -3
  11   6   7 145.740 24.9349   1
 -13   6   7 37.6311 10.2668  -3
  12   6   7 37.6311 10.2668   1
 -11   7   7 1.98691 3.27490   2
 -11   7   7 -4.4301 4.94997   1
 -11   7   7 1.13949 4.60359   4
  10   7   7 6.86010 14.2273  -3
 -11   7   7 6.86010 14.2273   1
   9   7   7 57.6775 16.5306  -3
 -10   7   7 57.6775 16.5306   1
 -10   7   7 23.9780 6.73567   2
 -10   7   7 40.7097 6.76262   4
  -8   7   9 115.506 15.8918  -4
 -10   7   7 115.506 15.8918   1
  -9   7   7 -2.4593 3.54090   4
  -9   7   7 -0.2179 2.94119   2
  -9   7   7 5.95622 4.55239   1
   8   7   7 15.3162 12.8329  -4
  -9   7   7 15.3162 12.8329   2
  -8   7   7 31.3932 7.02199   2
   7   7   7 6.83845 7.20330  -4
  -8   7   7 6.83845 7.20330   2
  -8   7   7 27.5189 5.25182   4
  -8   7   7 50.7706 11.1105   1
   7   7   7 33.6620 10.4350  -3
  -8   7   7 33.6620 10.4350   1
   6   7   7 32.3751 11.5141  -3
  -7   7   7 32.3751 11.5141   1
  -7   7   7 -1.1263 2.77085   4
  -7   7   7 -1.6420 2.79225   1
  -7   7   7 0.63983 2.71927   2
   6   7   7 16.1980 7.44593  -4
  -7   7   7 16.1980 7.44593   2
  -6   7   7 99.6076 7.99678   1
   5   7   7 67.8977 15.8857  -4
  -6   7   7 67.8977 15.8857   2
   5   7   7 98.5255 10.3912  -3
  -6   7   7 98.5255 10.3912   1
  -6   7   7 63.7041 8.25722   2
  -6   7   7 64.9942 9.41161   4
   4   7   7 112.898 13.3661  -3
  -5   7   7 112.898 13.3661   1
   4   7   7 73.6606 7.74317  -4
  -5   7   7 73.6606 7.74317   2
  -5   7   7 6.28630 3.25914   1
  -5   7   7 2.93710 3.90747   4
  -5   7   7 -2.1307 2.48409   2
   3   7   7 196.222 13.2948  -3
  -4   7   7 196.222 13.2948   1
  -4   7   7 172.649 14.1072   1
   3   7   7 116.810 8.99558  -4
  -4   7   7 116.810 8.99558   2
  -4   7   7 117.852 10.9020   2
  -4   7   7 107.520 12.2941   4
   2   7   7 49.2274 8.69747  -4
  -3   7   7 49.2274 8.69747   2
  -3   7   7 -0.7010 1.89933   1
   2   7   7 72.5499 8.36640  -3
  -3   7   7 72.5499 8.36640   1
  -3   7   7 0.23077 2.64340   2
  -3   7   7 3.25754 3.21401   3
  -2   7   7 36.8960 5.77674   4
  -2   7   7 43.0453 6.41641   2
  -2   7   7 56.2622 6.19171   1
   1   7   7 38.9895 8.16017  -4
  -2   7   7 38.9895 8.16017   2
   0   7   7 28.5855 7.07490  -4
  -1   7   7 28.5855 7.07490   2
  -1   7   7 5.55129 2.59747   1
  -1   7   7 -0.7637 2.16609   2
  -1   7   7 1.86194 1.80331   4
   0   7   7 35.8705 4.95515   3
  -1   7   7 15.4499 6.10459  -4
   0   7   7 15.4499 6.10459   2
   0   7   7 12.5672 3.82537   4
  -2   7   7 35.7434 6.68416  -4
   1   7   7 35.7434 6.68416   2
   1   7   7 6.58887 3.18081   2
   1   7   7 -0.1675 2.99454   1
   2   7   7 78.4072 6.55751   1
   2   7   7 32.5525 7.96853   2
  -3   7   7 50.8035 10.5852  -4
   2   7   7 50.8035 10.5852   2
   2   7   7 73.8900 4.75152   3
   2   7   7 40.3859 6.86029   4
  -4   7   7 101.431 6.85271  -4
   3   7   7 101.431 6.85271   2
   3   7   7 1.18097 3.38797   2
  -4   7   7 134.268 9.61897  -3
   3   7   7 134.268 9.61897   1
   3   7   7 4.85304 3.90465   3
  -5   7   7 118.355 9.08080  -3
   4   7   7 118.355 9.08080   1
   4   7   7 140.220 9.76965   3
  -5   7   7 71.8455 8.92726  -4
   4   7   7 71.8455 8.92726   2
   4   7   7 62.9878 7.93411   4
   4   7   7 90.5410 12.2053   2
   5   7   7 2.92233 3.90742   2
  -6   7   7 87.7534 7.77062  -3
   5   7   7 87.7534 7.77062   1
  -6   7   7 43.4628 8.15011  -4
   5   7   7 43.4628 8.15011   2
   5   7   7 -1.7945 2.31749   4
   6   7   7 13.9914 6.21316   3
  -7   7   7 15.4637 9.64958  -4
   6   7   7 15.4637 9.64958   2
   6   7   7 13.9542 4.54631   4
   6   7   7 46.1872 10.4317  -3
   6   7   7 46.1872 10.4317   2
   6   7   7 12.5489 6.17868   2
  -8   7   7 37.7009 7.80563  -3
   7   7   7 37.7009 7.80563   1
   6   7   8 -9.6995 6.05031  -3
   7   7   7 -9.6995 6.05031   2
   7   7   7 -1.9279 1.74393   4
   7   7   7 2.13071 4.68223   2
   8   7   7 11.0150 4.80793   4
  -9   7   7 27.7471 15.4561  -3
   8   7   7 27.7471 15.4561   1
 -10   7   7 58.0826 18.5610  -3
   9   7   7 58.0826 18.5610   1
  -9   8   7 10.7227 4.61645   2
   8   8   7 -4.5313 8.02429  -4
  -9   8   7 -4.5313 8.02429   2
  -9   8   7 12.7933 7.23505   1
  -9   8   7 24.4173 10.3509   3
  -9   8   7 10.6737 3.91635   4
  -8   8   7 0.61755 4.10942   4
  -8   8   7 3.34549 3.42414   2
   7   8   7 2.80512 7.75237  -4
  -8   8   7 2.80512 7.75237   2
  -8   8   7 1.09272 5.20284   1
  -7   8   7 -5.0468 3.93490   4
   6   8   7 -2.9211 6.04042  -4
  -7   8   7 -2.9211 6.04042   2
  -7   8   7 -1.4339 2.76059   2
   5   8   7 14.1161 6.34591  -4
  -6   8   7 14.1161 6.34591   2
  -6   8   7 -2.8636 3.85361   4
  -6   8   7 2.25116 3.83021   1
   5   8   7 38.6151 8.44189  -3
  -6   8   7 38.6151 8.44189   1
  -6   8   7 -3.2257 2.64392   2
   4   8   7 75.3836 8.38085  -3
  -5   8   7 75.3836 8.38085   1
   4   8   7 53.8239 7.46905  -4
  -5   8   7 53.8239 7.46905   2
  -5   8   7 83.8035 9.98152   1
  -5   8   7 64.5215 9.81774   4
  -5   8   7 97.7729 11.4676   3
  -5   8   7 63.0990 8.30220   2
  -4   8   7 -1.8889 4.19114   3
  -4   8   7 4.39609 3.33714   4
  -4   8   7 2.53950 3.08305   2
   3   8   7 33.4230 12.4174  -4
  -4   8   7 33.4230 12.4174   2
  -4   8   7 4.76650 2.16539   1
   3   8   7 98.5314 14.5932  -3
  -4   8   7 98.5314 14.5932   1
  -3   8   7 40.6025 9.66516   4
  -3   8   7 91.2443 8.99793   1
   2   8   7 61.7161 11.5622  -4
  -3   8   7 61.7161 11.5622   2
   2   8   7 111.415 9.14060  -3
  -3   8   7 111.415 9.14060   1
  -3   8   7 62.3658 7.68917   2
  -2   8   7 7.98278 4.94029   4
  -2   8   7 2.02596 3.12321   2
   1   8   7 78.5743 12.0509  -4
  -2   8   7 78.5743 12.0509   2
  -2   8   7 4.73104 3.08398   1
  -1   8   7 125.620 8.48748   2
  -1   8   7 130.271 8.25476   4
   0   8   7 126.668 14.0095  -4
  -1   8   7 126.668 14.0095   2
   0   8   7 4.20135 2.72517   2
   0   8   7 0.83084 2.10183   4
   1   8   7 86.6264 7.22889   2
   1   8   7 129.387 9.96669   3
  -2   8   7 87.7692 10.7005  -4
   1   8   7 87.7692 10.7005   2
   1   8   7 70.2088 7.90374   4
   2   8   7 1.83503 3.53638   3
  -3   8   7 43.4007 8.10953  -4
   2   8   7 43.4007 8.10953   2
   2   8   7 -0.2621 2.28757   4
   2   8   7 -5.2490 3.78360   2
  -4   8   7 65.8298 6.95391  -3
   3   8   7 65.8298 6.95391   1
   3   8   7 44.9288 6.59624   4
   3   8   7 64.4742 4.73204   3
   3   8   7 51.6972 10.8598   2
   3   8   7 65.4845 9.36479   1
  -5   8   7 27.3360 11.1536  -4
   4   8   7 27.3360 11.1536   2
   4   8   7 1.23721 3.45883   1
   4   8   7 1.06432 3.11229   4
   4   8   7 -1.4255 4.47497   3
  -5   8   7 68.9291 7.85516  -3
   4   8   7 68.9291 7.85516   1
   5   8   7 31.6192 9.60806   2
  -6   8   7 16.4307 9.66985  -4
   5   8   7 16.4307 9.66985   2
  -6   8   7 26.2822 5.70927  -3
   5   8   7 26.2822 5.70927   1
   5   8   7 26.0913 7.46333   3
   5   8   7 18.3056 5.50996   4
  -7   8   7 -5.8489 8.77855  -4
   6   8   7 -5.8489 8.77855   2
   6   8   7 9.31446 3.56587   4
  -7   8   7 -4.7860 14.3959  -3
   6   8   7 -4.7860 14.3959   1
   7   8   7 -2.3295 2.27025   4
   6   8   8 151.548 18.6016  -3
   7   8   7 151.548 18.6016   2
   7   8   7 -3.2225 5.11666   3
  -9   8   7 4.91003 7.47425  -3
   8   8   7 4.91003 7.47425   1
   4   9   7 17.6339 14.4745  -4
  -5   9   7 17.6339 14.4745   2
  -5   9   7 8.34951 5.48000   3
  -5   9   7 1.00916 4.17947   4
  -5   9   7 -1.3509 1.96823   2
   4   9   7 2.80273 12.8042  -3
  -5   9   7 2.80273 12.8042   1
  -5   9   7 -0.0605 5.25028   1
   3   9   7 89.6819 17.5210  -3
  -4   9   7 89.6819 17.5210   1
  -4   9   7 44.5756 10.6565   4
   3   9   7 36.8673 7.86331  -4
  -4   9   7 36.8673 7.86331   2
  -4   9   7 72.2869 8.71229   1
  -4   9   7 50.0415 6.56117   2
   2   9   7 9.45969 10.8755  -4
  -3   9   7 9.45969 10.8755   2
  -3   9   7 1.25536 2.61426   2
   2   9   7 27.9816 6.29380  -3
  -3   9   7 27.9816 6.29380   1
  -3   9   7 -4.6315 3.20066   4
  -2   9   7 35.4533 5.76201   2
  -2   9   7 26.0505 7.78725   4
  -1   9   7 2.46603 2.71742   2
  -1   9   7 1.69126 2.72492   4
   0   9   7 15.1862 9.36123  -4
  -1   9   7 15.1862 9.36123   2
  -1   9   7 28.8797 9.58594  -4
   0   9   7 28.8797 9.58594   2
   0   9   7 20.8120 4.23159   2
   0   9   7 23.2058 4.29260   4
  -2   9   7 26.7309 9.77957  -4
   1   9   7 26.7309 9.77957   2
   1   9   7 1.40949 4.61691   4
   1   9   7 1.98177 2.64144   2
  -3   9   7 18.1640 9.08706  -4
   2   9   7 18.1640 9.08706   2
   2   9   7 14.9103 3.87489   4
   2   9   7 16.4720 7.87077   2
  -4   9   7 72.4305 7.43969  -3
   3   9   7 72.4305 7.43969   1
   3   9   7 7.25143 4.05290   2
   3   9   7 -2.1845 2.09916   4
  -4   9   7 35.6329 11.8292  -4
   3   9   7 35.6329 11.8292   2
   3   9   7 2.89216 5.00173   3
  -5   9   7 51.8743 9.90328  -3
   4   9   7 51.8743 9.90328   1
   4   9   7 29.6750 5.45523   4
 -17   0   8 -0.1388 8.19071   3
 -16   0   8 115.944 11.5058   3
 -16   0   8 98.6209 15.8396   1
 -16   0   8 60.2748 15.3605   2
 -16   0   8 58.5378 9.67018   4
 -15   0   8 9.12251 5.98500   1
 -15   0   8 -1.6380 4.78881   2
 -15   0   8 -2.1574 2.09801   4
 -14   0   8 63.6972 14.2765   2
   7   0  13 167.504 19.0248  -4
 -14   0   8 167.504 19.0248   3
 -14   0   8 132.532 16.8548   1
   7   0  12 3.63974 8.18504  -2
 -13   0   8 3.63974 8.18504   1
 -13   0   8 -0.2548 4.66605   2
 -12   0   8 75.5617 15.2833   2
 -11   0   8 11.2834 6.21622   2
  -9   0   9 473.207 32.7305  -4
 -10   0   8 473.207 32.7305   1
 -10   0   8 300.577 20.4518   4
 -10   0   8 499.758 34.3472   3
 -10   0   8 327.455 26.3202   2
 -10   0   8 517.833 31.4529   1
  -9   0   8 11.1640 2.87743   4
  -9   0   8 2.12201 3.98611   2
  -9   0   8 10.4124 5.26057   1
  -9   0   8 5.31511 4.24145   3
  -8   0   8 427.000 29.3182   1
  -8   0   8 247.170 12.5101   4
  -8   0   8 367.140 25.8797   3
  -8   0   8 285.458 22.9245   2
  -7   0   8 6.67390 4.40803   3
  -7   0   8 13.0921 2.58450   4
  -7   0   8 20.6461 6.30815   2
  -7   0   8 18.7038 3.06908   1
  -6   0   8 302.658 22.6848   2
  -6   0   8 274.426 10.8170   4
  -6   0   8 472.465 16.2701   1
  -6   0   8 375.605 25.8181   3
  -5   0   8 3.35514 1.63882   1
  -5   0   8 0.88521 1.92332   2
  -5   0   8 -0.3183 2.14760   3
  -5   0   8 2.81473 1.42522   4
  -4   0   8 60.1159 3.62065   1
  -4   0   8 41.6622 3.37849   4
  -4   0   8 41.5691 4.79658   2
  -4   0   8 60.4724 7.24242   3
  -3   0   8 3.43497 2.65360   3
  -3   0   8 17.0666 4.46945   4
  -8   0   2 275.461 11.2481  -4
  -3   0   8 275.461 11.2481   1
  -3   0   8 8.44057 2.59405   2
  -3   0   8 8.28308 3.00985   1
  -2   0   8 314.377 20.7243   3
   0   0   8 490.598 30.1512   2
   8   0   1 732.332 42.5494  -4
  -8   0   1 732.332 42.5494  -2
   0   0   8 732.332 42.5494   1
   1   0   8 13.5505 2.18357   2
  -8   0   2 240.136 16.7673  -4
   1   0   8 240.136 16.7673   3
   1   0   8 20.2479 4.90695   4
   1   0   8 11.6047 1.95098   3
   1   0   8 12.7705 3.71487   1
   2   0   8 225.880 9.44333   2
   2   0   8 340.544 11.5694   3
   2   0   8 317.710 21.7068   1
   2   0   8 207.429 11.4577   4
   3   0   8 6.33561 1.60633   3
   3   0   8 1.60743 1.89519   4
   3   0   8 4.71430 1.51878   2
   3   0   8 3.42870 2.64555   1
   4   0   8 22.5340 2.74044   2
   4   0   8 26.0369 6.37787   4
   4   0   8 34.8349 3.01614   3
   4   0   8 41.0010 6.27255   1
   5   0   8 10.7317 2.38834   3
   5   0   8 4.09990 3.65906   1
   5   0   8 15.2122 2.86059   2
   5   0   8 3.80539 3.81562   4
   6   0   8 462.231 16.8386   2
   6   0   8 615.142 38.9256   1
   6   0   8 634.694 20.7990   3
   6   0   8 359.616 25.9899   4
   7   0   8 7.55943 4.35283   4
   7   0   8 9.90679 4.48082   2
   7   0   8 3.41863 3.57356   1
   7   0   8 11.5260 4.83550   3
   7   0   9 117.439 10.8586  -3
   8   0   8 117.439 10.8586   2
   7   0   9 157.884 16.0861  -4
   8   0   8 157.884 16.0861   1
  -9   0  12 -7.3173 6.76621  -4
  11   0   8 -7.3173 6.76621   3
  -9   0  13 43.3009 11.9327  -2
  12   0   8 43.3009 11.9327   1
  13   0   8 -3.7119 3.90467   3
  -9   0  14 4.37011 11.2277  -2
  13   0   8 4.37011 11.2277   1
  14   0   8 12.1469 3.38764   2
  14   0   8 9.61622 7.28162   4
  14   0   8 6.83924 6.04173   3
  15   0   8 2.30981 5.57256   3
  15   0   8 0.64737 5.68316   4
  15   0   8 -2.3193 3.66435   2
  15   0   8 7.28442 7.93230   1
 -16   1   8 2.87474 2.20668   4
 -16   1   8 -1.6461 3.21366   1
 -16   1   8 3.08863 4.45750   2
 -16   1   8 1.59277 3.12572   3
 -15   1   8 33.6619 7.72128   2
 -15   1   8 30.9026 5.69227   4
 -15   1   8 74.8652 10.5726   3
 -15   1   8 57.2639 7.36269   1
 -14   1   8 0.71158 3.90957   2
   7   1  13 10.2194 6.81793  -4
 -14   1   8 10.2194 6.81793   3
 -14   1   8 10.7957 4.54466   1
 -13   1   8 107.358 14.3237   2
  -9   1  12 443.804 34.7851  -3
 -13   1   8 443.804 34.7851   2
 -13   1   8 112.550 6.57192   4
   7   1  12 368.226 20.9118  -2
 -13   1   8 368.226 20.9118   1
  -9   1  12 391.929 27.4774  -4
   7   1  12 391.929 27.4774  -2
 -13   1   8 391.929 27.4774   1
 -12   1   8 0.85546 2.75357   2
 -11   1   8 10.9881 4.48252   2
 -10   1   8 1.02432 2.97346   2
 -10   1   8 -0.8811 3.37433   1
 -10   1   8 -1.8350 2.17470   3
 -10   1   8 -2.1070 2.00513   4
  -9   1   8 11.4375 2.02563   4
  -9   1   8 20.2964 4.67199   3
  -9   1   8 19.3577 2.73104   1
  -9   1   8 13.1409 4.25382   2
  -8   1   8 0.91902 2.23586   2
  -8   1   8 2.37869 1.16753   4
  -8   1   8 1.01176 1.07085   1
  -8   1   8 1.40824 2.25926   3
   7   1   8 -0.7989 6.42867  -3
  -8   1   8 -0.7989 6.42867   1
  -7   1   8 116.526 8.33925   3
  -7   1   8 119.065 4.08239   1
   6   1   8 114.641 11.3850  -3
  -7   1   8 114.641 11.3850   1
  -7   1   8 74.8631 7.02310   2
  -7   1   8 63.9953 3.38024   4
  -6   1   8 2.52567 1.35805   4
  -6   1   8 5.74332 0.95794   1
  -6   1   8 1.52483 1.70159   3
  -6   1   8 7.26416 3.31101   2
  -5   1   8 233.563 12.4822   3
  -5   1   8 256.428 6.63162   1
  -5   1   8 166.900 7.38786   2
  -5   1   8 148.776 5.15427   4
  -4   1   8 6.67805 1.23459   1
  -4   1   8 4.35157 2.05555   3
  -4   1   8 2.20642 1.02917   4
  -4   1   8 7.79682 1.79790   2
  -3   1   8 187.536 8.94821   2
  -8   1   2 273.338 10.3484  -4
  -3   1   8 273.338 10.3484   1
  -3   1   8 159.995 8.78184   4
  -3   1   8 277.076 13.4692   1
  -3   1   8 260.210 8.62425   3
  -2   1   8 3.23054 1.15756   3
  -8   1   1 208.610 16.1966  -4
   8   1   1 208.610 16.1966  -2
  -2   1   8 208.610 16.1966   1
  -2   1   8 6.87278 1.88100   2
  -1   1   8 50.7332 3.59029   2
  -1   1   8 68.0595 7.48481   3
   0   1   8 2.12644 2.07329   1
   0   1   8 1.76398 2.22738   2
   0   1   8 3.27355 2.24222   3
   1   1   8 190.670 7.66744   1
   1   1   8 184.928 6.77739   3
   1   1   8 124.145 11.8744   4
   1   1   8 122.234 4.85740   2
   2   1   8 6.30617 2.25178   1
   2   1   8 4.92001 0.88064   3
   2   1   8 5.43635 1.54074   4
   2   1   8 6.24084 1.33335   2
   3   1   8 131.410 3.74424   3
   3   1   8 91.8249 4.09403   2
   3   1   8 78.4079 4.49391   4
   3   1   8 134.196 8.67831   1
   4   1   8 4.20553 0.95091   3
   4   1   8 4.91584 1.18773   2
   4   1   8 3.51522 1.95894   4
   4   1   8 1.27507 2.07323   1
   5   1   8 117.567 3.61750   3
   5   1   8 79.8877 4.31893   2
   5   1   8 64.8554 6.19980   4
   5   1   8 124.688 8.62543   1
   6   1   8 2.87933 1.19519   2
  -7   1   8 -2.5696 4.75141  -4
   6   1   8 -2.5696 4.75141   2
   6   1   8 0.57047 0.77054   3
   6   1   8 -1.2010 1.81403   4
   6   1   8 3.41726 2.53086   1
   7   1   8 8.93930 2.47261   2
   7   1   8 10.8461 3.42182   1
   7   1   8 4.51314 2.62747   4
   7   1   8 8.71765 4.16510  -3
   7   1   8 8.71765 4.16510   2
   7   1   8 10.4096 2.91549   3
  -9   1   9 -1.2879 3.58540  -4
   8   1   8 -1.2879 3.58540   3
   8   1   8 -1.9254 2.06468   2
   7   1   9 -4.9432 4.32786  -4
   8   1   8 -4.9432 4.32786   1
  11   1   8 32.9841 7.60457   3
  -9   1  12 218.897 14.5427  -4
  11   1   8 218.897 14.5427   3
  -9   1  13 2.14967 6.58618  -2
  12   1   8 2.14967 6.58618   1
  -9   1  14 228.177 16.8570  -2
  13   1   8 228.177 16.8570   1
  14   1   8 -3.9056 3.18056   3
  14   1   8 -1.9428 2.22136   2
  14   1   8 -3.7945 3.27778   4
  15   1   8 44.9475 9.59584   1
  15   1   8 27.9371 3.75966   2
  15   1   8 6.30155 4.82464   4
  15   1   8 23.5799 6.12335   3
 -16   2   8 49.1642 9.28254   2
 -16   2   8 99.4739 7.50156   3
 -16   2   8 82.6434 8.81807   1
 -16   2   8 38.7566 5.81901   4
 -15   2   8 0.50486 4.91965   2
 -15   2   8 4.69289 3.69054   1
 -15   2   8 4.05496 3.34392   3
 -15   2   8 0.53012 4.51177   4
 -14   2   8 49.3134 8.88281   2
 -14   2   8 66.0728 16.1136   3
 -14   2   8 78.0572 16.2487   1
   7   2  13 145.932 18.7837  -4
 -14   2   8 145.932 18.7837   3
   7   2  12 4.28002 9.09044  -2
 -13   2   8 4.28002 9.09044   1
 -13   2   8 -0.6548 3.46768   2
 -12   2   8 20.1871 4.67052   2
 -11   2   8 -0.2661 2.53607   2
  -9   2   9 570.963 36.1991  -4
 -10   2   8 570.963 36.1991   1
 -10   2   8 8.60375 3.94095   3
 -10   2   8 17.8639 6.10238   1
 -10   2   8 10.6606 4.83911   2
  -9   2   8 1.33607 2.47139   3
  -9   2   8 3.80176 3.03923   1
  -9   2   8 1.24058 2.41489   2
  -9   2   8 -1.0807 1.28735   4
  -9   2   8 -1.0630 5.28929  -4
  -9   2   8 -1.0630 5.28929   1
  -8   2   8 0.06569 2.33296   2
  -8   2   8 0.35186 0.98374   1
  -8   2   8 0.58371 3.66643   3
  -8   2   8 2.10377 2.04892   4
  -7   2   8 2.04814 1.75326   4
  -7   2   8 -0.0621 1.02841   1
  -7   2   8 1.15506 1.96613   3
  -7   2   8 -0.0641 1.57143   2
  -6   2   8 94.6072 6.00411   2
  -6   2   8 90.1418 7.14829   4
  -6   2   8 143.319 5.57333   1
  -6   2   8 112.369 8.18713   3
  -5   2   8 7.02210 1.67555   1
  -5   2   8 6.81406 2.27045   4
  -5   2   8 1.49191 2.15980   3
  -5   2   8 9.08714 3.29857   2
  -4   2   8 432.876 14.1498   2
  -4   2   8 673.249 17.1750   1
  -4   2   8 367.977 17.1749   4
  -4   2   8 607.185 26.6419   3
  -3   2   8 6.41486 1.72121   2
  -3   2   8 5.36359 2.25052   4
  -3   2   8 6.67573 1.50309   3
  -3   2   8 8.99401 1.84161   1
  -8   2   2 231.651 17.1749  -4
  -3   2   8 231.651 17.1749   1
  -2   2   8 206.305 8.80875   2
  -2   2   8 320.633 13.0416   3
  -2   2   8 325.206 14.8415   1
  -2   2   8 202.411 8.72349   4
  -1   2   8 31.6967 3.92796   4
  -1   2   8 39.6441 6.24568   3
   8   2   0 921.584 53.7768  -4
   8   2   0 921.584 53.7768  -2
  -1   2   8 921.584 53.7768   1
  -1   2   8 73.8184 6.87142   2
   0   2   8 525.615 33.5601   1
   0   2   8 391.893 16.0452   2
   0   2   8 551.940 24.6600   3
   1   2   8 10.5424 1.61133   3
  -8   2   2 257.288 15.6036  -2
   1   2   8 257.288 15.6036   1
   1   2   8 19.5775 2.53204   2
   1   2   8 11.2457 2.75645   1
   1   2   8 17.6954 4.50527   4
   2   2   8 93.6456 7.24972   2
   2   2   8 135.515 4.65366   3
   2   2   8 152.064 7.16456   1
   2   2   8 77.9777 5.13776   4
   3   2   8 15.3574 2.88144   2
   3   2   8 11.6212 1.79918   3
   3   2   8 7.36445 2.17220   4
   3   2   8 13.9466 2.17960   1
   4   2   8 135.460 4.66182   3
   4   2   8 149.298 9.78347   1
   4   2   8 102.419 6.42267   2
   4   2   8 83.9990 5.48788   4
   5   2   8 1.15007 1.25086   3
   5   2   8 1.29001 1.98993   1
   5   2   8 1.59321 1.75460   4
   5   2   8 1.65051 1.65126   2
   6   2   8 6.29288 3.06427   2
   6   2   8 5.21531 1.77212   3
   6   2   8 -0.2572 2.28160   4
  -7   2   8 5.04522 6.60177  -4
   6   2   8 5.04522 6.60177   2
   6   2   8 3.54342 2.42224   1
   7   2   8 -0.3609 3.19689   4
   7   2   8 1.86046 3.69102   1
   7   2   8 7.16477 5.84289  -3
   7   2   8 7.16477 5.84289   2
   7   2   8 -0.2268 2.11723   3
   7   2   9 214.768 14.1418  -4
   8   2   8 214.768 14.1418   1
  -9   2  12 2.12825 7.60447  -4
  11   2   8 2.12825 7.60447   3
   7   2  13 134.443 19.8239  -4
  -9   2  13 134.443 19.8239  -2
  12   2   8 134.443 19.8239   1
  -9   2  13 108.739 11.5465  -2
  12   2   8 108.739 11.5465   1
  12   2   8 22.7042 7.01389   2
  -9   2  14 3.16641 6.46597  -2
  13   2   8 3.16641 6.46597   1
  13   2   8 -0.7076 4.87057   3
  14   2   8 24.8053 6.48714   4
  14   2   8 63.5022 9.35889   3
  14   2   8 104.356 17.6335   1
  14   2   8 58.3759 6.11085   2
  15   2   8 -2.1656 4.90559   2
  15   2   8 0.41527 4.76626   4
  15   2   8 4.15682 6.66392   3
 -16   3   8 -2.0686 3.01103   4
 -16   3   8 -3.3194 7.26864   1
 -16   3   8 -9.4563 6.90805   2
 -16   3   8 1.66984 6.38955   3
 -15   3   8 20.9749 5.81988   1
 -15   3   8 25.9864 5.31304   3
 -15   3   8 -3.7719 4.14833   4
 -15   3   8 6.29781 3.95061   2
   7   3  14 12.6875 12.2184  -4
 -15   3   8 12.6875 12.2184   3
 -14   3   8 3.81986 6.62304   1
   7   3  13 -6.4248 9.76925  -4
 -14   3   8 -6.4248 9.76925   3
 -14   3   8 -0.0532 4.10305   2
 -14   3   8 -3.5313 6.97329   4
 -14   3   8 -3.2189 6.20825   3
 -13   3   8 29.0390 6.98798   2
 -13   3   8 45.5573 12.9139   3
 -12   3   8 -2.1904 3.40385   2
 -11   3   8 24.5060 8.44645   3
 -11   3   8 13.5343 6.69858   2
 -10   3   8 -2.3493 3.67378   3
   7   3   9 1.40908 3.27319  -2
 -10   3   8 1.40908 3.27319   1
 -10   3   8 -1.6256 4.63289   1
 -10   3   8 -2.2931 4.34687   2
  -9   3   8 21.0851 3.23219   4
  -9   3   8 44.0793 4.93906   1
  -9   3   8 40.9460 7.10894   3
  -9   3   8 23.6227 6.96944   2
  -8   3   8 -0.8237 1.58582   1
  -8   3   8 0.06716 2.51195   2
  -8   3   8 0.88294 1.13272   4
  -8   3   8 4.96931 4.59666   3
  -7   3   8 88.8962 5.51038   1
  -7   3   8 54.4701 3.64949   4
  -7   3   8 53.9203 4.65578   2
  -7   3   8 71.6104 6.63710   3
  -6   3   8 2.51079 1.31013   1
  -6   3   8 0.07024 1.32093   3
  -6   3   8 -1.7172 1.21972   4
  -6   3   8 -0.9105 1.83737   2
   5   3   8 53.7728 11.2979  -4
  -6   3   8 53.7728 11.2979   2
  -5   3   8 94.5633 5.08221   4
  -5   3   8 133.120 7.11655   3
  -5   3   8 154.168 6.06670   1
   4   3   8 96.7361 13.8694  -4
  -5   3   8 96.7361 13.8694   2
  -5   3   8 94.4786 6.50527   2
  -4   3   8 9.09016 1.68351   1
  -4   3   8 8.39169 1.85791   2
  -4   3   8 10.7480 2.65839   4
  -4   3   8 6.46092 1.81958   3
  -3   3   8 267.893 9.33078   3
  -3   3   8 171.242 13.1012   4
  -3   3   8 158.748 8.44674   2
  -3   3   8 307.491 14.8217   1
  -8   3   2 329.823 20.5297  -4
  -3   3   8 329.823 20.5297   1
  -2   3   8 7.12756 2.00346   2
  -8   3   1 336.108 24.1145  -4
   8   3   1 336.108 24.1145  -2
  -2   3   8 336.108 24.1145   1
  -1   3   8 105.464 6.70097   2
  -1   3   8 103.834 5.53274   4
   8   3   0 183.505 16.1257  -4
   8   3   0 183.505 16.1257  -2
  -1   3   8 183.505 16.1257   1
  -1   3   8 199.991 9.85631   1
  -1   3   8 195.825 16.1423   3
   0   3   8 20.4317 2.98389   2
   0   3   8 10.2408 2.77555   4
   0   3   8 17.6955 4.93001   3
  -8   3   2 239.316 12.5628  -2
   1   3   8 239.316 12.5628   1
   1   3   8 235.707 11.3769   3
   1   3   8 235.836 19.2018   1
   2   3   8 9.53519 2.06844   3
   2   3   8 12.3217 2.62863   4
   2   3   8 10.0645 2.08536   1
   2   3   8 11.5990 3.10226   2
   3   3   8 135.648 6.28001   4
   3   3   8 239.880 9.49857   1
   3   3   8 247.798 7.25703   3
   3   3   8 172.313 9.03511   2
   4   3   8 1.62578 1.27349   2
   4   3   8 0.99426 1.12301   3
   4   3   8 0.02864 1.68796   4
   4   3   8 1.40246 1.46954   1
  -6   3   8 60.0220 10.1379  -4
   5   3   8 60.0220 10.1379   2
   5   3   8 94.1322 3.73435   3
   5   3   8 79.4934 7.08608   2
   5   3   8 55.7647 5.07602   4
   5   3   8 96.6685 8.13827   1
   6   3   8 0.22904 2.08169   4
   6   3   8 0.27712 1.96998   1
   6   3   8 2.68715 1.71072   3
   6   3   8 -0.2337 1.23486   2
  -7   3   8 -2.3089 6.26481  -4
   6   3   8 -2.3089 6.26481   2
   7   3   8 29.2686 4.25286  -3
   7   3   8 29.2686 4.25286   2
   7   3   8 5.63320 3.12524   4
   7   3   8 16.1572 7.94544   1
   7   3   9 -4.5334 8.17476  -4
   8   3   8 -4.5334 8.17476   1
   7   3  10 127.246 17.9153  -4
  -9   3  10 127.246 17.9153  -2
   9   3   8 127.246 17.9153   1
   7   3  12 205.024 24.3650  -4
  -9   3  12 205.024 24.3650  -2
  11   3   8 205.024 24.3650   1
  -9   3  13 -8.4354 8.86451  -4
  12   3   8 -8.4354 8.86451   3
   7   3  13 -4.0314 12.9137  -4
  -9   3  13 -4.0314 12.9137  -2
  12   3   8 -4.0314 12.9137   1
   7   3  13 14.4714 8.32903  -3
  12   3   8 14.4714 8.32903   2
  -9   3  13 7.14079 10.1433  -2
  12   3   8 7.14079 10.1433   1
  -9   3  14 171.642 14.6769  -2
  13   3   8 171.642 14.6769   1
  13   3   8 52.0002 12.4352   3
  14   3   8 -0.5222 5.95141   3
  14   3   8 1.19619 2.77854   2
  -9   3  15 -6.9072 12.5863  -2
  14   3   8 -6.9072 12.5863   1
  14   3   8 4.35161 4.42471   4
 -15   4   8 0.38941 3.55583   3
 -15   4   8 -2.3801 3.55642   1
 -15   4   8 -4.5586 4.10909   2
 -15   4   8 1.32715 5.10046   4
 -14   4   8 30.2336 8.21491   2
 -14   4   8 25.9837 8.90234   4
 -14   4   8 68.3563 10.6169   1
 -14   4   8 41.6131 12.1333   3
   7   4  13 110.106 11.0329  -4
 -14   4   8 110.106 11.0329   3
   7   4  12 9.24555 10.7233  -2
 -13   4   8 9.24555 10.7233   1
 -13   4   8 5.70860 4.40893   2
 -13   4   8 15.5986 9.08585   1
  -9   4  11 300.871 26.8555  -4
   7   4  11 300.871 26.8555  -2
 -12   4   8 300.871 26.8555   1
 -12   4   8 163.151 19.2428   1
  -9   4  10 23.0866 11.1146  -4
   9   4   8 23.0866 11.1146  -3
   7   4  10 23.0866 11.1146  -2
 -11   4   8 23.0866 11.1146   1
 -11   4   8 0.74923 4.50625   3
 -11   4   8 7.02993 5.16985   2
 -11   4   8 4.38724 6.05006   1
 -10   4   8 141.028 12.0708   2
 -10   4   8 217.191 23.2553   3
  -9   4   8 23.8774 3.48107   4
  -9   4   8 10.0906 4.00142   2
  -9   4   8 5.92071 3.44420   3
  -9   4   8 28.5676 4.93159   1
  -8   4   8 510.212 22.7696   3
  -8   4   8 350.717 11.6948   2
  -8   4   8 604.977 21.8519   1
  -8   4   8 356.366 14.3217   4
  -7   4   8 6.74687 2.49920   3
  -7   4   8 15.3097 2.94679   1
  -7   4   8 11.4724 2.16079   4
  -7   4   8 7.14998 1.94865   2
  -6   4   8 240.533 8.86658   3
  -6   4   8 156.603 7.05505   4
  -6   4   8 283.227 9.38142   1
  -6   4   8 176.853 9.33783   2
   5   4   8 171.211 19.5516  -4
  -6   4   8 171.211 19.5516   2
  -5   4   8 3.01432 1.39019   1
  -5   4   8 1.99342 1.58806   2
  -5   4   8 4.65054 2.39748   4
  -5   4   8 1.75618 1.22849   3
  -4   4   8 44.8672 5.38347   4
  -4   4   8 76.4348 3.80394   1
   3   4   8 48.8468 11.3467  -4
  -4   4   8 48.8468 11.3467   2
  -4   4   8 67.3868 4.18457   3
  -4   4   8 51.4488 3.95235   2
  -8   4   2 4.90598 3.86925  -3
  -3   4   8 4.90598 3.86925   2
  -3   4   8 -1.1065 1.79155   2
  -3   4   8 2.39847 2.17240   3
  -3   4   8 1.31212 2.27018   4
  -2   4   8 12.4709 2.30182   4
  -8   4   1 61.4114 11.2245  -4
   0   4   8 61.4114 11.2245  -3
   8   4   1 61.4114 11.2245  -2
  -2   4   8 61.4114 11.2245   1
  -2   4   8 12.9890 3.49540   2
  -1   4   8 2.92275 1.54134   2
  -1   4   8 1.16255 1.50853   4
   0   4   8 17.3882 2.30294   2
   0   4   8 13.2585 2.64771   4
   0   4   8 19.2564 2.11998   3
   1   4   8 1.08010 3.25904   3
   8   4   2 35.0792 8.92800  -4
  -8   4   2 35.0792 8.92800  -2
   1   4   8 35.0792 8.92800   1
  -8   4   2 12.2485 4.13685  -4
   1   4   8 12.2485 4.13685   3
   2   4   8 47.1998 3.67847   1
   2   4   8 47.4079 3.77587   3
   2   4   8 35.6682 4.72200   2
   2   4   8 30.7403 3.33101   4
   3   4   8 2.11156 1.21552   1
   3   4   8 0.05822 2.15448   2
   3   4   8 1.42199 1.33172   3
   3   4   8 2.02221 1.54189   4
  -4   4   8 21.3996 8.48839  -4
   3   4   8 21.3996 8.48839   2
   4   4   8 58.4964 3.37402   4
   4   4   8 113.577 5.13106   3
   4   4   8 120.358 5.77905   1
   4   4   8 81.3567 4.90018   2
  -5   4   8 100.748 14.1509  -4
   4   4   8 100.748 14.1509   2
   5   4   8 4.23983 2.01203   4
   5   4   8 14.7384 4.31592   2
   5   4   8 7.94203 2.08079   1
   5   4   8 5.83513 2.20903   3
  -6   4   8 76.6259 12.3379  -4
   5   4   8 76.6259 12.3379   2
   6   4   8 441.066 17.0597   1
   6   4   8 337.668 13.8086   2
   6   4   8 265.804 13.0159   4
  -7   4   8 360.024 29.1382  -4
   6   4   8 360.024 29.1382   2
   6   4   8 446.946 21.3684   3
   7   4   8 36.8798 5.38716  -3
   7   4   8 36.8798 5.38716   2
   7   4   8 0.85456 6.76751   1
   7   4   8 6.04278 6.21936   4
   7   4   8 39.5836 7.11963  -4
   7   4   8 39.5836 7.11963   1
   7   4   9 600.568 45.8652  -4
   8   4   8 600.568 45.8652   1
   7   4  10 53.3516 14.2404  -4
  -9   4  10 53.3516 14.2404  -2
   9   4   8 53.3516 14.2404   1
  10   4   8 211.378 20.3360   3
  -9   4  12 14.4280 10.4854  -4
  11   4   8 14.4280 10.4854   3
  -9   4  13 166.936 12.8445  -2
  12   4   8 166.936 12.8445   1
   7   4  13 156.050 24.3439  -4
  -9   4  13 156.050 24.3439  -2
  12   4   8 156.050 24.3439   1
  -9   4  13 157.946 19.4789  -4
  12   4   8 157.946 19.4789   3
  -9   4  14 3.73924 6.59371  -2
  13   4   8 3.73924 6.59371   1
  13   4   8 -0.7650 4.75841   2
  13   4   8 -3.9670 4.89392   3
 -14   5   8 -1.5699 5.42707   1
 -14   5   8 -2.6910 4.26927   3
 -14   5   8 1.08621 4.60360   2
 -14   5   8 -2.7415 5.27222   4
 -13   5   8 90.9104 19.6473   3
   7   5  12 226.642 26.2136  -2
 -13   5   8 226.642 26.2136   1
 -13   5   8 81.8920 14.1180   2
  -9   5  11 16.4909 10.6570  -4
   7   5  11 16.4909 10.6570  -2
 -12   5   8 16.4909 10.6570   1
  -9   5  11 4.42484 13.4145  -4
 -12   5   8 4.42484 13.4145   1
 -12   5   8 -1.6433 3.75935   3
 -11   5   8 99.3855 19.9530   1
 -11   5   8 54.2351 12.5621   2
 -11   5   8 54.8685 5.76100   3
 -10   5   8 -1.1072 2.21112   2
 -10   5   8 -3.3864 4.22400   3
  -9   5   8 101.508 15.8631   3
  -9   5   8 88.9954 11.7205   4
  -9   5   8 274.284 15.6929  -4
  -9   5   8 274.284 15.6929   1
  -9   5   8 87.5130 9.83419   2
  -9   5   8 153.207 17.2167   1
  -8   5   8 1.31634 2.21817   4
  -8   5   8 4.30974 6.57315   3
  -8   5   8 4.41547 2.58383   1
  -8   5   8 0.73661 3.34586   2
  -7   5   8 400.380 14.6673   1
  -7   5   8 311.758 13.6959   3
   6   5   8 227.955 24.5923  -4
  -7   5   8 227.955 24.5923   2
  -7   5   8 254.920 11.6082   4
  -7   5   8 224.420 19.0171   2
  -6   5   8 3.10378 2.45647   3
  -6   5   8 9.65215 2.01664   1
  -6   5   8 6.52044 2.07067   4
  -6   5   8 15.8598 7.60420   2
  -5   5   8 486.532 13.0035   1
  -5   5   8 389.624 21.2728   3
  -5   5   8 290.732 15.2742   4
  -5   5   8 288.424 15.8858   2
  -4   5   8 16.3259 2.82263   1
  -4   5   8 6.76070 3.09700   4
  -4   5   8 4.45750 2.15314   3
  -4   5   8 8.27779 2.97604   2
   8   5   3 190.581 19.4935  -2
  -4   5   8 190.581 19.4935   1
  -3   5   8 347.017 19.2247   3
   8   5   2 331.777 17.1223  -2
  -3   5   8 331.777 17.1223   1
  -3   5   8 47.6816 2.90674   4
  -3   5   8 204.024 15.2287   2
  -2   5   8 53.2800 4.03157   4
  -2   5   8 15.8579 4.12010   2
  -1   5   8 375.883 13.0176   2
  -1   5   8 538.402 19.7184   3
  -1   5   8 330.028 14.6254   4
   8   5   0 586.935 27.9842  -4
   8   5   0 586.935 27.9842  -2
  -1   5   8 586.935 27.9842   1
   0   5   8 40.0753 5.82023   4
   8   5   1 808.040 52.1445  -4
   0   5   8 808.040 52.1445   1
   0   5   8 17.7343 3.68704   2
   1   5   8 469.519 31.7831   3
  -8   5   2 464.268 14.7341  -4
   1   5   8 464.268 14.7341   3
   2   5   8 12.1645 3.63290   2
   2   5   8 10.8029 2.66014   3
  -8   5   3 209.055 12.6915  -4
   2   5   8 209.055 12.6915   3
   2   5   8 10.6768 2.20780   1
   2   5   8 8.33550 3.12554   4
   3   5   8 293.479 13.5410   1
  -4   5   8 208.582 22.2032  -4
   3   5   8 208.582 22.2032   2
   3   5   8 262.421 9.82846   3
   3   5   8 155.636 10.5877   4
   3   5   8 199.057 11.7158   2
   4   5   8 2.65920 3.10216   4
   4   5   8 13.3904 2.06231   3
   4   5   8 7.95774 2.59326   1
   4   5   8 5.99804 3.50588   2
   5   5   8 172.710 6.84153   2
   5   5   8 252.646 12.3776   1
   5   5   8 143.487 11.0521   4
   5   5   8 257.142 10.5914   3
  -7   5   8 41.3536 10.6668  -4
   6   5   8 41.3536 10.6668   2
   6   5   8 4.22875 2.95849   3
   6   5   8 0.79429 3.39231   4
   6   5   8 4.54818 2.43070   1
   6   5   8 12.0140 4.05547   2
   7   5   7 15.5292 7.54131  -3
   6   5   8 15.5292 7.54131   2
   7   5   8 145.064 10.8652  -3
   7   5   8 145.064 10.8652   2
   7   5   8 78.0395 16.5039   1
   7   5   8 53.0439 13.4088   4
   7   5   9 -0.6326 5.01766  -4
   8   5   8 -0.6326 5.01766   1
   8   5   8 -0.6998 6.61073   1
   7   5  10 72.0968 7.66176  -4
  -9   5  10 72.0968 7.66176  -2
   9   5   8 72.0968 7.66176   1
   7   5  11 12.6559 5.85156  -4
  -9   5  11 12.6559 5.85156  -2
  10   5   8 12.6559 5.85156   1
  10   5   8 6.01124 5.85123   3
   7   5  12 116.937 21.0331  -4
  -9   5  12 116.937 21.0331  -2
  11   5   8 116.937 21.0331   1
  -9   5  12 166.583 21.2162  -4
  11   5   8 166.583 21.2162   3
  -9   5  13 14.1667 12.7118  -4
  12   5   8 14.1667 12.7118   3
   7   5  13 12.4294 15.3893  -4
  -9   5  13 12.4294 15.3893  -2
  12   5   8 12.4294 15.3893   1
  -9   5  13 17.2108 12.2335  -2
  12   5   8 17.2108 12.2335   1
 -13   6   8 9.02912 15.5328   3
   7   6  12 24.7402 17.0820  -2
 -13   6   8 24.7402 17.0820   1
  -9   6  11 347.981 34.1990  -4
 -12   6   8 347.981 34.1990   1
 -12   6   8 48.9195 15.1117   3
 -11   6   8 5.27910 7.46804   3
 -10   6   8 30.4898 11.0999   3
 -10   6   8 47.0093 8.52989   2
 -10   6   8 93.3873 19.2235   1
  -9   6   9 220.901 22.8290  -4
   8   6   8 220.901 22.8290  -3
   7   6   9 220.901 22.8290  -2
 -10   6   8 220.901 22.8290   1
  -9   6   8 -3.1017 3.85079   2
  -9   6   8 1.27357 4.28797   4
  -9   6   8 4.73088 5.01908   1
  -9   6   8 -3.8310 5.07109  -4
  -9   6   8 -3.8310 5.07109   1
  -9   6   8 5.81275 6.59079   3
  -8   6   8 0.35203 2.79896   1
  -8   6   8 -3.9346 3.40843   2
  -8   6   8 0.02205 1.94920   4
  -8   6   8 -2.6983 2.52954   3
  -7   6   8 4.68442 2.48534   4
  -7   6   8 0.79590 2.06878   1
  -7   6   8 3.84251 2.88416   2
  -7   6   8 2.36255 7.78832   3
  -6   6   8 45.6603 5.77282   3
  -6   6   8 64.0475 3.93648   1
  -6   6   8 40.7301 4.79926   4
  -6   6   8 32.9349 5.35362   2
  -5   6   8 4.36430 2.52955   1
  -5   6   8 2.75117 3.22119   2
  -5   6   8 3.25318 2.46262   3
  -5   6   8 2.45997 2.73111   4
   4   6   8 139.227 20.6776  -4
  -5   6   8 139.227 20.6776   2
   8   6   3 201.161 21.6305  -2
  -4   6   8 201.161 21.6305   1
  -4   6   8 114.646 9.18963   2
  -4   6   8 107.840 7.75561   4
  -4   6   8 196.890 9.77683   1
  -4   6   8 118.084 16.9006   3
   8   6   2 273.139 18.2582  -2
  -3   6   8 273.139 18.2582   1
  -3   6   8 8.17762 3.72504   2
  -3   6   8 9.12325 1.87004   1
  -2   6   8 262.053 16.3354   4
   8   6   0 388.951 16.0040  -4
   8   6   0 388.951 16.0040  -2
  -1   6   8 388.951 16.0040   1
  -1   6   8 11.0241 2.36728   4
  -1   6   8 11.7051 3.84017   2
   0   6   8 173.330 6.23926   2
   1   6   8 5.33430 2.70188   2
   8   6   2 466.735 37.9903  -4
   1   6   8 466.735 37.9903   1
  -8   6   2 331.635 12.6517  -4
   1   6   8 331.635 12.6517   3
   2   6   8 200.410 15.8769   4
   2   6   8 332.206 18.3234   1
  -8   6   3 334.011 13.8928  -4
   2   6   8 334.011 13.8928   3
   2   6   8 202.273 19.0280   2
   8   6   3 340.489 28.5027  -4
   2   6   8 340.489 28.5027   1
   2   6   8 331.751 24.9329   3
   3   6   8 4.81524 3.01564   4
   3   6   8 2.58188 2.51926   2
   3   6   8 5.93700 2.63045   3
   3   6   8 3.79559 2.97340   1
   4   6   8 238.712 9.57156   3
   4   6   8 170.498 9.09652   2
   4   6   8 143.095 10.6867   4
  -5   6   8 197.628 22.5731  -4
   4   6   8 197.628 22.5731   2
   4   6   8 256.114 12.7748   1
   5   6   8 3.29504 2.27026   2
   5   6   8 1.47168 2.85940   3
  -6   6   8 11.4350 9.32828  -4
   5   6   8 11.4350 9.32828   2
   5   6   8 -0.2758 3.77367   4
   5   6   8 0.10793 1.66775   1
   7   6   7 618.761 38.3669  -3
   6   6   8 618.761 38.3669   2
   6   6   8 12.0811 4.16937   3
  -7   6   8 42.1713 12.7432  -4
   6   6   8 42.1713 12.7432   2
   6   6   8 6.83716 4.70084   4
   6   6   8 27.4153 6.50526   1
   6   6   8 23.5995 5.56694   2
  -7   6   8 28.1731 8.78884  -3
   6   6   8 28.1731 8.78884   1
   7   6   8 -1.3186 4.90335   4
   7   6   8 -4.6796 6.32597  -3
   7   6   8 -4.6796 6.32597   2
  -9   6   9 45.8369 16.2349  -2
   8   6   8 45.8369 16.2349   1
   7   6  11 305.336 33.9192  -4
  -9   6  11 305.336 33.9192  -2
  10   6   8 305.336 33.9192   1
  -9   6  12 5.06449 12.9012  -4
  11   6   8 5.06449 12.9012   3
 -10   7   8 -6.1162 6.71957   3
  -9   7   8 93.8108 9.89124  -4
  -9   7   8 93.8108 9.89124   1
  -9   7   8 57.1944 12.6207   1
  -9   7   8 31.7111 12.9510   3
  -9   7   8 40.6520 9.86791   4
  -9   7   8 27.0543 7.17274   2
  -8   7   8 6.22465 4.95462   1
  -8   7   8 0.59767 6.02448   3
  -8   7   8 1.17714 2.39213   4
  -8   7   8 -2.3878 3.59788   2
  -7   7   8 29.0626 4.43143   4
  -7   7   8 26.2252 5.92107   3
  -7   7   8 49.4764 6.70065   1
  -7   7   8 37.3461 6.31797   2
   6   7   8 18.8865 15.0713  -4
  -7   7   8 18.8865 15.0713   2
  -6   7   8 1.67691 2.43674   4
  -6   7   8 -4.5537 2.47794   3
  -6   7   8 3.07019 2.56017   2
  -6   7   8 9.53915 4.11689   1
   5   7   8 38.2151 16.4600  -4
  -6   7   8 38.2151 16.4600   2
  -5   7   8 47.0497 7.52658   3
  -5   7   8 57.9243 5.61809   1
  -5   7   8 35.6798 4.68533   2
  -5   7   8 33.9295 4.51359   4
   4   7   8 51.0914 15.9373  -4
  -5   7   8 51.0914 15.9373   2
   8   7   3 49.3036 12.6521  -2
  -4   7   8 49.3036 12.6521   1
  -4   7   8 9.28955 3.20457   1
  -4   7   8 2.58629 3.09166   2
  -4   7   8 2.49563 4.20305   4
  -8   7   3 45.6575 12.9009  -4
  -4   7   8 45.6575 12.9009   1
  -4   7   8 2.81801 3.70093   3
   8   7   2 54.7945 6.57575  -2
  -3   7   8 54.7945 6.57575   1
  -3   7   8 39.8905 8.29420   2
  -3   7   8 45.7410 4.90160   4
  -3   7   8 65.5767 5.31093   1
  -2   7   8 0.46094 3.98362   4
  -2   7   8 -2.7191 3.32747   2
  -1   7   8 37.5098 6.19860   2
  -1   7   8 65.1650 6.22495   1
   0   7   8 -2.1801 2.63974   2
   0   7   8 4.07584 3.73622   3
  -8   7   2 93.3931 5.30410  -4
   1   7   8 93.3931 5.30410   3
   1   7   8 55.0319 5.08507   2
   2   7   8 2.34696 2.29388   1
  -8   7   3 38.1174 4.74324  -4
   2   7   8 38.1174 4.74324   3
   2   7   8 -1.9969 3.49949   4
   2   7   8 5.01948 4.16729   2
   2   7   8 11.4199 7.14621   3
   3   7   8 56.3874 7.91480   2
   3   7   8 77.2927 6.02133   3
   3   7   8 77.1555 8.69622   1
   3   7   8 46.8526 7.86242   4
  -5   7   8 -1.6737 10.6196  -4
   4   7   8 -1.6737 10.6196   2
   4   7   8 -1.5781 1.73952   4
   4   7   8 11.4476 5.39795   2
   4   7   8 0.91266 2.41652   3
  -5   7   8 28.4709 10.7140  -3
   4   7   8 28.4709 10.7140   1
   4   7   8 8.05320 3.86854   1
  -6   7   8 118.929 15.9346  -3
   5   7   8 118.929 15.9346   1
   5   7   8 74.2304 6.09210   4
   5   7   8 130.386 7.23526   3
   5   7   8 124.833 11.5334   1
   5   7   8 81.2957 6.59178   2
   6   7   8 3.95343 4.79905   4
   6   7   8 -4.4033 6.30386   3
   7   7   7 8.23086 8.82582  -3
   6   7   8 8.23086 8.82582   2
   6   7   8 3.13234 3.45072   2
  -7   7   8 27.6546 9.19440  -3
   6   7   8 27.6546 9.19440   1
   6   7   8 0.54374 7.53244   1
   7   7   8 5.19371 6.50031   4
   7   7   8 34.3062 7.35698  -3
   7   7   8 34.3062 7.35698   2
   7   7   8 10.0417 10.0537   1
  -9   7   9 -11.683 14.3373  -2
   8   7   8 -11.683 14.3373   1
  -8   8   8 135.061 8.36599   2
  -8   8   8 213.605 12.8847   1
  -8   8   8 81.8970 19.6714   3
  -8   8   8 124.061 14.5527   4
  -7   8   8 -0.1501 2.36088   2
  -7   8   8 2.60986 3.69614   4
  -7   8   8 5.44531 3.76942   1
  -7   8   8 -2.0500 3.03279   3
  -6   8   8 88.9381 6.78836   1
  -6   8   8 33.2287 12.7789   3
  -6   8   8 50.0278 8.07162   4
  -6   8   8 49.7807 5.64035   2
  -5   8   8 0.08514 2.15479   3
  -5   8   8 -3.3049 2.49382   4
  -5   8   8 0.45451 2.10622   2
  -5   8   8 2.59418 3.07271   1
  -4   8   8 8.06950 2.62719   2
  -4   8   8 6.09637 2.97793   3
   8   8   3 10.6021 10.8112  -2
  -4   8   8 10.6021 10.8112   1
  -8   8   3 -6.5958 12.8655  -3
  -4   8   8 -6.5958 12.8655   2
  -4   8   8 -3.6876 3.73863   1
  -4   8   8 3.64083 4.68912   4
  -3   8   8 1.40118 3.34188   1
  -3   8   8 -0.5681 4.05821   2
  -2   8   8 1.99937 3.41900   1
  -1   8   8 -2.4945 3.02503   4
   0   8   8 3.19077 3.84157   2
  -8   8   2 -1.6060 4.29331  -4
   1   8   8 -1.6060 4.29331   3
   1   8   8 -2.4661 3.49003   2
   1   8   8 -2.7388 4.68272   3
   2   8   8 5.64017 2.22642   3
  -8   8   3 6.55975 7.25299  -2
   2   8   8 6.55975 7.25299   1
   2   8   8 9.56662 4.57141   1
  -8   8   3 3.15655 4.00638  -4
   2   8   8 3.15655 4.00638   3
   2   8   8 5.71564 3.28410   2
   3   8   8 1.18787 2.74778   3
   3   8   8 -1.2501 2.27692   1
   3   8   8 1.88665 4.87416   4
   4   8   8 14.5854 4.20650   3
   4   8   8 15.6621 3.88187   2
   4   8   8 13.0640 2.84623   4
   4   8   8 15.5173 11.3346   1
  -5   8   8 10.8407 10.8238  -3
   4   8   8 10.8407 10.8238   1
  -6   8   8 79.5669 11.6819  -3
   4   8   8 79.5669 11.6819   1
  -5   8   8 10.8146 11.8968  -4
   4   8   8 10.8146 11.8968   2
   5   8   8 3.32908 2.99919   3
   5   8   8 0.66660 3.51283   1
   5   8   8 3.52609 2.13668   4
  -6   8   8 68.7455 13.9604  -3
   5   8   8 68.7455 13.9604   1
   5   8   8 -0.1273 3.35696   2
  -6   8   8 38.2581 14.2295  -4
   5   8   8 38.2581 14.2295   2
   6   8   8 82.2136 20.8789   1
  -7   8   8 100.888 15.5079  -3
   6   8   8 100.888 15.5079   1
   6   8   8 47.5853 9.27740   4
   6   8   8 68.8252 11.0099   2
   7   8   8 9.65701 11.7435   1
   7   8   8 7.47513 9.52230   4
  -4   9   8 16.5671 11.5360   4
  -4   9   8 10.5526 11.4379   1
  -8   9   2 18.1543 10.6299  -3
  -3   9   8 18.1543 10.6299   2
  -3   9   8 32.7523 8.79183   2
  -3   9   8 23.9879 6.27023   4
  -2   9   8 -6.9262 5.46171   2
  -8   9   2 24.4154 6.37532  -4
   1   9   8 24.4154 6.37532   3
   1   9   8 19.0855 6.00310   2
   2   9   8 13.9419 10.7179   4
  -8   9   3 14.9387 9.84335  -2
   2   9   8 14.9387 9.84335   1
 -16   0   9 7.48055 6.40667   2
 -16   0   9 9.98551 6.34890   4
 -16   0   9 -3.8714 6.02988   1
 -16   0   9 6.06944 8.81042   3
 -15   0   9 52.3081 14.8589   2
 -10   0  13 -2.8461 11.6232  -4
  12   0   9 -2.8461 11.6232  -3
   8   0  13 -2.8461 11.6232  -2
 -14   0   9 -2.8461 11.6232   1
 -10   0  10 477.876 30.2583  -4
   9   0   9 477.876 30.2583  -3
   8   0  10 477.876 30.2583  -2
 -11   0   9 477.876 30.2583   1
  -9   0   9 -1.7224 2.88408   3
  -9   0   9 6.84769 4.86766   2
  -9   0   9 9.12992 3.68057   1
  -8   0   9 1.02878 3.84779   2
  -8   0   9 -1.4499 2.62781   1
  -8   0   9 -2.4178 1.93646   4
  -8   0   9 4.26522 3.17514   3
   5   0   9 47.5486 4.27356  -3
  -7   0   9 47.5486 4.27356   1
  -7   0   9 23.5908 3.24369   4
  -7   0   9 26.2437 7.75241   2
  -7   0   9 33.4057 7.38292   3
  -7   0   9 29.1175 5.34729   1
   4   0   9 -0.4702 2.25434  -3
  -6   0   9 -0.4702 2.25434   1
  -6   0   9 1.07450 2.28665   1
  -6   0   9 -1.0259 1.95324   4
  -6   0   9 1.62763 2.32865   2
  -6   0   9 6.67933 3.81526   3
  -5   0   9 44.6364 5.30966   2
   3   0   9 174.079 8.65944  -3
  -5   0   9 174.079 8.65944   1
  -5   0   9 33.8160 4.46298   4
  -5   0   9 60.5212 7.65995   3
  -5   0   9 62.6369 7.37139   1
  -4   0   9 9.78659 2.86040   2
  -4   0   9 9.20011 2.96701   1
   2   0   9 36.6541 7.40777  -3
  -4   0   9 36.6541 7.40777   1
  -4   0   9 18.5335 5.27190   4
  -4   0   9 1.00955 2.76900   3
  -9   0   2 1005.64 34.8916  -4
   1   0   9 1005.64 34.8916  -3
   9   0   2 1005.64 34.8916  -2
  -3   0   9 1005.64 34.8916   1
  -9   0   1 1046.35 36.2292  -4
   0   0   9 1046.35 36.2292  -3
   9   0   1 1046.35 36.2292  -2
  -2   0   9 1046.35 36.2292   1
  -9   0   3 98.3930 9.54609  -4
   2   0   9 98.3930 9.54609   3
  -9   0   3 117.670 11.8693  -2
   2   0   9 117.670 11.8693   1
   3   0   9 101.433 9.41306   3
   3   0   9 85.8729 6.08086   2
  -5   0   9 104.923 11.7655  -4
   3   0   9 104.923 11.7655   2
   3   0   9 94.2422 10.1565   1
   3   0   9 64.9598 8.51972   4
   4   0   9 0.45080 1.96374   3
  -6   0   9 10.5094 6.04322  -4
   4   0   9 10.5094 6.04322   2
   4   0   9 2.85461 2.88923   1
   4   0   9 2.96679 2.10735   2
   4   0   9 0.94787 2.51106   4
   5   0   9 24.1388 6.83174   1
   5   0   9 16.0922 3.00576   2
   5   0   9 28.1883 4.81817   3
   5   0   9 5.44764 4.01875   4
   6   0   9 1.37658 2.47109   3
  -8   0   9 -0.5360 4.89391  -4
   6   0   9 -0.5360 4.89391   2
   6   0   9 -3.5839 2.53597   1
   6   0   9 3.34260 2.61525   2
   8   0   8 141.689 14.7203  -3
   7   0   9 141.689 14.7203   2
   8   0   8 107.230 13.0331  -4
   7   0   9 107.230 13.0331   1
   8   0  12 249.120 17.5089  -4
 -13   0   9 249.120 17.5089  -3
 -10   0  12 249.120 17.5089  -2
  11   0   9 249.120 17.5089   1
  11   0   9 64.7415 11.2669   4
   8   0  13 2.71305 13.7908  -4
 -14   0   9 2.71305 13.7908  -3
 -10   0  13 2.71305 13.7908  -2
  12   0   9 2.71305 13.7908   1
 -15   0   9 268.566 26.5609  -3
 -10   0  14 268.566 26.5609  -2
  13   0   9 268.566 26.5609   1
 -16   0   9 -3.9599 8.91931  -4
  14   0   9 -3.9599 8.91931   2
  14   1   9 61.9539 15.1009  -3
 -16   1   9 61.9539 15.1009   1
 -16   1   9 8.65361 5.07826   4
 -16   1   9 18.1336 7.21635   2
 -16   1   9 15.6100 6.74860   3
 -16   1   9 29.6846 9.85020   1
 -15   1   9 2.07351 4.07848   2
 -10   1  12 12.8072 10.6610  -4
  11   1   9 12.8072 10.6610  -3
   8   1  12 12.8072 10.6610  -2
 -13   1   9 12.8072 10.6610   1
 -10   1  11 184.727 10.9868  -4
  10   1   9 184.727 10.9868  -3
   8   1  11 184.727 10.9868  -2
 -12   1   9 184.727 10.9868   1
 -10   1  10 2.53357 4.46905  -4
   9   1   9 2.53357 4.46905  -3
   8   1  10 2.53357 4.46905  -2
 -11   1   9 2.53357 4.46905   1
 -10   1   9 10.5374 7.06693   2
  -9   1   9 1.70830 3.12039   2
  -9   1   9 1.08196 2.18929   3
  -9   1   9 5.30723 2.34857   1
   6   1   9 64.7587 7.63352  -3
   8   1   7 64.7587 7.63352  -2
  -8   1   9 64.7587 7.63352   1
  -8   1   9 25.4544 3.49418   1
  -8   1   9 16.8354 3.96356   3
  -8   1   9 13.0774 2.43410   4
  -8   1   9 22.0949 4.93724   2
   6   1   9 70.0233 10.7159  -3
  -8   1   9 70.0233 10.7159   1
  -7   1   9 2.92330 2.20225   2
   5   1   9 5.19729 2.83908  -3
  -7   1   9 5.19729 2.83908   1
  -7   1   9 -1.1196 2.73041   4
  -7   1   9 -1.9764 1.56489   3
  -7   1   9 2.24371 2.13399   1
  -6   1   9 107.094 7.95886   3
   4   1   9 213.829 7.08127  -3
  -6   1   9 213.829 7.08127   1
  -6   1   9 54.9448 3.34899   4
  -6   1   9 82.8471 5.19968   2
  -6   1   9 110.438 7.28687   1
   3   1   9 15.4503 1.78800  -3
  -5   1   9 15.4503 1.78800   1
  -5   1   9 8.36066 2.20733   2
  -5   1   9 2.61755 1.95930   3
  -5   1   9 3.46636 1.40408   4
  -5   1   9 5.98593 2.47328   1
  -4   1   9 100.940 5.52581   2
  -4   1   9 97.4081 11.2102   4
   2   1   9 162.916 15.3344  -3
  -4   1   9 162.916 15.3344   1
  -4   1   9 128.032 8.37908   3
  -9   1   3 132.521 11.2400  -4
  -4   1   9 132.521 11.2400   1
  -9   1   2 22.1394 4.83527  -4
   1   1   9 22.1394 4.83527  -3
   9   1   2 22.1394 4.83527  -2
  -3   1   9 22.1394 4.83527   1
  -9   1   1 277.584 10.6021  -4
   0   1   9 277.584 10.6021  -3
   9   1   1 277.584 10.6021  -2
  -2   1   9 277.584 10.6021   1
   9   1   0 425.497 13.1051  -4
  -1   1   9 425.497 13.1051  -3
   9   1   0 425.497 13.1051  -2
  -1   1   9 425.497 13.1051   1
   9   1   1 316.161 13.1973  -4
  -2   1   9 316.161 13.1973  -3
  -9   1   1 316.161 13.1973  -2
   0   1   9 316.161 13.1973   1
   2   1   9 -1.0704 2.26387   2
   2   1   9 1.86359 1.92223   3
  -9   1   3 9.03843 3.51605  -2
   2   1   9 9.03843 3.51605   1
   3   1   9 3.43103 2.12687   1
   3   1   9 1.92441 1.60254   4
  -5   1   9 11.0378 5.57196  -4
   3   1   9 11.0378 5.57196   2
   3   1   9 -1.0933 1.66428   3
   3   1   9 5.79002 1.86819   2
   4   1   9 41.5766 3.82589   4
   4   1   9 68.4899 6.20650   1
   4   1   9 69.9344 5.46327   3
  -6   1   9 123.097 9.26798  -4
   4   1   9 123.097 9.26798   2
   4   1   9 49.7617 3.26584   2
   5   1   9 3.14011 2.03818   1
   5   1   9 -1.1009 1.84665   3
   5   1   9 -0.2003 1.75911   4
   5   1   9 -2.6139 3.01462   2
  -7   1   9 2.31567 2.92123  -4
   5   1   9 2.31567 2.92123   2
   6   1   9 51.8058 5.74060   1
  -8   1   9 39.9497 4.50028  -4
   6   1   9 39.9497 4.50028   2
   6   1   9 36.4185 3.35080   2
   6   1   9 31.9227 5.82786   4
   6   1   9 40.3260 5.03475   3
   8   1   8 -0.6636 4.58569  -4
   7   1   9 -0.6636 4.58569   1
   7   1   9 -0.2474 1.93171   2
  -9   1   9 -2.6364 6.83721  -4
   8   1   8 -2.6364 6.83721  -3
   7   1   9 -2.6364 6.83721   2
   8   1   8 14.6010 6.21833  -3
   7   1   9 14.6010 6.21833   2
   7   1   9 2.51149 1.91206   3
   8   1  11 282.433 24.3134  -4
 -12   1   9 282.433 24.3134  -3
 -10   1  11 282.433 24.3134  -2
  10   1   9 282.433 24.3134   1
   8   1  12 24.9918 8.26831  -4
 -13   1   9 24.9918 8.26831  -3
 -10   1  12 24.9918 8.26831  -2
  11   1   9 24.9918 8.26831   1
   8   1  13 433.178 33.8732  -4
 -14   1   9 433.178 33.8732  -3
 -10   1  13 433.178 33.8732  -2
  12   1   9 433.178 33.8732   1
 -15   1   9 -1.4053 9.13521  -3
 -10   1  14 -1.4053 9.13521  -2
  13   1   9 -1.4053 9.13521   1
 -16   1   9 106.878 17.2909  -3
  14   1   9 106.878 17.2909   1
 -16   1   9 56.8855 6.65304  -4
  14   1   9 56.8855 6.65304   2
 -16   2   9 5.67896 5.93772   2
 -16   2   9 8.48998 5.25429   3
 -16   2   9 -4.7750 4.59818   4
  14   2   9 29.4349 12.8093  -3
 -16   2   9 29.4349 12.8093   1
 -16   2   9 -1.2219 6.68394   1
   8   2  14 85.0255 16.0534  -4
 -15   2   9 85.0255 16.0534   3
 -15   2   9 16.4985 7.01962   2
 -10   2  13 18.1067 8.43181  -4
  12   2   9 18.1067 8.43181  -3
   8   2  13 18.1067 8.43181  -2
 -14   2   9 18.1067 8.43181   1
 -10   2  13 4.32955 10.9907  -3
 -14   2   9 4.32955 10.9907   2
 -10   2  12 335.635 26.2964  -4
   8   2  12 335.635 26.2964  -2
 -13   2   9 335.635 26.2964   1
 -10   2  12 383.780 30.5525  -4
  11   2   9 383.780 30.5525  -3
   8   2  12 383.780 30.5525  -2
 -13   2   9 383.780 30.5525   1
 -10   2  11 16.8527 7.24250  -4
  10   2   9 16.8527 7.24250  -3
   8   2  11 16.8527 7.24250  -2
 -12   2   9 16.8527 7.24250   1
 -10   2  11 35.6329 10.1210  -4
   8   2  11 35.6329 10.1210  -2
 -12   2   9 35.6329 10.1210   1
 -10   2  10 893.387 38.0931  -4
   9   2   9 893.387 38.0931  -3
   8   2  10 893.387 38.0931  -2
 -11   2   9 893.387 38.0931   1
 -10   2   9 77.9198 8.20074  -4
   8   2   9 77.9198 8.20074  -3
   8   2   9 77.9198 8.20074  -2
 -10   2   9 77.9198 8.20074   1
  -9   2   9 816.617 44.5277   1
   8   2   8 907.596 40.2970  -2
  -9   2   9 907.596 40.2970   1
  -9   2   9 427.234 26.0335   2
 -10   2   8 1162.32 65.7212  -4
   7   2   9 1162.32 65.7212  -3
  -9   2   9 1162.32 65.7212   1
  -8   2   9 10.0049 3.53776   3
  -8   2   9 71.3649 4.89349   1
  -8   2   9 24.8461 3.93474   2
  -7   2   9 550.012 19.2390   1
   5   2   9 998.177 31.0363  -3
  -7   2   9 998.177 31.0363   1
  -7   2   9 355.151 15.1360   2
  -7   2   9 494.539 23.7052   3
  -7   2   9 105.474 11.6812   4
  -6   2   9 13.3852 2.90980   2
   4   2   9 57.6374 5.01973  -3
  -6   2   9 57.6374 5.01973   1
  -6   2   9 2.96057 2.41083   3
  -6   2   9 60.6636 7.09906   1
  -6   2   9 4.28940 3.75815   4
   3   2   9 639.020 21.1338  -3
  -5   2   9 639.020 21.1338   1
  -5   2   9 211.242 8.90413   2
  -5   2   9 306.021 15.2154   1
  -5   2   9 161.375 10.8680   4
  -5   2   9 274.013 14.8083   3
  -4   2   9 11.8979 5.63177   2
  -4   2   9 15.5715 3.35820   3
  -4   2   9 26.5060 6.76985   4
  -9   2   3 262.110 16.1458  -4
   2   2   9 262.110 16.1458  -3
  -4   2   9 262.110 16.1458   1
   2   2   9 470.817 33.3454  -4
  -9   2   3 470.817 33.3454  -3
  -4   2   9 470.817 33.3454   2
  -4   2   9 5.19196 7.84146   1
  -9   2   2 681.875 21.8447  -4
   1   2   9 681.875 21.8447  -3
   9   2   2 681.875 21.8447  -2
  -3   2   9 681.875 21.8447   1
  -9   2   1 454.154 15.4964  -4
   0   2   9 454.154 15.4964  -3
   9   2   1 454.154 15.4964  -2
  -2   2   9 454.154 15.4964   1
   9   2   0 456.202 18.2939  -4
  -1   2   9 456.202 18.2939  -3
   9   2   0 456.202 18.2939  -2
  -1   2   9 456.202 18.2939   1
  -1   2   9 206.463 16.0062   3
  -1   2   9 244.226 18.2782   1
   9   2   1 429.262 13.2427  -4
  -2   2   9 429.262 13.2427  -3
  -9   2   1 429.262 13.2427  -2
   0   2   9 429.262 13.2427   1
   9   2   2 214.651 13.1822  -3
   1   2   9 214.651 13.1822   2
   1   2   9 211.953 13.2229   2
  -9   2   3 271.078 15.0982  -2
   2   2   9 271.078 15.0982   1
  -4   2   9 103.282 11.0961  -4
   2   2   9 103.282 11.0961   2
   3   2   9 232.578 13.9344   2
   3   2   9 195.443 9.59698   4
   3   2   9 309.452 16.2072   1
  -5   2   9 428.457 27.5056  -4
   3   2   9 428.457 27.5056   2
   3   2   9 314.044 20.4320   3
   4   2   9 15.6818 3.48361   1
   4   2   9 46.9980 8.22196   2
   4   2   9 15.1884 2.83463   4
   4   2   9 4.69529 2.30747   3
  -6   2   9 57.4120 6.42220  -4
   4   2   9 57.4120 6.42220   2
   5   2   9 347.462 13.1302   3
   5   2   9 235.007 10.9631   4
   5   2   9 398.063 20.1514   1
  -7   2   9 668.428 28.8353  -4
   5   2   9 668.428 28.8353   2
   5   2   9 319.551 24.1061   2
   6   2   9 12.8581 6.07594   4
   6   2   9 10.5202 2.98557   3
   6   2   9 15.1437 3.91897   1
  -8   2   9 75.4070 7.93234  -4
   6   2   9 75.4070 7.93234   2
 -10   2   8 373.947 23.3701  -4
   7   2   9 373.947 23.3701   3
   8   2   8 316.285 24.0295  -3
   7   2   9 316.285 24.0295   2
   8   2   8 308.655 26.8598  -4
   7   2   9 308.655 26.8598   1
  -9   2   9 526.426 35.4579  -4
   8   2   8 526.426 35.4579  -3
   7   2   9 526.426 35.4579   2
   8   2  10 1019.24 42.0117  -4
 -11   2   9 1019.24 42.0117  -3
 -10   2  10 1019.24 42.0117  -2
   9   2   9 1019.24 42.0117   1
  10   2   9 4.70889 5.53662   3
   8   2  11 16.9706 10.6254  -4
 -12   2   9 16.9706 10.6254  -3
 -10   2  11 16.9706 10.6254  -2
  10   2   9 16.9706 10.6254   1
   8   2  12 461.042 19.9506  -4
 -13   2   9 461.042 19.9506  -3
 -10   2  12 461.042 19.9506  -2
  11   2   9 461.042 19.9506   1
  11   2   9 145.703 15.4481   3
   8   2  13 0.34062 15.0031  -4
 -14   2   9 0.34062 15.0031  -3
 -10   2  13 0.34062 15.0031  -2
  12   2   9 0.34062 15.0031   1
 -15   2   9 146.694 19.8360  -3
 -10   2  14 146.694 19.8360  -2
  13   2   9 146.694 19.8360   1
 -10   2  14 115.121 17.4659  -2
  13   2   9 115.121 17.4659   1
   8   2  14 111.763 14.1302  -3
  13   2   9 111.763 14.1302   2
  14   2   9 7.44513 7.51832   2
 -15   3   9 2.62826 4.73220   2
   8   3  14 -7.7186 10.1431  -4
 -15   3   9 -7.7186 10.1431   3
 -10   3  13 337.375 20.9984  -4
  12   3   9 337.375 20.9984  -3
   8   3  13 337.375 20.9984  -2
 -14   3   9 337.375 20.9984   1
 -10   3  13 152.000 22.5918  -3
 -14   3   9 152.000 22.5918   2
 -10   3  12 7.70875 7.69641  -4
  11   3   9 7.70875 7.69641  -3
   8   3  12 7.70875 7.69641  -2
 -13   3   9 7.70875 7.69641   1
 -10   3  12 40.5881 12.5002  -4
   8   3  12 40.5881 12.5002  -2
 -13   3   9 40.5881 12.5002   1
 -10   3  11 371.435 21.0496  -4
  10   3   9 371.435 21.0496  -3
   8   3  11 371.435 21.0496  -2
 -12   3   9 371.435 21.0496   1
 -10   3  10 8.75695 5.75188  -4
   9   3   9 8.75695 5.75188  -3
   8   3  10 8.75695 5.75188  -2
 -11   3   9 8.75695 5.75188   1
 -10   3   9 248.495 10.8062  -4
   8   3   9 248.495 10.8062  -3
   8   3   9 248.495 10.8062  -2
 -10   3   9 248.495 10.8062   1
  -9   3   9 2.05603 2.96062   2
  -9   3   9 2.37043 4.36156   3
  -8   3   9 33.7976 7.26510   3
  -8   3   9 58.0408 11.8140   1
  -8   3   9 27.8787 4.98658   2
  -8   3   9 22.3006 3.38323   4
  -7   3   9 -0.7738 1.72289   2
  -7   3   9 -3.1177 3.51401   3
  -7   3   9 2.54582 1.80880   1
   5   3   9 4.35343 3.88195  -3
  -7   3   9 4.35343 3.88195   1
  -6   3   9 22.3644 3.19138   1
  -6   3   9 14.3714 3.85690   3
   4   3   9 90.9102 6.22160  -3
  -6   3   9 90.9102 6.22160   1
  -6   3   9 11.4871 4.01256   2
  -6   3   9 13.5547 5.52828   4
   3   3   9 22.4342 3.94125  -3
  -5   3   9 22.4342 3.94125   1
  -5   3   9 5.18616 3.15014   3
   3   3   9 22.6972 9.11329  -4
  -5   3   9 22.6972 9.11329   2
  -5   3   9 9.78492 2.88284   1
  -5   3   9 1.04543 3.02672   4
  -5   3   9 0.18491 2.36852   2
  -9   3   3 155.663 9.96276  -4
   2   3   9 155.663 9.96276  -3
  -4   3   9 155.663 9.96276   1
  -4   3   9 89.1639 11.3506   3
   2   3   9 96.1514 12.4827  -4
  -4   3   9 96.1514 12.4827   2
  -9   3   2 83.4780 5.66261  -4
   1   3   9 83.4780 5.66261  -3
   9   3   2 83.4780 5.66261  -2
  -3   3   9 83.4780 5.66261   1
  -9   3   2 55.3954 8.03450  -4
  -3   3   9 55.3954 8.03450   1
  -9   3   1 91.5489 6.66632  -4
   0   3   9 91.5489 6.66632  -3
   9   3   1 91.5489 6.66632  -2
  -2   3   9 91.5489 6.66632   1
   9   3   0 5.40156 2.81722  -4
  -1   3   9 5.40156 2.81722  -3
   9   3   0 5.40156 2.81722  -2
  -1   3   9 5.40156 2.81722   1
   0   3   9 1.64200 1.40858   2
   9   3   1 85.5987 6.34435  -4
  -2   3   9 85.5987 6.34435  -3
  -9   3   1 85.5987 6.34435  -2
   0   3   9 85.5987 6.34435   1
   9   3   2 82.5395 9.04145  -4
  -3   3   9 82.5395 9.04145  -3
  -9   3   2 82.5395 9.04145  -2
   1   3   9 82.5395 9.04145   1
   2   3   9 37.2616 6.26422   3
  -9   3   3 47.9220 9.92477  -2
   2   3   9 47.9220 9.92477   1
  -4   3   9 169.227 12.8512  -3
  -9   3   3 169.227 12.8512  -2
   2   3   9 169.227 12.8512   1
   3   3   9 13.9808 5.82151   1
   3   3   9 -2.6727 2.39257   3
  -5   3   9 25.1938 5.16243  -4
   3   3   9 25.1938 5.16243   2
   3   3   9 3.19914 3.26467   4
   4   3   9 39.4872 6.10815   4
   4   3   9 49.0402 8.82466   2
  -6   3   9 56.4805 6.41293  -4
   4   3   9 56.4805 6.41293   2
   4   3   9 63.4246 7.14373   1
   4   3   9 57.2157 4.76559   3
  -7   3   9 0.69015 2.72935  -4
   5   3   9 0.69015 2.72935   2
   5   3   9 -1.9000 3.45083   4
   5   3   9 0.48944 1.77189   3
   5   3   9 0.00361 1.90590   1
   6   3   9 6.07001 3.44044   1
  -8   3   9 24.4407 5.58805  -4
   6   3   9 24.4407 5.58805   2
   6   3   9 -1.1775 3.58820   4
  -9   3   9 11.0553 9.63699  -4
   8   3   8 11.0553 9.63699  -3
   7   3   9 11.0553 9.63699   2
   8   3   8 3.06931 8.94311  -4
   7   3   9 3.06931 8.94311   1
   8   3   9 218.341 18.1825  -4
 -10   3   9 218.341 18.1825  -3
 -10   3   9 218.341 18.1825  -2
   8   3   9 218.341 18.1825   1
   8   3  10 14.8451 9.87268  -4
 -11   3   9 14.8451 9.87268  -3
 -10   3  10 14.8451 9.87268  -2
   9   3   9 14.8451 9.87268   1
   8   3  11 328.852 18.2770  -4
 -12   3   9 328.852 18.2770  -3
 -10   3  11 328.852 18.2770  -2
  10   3   9 328.852 18.2770   1
  10   3   9 29.4438 18.9417   3
  11   3   9 6.49994 5.88294   3
   8   3  12 19.2106 6.66374  -4
 -13   3   9 19.2106 6.66374  -3
 -10   3  12 19.2106 6.66374  -2
  11   3   9 19.2106 6.66374   1
  11   3   9 -0.2319 4.14883   4
 -10   3  14 -12.963 9.24487  -2
  13   3   9 -12.963 9.24487   1
 -15   3   9 18.3705 16.1180  -3
 -10   3  14 18.3705 16.1180  -2
  13   3   9 18.3705 16.1180   1
 -10   4  13 25.9679 10.0524  -4
  12   4   9 25.9679 10.0524  -3
   8   4  13 25.9679 10.0524  -2
 -14   4   9 25.9679 10.0524   1
 -10   4  12 353.521 16.5075  -4
  11   4   9 353.521 16.5075  -3
   8   4  12 353.521 16.5075  -2
 -13   4   9 353.521 16.5075   1
 -10   4  12 217.464 23.9506  -4
   8   4  12 217.464 23.9506  -2
 -13   4   9 217.464 23.9506   1
 -10   4  11 7.41388 7.21142  -4
  10   4   9 7.41388 7.21142  -3
   8   4  11 7.41388 7.21142  -2
 -12   4   9 7.41388 7.21142   1
 -10   4  11 5.09906 10.7869  -4
   8   4  11 5.09906 10.7869  -2
 -12   4   9 5.09906 10.7869   1
 -10   4  10 443.600 16.2950  -4
   9   4   9 443.600 16.2950  -3
   8   4  10 443.600 16.2950  -2
 -11   4   9 443.600 16.2950   1
 -10   4   9 -1.8837 7.38387  -4
   8   4   9 -1.8837 7.38387  -3
   8   4   9 -1.8837 7.38387  -2
 -10   4   9 -1.8837 7.38387   1
  -9   4   9 11.7245 7.53705   3
  -9   4   9 -0.7145 4.49496   2
   6   4   9 13.1900 9.41795  -3
  -8   4   9 13.1900 9.41795   1
  -8   4   9 -2.4238 3.90669   3
  -8   4   9 2.53388 2.41755   2
  -8   4   9 2.34363 1.75486   4
  -7   4   9 58.1379 4.70440   2
  -7   4   9 80.1313 8.97498   3
   5   4   9 71.4280 8.42522  -4
  -7   4   9 71.4280 8.42522   2
   5   4   9 142.877 8.82271  -3
  -7   4   9 142.877 8.82271   1
  -7   4   9 100.886 14.2166   1
  -7   4   9 50.6066 5.19146   4
  -6   4   9 0.68153 2.14473   3
   4   4   9 -0.7458 3.51257  -3
  -6   4   9 -0.7458 3.51257   1
  -6   4   9 -2.2799 2.89947   2
  -6   4   9 1.45999 2.46196   1
   4   4   9 -1.6159 4.61156  -4
  -6   4   9 -1.6159 4.61156   2
   3   4   9 126.351 7.72930  -3
  -5   4   9 126.351 7.72930   1
  -5   4   9 16.0382 4.05933   2
  -5   4   9 6.60214 2.58620   1
  -5   4   9 6.81720 3.49335   3
   3   4   9 66.6284 6.63853  -4
  -5   4   9 66.6284 6.63853   2
  -9   4   3 67.4118 11.4142  -4
   2   4   9 67.4118 11.4142  -3
  -4   4   9 67.4118 11.4142   1
  -4   4   9 -1.7943 4.05567   3
   2   4   9 149.991 11.4863  -4
  -9   4   3 149.991 11.4863  -3
  -4   4   9 149.991 11.4863   2
   2   4   9 17.0685 5.98408  -3
  -4   4   9 17.0685 5.98408   1
   2   4   9 38.1053 9.46995  -4
  -4   4   9 38.1053 9.46995   2
  -9   4   2 197.376 9.55830  -4
   1   4   9 197.376 9.55830  -3
   9   4   2 197.376 9.55830  -2
  -3   4   9 197.376 9.55830   1
  -9   4   1 198.781 9.26720  -4
   0   4   9 198.781 9.26720  -3
   9   4   1 198.781 9.26720  -2
  -2   4   9 198.781 9.26720   1
  -2   4   9 -2.3706 3.95811   3
  -1   4   9 107.132 6.46604   2
   9   4   0 338.233 15.0387  -4
  -1   4   9 338.233 15.0387  -3
   9   4   0 338.233 15.0387  -2
  -1   4   9 338.233 15.0387   1
  -1   4   9 147.617 15.1945   3
   9   4   0 288.450 23.8621  -4
   9   4   0 288.450 23.8621  -2
  -1   4   9 288.450 23.8621   1
   9   4   1 170.755 9.40778  -4
  -2   4   9 170.755 9.40778  -3
  -9   4   1 170.755 9.40778  -2
   0   4   9 170.755 9.40778   1
   9   4   1 193.869 19.6897  -4
  -9   4   1 193.869 19.6897  -2
   0   4   9 193.869 19.6897   1
   9   4   2 192.532 14.6552  -4
  -3   4   9 192.532 14.6552  -3
  -9   4   2 192.532 14.6552  -2
   1   4   9 192.532 14.6552   1
  -9   4   3 92.0634 14.8766  -2
   2   4   9 92.0634 14.8766   1
  -4   4   9 83.5943 9.60584  -3
  -9   4   3 83.5943 9.60584  -2
   2   4   9 83.5943 9.60584   1
  -5   4   9 81.7999 6.83414  -4
   3   4   9 81.7999 6.83414   2
   3   4   9 60.8466 9.71903   4
   3   4   9 88.3209 9.66073   3
   3   4   9 111.256 9.49429   1
   4   4   9 4.06800 2.10192   1
  -6   4   9 -0.2876 4.57013  -4
   4   4   9 -0.2876 4.57013   2
   4   4   9 -0.4354 3.42097   3
   4   4   9 0.39274 2.42934   4
   5   4   9 22.4366 5.62226   1
  -7   4   9 74.4749 6.91263  -4
   5   4   9 74.4749 6.91263   2
   5   4   9 6.24289 2.32698   4
   5   4   9 20.4486 4.09486   2
   5   4   9 21.3420 3.12477   3
   6   4   9 -0.8304 4.57969   4
   6   4   9 -0.2946 5.64646   1
   6   4   9 1.87894 2.13251   2
  -8   4   9 3.61088 7.29398  -4
   6   4   9 3.61088 7.29398   2
   8   4   8 452.432 37.0235  -4
   7   4   9 452.432 37.0235   1
   8   4   9 -2.2890 6.20854  -4
 -10   4   9 -2.2890 6.20854  -3
 -10   4   9 -2.2890 6.20854  -2
   8   4   9 -2.2890 6.20854   1
   8   4  10 308.442 16.4706  -4
 -11   4   9 308.442 16.4706  -3
 -10   4  10 308.442 16.4706  -2
   9   4   9 308.442 16.4706   1
   8   4  11 -2.5161 6.23825  -4
 -12   4   9 -2.5161 6.23825  -3
 -10   4  11 -2.5161 6.23825  -2
  10   4   9 -2.5161 6.23825   1
  10   4   9 3.25807 5.22389   3
  11   4   9 44.1671 11.0835   3
   8   4  12 294.289 18.0517  -4
 -13   4   9 294.289 18.0517  -3
 -10   4  12 294.289 18.0517  -2
  11   4   9 294.289 18.0517   1
 -10   4  14 105.124 11.4082  -2
  13   4   9 105.124 11.4082   1
 -10   5  12 4.13228 13.6690  -4
  11   5   9 4.13228 13.6690  -3
   8   5  12 4.13228 13.6690  -2
 -13   5   9 4.13228 13.6690   1
 -10   5  11 162.626 10.9412  -4
  10   5   9 162.626 10.9412  -3
   8   5  11 162.626 10.9412  -2
 -12   5   9 162.626 10.9412   1
 -10   5  11 157.465 21.0088  -4
   8   5  11 157.465 21.0088  -2
 -12   5   9 157.465 21.0088   1
 -10   5  10 8.64466 6.27672  -4
   9   5   9 8.64466 6.27672  -3
   8   5  10 8.64466 6.27672  -2
 -11   5   9 8.64466 6.27672   1
 -10   5   9 122.518 8.48007  -4
   8   5   9 122.518 8.48007  -3
   8   5   9 122.518 8.48007  -2
 -10   5   9 122.518 8.48007   1
 -10   5   8 15.2168 7.46410  -4
   7   5   9 15.2168 7.46410  -3
   8   5   8 15.2168 7.46410  -2
  -9   5   9 15.2168 7.46410   1
  -9   5   9 3.23950 5.84133   2
  -9   5   9 4.63032 2.81922   3
  -8   5   9 81.6823 9.47755   2
  -8   5   9 85.0082 15.1252   3
  -7   5   9 3.33238 3.04554   4
   5   5   9 10.8082 4.35394  -3
  -7   5   9 10.8082 4.35394   1
  -7   5   9 3.87459 4.49631   2
  -7   5   9 -0.0741 1.62506   3
  -7   5   9 -1.6249 5.72036   1
  -6   5   9 99.6373 9.35912   3
  -6   5   9 67.3463 8.16251   2
   4   5   9 241.522 11.6311  -3
  -6   5   9 241.522 11.6311   1
  -6   5   9 118.168 9.12314   1
   4   5   9 160.323 18.7224  -4
  -6   5   9 160.323 18.7224   2
   3   5   9 10.0625 6.04708  -3
  -5   5   9 10.0625 6.04708   1
  -5   5   9 11.1897 5.34426   1
  -5   5   9 -1.9152 4.97523   3
  -5   5   9 8.31057 6.09517   2
  -9   5   3 108.902 13.5506  -4
  -4   5   9 108.902 13.5506   1
  -9   5   3 50.0065 5.09736  -3
  -4   5   9 50.0065 5.09736   2
  -9   5   2 159.684 10.2327  -4
   1   5   9 159.684 10.2327  -3
   9   5   2 159.684 10.2327  -2
  -3   5   9 159.684 10.2327   1
  -9   5   2 57.0473 6.25488  -3
  -3   5   9 57.0473 6.25488   2
  -2   5   9 25.6986 3.18086   4
  -9   5   1 136.782 7.61396  -4
   0   5   9 136.782 7.61396  -3
   9   5   1 136.782 7.61396  -2
  -2   5   9 136.782 7.61396   1
  -1   5   9 25.7214 4.28860   2
   9   5   0 115.105 6.89776  -4
  -1   5   9 115.105 6.89776  -3
   9   5   0 115.105 6.89776  -2
  -1   5   9 115.105 6.89776   1
   9   5   1 108.821 9.44039  -4
  -2   5   9 108.821 9.44039  -3
  -9   5   1 108.821 9.44039  -2
   0   5   9 108.821 9.44039   1
   0   5   9 44.9338 3.69301   2
   0   5   9 74.4083 4.52282   3
   2   5   9 175.289 12.4888   1
   2   5   9 156.738 14.5292   3
   2   5   9 89.0349 6.44469   4
   3   5   9 0.10696 3.17027   1
   3   5   9 2.34852 5.83329   3
   3   5   9 -3.5815 3.89378   4
  -5   5   9 7.55798 6.21476  -4
   3   5   9 7.55798 6.21476   2
  -5   5   9 -0.1780 3.79639  -3
   3   5   9 -0.1780 3.79639   1
   4   5   9 51.5195 6.83178   4
  -6   5   9 169.942 11.9016  -3
   4   5   9 169.942 11.9016   1
   4   5   9 94.0400 6.20939   3
  -6   5   9 124.289 10.4205  -4
   4   5   9 124.289 10.4205   2
   4   5   9 119.215 12.0984   1
   5   5   9 3.88049 1.76649   1
  -7   5   9 17.6262 5.99597  -4
   5   5   9 17.6262 5.99597   2
   5   5   9 -0.5002 3.32152   4
   5   5   9 1.11039 3.81951   3
   5   5   9 6.85419 3.63351   2
  -8   5   9 162.673 10.2341  -4
   6   5   9 162.673 10.2341   2
   6   5   9 32.2914 10.4990   4
  -8   5   9 230.824 19.9090  -4
   8   5   7 230.824 19.9090  -3
   6   5   9 230.824 19.9090   2
  -8   5   9 187.748 17.7220  -3
   6   5   9 187.748 17.7220   1
   6   5   9 87.1502 18.8260   1
   7   5   9 3.33837 5.48856   4
   8   5   8 12.3975 5.67090  -4
  -9   5   9 12.3975 5.67090  -3
   7   5   9 12.3975 5.67090   1
   8   5   8 6.80505 4.41390  -4
   7   5   9 6.80505 4.41390   1
   8   5   9 99.8576 8.21302  -4
 -10   5   9 99.8576 8.21302  -3
 -10   5   9 99.8576 8.21302  -2
   8   5   9 99.8576 8.21302   1
   8   5  10 7.21801 5.71629  -4
 -11   5   9 7.21801 5.71629  -3
 -10   5  10 7.21801 5.71629  -2
   9   5   9 7.21801 5.71629   1
  10   5   9 20.3973 10.5529   3
   8   5  12 0.40160 13.9725  -4
 -13   5   9 0.40160 13.9725  -3
 -10   5  12 0.40160 13.9725  -2
  11   5   9 0.40160 13.9725   1
 -10   5  13 94.3340 8.05232  -4
  12   5   9 94.3340 8.05232   3
 -10   5  13 77.1510 14.1345  -2
  12   5   9 77.1510 14.1345   1
 -10   6  11 21.9860 8.19984  -4
   8   6  11 21.9860 8.19984  -2
 -12   6   9 21.9860 8.19984   1
 -10   6  11 6.10536 8.12007  -4
  10   6   9 6.10536 8.12007  -3
   8   6  11 6.10536 8.12007  -2
 -12   6   9 6.10536 8.12007   1
 -10   6  10 394.647 15.9559  -4
   9   6   9 394.647 15.9559  -3
   8   6  10 394.647 15.9559  -2
 -11   6   9 394.647 15.9559   1
 -10   6   9 3.34964 6.73394  -4
   8   6   9 3.34964 6.73394  -3
   8   6   9 3.34964 6.73394  -2
 -10   6   9 3.34964 6.73394   1
  -9   6   9 16.3660 9.67939   3
 -10   6   8 311.356 27.7515  -4
   7   6   9 311.356 27.7515  -3
   8   6   8 311.356 27.7515  -2
  -9   6   9 311.356 27.7515   1
  -8   6   9 2.77292 3.62729   3
  -8   6   9 7.29093 4.70467   2
  -7   6   9 61.3805 9.09259   2
  -7   6   9 99.1508 15.8192   1
   5   6   9 147.792 19.7281  -4
  -7   6   9 147.792 19.7281   2
   5   6   9 179.629 12.6132  -3
  -7   6   9 179.629 12.6132   1
  -7   6   9 83.2267 18.2306   3
  -6   6   9 3.47899 2.72868   1
   4   6   9 2.42571 4.86516  -3
  -6   6   9 2.42571 4.86516   1
   4   6   9 21.4160 9.64451  -4
  -6   6   9 21.4160 9.64451   2
  -6   6   9 10.2375 6.40556   3
  -6   6   9 -1.2052 2.81292   2
   3   6   9 46.7816 6.28862  -3
  -5   6   9 46.7816 6.28862   1
  -5   6   9 24.0852 6.23505   4
  -5   6   9 22.4669 8.31130   1
  -5   6   9 4.80538 7.33040   3
  -4   6   9 1.59401 3.24357   4
   9   6   3 31.7862 9.62490  -2
  -4   6   9 31.7862 9.62490   1
  -9   6   3 55.7883 14.8641  -3
  -4   6   9 55.7883 14.8641   2
  -9   6   2 97.3891 10.6157  -4
   1   6   9 97.3891 10.6157  -3
   9   6   2 97.3891 10.6157  -2
  -3   6   9 97.3891 10.6157   1
   9   6   1 146.362 8.46690  -2
  -2   6   9 146.362 8.46690   1
  -9   6   1 206.224 13.5523  -4
   0   6   9 206.224 13.5523  -3
   9   6   1 206.224 13.5523  -2
  -2   6   9 206.224 13.5523   1
  -1   6   9 147.981 9.42429   2
   9   6   0 432.247 27.6230  -4
  -1   6   9 432.247 27.6230  -3
   9   6   0 432.247 27.6230  -2
  -1   6   9 432.247 27.6230   1
  -9   6   1 161.092 8.78946  -4
   0   6   9 161.092 8.78946   3
   9   6   1 173.617 15.7455  -4
  -2   6   9 173.617 15.7455  -3
  -9   6   1 173.617 15.7455  -2
   0   6   9 173.617 15.7455   1
   0   6   9 8.36181 2.59733   2
   9   6   2 23.1800 6.77769  -4
   1   6   9 23.1800 6.77769   1
   9   6   2 80.3360 11.3567  -4
  -3   6   9 80.3360 11.3567  -3
  -9   6   2 80.3360 11.3567  -2
   1   6   9 80.3360 11.3567   1
   2   6   9 -0.8226 5.51201   4
  -4   6   9 26.8561 7.72485  -3
  -9   6   3 26.8561 7.72485  -2
   2   6   9 26.8561 7.72485   1
   3   6   9 22.8523 7.74689   3
   3   6   9 39.1867 7.70499   1
   3   6   9 34.9387 7.09309   2
  -5   6   9 79.0115 9.43046  -3
   3   6   9 79.0115 9.43046   1
  -5   6   9 26.0785 9.64980  -4
   3   6   9 26.0785 9.64980   2
  -6   6   9 -6.5523 4.26978  -4
   4   6   9 -6.5523 4.26978   2
   4   6   9 1.87424 3.00565   1
   4   6   9 -1.9888 2.51392   4
   4   6   9 8.46801 5.35144   3
  -7   6   9 127.788 8.39150  -4
   5   6   9 127.788 8.39150   2
   5   6   9 24.9524 5.71272   4
  -7   6   9 138.265 15.5065  -3
   5   6   9 138.265 15.5065   1
   5   6   9 38.3940 13.3371   1
   6   6   9 1.46165 4.05227   1
  -8   6   9 22.3690 5.87585  -4
   6   6   9 22.3690 5.87585   2
   6   6   9 1.02776 5.62106   4
  -8   6   9 13.0824 9.65071  -4
   8   6   7 13.0824 9.65071  -3
   6   6   9 13.0824 9.65071   2
   8   6   8 175.655 18.8458  -4
  -9   6   9 175.655 18.8458  -3
   7   6   9 175.655 18.8458   1
   7   6   9 39.8069 11.3378   4
  -9   6   9 55.5423 15.9902  -4
   8   6   8 55.5423 15.9902  -3
   7   6   9 55.5423 15.9902   2
   8   6   9 3.39878 12.0715  -4
 -10   6   9 3.39878 12.0715  -3
 -10   6   9 3.39878 12.0715  -2
   8   6   9 3.39878 12.0715   1
   8   6  11 14.0357 14.5700  -4
 -12   6   9 14.0357 14.5700  -3
 -10   6  11 14.0357 14.5700  -2
  10   6   9 14.0357 14.5700   1
  10   6   9 6.19173 5.44343   3
 -10   7   9 58.9271 9.05931  -4
   8   7   9 58.9271 9.05931  -3
   8   7   9 58.9271 9.05931  -2
 -10   7   9 58.9271 9.05931   1
 -10   7   8 7.79555 11.4180  -4
   7   7   9 7.79555 11.4180  -3
   8   7   8 7.79555 11.4180  -2
  -9   7   9 7.79555 11.4180   1
  -8   7   9 24.6262 6.50493   2
  -8   7   9 -1.6191 10.6719   3
  -7   7   9 3.13592 8.86251   3
   5   7   9 -4.3990 8.08168  -3
  -7   7   9 -4.3990 8.08168   1
  -7   7   9 -1.6114 3.47929   2
   5   7   9 21.6082 11.5282  -4
  -7   7   9 21.6082 11.5282   2
  -7   7   9 -1.7960 8.24322   1
  -6   7   9 58.9416 8.56840   4
  -6   7   9 60.2759 10.6287   2
   4   7   9 254.879 15.1019  -3
  -6   7   9 254.879 15.1019   1
  -6   7   9 102.056 13.3316   3
  -6   7   9 152.454 15.0073   1
   4   7   9 151.760 20.0839  -4
  -6   7   9 151.760 20.0839   2
  -5   7   9 2.50574 7.21279   2
  -5   7   9 5.58724 4.14795   4
  -5   7   9 3.09974 5.38294   1
  -9   7   4 90.1292 15.6707  -4
   8   7   4 90.1292 15.6707  -2
  -5   7   9 90.1292 15.6707   1
   9   7   3 139.949 19.1270  -2
  -4   7   9 139.949 19.1270   1
  -9   7   2 146.639 13.1879  -4
   1   7   9 146.639 13.1879  -3
   9   7   2 146.639 13.1879  -2
  -3   7   9 146.639 13.1879   1
   9   7   1 66.5718 5.99484  -2
  -2   7   9 66.5718 5.99484   1
  -9   7   1 45.9250 8.80561  -4
   0   7   9 45.9250 8.80561  -3
   9   7   1 45.9250 8.80561  -2
  -2   7   9 45.9250 8.80561   1
   9   7   0 5.94837 3.93619  -4
   9   7   0 5.94837 3.93619  -2
  -1   7   9 5.94837 3.93619   1
   9   7   0 8.87333 5.66167  -4
  -1   7   9 8.87333 5.66167  -3
   9   7   0 8.87333 5.66167  -2
  -1   7   9 8.87333 5.66167   1
  -1   7   9 -0.7111 2.89985   3
  -9   7   1 45.3585 4.65893  -4
   0   7   9 45.3585 4.65893   3
   9   7   1 71.5013 6.62548  -4
  -2   7   9 71.5013 6.62548  -3
  -9   7   1 71.5013 6.62548  -2
   0   7   9 71.5013 6.62548   1
   9   7   2 133.501 8.35096  -4
  -3   7   9 133.501 8.35096  -3
  -9   7   2 133.501 8.35096  -2
   1   7   9 133.501 8.35096   1
  -3   7   9 72.0337 18.0769  -3
  -9   7   2 72.0337 18.0769  -2
   1   7   9 72.0337 18.0769   1
  -9   7   3 85.0520 15.0912  -4
   2   7   9 85.0520 15.0912   3
   9   7   3 231.130 24.7921  -4
  -4   7   9 231.130 24.7921  -3
  -9   7   3 231.130 24.7921  -2
   2   7   9 231.130 24.7921   1
  -4   7   9 270.086 20.8668  -3
   2   7   9 270.086 20.8668   1
   3   7   9 -4.7006 7.09535   4
   3   7   9 1.85738 6.93883   3
  -5   7   9 31.8159 7.56879  -3
   3   7   9 31.8159 7.56879   1
  -5   7   9 7.25733 5.74464  -4
   3   7   9 7.25733 5.74464   2
   3   7   9 6.16469 4.61348   1
   3   7   9 -0.6069 4.02270   2
  -6   7   9 161.341 10.8542  -4
   4   7   9 161.341 10.8542   2
   4   7   9 129.924 12.3084   1
   4   7   9 61.3424 8.24816   4
   4   7   9 92.8925 11.1188   2
   4   7   9 60.2938 10.5861   3
  -7   7   9 2.28002 5.25136  -4
   5   7   9 2.28002 5.25136   2
  -7   7   9 -7.2520 7.83022  -3
   5   7   9 -7.2520 7.83022   1
   5   7   9 0.41158 3.52268   4
   8   7   7 68.1116 12.9867  -3
   6   7   9 68.1116 12.9867   2
   6   7   9 8.90566 8.21546   4
   6   7   9 34.4362 15.5722   1
   7   7   9 -2.2216 5.27901   4
   8   7   9 55.7412 13.9020  -4
 -10   7   9 55.7412 13.9020  -3
 -10   7   9 55.7412 13.9020  -2
   8   7   9 55.7412 13.9020   1
  -7   8   9 4.66307 4.65409   2
  -7   8   9 17.7661 13.5393   1
  -7   8   9 -7.2314 8.86403   3
   5   8   9 23.0405 15.1577  -4
  -7   8   9 23.0405 15.1577   2
  -6   8   9 -0.2348 4.21054   2
  -6   8   9 8.19394 4.40319   1
   4   8   9 16.1662 10.0912  -3
  -6   8   9 16.1662 10.0912   1
   4   8   9 -14.688 12.3249  -4
  -6   8   9 -14.688 12.3249   2
  -6   8   9 -6.1028 7.36041   3
  -5   8   9 183.296 16.0325   1
   3   8   9 306.698 25.6784  -3
  -5   8   9 306.698 25.6784   1
  -9   8   3 148.604 13.3997  -4
   2   8   9 148.604 13.3997  -3
  -4   8   9 148.604 13.3997   1
  -9   8   2 532.425 35.7106  -4
   1   8   9 532.425 35.7106  -3
   9   8   2 532.425 35.7106  -2
  -3   8   9 532.425 35.7106   1
  -9   8   1 490.549 33.0088  -4
   0   8   9 490.549 33.0088  -3
   9   8   1 490.549 33.0088  -2
  -2   8   9 490.549 33.0088   1
   9   8   0 695.779 23.6675  -4
  -1   8   9 695.779 23.6675  -3
   9   8   0 695.779 23.6675  -2
  -1   8   9 695.779 23.6675   1
   9   8   1 461.156 17.5142  -4
  -2   8   9 461.156 17.5142  -3
  -9   8   1 461.156 17.5142  -2
   0   8   9 461.156 17.5142   1
   9   8   2 484.017 18.9060  -4
  -3   8   9 484.017 18.9060  -3
  -9   8   2 484.017 18.9060  -2
   1   8   9 484.017 18.9060   1
  -9   8   2 345.001 16.8096  -4
   1   8   9 345.001 16.8096   3
  -3   8   9 360.728 37.5048  -3
  -9   8   2 360.728 37.5048  -2
   1   8   9 360.728 37.5048   1
  -4   8   9 176.227 10.7735  -3
  -9   8   3 176.227 10.7735  -2
   2   8   9 176.227 10.7735   1
   9   8   3 284.014 28.8989  -4
  -4   8   9 284.014 28.8989  -3
  -9   8   3 284.014 28.8989  -2
   2   8   9 284.014 28.8989   1
  -5   8   9 325.116 24.2428  -3
   3   8   9 325.116 24.2428   1
  -5   8   9 197.924 14.4834  -4
   3   8   9 197.924 14.4834   2
   3   8   9 123.776 26.2847   1
   3   8   9 63.1562 17.5475   4
  -6   8   9 6.52299 5.69999  -4
   4   8   9 6.52299 5.69999   2
  -6   8   9 14.0752 5.63137  -3
   4   8   9 14.0752 5.63137   1
   4   8   9 1.38720 4.16592   4
   4   8   9 12.3129 11.5344   1
   4   8   9 -0.9144 4.22626   3
   5   8   9 18.3484 14.7741   1
   5   8   9 8.86600 5.28805   4
  -7   8   9 35.7767 11.7000  -3
   5   8   9 35.7767 11.7000   1
  -7   8   9 37.6097 12.8058  -4
   5   8   9 37.6097 12.8058   2
   6   8   9 -10.268 9.37352   1
   6   8   9 0.20360 6.51008   4
 -11   0  13 205.968 17.1702  -4
  12   0  10 205.968 17.1702  -3
   9   0  13 205.968 17.1702  -2
 -14   0  10 205.968 17.1702   1
 -11   0  12 4.28797 5.49833  -4
  11   0  10 4.28797 5.49833  -3
   9   0  12 4.28797 5.49833  -2
 -13   0  10 4.28797 5.49833   1
 -11   0  11 680.603 22.9376  -4
  10   0  10 680.603 22.9376  -3
   9   0  11 680.603 22.9376  -2
 -12   0  10 680.603 22.9376   1
 -11   0  10 8.28928 3.95522  -4
   9   0  10 8.28928 3.95522  -3
   9   0  10 8.28928 3.95522  -2
 -11   0  10 8.28928 3.95522   1
 -11   0   9 670.116 26.5364  -4
   8   0  10 670.116 26.5364  -3
   9   0   9 670.116 26.5364  -2
 -10   0  10 670.116 26.5364   1
   6   0  10 1008.92 57.5219  -3
  -8   0  10 1008.92 57.5219   1
   5   0  10 15.7894 3.32398  -3
  -7   0  10 15.7894 3.32398   1
   5   0  10 42.9715 6.96989  -4
  -7   0  10 42.9715 6.96989   2
   4   0  10 416.453 14.4975  -3
  -6   0  10 416.453 14.4975   1
   4   0  10 251.445 14.7898  -4
  -6   0  10 251.445 14.7898   2
   3   0  10 32.8449 7.49616  -3
  -5   0  10 32.8449 7.49616   1
 -10   0   3 219.512 10.3356  -4
   2   0  10 219.512 10.3356  -3
  -4   0  10 219.512 10.3356   1
   2   0  10 147.438 14.9271  -4
 -10   0   3 147.438 14.9271  -3
  -4   0  10 147.438 14.9271   2
 -10   0   2 30.0381 6.77863  -4
   1   0  10 30.0381 6.77863  -3
  10   0   2 30.0381 6.77863  -2
  -3   0  10 30.0381 6.77863   1
 -10   0   1 26.1345 4.58794  -4
   0   0  10 26.1345 4.58794  -3
  10   0   1 26.1345 4.58794  -2
  -2   0  10 26.1345 4.58794   1
  10   0   0 39.1996 4.99899  -4
  -1   0  10 39.1996 4.99899  -3
  10   0   0 39.1996 4.99899  -2
  -1   0  10 39.1996 4.99899   1
  10   0   1 30.1901 6.70082  -4
  -2   0  10 30.1901 6.70082  -3
 -10   0   1 30.1901 6.70082  -2
   0   0  10 30.1901 6.70082   1
  10   0   2 16.3157 7.02808  -4
  -3   0  10 16.3157 7.02808  -3
 -10   0   2 16.3157 7.02808  -2
   1   0  10 16.3157 7.02808   1
  -4   0  10 188.386 16.5984  -3
 -10   0   3 188.386 16.5984  -2
   2   0  10 188.386 16.5984   1
  -5   0  10 131.905 13.7231  -3
 -10   0   4 131.905 13.7231  -2
   3   0  10 131.905 13.7231   1
  -5   0  10 49.5699 5.33756  -4
   3   0  10 49.5699 5.33756   2
  -6   0  10 233.922 12.7060  -4
   4   0  10 233.922 12.7060   2
  -6   0  10 417.479 29.2412  -3
   4   0  10 417.479 29.2412   1
  -7   0  10 27.5817 7.95276  -3
   5   0  10 27.5817 7.95276   1
  -7   0  10 36.7231 5.03708  -4
   5   0  10 36.7231 5.03708   2
  -8   0  10 679.701 42.0910  -4
   6   0  10 679.701 42.0910   2
   9   0   9 660.571 44.7141  -4
 -10   0  10 660.571 44.7141  -3
 -11   0   9 660.571 44.7141  -2
   8   0  10 660.571 44.7141   1
   9   0  10 58.1144 12.6507  -4
 -11   0  10 58.1144 12.6507  -3
 -11   0  10 58.1144 12.6507  -2
   9   0  10 58.1144 12.6507   1
   9   0  11 698.232 48.3917  -4
 -12   0  10 698.232 48.3917  -3
 -11   0  11 698.232 48.3917  -2
  10   0  10 698.232 48.3917   1
   9   0  12 -3.3473 7.45545  -4
 -13   0  10 -3.3473 7.45545  -3
 -11   0  12 -3.3473 7.45545  -2
  11   0  10 -3.3473 7.45545   1
   9   0  13 205.631 23.1347  -4
 -14   0  10 205.631 23.1347  -3
 -11   0  13 205.631 23.1347  -2
  12   0  10 205.631 23.1347   1
 -15   0  10 1.22024 13.1111  -3
 -11   0  14 1.22024 13.1111  -2
  13   0  10 1.22024 13.1111   1
 -15   0  10 -1.2935 4.22806  -4
  13   0  10 -1.2935 4.22806   2
  14   0  10 48.4165 22.3723   2
 -11   1  13 12.1853 11.5299  -4
  12   1  10 12.1853 11.5299  -3
   9   1  13 12.1853 11.5299  -2
 -14   1  10 12.1853 11.5299   1
 -11   1  12 286.219 14.1397  -4
  11   1  10 286.219 14.1397  -3
   9   1  12 286.219 14.1397  -2
 -13   1  10 286.219 14.1397   1
 -11   1  11 -3.0711 2.29351  -4
  10   1  10 -3.0711 2.29351  -3
   9   1  11 -3.0711 2.29351  -2
 -12   1  10 -3.0711 2.29351   1
 -11   1  10 21.6339 4.23598  -4
   9   1  10 21.6339 4.23598  -3
   9   1  10 21.6339 4.23598  -2
 -11   1  10 21.6339 4.23598   1
 -11   1   9 3.41455 2.75792  -4
   8   1  10 3.41455 2.75792  -3
   9   1   9 3.41455 2.75792  -2
 -10   1  10 3.41455 2.75792   1
   6   1  10 0.06516 2.22751  -3
   9   1   7 0.06516 2.22751  -2
  -8   1  10 0.06516 2.22751   1
   6   1  10 10.5293 6.31813  -3
  -8   1  10 10.5293 6.31813   1
   5   1  10 331.567 12.8512  -4
  -7   1  10 331.567 12.8512   2
   5   1  10 540.407 12.6508  -3
  -7   1  10 540.407 12.6508   1
   4   1  10 39.2090 3.78975  -3
  -6   1  10 39.2090 3.78975   1
   4   1  10 58.1562 5.84383  -4
  -6   1  10 58.1562 5.84383   2
   3   1  10 426.400 13.3016  -3
  -5   1  10 426.400 13.3016   1
   3   1  10 263.883 20.4476  -4
  -5   1  10 263.883 20.4476   2
   2   1  10 189.512 11.6779  -4
 -10   1   3 189.512 11.6779  -3
  -4   1  10 189.512 11.6779   2
 -10   1   3 102.919 6.67407  -4
   2   1  10 102.919 6.67407  -3
  -4   1  10 102.919 6.67407   1
 -10   1   2 192.782 9.46241  -4
   1   1  10 192.782 9.46241  -3
  10   1   2 192.782 9.46241  -2
  -3   1  10 192.782 9.46241   1
 -10   1   1 60.7835 3.50664  -4
   0   1  10 60.7835 3.50664  -3
  10   1   1 60.7835 3.50664  -2
  -2   1  10 60.7835 3.50664   1
  10   1   0 121.300 4.54511  -4
  -1   1  10 121.300 4.54511  -3
  10   1   0 121.300 4.54511  -2
  -1   1  10 121.300 4.54511   1
  10   1   1 40.9927 5.60614  -4
  -2   1  10 40.9927 5.60614  -3
 -10   1   1 40.9927 5.60614  -2
   0   1  10 40.9927 5.60614   1
  10   1   2 190.989 11.8359  -4
  -3   1  10 190.989 11.8359  -3
 -10   1   2 190.989 11.8359  -2
   1   1  10 190.989 11.8359   1
  -4   1  10 138.937 9.87980  -3
 -10   1   3 138.937 9.87980  -2
   2   1  10 138.937 9.87980   1
  -5   1  10 278.068 15.4039  -4
   3   1  10 278.068 15.4039   2
  -5   1  10 350.184 25.5109  -3
 -10   1   4 350.184 25.5109  -2
   3   1  10 350.184 25.5109   1
  -6   1  10 32.6297 2.91078  -4
   4   1  10 32.6297 2.91078   2
  -6   1  10 31.4114 5.57027  -3
   4   1  10 31.4114 5.57027   1
  -7   1  10 327.742 11.3966  -4
   5   1  10 327.742 11.3966   2
  -7   1  10 479.549 23.2639  -3
   5   1  10 479.549 23.2639   1
  -8   1  10 3.94324 3.66081  -4
   6   1  10 3.94324 3.66081   2
  -8   1  10 9.62239 4.34958  -3
   6   1  10 9.62239 4.34958   1
   9   1   9 6.89167 6.25161  -4
 -10   1  10 6.89167 6.25161  -3
 -11   1   9 6.89167 6.25161  -2
   8   1  10 6.89167 6.25161   1
   9   1  10 23.2576 6.76746  -4
 -11   1  10 23.2576 6.76746  -3
 -11   1  10 23.2576 6.76746  -2
   9   1  10 23.2576 6.76746   1
   9   1  11 10.7782 6.41688  -4
 -12   1  10 10.7782 6.41688  -3
 -11   1  11 10.7782 6.41688  -2
  10   1  10 10.7782 6.41688   1
   9   1  12 281.285 18.9398  -4
 -13   1  10 281.285 18.9398  -3
 -11   1  12 281.285 18.9398  -2
  11   1  10 281.285 18.9398   1
   9   1  13 5.81873 8.49009  -4
 -14   1  10 5.81873 8.49009  -3
 -11   1  13 5.81873 8.49009  -2
  12   1  10 5.81873 8.49009   1
 -15   1  10 242.499 18.5181  -3
 -11   1  14 242.499 18.5181  -2
  13   1  10 242.499 18.5181   1
   9   1  14 254.922 19.7194  -4
 -15   1  10 254.922 19.7194  -3
 -11   1  14 254.922 19.7194  -2
  13   1  10 254.922 19.7194   1
 -15   1  10 88.5518 9.01023  -4
  13   1  10 88.5518 9.01023   2
  14   1  10 4.41961 4.50489   2
 -11   2  13 237.904 24.8188  -4
  12   2  10 237.904 24.8188  -3
   9   2  13 237.904 24.8188  -2
 -14   2  10 237.904 24.8188   1
 -11   2  12 -2.1505 6.57584  -4
  11   2  10 -2.1505 6.57584  -3
   9   2  12 -2.1505 6.57584  -2
 -13   2  10 -2.1505 6.57584   1
 -11   2  11 396.692 12.7581  -4
  10   2  10 396.692 12.7581  -3
   9   2  11 396.692 12.7581  -2
 -12   2  10 396.692 12.7581   1
 -11   2  10 -0.7134 2.01176  -4
   9   2  10 -0.7134 2.01176  -3
   9   2  10 -0.7134 2.01176  -2
 -11   2  10 -0.7134 2.01176   1
 -11   2   9 688.505 23.8655  -4
   8   2  10 688.505 23.8655  -3
   9   2   9 688.505 23.8655  -2
 -10   2  10 688.505 23.8655   1
   6   2  10 87.2865 6.81072  -3
  -8   2  10 87.2865 6.81072   1
   5   2  10 10.2023 2.93016  -3
  -7   2  10 10.2023 2.93016   1
   5   2  10 2.22386 3.20382  -4
  -7   2  10 2.22386 3.20382   2
   4   2  10 316.895 14.2852  -4
  -6   2  10 316.895 14.2852   2
   4   2  10 524.695 18.6717  -3
  -6   2  10 524.695 18.6717   1
   3   2  10 61.8863 9.12719  -4
  -5   2  10 61.8863 9.12719   2
   3   2  10 43.6166 4.43353  -3
  -5   2  10 43.6166 4.43353   1
 -10   2   3 976.701 36.1221  -4
   2   2  10 976.701 36.1221  -3
  -4   2  10 976.701 36.1221   1
   2   2  10 563.406 24.7941  -4
 -10   2   3 563.406 24.7941  -3
  -4   2  10 563.406 24.7941   2
 -10   2   2 729.079 25.4914  -4
   1   2  10 729.079 25.4914  -3
  10   2   2 729.079 25.4914  -2
  -3   2  10 729.079 25.4914   1
 -10   2   1 1594.68 32.4905  -4
   0   2  10 1594.68 32.4905  -3
  10   2   1 1594.68 32.4905  -2
  -2   2  10 1594.68 32.4905   1
  10   2   0 1525.94 39.3656  -4
  -1   2  10 1525.94 39.3656  -3
  10   2   0 1525.94 39.3656  -2
  -1   2  10 1525.94 39.3656   1
  10   2   1 1612.65 35.8074  -4
  -2   2  10 1612.65 35.8074  -3
 -10   2   1 1612.65 35.8074  -2
   0   2  10 1612.65 35.8074   1
  10   2   2 725.515 32.0597  -4
  -3   2  10 725.515 32.0597  -3
 -10   2   2 725.515 32.0597  -2
   1   2  10 725.515 32.0597   1
  -4   2  10 831.451 35.9300  -3
 -10   2   3 831.451 35.9300  -2
   2   2  10 831.451 35.9300   1
  -5   2  10 46.3895 6.22708  -4
   3   2  10 46.3895 6.22708   2
  -6   2  10 308.918 13.6020  -4
   4   2  10 308.918 13.6020   2
  -6   2  10 457.874 22.6954  -3
   4   2  10 457.874 22.6954   1
  -7   2  10 1.86875 4.35033  -4
   5   2  10 1.86875 4.35033   2
  -7   2  10 9.77512 4.54621  -3
   5   2  10 9.77512 4.54621   1
  -8   2  10 57.1065 9.95864  -4
   6   2  10 57.1065 9.95864   2
   9   2   8 5.54163 8.71246  -4
  -9   2  10 5.54163 8.71246  -3
   7   2  10 5.54163 8.71246   1
   9   2   8 -3.2595 7.98978  -3
   7   2  10 -3.2595 7.98978   2
   9   2   9 480.239 25.4403  -4
 -10   2  10 480.239 25.4403  -3
 -11   2   9 480.239 25.4403  -2
   8   2  10 480.239 25.4403   1
   9   2  10 -9.3239 6.09070  -4
 -11   2  10 -9.3239 6.09070  -3
 -11   2  10 -9.3239 6.09070  -2
   9   2  10 -9.3239 6.09070   1
   9   2  11 342.224 16.5466  -4
 -12   2  10 342.224 16.5466  -3
 -11   2  11 342.224 16.5466  -2
  10   2  10 342.224 16.5466   1
   9   2  12 1.49171 6.54869  -4
 -13   2  10 1.49171 6.54869  -3
 -11   2  12 1.49171 6.54869  -2
  11   2  10 1.49171 6.54869   1
   9   2  13 206.214 16.7910  -4
 -14   2  10 206.214 16.7910  -3
 -11   2  13 206.214 16.7910  -2
  12   2  10 206.214 16.7910   1
 -15   2  10 1.90493 8.93000  -3
 -11   2  14 1.90493 8.93000  -2
  13   2  10 1.90493 8.93000   1
   9   2  14 2.98184 13.4975  -4
 -15   2  10 2.98184 13.4975  -3
 -11   2  14 2.98184 13.4975  -2
  13   2  10 2.98184 13.4975   1
  13   3  10 57.3978 11.2824  -3
 -15   3  10 57.3978 11.2824   1
 -11   3  13 -2.1806 6.59293  -4
  12   3  10 -2.1806 6.59293  -3
   9   3  13 -2.1806 6.59293  -2
 -14   3  10 -2.1806 6.59293   1
 -11   3  12 162.881 9.09765  -4
  11   3  10 162.881 9.09765  -3
   9   3  12 162.881 9.09765  -2
 -13   3  10 162.881 9.09765   1
 -11   3  11 -1.1509 3.64184  -4
  10   3  10 -1.1509 3.64184  -3
   9   3  11 -1.1509 3.64184  -2
 -12   3  10 -1.1509 3.64184   1
 -11   3  10 216.690 14.9461  -4
   9   3  10 216.690 14.9461  -3
   9   3  10 216.690 14.9461  -2
 -11   3  10 216.690 14.9461   1
 -11   3   9 7.44570 4.45614  -4
   8   3  10 7.44570 4.45614  -3
   9   3   9 7.44570 4.45614  -2
 -10   3  10 7.44570 4.45614   1
  -8   3  10 6.95223 2.95777   1
   6   3  10 4.40072 5.91901  -3
   9   3   7 4.40072 5.91901  -2
  -8   3  10 4.40072 5.91901   1
   5   3  10 314.125 9.85022  -3
  -7   3  10 314.125 9.85022   1
   5   3  10 190.676 11.6698  -4
  -7   3  10 190.676 11.6698   2
   4   3  10 12.3525 2.91247  -3
  -6   3  10 12.3525 2.91247   1
   4   3  10 15.8738 4.42882  -4
  -6   3  10 15.8738 4.42882   2
   3   3  10 212.285 12.6797  -4
  -5   3  10 212.285 12.6797   2
   3   3  10 375.273 17.8497  -3
  -5   3  10 375.273 17.8497   1
 -10   3   3 84.5720 5.16540  -4
   2   3  10 84.5720 5.16540  -3
  -4   3  10 84.5720 5.16540   1
   2   3  10 111.565 10.5685  -4
 -10   3   3 111.565 10.5685  -3
  -4   3  10 111.565 10.5685   2
 -10   3   2 188.670 12.8753  -4
   1   3  10 188.670 12.8753  -3
  10   3   2 188.670 12.8753  -2
  -3   3  10 188.670 12.8753   1
 -10   3   1 74.9163 4.80165  -4
   0   3  10 74.9163 4.80165  -3
  10   3   1 74.9163 4.80165  -2
  -2   3  10 74.9163 4.80165   1
  10   3   0 30.7860 2.27944  -4
  -1   3  10 30.7860 2.27944  -3
  10   3   0 30.7860 2.27944  -2
  -1   3  10 30.7860 2.27944   1
  10   3   1 69.6279 3.58009  -4
  -2   3  10 69.6279 3.58009  -3
 -10   3   1 69.6279 3.58009  -2
   0   3  10 69.6279 3.58009   1
  10   3   2 191.160 13.0010  -4
  -3   3  10 191.160 13.0010  -3
 -10   3   2 191.160 13.0010  -2
   1   3  10 191.160 13.0010   1
  -4   3  10 110.983 14.6966  -3
 -10   3   3 110.983 14.6966  -2
   2   3  10 110.983 14.6966   1
  -5   3  10 229.931 13.7018  -4
   3   3  10 229.931 13.7018   2
  -6   3  10 8.74919 3.83612  -4
   4   3  10 8.74919 3.83612   2
  -6   3  10 15.7941 5.07861  -3
   4   3  10 15.7941 5.07861   1
  -7   3  10 228.802 14.0752  -4
   5   3  10 228.802 14.0752   2
   6   3  10 1.44900 2.47132   3
  -8   3  10 2.31913 3.38128  -4
   6   3  10 2.31913 3.38128   2
   9   3   8 189.047 22.0459  -4
  -9   3  10 189.047 22.0459  -3
 -11   3   8 189.047 22.0459  -2
   7   3  10 189.047 22.0459   1
   9   3   8 133.119 15.2549  -4
  -9   3  10 133.119 15.2549  -3
   7   3  10 133.119 15.2549   1
   9   3   9 13.5972 7.34113  -4
 -10   3  10 13.5972 7.34113  -3
 -11   3   9 13.5972 7.34113  -2
   8   3  10 13.5972 7.34113   1
   8   3  10 0.03644 0.10654   2
   9   3  10 180.469 11.3607  -4
 -11   3  10 180.469 11.3607  -3
 -11   3  10 180.469 11.3607  -2
   9   3  10 180.469 11.3607   1
   9   3  11 2.63793 5.04707  -4
 -12   3  10 2.63793 5.04707  -3
 -11   3  11 2.63793 5.04707  -2
  10   3  10 2.63793 5.04707   1
   9   3  12 124.892 9.92414  -4
 -13   3  10 124.892 9.92414  -3
 -11   3  12 124.892 9.92414  -2
  11   3  10 124.892 9.92414   1
   9   3  13 -0.5054 10.6695  -4
 -14   3  10 -0.5054 10.6695  -3
 -11   3  13 -0.5054 10.6695  -2
  12   3  10 -0.5054 10.6695   1
 -11   3  14 96.3997 13.0540  -2
  13   3  10 96.3997 13.0540   1
   9   3  14 88.7065 17.0426  -4
 -15   3  10 88.7065 17.0426  -3
 -11   3  14 88.7065 17.0426  -2
  13   3  10 88.7065 17.0426   1
 -11   4  13 214.125 13.7542  -4
  12   4  10 214.125 13.7542  -3
   9   4  13 214.125 13.7542  -2
 -14   4  10 214.125 13.7542   1
 -11   4  12 -2.8487 5.93030  -4
  11   4  10 -2.8487 5.93030  -3
   9   4  12 -2.8487 5.93030  -2
 -13   4  10 -2.8487 5.93030   1
 -11   4  11 341.320 13.8823  -4
  10   4  10 341.320 13.8823  -3
   9   4  11 341.320 13.8823  -2
 -12   4  10 341.320 13.8823   1
 -11   4  10 5.83969 4.50985  -4
   9   4  10 5.83969 4.50985  -3
   9   4  10 5.83969 4.50985  -2
 -11   4  10 5.83969 4.50985   1
 -11   4   9 554.664 18.7984  -4
   8   4  10 554.664 18.7984  -3
   9   4   9 554.664 18.7984  -2
 -10   4  10 554.664 18.7984   1
   6   4  10 225.452 24.4346  -4
  -8   4  10 225.452 24.4346   2
   5   4  10 24.8213 5.45411  -4
  -7   4  10 24.8213 5.45411   2
   5   4  10 0.04710 4.66403  -3
  -7   4  10 0.04710 4.66403   1
  -7   4  10 22.4150 3.82244   1
   4   4  10 193.145 10.0912  -4
  -6   4  10 193.145 10.0912   2
   4   4  10 351.872 14.0233  -3
  -6   4  10 351.872 14.0233   1
   3   4  10 5.80386 5.01397  -4
  -5   4  10 5.80386 5.01397   2
   3   4  10 4.47947 3.87099  -3
  -5   4  10 4.47947 3.87099   1
 -10   4   3 61.7864 8.72877  -4
   2   4  10 61.7864 8.72877  -3
  -4   4  10 61.7864 8.72877   1
 -10   4   2 19.0460 10.6881  -4
   1   4  10 19.0460 10.6881  -3
  10   4   2 19.0460 10.6881  -2
  -3   4  10 19.0460 10.6881   1
 -10   4   1 23.9512 3.40059  -4
   0   4  10 23.9512 3.40059  -3
  10   4   1 23.9512 3.40059  -2
  -2   4  10 23.9512 3.40059   1
  10   4   0 3.18636 1.50945  -4
  -1   4  10 3.18636 1.50945  -3
  10   4   0 3.18636 1.50945  -2
  -1   4  10 3.18636 1.50945   1
  10   4   1 30.3928 3.66413  -4
  -2   4  10 30.3928 3.66413  -3
 -10   4   1 30.3928 3.66413  -2
   0   4  10 30.3928 3.66413   1
  10   4   2 23.4340 6.66771  -4
  -3   4  10 23.4340 6.66771  -3
 -10   4   2 23.4340 6.66771  -2
   1   4  10 23.4340 6.66771   1
  10   4   3 63.2031 15.5156  -4
  -4   4  10 63.2031 15.5156  -3
 -10   4   3 63.2031 15.5156  -2
   2   4  10 63.2031 15.5156   1
  -4   4  10 69.9832 8.62206  -3
 -10   4   3 69.9832 8.62206  -2
   2   4  10 69.9832 8.62206   1
  -5   4  10 27.7252 7.80604  -4
   3   4  10 27.7252 7.80604   2
  -6   4  10 334.963 25.7336  -3
   4   4  10 334.963 25.7336   1
  -6   4  10 239.741 14.5650  -4
   4   4  10 239.741 14.5650   2
  -7   4  10 25.2665 6.03073  -3
   5   4  10 25.2665 6.03073   1
  -7   4  10 9.47294 5.29030  -4
   5   4  10 9.47294 5.29030   2
   5   4  10 3.53844 3.88385   3
  -9   4  10 26.7659 11.7235  -4
   9   4   8 26.7659 11.7235  -3
   7   4  10 26.7659 11.7235   2
   9   4   8 31.3049 9.11472  -4
  -9   4  10 31.3049 9.11472  -3
   7   4  10 31.3049 9.11472   1
   9   4   9 549.532 24.9923  -4
 -10   4  10 549.532 24.9923  -3
 -11   4   9 549.532 24.9923  -2
   8   4  10 549.532 24.9923   1
   9   4  10 11.8832 5.76906  -4
 -11   4  10 11.8832 5.76906  -3
 -11   4  10 11.8832 5.76906  -2
   9   4  10 11.8832 5.76906   1
   9   4  11 361.590 16.6836  -4
 -12   4  10 361.590 16.6836  -3
 -11   4  11 361.590 16.6836  -2
  10   4  10 361.590 16.6836   1
   9   4  12 11.0070 6.56326  -4
 -13   4  10 11.0070 6.56326  -3
 -11   4  12 11.0070 6.56326  -2
  11   4  10 11.0070 6.56326   1
   9   4  13 180.172 20.2013  -4
 -14   4  10 180.172 20.2013  -3
 -11   4  13 180.172 20.2013  -2
  12   4  10 180.172 20.2013   1
 -11   5  12 230.182 14.0622  -4
  11   5  10 230.182 14.0622  -3
   9   5  12 230.182 14.0622  -2
 -13   5  10 230.182 14.0622   1
 -11   5  11 4.97096 4.32002  -4
  10   5  10 4.97096 4.32002  -3
   9   5  11 4.97096 4.32002  -2
 -12   5  10 4.97096 4.32002   1
 -11   5  10 100.581 7.42686  -4
   9   5  10 100.581 7.42686  -3
   9   5  10 100.581 7.42686  -2
 -11   5  10 100.581 7.42686   1
 -11   5   9 12.8913 4.88649  -4
   8   5  10 12.8913 4.88649  -3
   9   5   9 12.8913 4.88649  -2
 -10   5  10 12.8913 4.88649   1
 -11   5   8 198.736 21.7805  -4
   7   5  10 198.736 21.7805  -3
   9   5   8 198.736 21.7805  -2
  -9   5  10 198.736 21.7805   1
   6   5  10 1.51113 7.64368  -3
   9   5   7 1.51113 7.64368  -2
  -8   5  10 1.51113 7.64368   1
   6   5  10 10.6780 4.17944  -4
  -8   5  10 10.6780 4.17944   2
   5   5  10 274.949 13.0884  -3
  -7   5  10 274.949 13.0884   1
   5   5  10 154.037 5.85108  -4
  -7   5  10 154.037 5.85108   2
   4   5  10 16.1667 2.70204  -4
  -6   5  10 16.1667 2.70204   2
  -6   5  10 27.4505 6.79155   1
   4   5  10 9.76522 4.03272  -3
  -6   5  10 9.76522 4.03272   1
   3   5  10 146.572 9.12978  -4
  -5   5  10 146.572 9.12978   2
   3   5  10 262.393 14.6155  -3
  -5   5  10 262.393 14.6155   1
 -10   5   3 76.2976 10.1507  -4
   2   5  10 76.2976 10.1507  -3
  -4   5  10 76.2976 10.1507   1
   2   5  10 78.8122 8.20613  -4
 -10   5   3 78.8122 8.20613  -3
  -4   5  10 78.8122 8.20613   2
 -10   5   2 309.345 16.5706  -4
   1   5  10 309.345 16.5706  -3
  10   5   2 309.345 16.5706  -2
  -3   5  10 309.345 16.5706   1
 -10   5   1 233.165 10.8386  -4
   0   5  10 233.165 10.8386  -3
  10   5   1 233.165 10.8386  -2
  -2   5  10 233.165 10.8386   1
  10   5   0 202.067 6.81666  -4
  -1   5  10 202.067 6.81666  -3
  10   5   0 202.067 6.81666  -2
  -1   5  10 202.067 6.81666   1
  10   5   1 223.008 11.6173  -4
  -2   5  10 223.008 11.6173  -3
 -10   5   1 223.008 11.6173  -2
   0   5  10 223.008 11.6173   1
  10   5   2 322.581 14.8721  -4
  -3   5  10 322.581 14.8721  -3
 -10   5   2 322.581 14.8721  -2
   1   5  10 322.581 14.8721   1
  -4   5  10 64.8397 9.39866  -3
 -10   5   3 64.8397 9.39866  -2
   2   5  10 64.8397 9.39866   1
  10   5   3 164.068 18.6315  -4
  -4   5  10 164.068 18.6315  -3
 -10   5   3 164.068 18.6315  -2
   2   5  10 164.068 18.6315   1
  -5   5  10 273.756 18.1914  -3
   3   5  10 273.756 18.1914   1
  -5   5  10 173.082 11.9608  -4
   3   5  10 173.082 11.9608   2
   4   5  10 -3.8100 4.25110   3
  -6   5  10 17.7856 4.55745  -4
   4   5  10 17.7856 4.55745   2
  -6   5  10 25.8753 7.98191  -3
   4   5  10 25.8753 7.98191   1
  -7   5  10 241.883 16.6737  -3
   5   5  10 241.883 16.6737   1
  -7   5  10 177.752 10.7245  -4
   5   5  10 177.752 10.7245   2
   5   5  10 80.3791 5.58600   3
  -8   5  10 19.2269 9.24288  -4
   6   5  10 19.2269 9.24288   2
  -8   5  10 5.71754 6.94701  -4
   9   5   7 5.71754 6.94701  -3
   6   5  10 5.71754 6.94701   2
  -9   5  10 103.681 17.6330  -4
   9   5   8 103.681 17.6330  -3
   7   5  10 103.681 17.6330   2
   9   5   8 124.915 15.1639  -4
  -9   5  10 124.915 15.1639  -3
   7   5  10 124.915 15.1639   1
   9   5   9 6.74692 10.2212  -4
 -10   5  10 6.74692 10.2212  -3
 -11   5   9 6.74692 10.2212  -2
   8   5  10 6.74692 10.2212   1
   9   5  10 75.2076 7.45540  -4
 -11   5  10 75.2076 7.45540  -3
 -11   5  10 75.2076 7.45540  -2
   9   5  10 75.2076 7.45540   1
   9   5  11 9.07835 7.71330  -4
 -12   5  10 9.07835 7.71330  -3
 -11   5  11 9.07835 7.71330  -2
  10   5  10 9.07835 7.71330   1
   9   5  12 189.226 20.2913  -4
 -13   5  10 189.226 20.2913  -3
 -11   5  12 189.226 20.2913  -2
  11   5  10 189.226 20.2913   1
 -11   6  10 -1.1644 4.44494  -4
   9   6  10 -1.1644 4.44494  -3
   9   6  10 -1.1644 4.44494  -2
 -11   6  10 -1.1644 4.44494   1
 -11   6   9 327.200 13.9975  -4
   8   6  10 327.200 13.9975  -3
   9   6   9 327.200 13.9975  -2
 -10   6  10 327.200 13.9975   1
 -11   6   8 -1.9325 13.0440  -4
   7   6  10 -1.9325 13.0440  -3
   9   6   8 -1.9325 13.0440  -2
  -9   6  10 -1.9325 13.0440   1
   6   6  10 48.8455 15.7817  -4
  -8   6  10 48.8455 15.7817   2
   6   6  10 264.937 22.7675  -3
   9   6   7 264.937 22.7675  -2
  -8   6  10 264.937 22.7675   1
   5   6  10 9.22828 6.52427  -4
  -7   6  10 9.22828 6.52427   2
   5   6  10 1.50596 5.11058  -3
  -7   6  10 1.50596 5.11058   1
   4   6  10 21.4860 4.83083  -3
  -6   6  10 21.4860 4.83083   1
   4   6  10 4.21703 6.83665  -4
  -6   6  10 4.21703 6.83665   2
  -6   6  10 21.7387 7.44689   1
   3   6  10 2.23291 4.83786  -3
  -5   6  10 2.23291 4.83786   1
   3   6  10 53.7948 15.7158  -4
 -10   6   4 53.7948 15.7158  -3
  -5   6  10 53.7948 15.7158   2
 -10   6   3 211.716 12.7711  -4
   2   6  10 211.716 12.7711  -3
  -4   6  10 211.716 12.7711   1
 -10   6   2 302.822 16.4322  -4
   1   6  10 302.822 16.4322  -3
  10   6   2 302.822 16.4322  -2
  -3   6  10 302.822 16.4322   1
 -10   6   1 440.142 16.8809  -4
   0   6  10 440.142 16.8809  -3
  10   6   1 440.142 16.8809  -2
  -2   6  10 440.142 16.8809   1
  10   6   0 195.590 7.13474  -4
  -1   6  10 195.590 7.13474  -3
  10   6   0 195.590 7.13474  -2
  -1   6  10 195.590 7.13474   1
  10   6   1 404.389 17.6347  -4
  -2   6  10 404.389 17.6347  -3
 -10   6   1 404.389 17.6347  -2
   0   6  10 404.389 17.6347   1
  10   6   2 284.468 16.5254  -4
  -3   6  10 284.468 16.5254  -3
 -10   6   2 284.468 16.5254  -2
   1   6  10 284.468 16.5254   1
  -4   6  10 188.384 16.7152  -3
 -10   6   3 188.384 16.7152  -2
   2   6  10 188.384 16.7152   1
  -5   6  10 9.33866 7.97092  -4
   3   6  10 9.33866 7.97092   2
  -5   6  10 -0.9056 3.91684  -3
   3   6  10 -0.9056 3.91684   1
  -6   6  10 17.9931 7.16273  -3
   4   6  10 17.9931 7.16273   1
   4   6  10 25.3985 9.97239   3
  -6   6  10 25.4142 5.05562  -4
   4   6  10 25.4142 5.05562   2
  -7   6  10 2.80396 3.35535  -4
   5   6  10 2.80396 3.35535   2
  -7   6  10 19.2654 5.84502  -3
   5   6  10 19.2654 5.84502   1
  -8   6  10 200.783 19.4898  -4
   9   6   7 200.783 19.4898  -3
   6   6  10 200.783 19.4898   2
  -8   6  10 112.516 14.0699  -3
   6   6  10 112.516 14.0699   1
  -8   6  10 87.5467 15.9238  -4
   6   6  10 87.5467 15.9238   2
   9   6   9 207.023 21.8238  -4
 -10   6  10 207.023 21.8238  -3
 -11   6   9 207.023 21.8238  -2
   8   6  10 207.023 21.8238   1
   9   6  10 6.34062 7.80614  -4
 -11   6  10 6.34062 7.80614  -3
 -11   6  10 6.34062 7.80614  -2
   9   6  10 6.34062 7.80614   1
   6   7  10 8.48731 10.3637  -3
   9   7   7 8.48731 10.3637  -2
  -8   7  10 8.48731 10.3637   1
   6   7  10 1.40443 13.6586  -4
  -8   7  10 1.40443 13.6586   2
   5   7  10 152.736 11.6720  -3
  -7   7  10 152.736 11.6720   1
   5   7  10 94.8533 9.00022  -4
  -7   7  10 94.8533 9.00022   2
   4   7  10 0.27368 4.46448  -3
  -6   7  10 0.27368 4.46448   1
   3   7  10 69.6728 19.2092  -4
 -10   7   4 69.6728 19.2092  -3
  -5   7  10 69.6728 19.2092   2
   3   7  10 84.9125 11.5044  -3
  -5   7  10 84.9125 11.5044   1
 -10   7   3 22.1358 8.52870  -4
   2   7  10 22.1358 8.52870  -3
  -4   7  10 22.1358 8.52870   1
 -10   7   2 85.6934 11.0742  -4
   1   7  10 85.6934 11.0742  -3
  10   7   2 85.6934 11.0742  -2
  -3   7  10 85.6934 11.0742   1
 -10   7   1 44.8237 5.66781  -4
   0   7  10 44.8237 5.66781  -3
  10   7   1 44.8237 5.66781  -2
  -2   7  10 44.8237 5.66781   1
  10   7   0 30.0130 3.78108  -4
  -1   7  10 30.0130 3.78108  -3
  10   7   0 30.0130 3.78108  -2
  -1   7  10 30.0130 3.78108   1
  10   7   1 39.4450 4.77097  -4
  -2   7  10 39.4450 4.77097  -3
 -10   7   1 39.4450 4.77097  -2
   0   7  10 39.4450 4.77097   1
  10   7   2 77.3798 7.35554  -4
  -3   7  10 77.3798 7.35554  -3
 -10   7   2 77.3798 7.35554  -2
   1   7  10 77.3798 7.35554   1
  10   7   3 65.5786 15.2428  -4
  -4   7  10 65.5786 15.2428  -3
 -10   7   3 65.5786 15.2428  -2
   2   7  10 65.5786 15.2428   1
  -4   7  10 21.5390 7.75926  -3
 -10   7   3 21.5390 7.75926  -2
   2   7  10 21.5390 7.75926   1
  -5   7  10 75.2143 9.93521  -4
   3   7  10 75.2143 9.93521   2
  -5   7  10 92.4895 11.0018  -3
   3   7  10 92.4895 11.0018   1
  -6   7  10 6.04116 6.94548  -4
   4   7  10 6.04116 6.94548   2
  -6   7  10 8.18973 7.35300  -3
   4   7  10 8.18973 7.35300   1
   4   7  10 12.2839 8.21689   3
  -7   7  10 95.7794 12.4903  -3
   5   7  10 95.7794 12.4903   1
  -7   7  10 86.7095 8.32852  -4
   5   7  10 86.7095 8.32852   2
   9   7   8 107.878 17.3574  -4
  -9   7  10 107.878 17.3574  -3
 -11   7   8 107.878 17.3574  -2
   7   7  10 107.878 17.3574   1
   9   7   8 67.0114 16.5680  -3
   7   7  10 67.0114 16.5680   2
   3   8  10 -0.6237 6.37197  -3
  -5   8  10 -0.6237 6.37197   1
 -10   8   3 62.7875 12.3135  -4
   2   8  10 62.7875 12.3135  -3
  -4   8  10 62.7875 12.3135   1
 -10   8   2 39.3692 10.0118  -4
   1   8  10 39.3692 10.0118  -3
  10   8   2 39.3692 10.0118  -2
  -3   8  10 39.3692 10.0118   1
 -10   8   1 30.6971 8.98927  -4
   0   8  10 30.6971 8.98927  -3
  10   8   1 30.6971 8.98927  -2
  -2   8  10 30.6971 8.98927   1
  10   8   0 15.2210 6.79717  -4
  -1   8  10 15.2210 6.79717  -3
  10   8   0 15.2210 6.79717  -2
  -1   8  10 15.2210 6.79717   1
  10   8   1 17.2028 4.65841  -4
  -2   8  10 17.2028 4.65841  -3
 -10   8   1 17.2028 4.65841  -2
   0   8  10 17.2028 4.65841   1
  10   8   2 28.2105 7.32230  -4
  -3   8  10 28.2105 7.32230  -3
 -10   8   2 28.2105 7.32230  -2
   1   8  10 28.2105 7.32230   1
  -4   8  10 63.4285 7.65448  -3
 -10   8   3 63.4285 7.65448  -2
   2   8  10 63.4285 7.65448   1
  -5   8  10 9.69023 10.1598  -4
   3   8  10 9.69023 10.1598   2
  -5   8  10 -0.0996 6.75252  -3
   3   8  10 -0.0996 6.75252   1
  -6   8  10 93.8009 22.5666  -3
   4   8  10 93.8009 22.5666   1
 -12   0  13 -1.4916 8.44256  -4
  12   0  11 -1.4916 8.44256  -3
  10   0  13 -1.4916 8.44256  -2
 -14   0  11 -1.4916 8.44256   1
 -12   0  12 143.669 10.6088  -4
  11   0  11 143.669 10.6088  -3
  10   0  12 143.669 10.6088  -2
 -13   0  11 143.669 10.6088   1
 -12   0  11 0.89219 3.52316  -4
  10   0  11 0.89219 3.52316  -3
  10   0  11 0.89219 3.52316  -2
 -12   0  11 0.89219 3.52316   1
 -12   0  10 534.612 18.8013  -4
   9   0  11 534.612 18.8013  -3
  10   0  10 534.612 18.8013  -2
 -11   0  11 534.612 18.8013   1
 -12   0   9 15.9438 4.45901  -4
   8   0  11 15.9438 4.45901  -3
  10   0   9 15.9438 4.45901  -2
 -10   0  11 15.9438 4.45901   1
   5   0  11 21.5818 7.13609  -4
  -7   0  11 21.5818 7.13609   2
   5   0  11 14.8203 2.79047  -3
  -7   0  11 14.8203 2.79047   1
   4   0  11 0.80926 1.99791  -3
  -6   0  11 0.80926 1.99791   1
   4   0  11 8.26853 4.13504  -4
  -6   0  11 8.26853 4.13504   2
   3   0  11 8.03982 4.97190  -4
  -5   0  11 8.03982 4.97190   2
   3   0  11 22.3305 6.27776  -3
  -5   0  11 22.3305 6.27776   1
   2   0  11 31.6787 8.14050  -4
 -11   0   3 31.6787 8.14050  -3
  -4   0  11 31.6787 8.14050   2
 -11   0   3 23.0104 3.42341  -4
   2   0  11 23.0104 3.42341  -3
  -4   0  11 23.0104 3.42341   1
 -11   0   3 31.5335 7.51982  -4
   2   0  11 31.5335 7.51982  -3
  11   0   3 31.5335 7.51982  -2
  -4   0  11 31.5335 7.51982   1
 -11   0   2 337.881 17.3009  -4
   1   0  11 337.881 17.3009  -3
  11   0   2 337.881 17.3009  -2
  -3   0  11 337.881 17.3009   1
 -11   0   1 417.219 19.7946  -4
   0   0  11 417.219 19.7946  -3
  11   0   1 417.219 19.7946  -2
  -2   0  11 417.219 19.7946   1
  11   0   0 567.822 25.2804  -4
  -1   0  11 567.822 25.2804  -3
  11   0   0 567.822 25.2804  -2
  -1   0  11 567.822 25.2804   1
  11   0   1 331.506 24.1752  -4
  -2   0  11 331.506 24.1752  -3
 -11   0   1 331.506 24.1752  -2
   0   0  11 331.506 24.1752   1
  11   0   2 350.530 25.4034  -4
  -3   0  11 350.530 25.4034  -3
 -11   0   2 350.530 25.4034  -2
   1   0  11 350.530 25.4034   1
  11   0   3 29.4367 8.54305  -4
  -4   0  11 29.4367 8.54305  -3
 -11   0   3 29.4367 8.54305  -2
   2   0  11 29.4367 8.54305   1
  -5   0  11 29.1564 7.72030  -3
 -11   0   4 29.1564 7.72030  -2
   3   0  11 29.1564 7.72030   1
  -5   0  11 12.3334 5.55064  -4
   3   0  11 12.3334 5.55064   2
  -6   0  11 -1.7630 4.75051  -3
   4   0  11 -1.7630 4.75051   1
  -6   0  11 5.44323 5.15409  -4
   4   0  11 5.44323 5.15409   2
  -7   0  11 12.2715 7.23245  -4
   5   0  11 12.2715 7.23245   2
  -8   0  11 2.94169 4.53976  -3
   6   0  11 2.94169 4.53976   1
  -8   0  11 -2.7846 4.75644  -4
   6   0  11 -2.7846 4.75644   2
  10   0   8 346.662 27.7940  -4
  -9   0  11 346.662 27.7940  -3
   7   0  11 346.662 27.7940   1
  10   0  10 421.577 33.3615  -4
 -11   0  11 421.577 33.3615  -3
 -12   0  10 421.577 33.3615  -2
   9   0  11 421.577 33.3615   1
  10   0  11 -0.2943 7.18751  -4
 -12   0  11 -0.2943 7.18751  -3
 -12   0  11 -0.2943 7.18751  -2
  10   0  11 -0.2943 7.18751   1
  10   0  12 83.7394 14.7425  -4
 -13   0  11 83.7394 14.7425  -3
 -12   0  12 83.7394 14.7425  -2
  11   0  11 83.7394 14.7425   1
  10   0  13 5.60032 10.7674  -4
 -14   0  11 5.60032 10.7674  -3
 -12   0  13 5.60032 10.7674  -2
  12   0  11 5.60032 10.7674   1
  10   0  14 31.3909 16.7429  -4
 -15   0  11 31.3909 16.7429  -3
 -12   0  14 31.3909 16.7429  -2
  13   0  11 31.3909 16.7429   1
 -15   0  11 54.7667 15.2552  -3
 -12   0  14 54.7667 15.2552  -2
  13   0  11 54.7667 15.2552   1
  13   1  11 -0.1448 7.99553  -3
 -15   1  11 -0.1448 7.99553   1
 -12   1  13 274.039 22.9740  -4
  12   1  11 274.039 22.9740  -3
  10   1  13 274.039 22.9740  -2
 -14   1  11 274.039 22.9740   1
 -12   1  12 5.45276 3.90431  -4
  11   1  11 5.45276 3.90431  -3
  10   1  12 5.45276 3.90431  -2
 -13   1  11 5.45276 3.90431   1
 -12   1  11 397.686 14.2359  -4
  10   1  11 397.686 14.2359  -3
  10   1  11 397.686 14.2359  -2
 -12   1  11 397.686 14.2359   1
 -12   1  10 0.61733 2.46432  -4
   9   1  11 0.61733 2.46432  -3
  10   1  10 0.61733 2.46432  -2
 -11   1  11 0.61733 2.46432   1
 -12   1   9 178.055 7.07228  -4
   8   1  11 178.055 7.07228  -3
  10   1   9 178.055 7.07228  -2
 -10   1  11 178.055 7.07228   1
   6   1  11 106.301 5.51715  -3
  10   1   7 106.301 5.51715  -2
  -8   1  11 106.301 5.51715   1
   6   1  11 74.5864 8.17896  -3
  -8   1  11 74.5864 8.17896   1
   5   1  11 11.3166 3.15621  -4
  -7   1  11 11.3166 3.15621   2
   5   1  11 5.63586 1.55280  -3
  -7   1  11 5.63586 1.55280   1
   4   1  11 191.299 10.5895  -4
  -6   1  11 191.299 10.5895   2
   4   1  11 304.612 9.63013  -3
  -6   1  11 304.612 9.63013   1
   3   1  11 13.1842 2.93153  -3
  -5   1  11 13.1842 2.93153   1
   3   1  11 21.7570 4.84651  -4
  -5   1  11 21.7570 4.84651   2
 -11   1   3 162.857 7.99328  -4
   2   1  11 162.857 7.99328  -3
  -4   1  11 162.857 7.99328   1
 -11   1   3 160.395 14.5638  -4
   2   1  11 160.395 14.5638  -3
  11   1   3 160.395 14.5638  -2
  -4   1  11 160.395 14.5638   1
   2   1  11 102.469 9.28753  -4
 -11   1   3 102.469 9.28753  -3
  -4   1  11 102.469 9.28753   2
 -11   1   2 49.2571 6.48561  -4
   1   1  11 49.2571 6.48561  -3
  11   1   2 49.2571 6.48561  -2
  -3   1  11 49.2571 6.48561   1
 -11   1   1 231.869 6.73498  -4
   0   1  11 231.869 6.73498  -3
  11   1   1 231.869 6.73498  -2
  -2   1  11 231.869 6.73498   1
  11   1   0 172.601 10.8738  -4
  -1   1  11 172.601 10.8738  -3
  11   1   0 172.601 10.8738  -2
  -1   1  11 172.601 10.8738   1
  11   1   1 200.720 12.1908  -4
  -2   1  11 200.720 12.1908  -3
 -11   1   1 200.720 12.1908  -2
   0   1  11 200.720 12.1908   1
  11   1   2 54.2336 10.0130  -4
  -3   1  11 54.2336 10.0130  -3
 -11   1   2 54.2336 10.0130  -2
   1   1  11 54.2336 10.0130   1
  11   1   3 168.145 16.5918  -4
  -4   1  11 168.145 16.5918  -3
 -11   1   3 168.145 16.5918  -2
   2   1  11 168.145 16.5918   1
  -5   1  11 22.8987 4.89974  -4
   3   1  11 22.8987 4.89974   2
   4   1  11 176.346 12.5610   2
  -6   1  11 199.042 8.12536  -4
   4   1  11 199.042 8.12536   2
  -6   1  11 271.284 15.5145  -3
   4   1  11 271.284 15.5145   1
  -7   1  11 7.48868 3.04134  -4
   5   1  11 7.48868 3.04134   2
  10   1   7 85.2762 13.2895  -4
  -8   1  11 85.2762 13.2895  -3
   6   1  11 85.2762 13.2895   1
  -8   1  11 64.2292 9.76710  -3
   6   1  11 64.2292 9.76710   1
  -8   1  11 31.1247 4.55579  -4
   6   1  11 31.1247 4.55579   2
  -8   1  11 85.1399 12.8498  -4
  10   1   7 85.1399 12.8498  -3
   6   1  11 85.1399 12.8498   2
  10   1   8 -1.0114 4.97680  -4
  -9   1  11 -1.0114 4.97680  -3
   7   1  11 -1.0114 4.97680   1
  10   1   9 132.752 16.4539  -4
 -10   1  11 132.752 16.4539  -3
 -12   1   9 132.752 16.4539  -2
   8   1  11 132.752 16.4539   1
  10   1  10 5.46169 5.80980  -4
 -11   1  11 5.46169 5.80980  -3
 -12   1  10 5.46169 5.80980  -2
   9   1  11 5.46169 5.80980   1
  10   1  11 316.828 20.2503  -4
 -12   1  11 316.828 20.2503  -3
 -12   1  11 316.828 20.2503  -2
  10   1  11 316.828 20.2503   1
  10   1  12 9.63554 5.44992  -4
 -13   1  11 9.63554 5.44992  -3
 -12   1  12 9.63554 5.44992  -2
  11   1  11 9.63554 5.44992   1
  10   1  13 267.213 19.3993  -4
 -14   1  11 267.213 19.3993  -3
 -12   1  13 267.213 19.3993  -2
  12   1  11 267.213 19.3993   1
 -15   1  11 4.38327 8.87096  -3
 -12   1  14 4.38327 8.87096  -2
  13   1  11 4.38327 8.87096   1
  10   1  14 -17.056 13.4815  -4
 -15   1  11 -17.056 13.4815  -3
 -12   1  14 -17.056 13.4815  -2
  13   1  11 -17.056 13.4815   1
 -12   2  13 18.0200 10.9880  -4
  12   2  11 18.0200 10.9880  -3
  10   2  13 18.0200 10.9880  -2
 -14   2  11 18.0200 10.9880   1
 -12   2  12 279.415 18.6972  -4
  11   2  11 279.415 18.6972  -3
  10   2  12 279.415 18.6972  -2
 -13   2  11 279.415 18.6972   1
 -12   2  11 -2.9955 4.14020  -4
  10   2  11 -2.9955 4.14020  -3
  10   2  11 -2.9955 4.14020  -2
 -12   2  11 -2.9955 4.14020   1
 -12   2  10 519.176 19.8443  -4
   9   2  11 519.176 19.8443  -3
  10   2  10 519.176 19.8443  -2
 -11   2  11 519.176 19.8443   1
 -12   2   9 21.9989 5.03949  -4
   8   2  11 21.9989 5.03949  -3
  10   2   9 21.9989 5.03949  -2
 -10   2  11 21.9989 5.03949   1
   5   2  11 465.658 15.4485  -3
  -7   2  11 465.658 15.4485   1
   5   2  11 292.233 22.2222  -4
  -7   2  11 292.233 22.2222   2
   4   2  11 11.2402 2.74468  -3
  -6   2  11 11.2402 2.74468   1
   4   2  11 9.80878 3.67937  -4
  -6   2  11 9.80878 3.67937   2
   3   2  11 174.571 11.3804  -3
  -5   2  11 174.571 11.3804   1
   3   2  11 102.202 11.5500  -4
  -5   2  11 102.202 11.5500   2
   2   2  11 27.2357 5.42857  -4
 -11   2   3 27.2357 5.42857  -3
  -4   2  11 27.2357 5.42857   2
 -11   2   3 38.2219 8.62072  -4
   2   2  11 38.2219 8.62072  -3
  11   2   3 38.2219 8.62072  -2
  -4   2  11 38.2219 8.62072   1
 -11   2   3 26.8518 3.70340  -4
   2   2  11 26.8518 3.70340  -3
  -4   2  11 26.8518 3.70340   1
 -11   2   2 53.2125 4.45559  -4
   1   2  11 53.2125 4.45559  -3
  11   2   2 53.2125 4.45559  -2
  -3   2  11 53.2125 4.45559   1
 -11   2   1 61.5711 3.28465  -4
   0   2  11 61.5711 3.28465  -3
  11   2   1 61.5711 3.28465  -2
  -2   2  11 61.5711 3.28465   1
  11   2   0 110.728 5.59433  -4
  -1   2  11 110.728 5.59433  -3
  11   2   0 110.728 5.59433  -2
  -1   2  11 110.728 5.59433   1
  11   2   1 56.6025 6.41030  -4
  -2   2  11 56.6025 6.41030  -3
 -11   2   1 56.6025 6.41030  -2
   0   2  11 56.6025 6.41030   1
  11   2   2 47.0393 6.49311  -4
  -3   2  11 47.0393 6.49311  -3
 -11   2   2 47.0393 6.49311  -2
   1   2  11 47.0393 6.49311   1
  11   2   3 21.7022 8.46285  -4
  -4   2  11 21.7022 8.46285  -3
 -11   2   3 21.7022 8.46285  -2
   2   2  11 21.7022 8.46285   1
  11   2   3 42.4053 7.96031  -3
   2   2  11 42.4053 7.96031   2
  -5   2  11 108.260 9.21253  -4
   3   2  11 108.260 9.21253   2
  -6   2  11 4.95405 3.98094  -4
   4   2  11 4.95405 3.98094   2
  -7   2  11 319.139 14.3475  -4
   5   2  11 319.139 14.3475   2
  -7   2  11 436.380 30.8879  -3
   5   2  11 436.380 30.8879   1
  -8   2  11 17.9260 5.09753  -3
   6   2  11 17.9260 5.09753   1
  -8   2  11 10.4415 4.33842  -4
   6   2  11 10.4415 4.33842   2
  10   2   8 576.297 28.7417  -4
  -9   2  11 576.297 28.7417  -3
   7   2  11 576.297 28.7417   1
  10   2   9 37.2758 11.5529  -4
 -10   2  11 37.2758 11.5529  -3
 -12   2   9 37.2758 11.5529  -2
   8   2  11 37.2758 11.5529   1
  10   2  10 519.820 27.6921  -4
 -11   2  11 519.820 27.6921  -3
 -12   2  10 519.820 27.6921  -2
   9   2  11 519.820 27.6921   1
  10   2  11 15.8389 7.02763  -4
 -12   2  11 15.8389 7.02763  -3
 -12   2  11 15.8389 7.02763  -2
  10   2  11 15.8389 7.02763   1
  10   2  12 278.167 15.2159  -4
 -13   2  11 278.167 15.2159  -3
 -12   2  12 278.167 15.2159  -2
  11   2  11 278.167 15.2159   1
  10   2  13 1.33219 7.49892  -4
 -14   2  11 1.33219 7.49892  -3
 -12   2  13 1.33219 7.49892  -2
  12   2  11 1.33219 7.49892   1
 -12   2  14 34.1364 11.5355  -2
  13   2  11 34.1364 11.5355   1
 -12   3  13 136.088 19.7216  -4
  12   3  11 136.088 19.7216  -3
  10   3  13 136.088 19.7216  -2
 -14   3  11 136.088 19.7216   1
 -12   3  12 1.26172 6.66757  -4
  11   3  11 1.26172 6.66757  -3
  10   3  12 1.26172 6.66757  -2
 -13   3  11 1.26172 6.66757   1
 -12   3  11 50.4639 6.34026  -4
  10   3  11 50.4639 6.34026  -3
  10   3  11 50.4639 6.34026  -2
 -12   3  11 50.4639 6.34026   1
 -12   3  10 4.39020 4.03174  -4
   9   3  11 4.39020 4.03174  -3
  10   3  10 4.39020 4.03174  -2
 -11   3  11 4.39020 4.03174   1
 -12   3   9 309.356 18.7387  -4
   8   3  11 309.356 18.7387  -3
  10   3   9 309.356 18.7387  -2
 -10   3  11 309.356 18.7387   1
   6   3  11 168.578 9.59512  -3
  -8   3  11 168.578 9.59512   1
   6   3  11 196.602 16.3931  -3
  10   3   7 196.602 16.3931  -2
  -8   3  11 196.602 16.3931   1
   5   3  11 10.6415 3.87115  -4
  -7   3  11 10.6415 3.87115   2
   5   3  11 15.4001 3.53016  -3
  -7   3  11 15.4001 3.53016   1
   4   3  11 237.034 12.0593  -4
  -6   3  11 237.034 12.0593   2
   4   3  11 425.996 14.3844  -3
  -6   3  11 425.996 14.3844   1
   3   3  11 31.8743 7.42027  -4
  -5   3  11 31.8743 7.42027   2
 -11   3   3 489.334 21.7037  -4
   2   3  11 489.334 21.7037  -3
  -4   3  11 489.334 21.7037   1
   2   3  11 262.241 18.8932  -4
 -11   3   3 262.241 18.8932  -3
  -4   3  11 262.241 18.8932   2
 -11   3   2 198.352 13.0747  -4
   1   3  11 198.352 13.0747  -3
  11   3   2 198.352 13.0747  -2
  -3   3  11 198.352 13.0747   1
 -11   3   1 204.279 8.59775  -4
   0   3  11 204.279 8.59775  -3
  11   3   1 204.279 8.59775  -2
  -2   3  11 204.279 8.59775   1
  11   3   0 153.478 7.06558  -4
  -1   3  11 153.478 7.06558  -3
  11   3   0 153.478 7.06558  -2
  -1   3  11 153.478 7.06558   1
  11   3   1 199.710 7.46874  -4
  -2   3  11 199.710 7.46874  -3
 -11   3   1 199.710 7.46874  -2
   0   3  11 199.710 7.46874   1
  11   3   2 149.048 11.6932  -4
  -3   3  11 149.048 11.6932  -3
 -11   3   2 149.048 11.6932  -2
   1   3  11 149.048 11.6932   1
  11   3   3 274.158 21.4331  -3
   2   3  11 274.158 21.4331   2
  -5   3  11 28.3532 7.50641  -4
   3   3  11 28.3532 7.50641   2
  -6   3  11 382.070 27.7270  -3
   4   3  11 382.070 27.7270   1
  -6   3  11 275.453 13.3241  -4
   4   3  11 275.453 13.3241   2
  -7   3  11 12.0090 3.80810  -4
   5   3  11 12.0090 3.80810   2
  -7   3  11 18.0227 4.99908  -3
   5   3  11 18.0227 4.99908   1
  -8   3  11 122.754 10.7316  -4
   6   3  11 122.754 10.7316   2
  10   3   8 6.84690 5.45695  -4
  -9   3  11 6.84690 5.45695  -3
   7   3  11 6.84690 5.45695   1
  10   3  10 -7.6913 4.77597  -4
 -11   3  11 -7.6913 4.77597  -3
 -12   3  10 -7.6913 4.77597  -2
   9   3  11 -7.6913 4.77597   1
  10   3  11 46.9835 8.34801  -4
 -12   3  11 46.9835 8.34801  -3
 -12   3  11 46.9835 8.34801  -2
  10   3  11 46.9835 8.34801   1
  10   3  12 14.4127 6.14292  -4
 -13   3  11 14.4127 6.14292  -3
 -12   3  12 14.4127 6.14292  -2
  11   3  11 14.4127 6.14292   1
  10   3  13 116.798 17.0870  -4
 -14   3  11 116.798 17.0870  -3
 -12   3  13 116.798 17.0870  -2
  12   3  11 116.798 17.0870   1
 -12   4  12 230.476 13.9271  -4
  11   4  11 230.476 13.9271  -3
  10   4  12 230.476 13.9271  -2
 -13   4  11 230.476 13.9271   1
 -12   4  11 1.74336 4.63171  -4
  10   4  11 1.74336 4.63171  -3
  10   4  11 1.74336 4.63171  -2
 -12   4  11 1.74336 4.63171   1
 -12   4  10 297.722 14.4920  -4
   9   4  11 297.722 14.4920  -3
  10   4  10 297.722 14.4920  -2
 -11   4  11 297.722 14.4920   1
 -12   4   9 -1.6525 4.66499  -4
   8   4  11 -1.6525 4.66499  -3
  10   4   9 -1.6525 4.66499  -2
 -10   4  11 -1.6525 4.66499   1
   6   4  11 -4.4084 6.54027  -3
  10   4   7 -4.4084 6.54027  -2
  -8   4  11 -4.4084 6.54027   1
   5   4  11 30.9050 4.57201  -4
  -7   4  11 30.9050 4.57201   2
   5   4  11 58.7377 5.54240  -3
  -7   4  11 58.7377 5.54240   1
   4   4  11 -0.2707 4.20442  -3
  -6   4  11 -0.2707 4.20442   1
   4   4  11 1.29107 3.22003  -4
  -6   4  11 1.29107 3.22003   2
   3   4  11 524.979 37.0192  -3
  -5   4  11 524.979 37.0192   1
   3   4  11 331.105 21.1313  -4
  -5   4  11 331.105 21.1313   2
 -11   4   3 312.551 21.3413  -4
   2   4  11 312.551 21.3413  -3
  -4   4  11 312.551 21.3413   1
   2   4  11 420.939 25.5459  -4
 -11   4   3 420.939 25.5459  -3
  -4   4  11 420.939 25.5459   2
 -11   4   2 918.638 26.4889  -4
   1   4  11 918.638 26.4889  -3
  11   4   2 918.638 26.4889  -2
  -3   4  11 918.638 26.4889   1
 -11   4   1 858.798 24.9123  -4
   0   4  11 858.798 24.9123  -3
  11   4   1 858.798 24.9123  -2
  -2   4  11 858.798 24.9123   1
  11   4   0 1523.96 40.5172  -4
  -1   4  11 1523.96 40.5172  -3
  11   4   0 1523.96 40.5172  -2
  -1   4  11 1523.96 40.5172   1
  11   4   1 780.689 36.2368  -4
  -2   4  11 780.689 36.2368  -3
 -11   4   1 780.689 36.2368  -2
   0   4  11 780.689 36.2368   1
  11   4   2 939.517 60.5764  -4
  -3   4  11 939.517 60.5764  -3
 -11   4   2 939.517 60.5764  -2
   1   4  11 939.517 60.5764   1
  -5   4  11 347.265 28.5480  -4
   3   4  11 347.265 28.5480   2
  -6   4  11 1.88538 4.07185  -4
   4   4  11 1.88538 4.07185   2
  -6   4  11 3.58473 4.50938  -3
   4   4  11 3.58473 4.50938   1
  -7   4  11 38.7067 5.41271  -4
   5   4  11 38.7067 5.41271   2
  -7   4  11 40.6975 6.92199  -3
   5   4  11 40.6975 6.92199   1
  -8   4  11 5.43425 5.96101  -4
   6   4  11 5.43425 5.96101   2
  10   4   8 227.942 21.9883  -4
  -9   4  11 227.942 21.9883  -3
 -12   4   8 227.942 21.9883  -2
   7   4  11 227.942 21.9883   1
  -9   4  11 240.540 24.2226  -4
  10   4   8 240.540 24.2226  -3
   7   4  11 240.540 24.2226   2
  10   4  10 188.391 11.4140  -4
 -11   4  11 188.391 11.4140  -3
 -12   4  10 188.391 11.4140  -2
   9   4  11 188.391 11.4140   1
  10   4  11 6.08900 5.32880  -4
 -12   4  11 6.08900 5.32880  -3
 -12   4  11 6.08900 5.32880  -2
  10   4  11 6.08900 5.32880   1
  10   4  12 183.603 12.0470  -4
 -13   4  11 183.603 12.0470  -3
 -12   4  12 183.603 12.0470  -2
  11   4  11 183.603 12.0470   1
 -12   5  11 235.429 11.6280  -4
  10   5  11 235.429 11.6280  -3
  10   5  11 235.429 11.6280  -2
 -12   5  11 235.429 11.6280   1
 -12   5  10 3.47615 4.40211  -4
   9   5  11 3.47615 4.40211  -3
  10   5  10 3.47615 4.40211  -2
 -11   5  11 3.47615 4.40211   1
 -12   5   9 177.985 9.98412  -4
   8   5  11 177.985 9.98412  -3
  10   5   9 177.985 9.98412  -2
 -10   5  11 177.985 9.98412   1
   6   5  11 73.4670 7.39821  -4
  -8   5  11 73.4670 7.39821   2
   5   5  11 4.33595 4.01715  -3
  -7   5  11 4.33595 4.01715   1
   5   5  11 12.2941 3.36279  -4
  -7   5  11 12.2941 3.36279   2
   4   5  11 288.491 15.5511  -3
  -6   5  11 288.491 15.5511   1
   4   5  11 144.411 8.22640  -4
  -6   5  11 144.411 8.22640   2
   3   5  11 -1.1018 4.33958  -4
  -5   5  11 -1.1018 4.33958   2
  -5   5  11 1.63806 5.22647   4
   2   5  11 153.115 11.8070  -4
 -11   5   3 153.115 11.8070  -3
  -4   5  11 153.115 11.8070   2
 -11   5   3 246.305 19.2618  -4
   2   5  11 246.305 19.2618  -3
  -4   5  11 246.305 19.2618   1
 -11   5   2 152.722 19.0144  -4
   1   5  11 152.722 19.0144  -3
  11   5   2 152.722 19.0144  -2
  -3   5  11 152.722 19.0144   1
 -11   5   1 67.4413 5.41234  -4
   0   5  11 67.4413 5.41234  -3
  11   5   1 67.4413 5.41234  -2
  -2   5  11 67.4413 5.41234   1
  11   5   0 45.8573 4.39024  -4
  -1   5  11 45.8573 4.39024  -3
  11   5   0 45.8573 4.39024  -2
  -1   5  11 45.8573 4.39024   1
  11   5   1 76.8437 6.96628  -4
  -2   5  11 76.8437 6.96628  -3
 -11   5   1 76.8437 6.96628  -2
   0   5  11 76.8437 6.96628   1
  11   5   2 88.2623 17.5801  -4
  -3   5  11 88.2623 17.5801  -3
 -11   5   2 88.2623 17.5801  -2
   1   5  11 88.2623 17.5801   1
  -4   5  11 245.961 18.8142  -3
 -11   5   3 245.961 18.8142  -2
   2   5  11 245.961 18.8142   1
  -5   5  11 10.8658 7.31910  -4
   3   5  11 10.8658 7.31910   2
  -6   5  11 158.184 10.0070  -4
   4   5  11 158.184 10.0070   2
  -6   5  11 253.087 17.1917  -3
   4   5  11 253.087 17.1917   1
  -7   5  11 10.9974 5.42234  -3
   5   5  11 10.9974 5.42234   1
  -7   5  11 -0.0434 3.73489  -4
   5   5  11 -0.0434 3.73489   2
  -8   5  11 125.349 16.6894  -4
   6   5  11 125.349 16.6894   2
  10   5   8 18.8260 12.5677  -3
   7   5  11 18.8260 12.5677   2
  10   5   8 11.1056 8.55594  -4
  -9   5  11 11.1056 8.55594  -3
   7   5  11 11.1056 8.55594   1
  10   5   9 165.397 15.0716  -4
 -10   5  11 165.397 15.0716  -3
 -12   5   9 165.397 15.0716  -2
   8   5  11 165.397 15.0716   1
  10   5  10 12.4988 7.86774  -4
 -11   5  11 12.4988 7.86774  -3
 -12   5  10 12.4988 7.86774  -2
   9   5  11 12.4988 7.86774   1
  10   5  11 187.777 20.3583  -4
 -12   5  11 187.777 20.3583  -3
 -12   5  11 187.777 20.3583  -2
  10   5  11 187.777 20.3583   1
 -12   6   9 0.20586 5.55567  -4
   8   6  11 0.20586 5.55567  -3
  10   6   9 0.20586 5.55567  -2
 -10   6  11 0.20586 5.55567   1
   6   6  11 22.6826 11.1054  -3
  10   6   7 22.6826 11.1054  -2
  -8   6  11 22.6826 11.1054   1
   5   6  11 456.832 20.4260  -3
  -7   6  11 456.832 20.4260   1
   5   6  11 293.458 21.0022  -4
  -7   6  11 293.458 21.0022   2
   4   6  11 9.74847 6.48520  -4
  -6   6  11 9.74847 6.48520   2
   4   6  11 7.74082 7.13337  -3
  -6   6  11 7.74082 7.13337   1
  -5   6  11 37.3193 11.1564   4
   3   6  11 165.729 15.8890  -3
  -5   6  11 165.729 15.8890   1
   3   6  11 62.7547 14.7121  -4
  -5   6  11 62.7547 14.7121   2
 -11   6   3 42.5169 14.5108  -3
  -4   6  11 42.5169 14.5108   2
 -11   6   3 19.9822 8.89605  -4
   2   6  11 19.9822 8.89605  -3
  -4   6  11 19.9822 8.89605   1
 -11   6   2 121.633 19.3915  -4
   1   6  11 121.633 19.3915  -3
  11   6   2 121.633 19.3915  -2
  -3   6  11 121.633 19.3915   1
 -11   6   1 33.1364 5.03984  -4
   0   6  11 33.1364 5.03984  -3
  11   6   1 33.1364 5.03984  -2
  -2   6  11 33.1364 5.03984   1
  11   6   0 7.07732 3.28843  -4
  -1   6  11 7.07732 3.28843  -3
  11   6   0 7.07732 3.28843  -2
  -1   6  11 7.07732 3.28843   1
  11   6   1 26.9767 6.41942  -4
  -2   6  11 26.9767 6.41942  -3
 -11   6   1 26.9767 6.41942  -2
   0   6  11 26.9767 6.41942   1
  11   6   2 115.732 12.7993  -4
  -3   6  11 115.732 12.7993  -3
 -11   6   2 115.732 12.7993  -2
   1   6  11 115.732 12.7993   1
  -4   6  11 36.4546 8.62552  -3
 -11   6   3 36.4546 8.62552  -2
   2   6  11 36.4546 8.62552   1
  -5   6  11 114.764 15.6490  -4
   3   6  11 114.764 15.6490   2
  -6   6  11 10.6883 4.57805  -4
   4   6  11 10.6883 4.57805   2
  -6   6  11 20.0832 6.50705  -3
   4   6  11 20.0832 6.50705   1
  -7   6  11 310.109 15.4662  -4
   5   6  11 310.109 15.4662   2
  -7   6  11 413.298 24.7859  -3
   5   6  11 413.298 24.7859   1
  -8   6  11 22.9223 7.12896  -4
   6   6  11 22.9223 7.12896   2
  -8   6  11 27.1855 10.2931  -4
  10   6   7 27.1855 10.2931  -3
   6   6  11 27.1855 10.2931   2
  10   6   8 329.805 32.3457  -3
   7   6  11 329.805 32.3457   2
  10   6   9 30.6961 11.8842  -4
 -10   6  11 30.6961 11.8842  -3
 -12   6   9 30.6961 11.8842  -2
   8   6  11 30.6961 11.8842   1
   6   7  11 188.261 20.2124  -3
  10   7   7 188.261 20.2124  -2
  -8   7  11 188.261 20.2124   1
   5   7  11 2.90489 5.08410  -4
  -7   7  11 2.90489 5.08410   2
   5   7  11 4.57283 5.29475  -3
  -7   7  11 4.57283 5.29475   1
   4   7  11 78.0836 11.5467  -4
  -6   7  11 78.0836 11.5467   2
   4   7  11 220.949 20.4770  -3
  -6   7  11 220.949 20.4770   1
 -11   7   3 276.966 15.4652  -4
   2   7  11 276.966 15.4652  -3
  -4   7  11 276.966 15.4652   1
 -11   7   2 236.673 16.7701  -4
   1   7  11 236.673 16.7701  -3
  11   7   2 236.673 16.7701  -2
  -3   7  11 236.673 16.7701   1
 -11   7   1 265.750 12.2714  -4
   0   7  11 265.750 12.2714  -3
  11   7   1 265.750 12.2714  -2
  -2   7  11 265.750 12.2714   1
  11   7   0 106.454 12.9055  -4
  -1   7  11 106.454 12.9055  -3
  11   7   0 106.454 12.9055  -2
  -1   7  11 106.454 12.9055   1
  11   7   1 248.460 13.8019  -4
  -2   7  11 248.460 13.8019  -3
 -11   7   1 248.460 13.8019  -2
   0   7  11 248.460 13.8019   1
  11   7   2 206.873 18.1816  -4
  -3   7  11 206.873 18.1816  -3
 -11   7   2 206.873 18.1816  -2
   1   7  11 206.873 18.1816   1
  -4   7  11 283.130 22.2951  -3
 -11   7   3 283.130 22.2951  -2
   2   7  11 283.130 22.2951   1
  -5   7  11 19.0695 9.88438  -4
   3   7  11 19.0695 9.88438   2
  -5   7  11 12.6808 6.81129  -3
   3   7  11 12.6808 6.81129   1
  -6   7  11 111.545 7.34752  -4
   4   7  11 111.545 7.34752   2
  -6   7  11 142.583 14.0711  -3
   4   7  11 142.583 14.0711   1
  -7   7  11 0.11859 4.86662  -4
   5   7  11 0.11859 4.86662   2
  -7   7  11 1.73454 6.35714  -3
   5   7  11 1.73454 6.35714   1
  -8   7  11 94.8941 17.0260  -4
   6   7  11 94.8941 17.0260   2
   0   8  11 585.108 42.1751  -4
 -11   8   1 585.108 42.1751  -3
  -2   8  11 585.108 42.1751   2
 -11   8   1 305.603 31.7801  -4
   0   8  11 305.603 31.7801  -3
  11   8   1 305.603 31.7801  -2
  -2   8  11 305.603 31.7801   1
  11   8   0 545.077 44.6542  -4
  -1   8  11 545.077 44.6542  -3
  11   8   0 545.077 44.6542  -2
  -1   8  11 545.077 44.6542   1
  11   8   1 279.043 32.6815  -4
  -2   8  11 279.043 32.6815  -3
 -11   8   1 279.043 32.6815  -2
   0   8  11 279.043 32.6815   1
  -3   8  11 553.336 29.2999  -3
 -11   8   2 553.336 29.2999  -2
   1   8  11 553.336 29.2999   1
 -13   0  13 56.3802 11.3282  -4
  12   0  12 56.3802 11.3282  -3
  11   0  13 56.3802 11.3282  -2
 -14   0  12 56.3802 11.3282   1
 -13   0  12 2.45371 9.70951  -4
  11   0  12 2.45371 9.70951  -3
  11   0  12 2.45371 9.70951  -2
 -13   0  12 2.45371 9.70951   1
 -13   0  11 182.257 9.39704  -4
  10   0  12 182.257 9.39704  -3
  11   0  11 182.257 9.39704  -2
 -12   0  12 182.257 9.39704   1
 -13   0  10 6.77605 4.13255  -4
   9   0  12 6.77605 4.13255  -3
  11   0  10 6.77605 4.13255  -2
 -11   0  12 6.77605 4.13255   1
 -13   0   9 275.679 13.7874  -4
   8   0  12 275.679 13.7874  -3
  11   0   9 275.679 13.7874  -2
 -10   0  12 275.679 13.7874   1
   5   0  12 3.43987 5.17129  -4
  -7   0  12 3.43987 5.17129   2
   5   0  12 -3.3979 2.99977  -3
  -7   0  12 -3.3979 2.99977   1
   4   0  12 60.5266 11.6527  -4
  -6   0  12 60.5266 11.6527   2
   4   0  12 49.4811 7.49959  -3
  -6   0  12 49.4811 7.49959   1
   2   0  12 186.515 18.6046  -4
 -12   0   3 186.515 18.6046  -3
  -4   0  12 186.515 18.6046   2
 -12   0   3 312.513 24.9765  -4
   2   0  12 312.513 24.9765  -3
  12   0   3 312.513 24.9765  -2
  -4   0  12 312.513 24.9765   1
 -12   0   2 159.371 11.0567  -4
   1   0  12 159.371 11.0567  -3
  12   0   2 159.371 11.0567  -2
  -3   0  12 159.371 11.0567   1
 -12   0   1 809.837 34.2604  -4
   0   0  12 809.837 34.2604  -3
  12   0   1 809.837 34.2604  -2
  -2   0  12 809.837 34.2604   1
  12   0   0 871.880 52.5777  -4
  -1   0  12 871.880 52.5777  -3
  12   0   0 871.880 52.5777  -2
  -1   0  12 871.880 52.5777   1
  12   0   1 827.271 50.6015  -4
  -2   0  12 827.271 50.6015  -3
 -12   0   1 827.271 50.6015  -2
   0   0  12 827.271 50.6015   1
  12   0   2 142.493 15.3784  -4
  -3   0  12 142.493 15.3784  -3
 -12   0   2 142.493 15.3784  -2
   1   0  12 142.493 15.3784   1
  12   0   3 292.085 23.6272  -4
  -4   0  12 292.085 23.6272  -3
 -12   0   3 292.085 23.6272  -2
   2   0  12 292.085 23.6272   1
  -5   0  12 13.2496 7.98302  -4
   3   0  12 13.2496 7.98302   2
  -6   0  12 60.5564 9.97808  -3
   4   0  12 60.5564 9.97808   1
  -6   0  12 58.4140 7.78959  -4
   4   0  12 58.4140 7.78959   2
  -7   0  12 2.15255 3.79836  -4
   5   0  12 2.15255 3.79836   2
  -7   0  12 -0.0953 4.61120  -3
   5   0  12 -0.0953 4.61120   1
  -8   0  12 114.042 13.8016  -3
   6   0  12 114.042 13.8016   1
  11   0   8 4.85705 7.17837  -4
  -9   0  12 4.85705 7.17837  -3
   7   0  12 4.85705 7.17837   1
 -10   0  12 212.057 21.8002  -3
 -13   0   9 212.057 21.8002  -2
   8   0  12 212.057 21.8002   1
  11   0  11 182.654 21.0767  -4
 -12   0  12 182.654 21.0767  -3
 -13   0  11 182.654 21.0767  -2
  10   0  12 182.654 21.0767   1
  11   0  12 18.2838 9.76650  -4
 -13   0  12 18.2838 9.76650  -3
 -13   0  12 18.2838 9.76650  -2
  11   0  12 18.2838 9.76650   1
  11   0  13 6.47707 7.83622  -3
  12   0  12 6.47707 7.83622   2
  11   0  13 68.6288 11.8609  -4
 -14   0  12 68.6288 11.8609  -3
 -13   0  13 68.6288 11.8609  -2
  12   0  12 68.6288 11.8609   1
 -13   1  13 15.4879 11.7512  -4
  12   1  12 15.4879 11.7512  -3
  11   1  13 15.4879 11.7512  -2
 -14   1  12 15.4879 11.7512   1
 -13   1  12 155.753 10.9998  -4
  11   1  12 155.753 10.9998  -3
  11   1  12 155.753 10.9998  -2
 -13   1  12 155.753 10.9998   1
 -13   1  11 20.4212 5.21230  -4
  10   1  12 20.4212 5.21230  -3
  11   1  11 20.4212 5.21230  -2
 -12   1  12 20.4212 5.21230   1
 -13   1  10 406.023 10.6851  -4
   9   1  12 406.023 10.6851  -3
  11   1  10 406.023 10.6851  -2
 -11   1  12 406.023 10.6851   1
 -13   1   9 21.5784 5.06467  -4
   8   1  12 21.5784 5.06467  -3
  11   1   9 21.5784 5.06467  -2
 -10   1  12 21.5784 5.06467   1
   7   1  12 465.084 21.8761  -3
  11   1   8 465.084 21.8761  -2
  -9   1  12 465.084 21.8761   1
   6   1  12 11.5901 6.22397  -3
  11   1   7 11.5901 6.22397  -2
  -8   1  12 11.5901 6.22397   1
   6   1  12 20.7235 5.69066  -3
  -8   1  12 20.7235 5.69066   1
   5   1  12 550.025 20.6558  -3
  -7   1  12 550.025 20.6558   1
   5   1  12 439.057 31.4044  -4
  -7   1  12 439.057 31.4044   2
   4   1  12 41.2031 3.81629  -3
  -6   1  12 41.2031 3.81629   1
   4   1  12 58.7778 7.96388  -4
  -6   1  12 58.7778 7.96388   2
   3   1  12 800.412 38.9025  -3
  -5   1  12 800.412 38.9025   1
   2   1  12 677.641 29.6749  -4
 -12   1   3 677.641 29.6749  -3
  -4   1  12 677.641 29.6749   2
 -12   1   3 635.257 39.4398  -4
   2   1  12 635.257 39.4398  -3
  12   1   3 635.257 39.4398  -2
  -4   1  12 635.257 39.4398   1
 -12   1   3 393.330 21.2221  -4
   2   1  12 393.330 21.2221  -3
  -4   1  12 393.330 21.2221   1
 -12   1   2 1212.43 29.1786  -4
   1   1  12 1212.43 29.1786  -3
  12   1   2 1212.43 29.1786  -2
  -3   1  12 1212.43 29.1786   1
 -12   1   1 468.815 22.4674  -4
   0   1  12 468.815 22.4674  -3
  12   1   1 468.815 22.4674  -2
  -2   1  12 468.815 22.4674   1
  12   1   0 362.506 15.1088  -4
  -1   1  12 362.506 15.1088  -3
  12   1   0 362.506 15.1088  -2
  -1   1  12 362.506 15.1088   1
  12   1   1 467.805 22.9244  -4
  -2   1  12 467.805 22.9244  -3
 -12   1   1 467.805 22.9244  -2
   0   1  12 467.805 22.9244   1
  12   1   3 561.129 38.6414  -4
  -4   1  12 561.129 38.6414  -3
 -12   1   3 561.129 38.6414  -2
   2   1  12 561.129 38.6414   1
  -5   1  12 474.368 32.7305  -4
   3   1  12 474.368 32.7305   2
  -5   1  12 681.190 44.2397  -3
   3   1  12 681.190 44.2397   1
  -6   1  12 32.3891 4.04102  -4
   4   1  12 32.3891 4.04102   2
   4   1  12 17.0374 6.55108   1
   5   1  12 287.891 13.8441   3
  -7   1  12 389.209 16.5381  -4
   5   1  12 389.209 16.5381   2
  -7   1  12 496.255 24.8100  -3
   5   1  12 496.255 24.8100   1
  -8   1  12 7.64467 5.33068  -4
   6   1  12 7.64467 5.33068   2
  11   1   8 414.363 31.5557  -4
  -9   1  12 414.363 31.5557  -3
   7   1  12 414.363 31.5557   1
  11   1   8 231.156 22.4909  -4
   7   1  12 231.156 22.4909   1
  11   1   9 11.3773 7.41930  -4
 -10   1  12 11.3773 7.41930  -3
 -13   1   9 11.3773 7.41930  -2
   8   1  12 11.3773 7.41930   1
  11   1  10 357.546 21.6857  -4
 -11   1  12 357.546 21.6857  -3
 -13   1  10 357.546 21.6857  -2
   9   1  12 357.546 21.6857   1
  11   1  11 6.88877 10.0844  -4
 -12   1  12 6.88877 10.0844  -3
 -13   1  11 6.88877 10.0844  -2
  10   1  12 6.88877 10.0844   1
  11   1  12 144.586 13.2714  -4
 -13   1  12 144.586 13.2714  -3
 -13   1  12 144.586 13.2714  -2
  11   1  12 144.586 13.2714   1
  11   1  13 18.9363 9.07959  -3
  12   1  12 18.9363 9.07959   2
  11   1  13 3.73536 7.42246  -4
 -14   1  12 3.73536 7.42246  -3
 -13   1  13 3.73536 7.42246  -2
  12   1  12 3.73536 7.42246   1
 -13   2  13 115.105 16.4016  -3
 -14   2  12 115.105 16.4016   2
 -13   2  13 84.5647 9.27745  -4
 -14   2  12 84.5647 9.27745   1
 -13   2  12 -5.4621 7.46393  -4
  11   2  12 -5.4621 7.46393  -3
  11   2  12 -5.4621 7.46393  -2
 -13   2  12 -5.4621 7.46393   1
 -13   2  11 231.325 16.8493  -4
  10   2  12 231.325 16.8493  -3
  11   2  11 231.325 16.8493  -2
 -12   2  12 231.325 16.8493   1
 -13   2  10 4.81602 4.01019  -4
   9   2  12 4.81602 4.01019  -3
  11   2  10 4.81602 4.01019  -2
 -11   2  12 4.81602 4.01019   1
 -13   2   9 350.863 15.2460  -4
   8   2  12 350.863 15.2460  -3
  11   2   9 350.863 15.2460  -2
 -10   2  12 350.863 15.2460   1
   6   2  12 23.4435 6.36068  -3
  -8   2  12 23.4435 6.36068   1
   5   2  12 4.19313 3.50116  -3
  -7   2  12 4.19313 3.50116   1
   5   2  12 -0.1503 5.12765  -4
  -7   2  12 -0.1503 5.12765   2
   4   2  12 149.829 11.6855  -4
  -6   2  12 149.829 11.6855   2
   4   2  12 200.181 10.5887  -3
  -6   2  12 200.181 10.5887   1
 -12   2   3 523.627 34.4511  -4
   2   2  12 523.627 34.4511  -3
  12   2   3 523.627 34.4511  -2
  -4   2  12 523.627 34.4511   1
   2   2  12 292.845 22.7972  -4
 -12   2   3 292.845 22.7972  -3
  -4   2  12 292.845 22.7972   2
 -12   2   3 497.932 27.3799  -4
   2   2  12 497.932 27.3799  -3
  -4   2  12 497.932 27.3799   1
 -12   2   2 452.751 16.4455  -4
   1   2  12 452.751 16.4455  -3
  12   2   2 452.751 16.4455  -2
  -3   2  12 452.751 16.4455   1
 -12   2   1 1149.62 31.2316  -4
   0   2  12 1149.62 31.2316  -3
  12   2   1 1149.62 31.2316  -2
  -2   2  12 1149.62 31.2316   1
 -12   2   1 741.464 33.8626  -4
  12   2   1 741.464 33.8626  -2
  -2   2  12 741.464 33.8626   1
  12   2   0 924.653 29.7880  -4
  -1   2  12 924.653 29.7880  -3
  12   2   0 924.653 29.7880  -2
  -1   2  12 924.653 29.7880   1
  -2   2  12 702.905 40.7567  -4
  12   2   1 702.905 40.7567  -3
   0   2  12 702.905 40.7567   2
  12   2   1 1141.32 47.7263  -4
  -2   2  12 1141.32 47.7263  -3
 -12   2   1 1141.32 47.7263  -2
   0   2  12 1141.32 47.7263   1
  12   2   2 394.345 29.7451  -4
  -3   2  12 394.345 29.7451  -3
 -12   2   2 394.345 29.7451  -2
   1   2  12 394.345 29.7451   1
  12   2   3 487.019 35.1289  -4
  -4   2  12 487.019 35.1289  -3
 -12   2   3 487.019 35.1289  -2
   2   2  12 487.019 35.1289   1
  -5   2  12 18.4691 5.62808  -4
   3   2  12 18.4691 5.62808   2
  -6   2  12 122.518 8.50117  -4
   4   2  12 122.518 8.50117   2
  -6   2  12 168.694 12.0554  -3
   4   2  12 168.694 12.0554   1
  -7   2  12 1.91076 4.02265  -3
   5   2  12 1.91076 4.02265   1
  -7   2  12 3.84262 4.92940  -4
   5   2  12 3.84262 4.92940   2
  -8   2  12 33.9648 9.68812  -3
   6   2  12 33.9648 9.68812   1
  11   2   8 4.14933 5.98177  -4
  -9   2  12 4.14933 5.98177  -3
   7   2  12 4.14933 5.98177   1
  11   2   9 256.372 17.8873  -4
 -10   2  12 256.372 17.8873  -3
 -13   2   9 256.372 17.8873  -2
   8   2  12 256.372 17.8873   1
   8   2  12 119.654 9.88630   3
   9   2  12 6.32230 2.90763   2
  11   2  10 8.83361 10.7710  -4
 -11   2  12 8.83361 10.7710  -3
 -13   2  10 8.83361 10.7710  -2
   9   2  12 8.83361 10.7710   1
  11   2  11 183.715 15.0298  -4
 -12   2  12 183.715 15.0298  -3
 -13   2  11 183.715 15.0298  -2
  10   2  12 183.715 15.0298   1
  11   2  12 1.56890 6.11829  -4
 -13   2  12 1.56890 6.11829  -3
 -13   2  12 1.56890 6.11829  -2
  11   2  12 1.56890 6.11829   1
  11   2  13 60.2733 14.8634  -4
 -14   2  12 60.2733 14.8634  -3
 -13   2  13 60.2733 14.8634  -2
  12   2  12 60.2733 14.8634   1
 -13   3  12 164.814 15.2329  -4
  11   3  12 164.814 15.2329  -3
  11   3  12 164.814 15.2329  -2
 -13   3  12 164.814 15.2329   1
 -13   3  11 14.9078 5.94131  -4
  10   3  12 14.9078 5.94131  -3
  11   3  11 14.9078 5.94131  -2
 -12   3  12 14.9078 5.94131   1
 -13   3  10 152.288 10.2378  -4
   9   3  12 152.288 10.2378  -3
  11   3  10 152.288 10.2378  -2
 -11   3  12 152.288 10.2378   1
 -13   3   9 12.5513 5.78204  -4
   8   3  12 12.5513 5.78204  -3
  11   3   9 12.5513 5.78204  -2
 -10   3  12 12.5513 5.78204   1
  11   3   7 3.88783 5.99661  -2
  -8   3  12 3.88783 5.99661   1
   6   3  12 5.20972 5.99717  -3
  -8   3  12 5.20972 5.99717   1
   5   3  12 213.906 9.80400  -3
  -7   3  12 213.906 9.80400   1
   5   3  12 131.502 11.2085  -4
  -7   3  12 131.502 11.2085   2
   4   3  12 12.0464 3.83805  -3
  -6   3  12 12.0464 3.83805   1
   4   3  12 13.6429 5.01333  -4
  -6   3  12 13.6429 5.01333   2
   3   3  12 257.698 20.0228  -4
  -5   3  12 257.698 20.0228   2
 -12   3   3 182.274 18.5472  -4
   2   3  12 182.274 18.5472  -3
  12   3   3 182.274 18.5472  -2
  -4   3  12 182.274 18.5472   1
 -12   3   3 74.4115 7.67587  -4
   2   3  12 74.4115 7.67587  -3
  -4   3  12 74.4115 7.67587   1
   2   3  12 95.2081 11.5246  -4
 -12   3   3 95.2081 11.5246  -3
  -4   3  12 95.2081 11.5246   2
 -12   3   2 183.910 9.46544  -4
   1   3  12 183.910 9.46544  -3
  12   3   2 183.910 9.46544  -2
  -3   3  12 183.910 9.46544   1
 -12   3   1 115.467 7.22882  -4
   0   3  12 115.467 7.22882  -3
  12   3   1 115.467 7.22882  -2
  -2   3  12 115.467 7.22882   1
  12   3   0 117.507 7.79372  -4
  -1   3  12 117.507 7.79372  -3
  12   3   0 117.507 7.79372  -2
  -1   3  12 117.507 7.79372   1
  -1   3  12 70.4123 6.02423   1
  -1   3  12 64.8674 4.76083   3
  12   3   1 121.104 8.61486  -4
  -2   3  12 121.104 8.61486  -3
 -12   3   1 121.104 8.61486  -2
   0   3  12 121.104 8.61486   1
  12   3   2 193.411 19.9724  -4
  -3   3  12 193.411 19.9724  -3
 -12   3   2 193.411 19.9724  -2
   1   3  12 193.411 19.9724   1
  -5   3  12 316.990 18.0896  -4
   3   3  12 316.990 18.0896   2
  -6   3  12 2.92444 4.42867  -4
   4   3  12 2.92444 4.42867   2
  -6   3  12 8.64298 4.94706  -3
   4   3  12 8.64298 4.94706   1
  -7   3  12 187.788 13.7363  -3
   5   3  12 187.788 13.7363   1
  -7   3  12 146.880 12.0272  -4
   5   3  12 146.880 12.0272   2
  -8   3  12 14.2124 7.65064  -4
   6   3  12 14.2124 7.65064   2
   6   3  12 2.37885 2.94821   3
  -8   3  12 4.61030 7.78668  -3
   6   3  12 4.61030 7.78668   1
  11   3   8 166.253 13.8041  -4
  -9   3  12 166.253 13.8041  -3
   7   3  12 166.253 13.8041   1
 -10   3  12 15.8488 8.95538  -3
 -13   3   9 15.8488 8.95538  -2
   8   3  12 15.8488 8.95538   1
  11   3  10 146.840 13.4093  -4
 -11   3  12 146.840 13.4093  -3
 -13   3  10 146.840 13.4093  -2
   9   3  12 146.840 13.4093   1
  11   3  11 3.52861 5.60089  -4
 -12   3  12 3.52861 5.60089  -3
 -13   3  11 3.52861 5.60089  -2
  10   3  12 3.52861 5.60089   1
  11   3  12 178.691 20.5667  -4
 -13   3  12 178.691 20.5667  -3
 -13   3  12 178.691 20.5667  -2
  11   3  12 178.691 20.5667   1
 -13   4  11 318.729 15.8439  -4
  10   4  12 318.729 15.8439  -3
  11   4  11 318.729 15.8439  -2
 -12   4  12 318.729 15.8439   1
 -13   4  10 7.53513 5.91399  -4
   9   4  12 7.53513 5.91399  -3
  11   4  10 7.53513 5.91399  -2
 -11   4  12 7.53513 5.91399   1
 -13   4   9 446.300 19.0331  -4
   8   4  12 446.300 19.0331  -3
  11   4   9 446.300 19.0331  -2
 -10   4  12 446.300 19.0331   1
  11   4   7 189.717 13.3933  -2
  -8   4  12 189.717 13.3933   1
   5   4  12 13.6526 6.35195  -3
  -7   4  12 13.6526 6.35195   1
   5   4  12 0.44373 5.41687  -4
  -7   4  12 0.44373 5.41687   2
   4   4  12 100.858 8.11013  -4
  -6   4  12 100.858 8.11013   2
   4   4  12 190.465 10.2707  -3
  -6   4  12 190.465 10.2707   1
   2   4  12 22.9729 7.80673  -4
 -12   4   3 22.9729 7.80673  -3
  -4   4  12 22.9729 7.80673   2
 -12   4   3 39.9977 10.8674  -4
   2   4  12 39.9977 10.8674  -3
  12   4   3 39.9977 10.8674  -2
  -4   4  12 39.9977 10.8674   1
 -12   4   2 37.0449 5.88834  -4
   1   4  12 37.0449 5.88834  -3
  12   4   2 37.0449 5.88834  -2
  -3   4  12 37.0449 5.88834   1
 -12   4   1 34.0012 5.39991  -4
   0   4  12 34.0012 5.39991  -3
  12   4   1 34.0012 5.39991  -2
  -2   4  12 34.0012 5.39991   1
  -2   4  12 33.0675 6.09752   3
  12   4   0 10.3400 3.32005  -4
  -1   4  12 10.3400 3.32005  -3
  12   4   0 10.3400 3.32005  -2
  -1   4  12 10.3400 3.32005   1
  12   4   1 36.0762 5.22408  -4
  -2   4  12 36.0762 5.22408  -3
 -12   4   1 36.0762 5.22408  -2
   0   4  12 36.0762 5.22408   1
   0   4  12 2.58291 2.59834   1
  12   4   2 30.6816 7.78743  -4
  -3   4  12 30.6816 7.78743  -3
 -12   4   2 30.6816 7.78743  -2
   1   4  12 30.6816 7.78743   1
  -5   4  12 10.4175 6.90427  -4
   3   4  12 10.4175 6.90427   2
  -6   4  12 144.162 12.1233  -3
   4   4  12 144.162 12.1233   1
  -6   4  12 108.293 8.29352  -4
   4   4  12 108.293 8.29352   2
  -7   4  12 4.36402 4.79782  -3
   5   4  12 4.36402 4.79782   1
   5   4  12 2.07190 3.28630   3
  -7   4  12 0.98141 4.70208  -4
   5   4  12 0.98141 4.70208   2
 -13   4   7 153.742 14.6493  -4
   6   4  12 153.742 14.6493   3
   6   4  12 120.814 16.1746   3
  -8   4  12 102.874 14.8140  -4
   6   4  12 102.874 14.8140   2
  11   4   7 201.150 24.6271  -4
  -8   4  12 201.150 24.6271  -3
   6   4  12 201.150 24.6271   1
  11   4   8 17.9557 7.33575  -4
  -9   4  12 17.9557 7.33575  -3
   7   4  12 17.9557 7.33575   1
  -9   4  12 7.94399 12.3470  -4
  11   4   8 7.94399 12.3470  -3
   7   4  12 7.94399 12.3470   2
  11   4   9 436.400 33.6594  -4
 -10   4  12 436.400 33.6594  -3
 -13   4   9 436.400 33.6594  -2
   8   4  12 436.400 33.6594   1
  11   4  10 12.1609 6.52296  -4
 -11   4  12 12.1609 6.52296  -3
 -13   4  10 12.1609 6.52296  -2
   9   4  12 12.1609 6.52296   1
  11   4  11 261.195 14.3744  -4
 -12   4  12 261.195 14.3744  -3
 -13   4  11 261.195 14.3744  -2
  10   4  12 261.195 14.3744   1
 -13   5  10 215.176 12.9323  -4
   9   5  12 215.176 12.9323  -3
  11   5  10 215.176 12.9323  -2
 -11   5  12 215.176 12.9323   1
 -13   5   9 6.42129 6.96470  -4
   8   5  12 6.42129 6.96470  -3
  11   5   9 6.42129 6.96470  -2
 -10   5  12 6.42129 6.96470   1
   6   5  12 17.4607 10.9714  -4
  -8   5  12 17.4607 10.9714   2
  11   5   7 13.2439 11.9986  -2
  -8   5  12 13.2439 11.9986   1
   5   5  12 206.015 17.2763  -4
  -7   5  12 206.015 17.2763   2
   5   5  12 230.269 17.5385  -3
  -7   5  12 230.269 17.5385   1
   4   5  12 4.76236 4.75966  -3
  -6   5  12 4.76236 4.75966   1
   4   5  12 20.9983 7.41563  -4
  -6   5  12 20.9983 7.41563   2
 -12   5   3 114.541 13.1814  -4
   2   5  12 114.541 13.1814  -3
  -4   5  12 114.541 13.1814   1
 -12   5   3 169.155 21.9363  -4
   2   5  12 169.155 21.9363  -3
  12   5   3 169.155 21.9363  -2
  -4   5  12 169.155 21.9363   1
 -12   5   2 386.995 14.5635  -4
   1   5  12 386.995 14.5635  -3
  12   5   2 386.995 14.5635  -2
  -3   5  12 386.995 14.5635   1
 -12   5   1 243.794 10.7468  -4
   0   5  12 243.794 10.7468  -3
  12   5   1 243.794 10.7468  -2
  -2   5  12 243.794 10.7468   1
  12   5   0 186.824 8.78316  -4
  -1   5  12 186.824 8.78316  -3
  12   5   0 186.824 8.78316  -2
  -1   5  12 186.824 8.78316   1
  -1   5  12 111.635 8.80833  -4
  12   5   0 111.635 8.80833  -3
  -1   5  12 111.635 8.80833   2
  12   5   1 232.293 14.1920  -4
  -2   5  12 232.293 14.1920  -3
 -12   5   1 232.293 14.1920  -2
   0   5  12 232.293 14.1920   1
  12   5   2 361.713 22.3433  -4
  -3   5  12 361.713 22.3433  -3
 -12   5   2 361.713 22.3433  -2
   1   5  12 361.713 22.3433   1
  -4   5  12 134.718 14.2243  -3
 -12   5   3 134.718 14.2243  -2
   2   5  12 134.718 14.2243   1
  -5   5  12 178.692 13.1230  -4
   3   5  12 178.692 13.1230   2
  -6   5  12 13.2626 5.07200  -4
   4   5  12 13.2626 5.07200   2
  -6   5  12 8.12475 6.33687  -3
   4   5  12 8.12475 6.33687   1
  -7   5  12 238.060 16.9759  -3
   5   5  12 238.060 16.9759   1
  -7   5  12 201.631 12.1553  -4
   5   5  12 201.631 12.1553   2
   6   5  12 6.69407 7.15046   3
  -8   5  12 4.92304 8.65811  -4
   6   5  12 4.92304 8.65811   2
  11   5   8 138.764 17.5981  -4
  -9   5  12 138.764 17.5981  -3
   7   5  12 138.764 17.5981   1
  11   5   9 -1.0411 13.9817  -4
 -10   5  12 -1.0411 13.9817  -3
 -13   5   9 -1.0411 13.9817  -2
   8   5  12 -1.0411 13.9817   1
  11   5  10 165.694 19.5375  -4
 -11   5  12 165.694 19.5375  -3
 -13   5  10 165.694 19.5375  -2
   9   5  12 165.694 19.5375   1
   7   6  12 -12.977 11.0230  -3
  11   6   8 -12.977 11.0230  -2
  -9   6  12 -12.977 11.0230   1
   6   6  12 28.0744 13.5080  -4
  -8   6  12 28.0744 13.5080   2
   5   6  12 -0.8170 5.51201  -4
  -7   6  12 -0.8170 5.51201   2
   4   6  12 25.4931 8.84794  -4
  -6   6  12 25.4931 8.84794   2
   4   6  12 60.2316 8.33219  -3
  -6   6  12 60.2316 8.33219   1
   3   6  12 -9.4383 8.61969  -4
  -5   6  12 -9.4383 8.61969   2
   2   6  12 140.098 20.9276  -4
 -12   6   3 140.098 20.9276  -3
  -4   6  12 140.098 20.9276   2
 -12   6   2 316.140 13.0725  -4
   1   6  12 316.140 13.0725  -3
  12   6   2 316.140 13.0725  -2
  -3   6  12 316.140 13.0725   1
  12   6   1 373.909 18.0874  -4
  -2   6  12 373.909 18.0874   3
 -12   6   1 453.870 16.1726  -4
   0   6  12 453.870 16.1726  -3
  12   6   1 453.870 16.1726  -2
  -2   6  12 453.870 16.1726   1
  12   6   0 217.095 14.3753  -4
  -1   6  12 217.095 14.3753  -3
  12   6   0 217.095 14.3753  -2
  -1   6  12 217.095 14.3753   1
  12   6   1 470.846 20.2408  -4
  -2   6  12 470.846 20.2408  -3
 -12   6   1 470.846 20.2408  -2
   0   6  12 470.846 20.2408   1
   0   6  12 176.997 10.3624   1
  12   6   2 311.430 15.8365  -4
  -3   6  12 311.430 15.8365  -3
 -12   6   2 311.430 15.8365  -2
   1   6  12 311.430 15.8365   1
  -4   6  12 235.051 19.2882  -3
 -12   6   3 235.051 19.2882  -2
   2   6  12 235.051 19.2882   1
  -5   6  12 5.68555 9.27234  -4
   3   6  12 5.68555 9.27234   2
   3   6  12 4.23871 5.95868   2
  -6   6  12 37.0223 6.73494  -4
   4   6  12 37.0223 6.73494   2
  -6   6  12 56.1573 10.6112  -3
   4   6  12 56.1573 10.6112   1
  -7   6  12 5.79309 5.32906  -4
   5   6  12 5.79309 5.32906   2
  -7   6  12 0.72728 4.98141  -3
   5   6  12 0.72728 4.98141   1
  -8   6  12 36.0359 12.5057  -4
   6   6  12 36.0359 12.5057   2
  -9   6  12 6.74521 8.96207  -4
  11   6   8 6.74521 8.96207  -3
   7   6  12 6.74521 8.96207   2
  11   6   8 -4.5825 8.57180  -4
  -9   6  12 -4.5825 8.57180  -3
   7   6  12 -4.5825 8.57180   1
   4   7  12 3.33017 6.73498  -3
  -6   7  12 3.33017 6.73498   1
   4   7  12 19.1877 12.2594  -4
  -6   7  12 19.1877 12.2594   2
   3   7  12 20.5680 17.3356  -4
 -12   7   4 20.5680 17.3356  -3
  -5   7  12 20.5680 17.3356   2
 -12   7   3 20.8585 10.1588  -4
   2   7  12 20.8585 10.1588  -3
  -4   7  12 20.8585 10.1588   1
  -4   7  12 1.47558 3.63763   3
 -12   7   3 40.6416 12.5288  -4
   2   7  12 40.6416 12.5288  -3
  12   7   3 40.6416 12.5288  -2
  -4   7  12 40.6416 12.5288   1
 -12   7   2 70.3699 8.17177  -4
   1   7  12 70.3699 8.17177  -3
  12   7   2 70.3699 8.17177  -2
  -3   7  12 70.3699 8.17177   1
 -12   7   1 30.7211 6.14626  -4
   0   7  12 30.7211 6.14626  -3
  12   7   1 30.7211 6.14626  -2
  -2   7  12 30.7211 6.14626   1
  12   7   0 12.3309 5.90115  -4
  -1   7  12 12.3309 5.90115  -3
  12   7   0 12.3309 5.90115  -2
  -1   7  12 12.3309 5.90115   1
  12   7   1 23.3354 7.09184  -4
  -2   7  12 23.3354 7.09184  -3
 -12   7   1 23.3354 7.09184  -2
   0   7  12 23.3354 7.09184   1
 -12   7   2 29.1031 7.20687  -2
   1   7  12 29.1031 7.20687   1
  12   7   2 27.0131 21.3735  -4
  -3   7  12 27.0131 21.3735  -3
 -12   7   2 27.0131 21.3735  -2
   1   7  12 27.0131 21.3735   1
 -12   7   3 8.88198 7.64047  -2
   2   7  12 8.88198 7.64047   1
  -4   7  12 5.59966 8.53894  -3
 -12   7   3 5.59966 8.53894  -2
   2   7  12 5.59966 8.53894   1
  -5   7  12 61.5260 13.4501  -4
   3   7  12 61.5260 13.4501   2
  -6   7  12 7.17846 6.42087  -3
   4   7  12 7.17846 6.42087   1
  -6   7  12 4.33921 7.66854  -4
   4   7  12 4.33921 7.66854   2
   4   7  12 2.22514 5.55452   2
 -14   0  12 34.1479 7.79198  -4
 -13   0  13 34.1479 7.79198   1
 -14   0  12 38.6989 10.5805  -4
  11   0  13 38.6989 10.5805  -3
  12   0  12 38.6989 10.5805  -2
 -13   0  13 38.6989 10.5805   1
 -14   0  11 10.6655 8.96068  -4
  10   0  13 10.6655 8.96068  -3
  12   0  11 10.6655 8.96068  -2
 -12   0  13 10.6655 8.96068   1
 -14   0  10 172.827 13.1022  -4
   9   0  13 172.827 13.1022  -3
  12   0  10 172.827 13.1022  -2
 -11   0  13 172.827 13.1022   1
  12   0   8 49.8899 5.40716  -2
  -9   0  13 49.8899 5.40716   1
  -8   0  13 -1.1305 3.77288   4
   6   0  13 7.62614 5.86135  -3
  -8   0  13 7.62614 5.86135   1
  -7   0  13 21.0326 4.03289   1
  -7   0  13 16.7543 5.96694   4
   5   0  13 21.8059 7.35405  -3
  -7   0  13 21.8059 7.35405   1
  -6   0  13 2.28789 2.23896   1
   4   0  13 -5.1889 5.13458  -3
  -6   0  13 -5.1889 5.13458   1
  -6   0  13 -1.1793 5.27578   2
  -5   0  13 58.4300 5.55273   1
 -13   0   3 73.0991 11.5151  -4
  -4   0  13 73.0991 11.5151   1
 -13   0   3 154.786 16.8294  -3
  -4   0  13 154.786 16.8294   2
  -4   0  13 0.79868 1.86728   1
 -13   0   2 304.480 23.9540  -4
   1   0  13 304.480 23.9540  -3
  13   0   2 304.480 23.9540  -2
  -3   0  13 304.480 23.9540   1
 -13   0   1 256.012 21.4711  -4
   0   0  13 256.012 21.4711  -3
  13   0   1 256.012 21.4711  -2
  -2   0  13 256.012 21.4711   1
  13   0   0 443.363 31.6765  -4
  -1   0  13 443.363 31.6765  -3
  13   0   0 443.363 31.6765  -2
  -1   0  13 443.363 31.6765   1
  13   0   1 252.295 21.6885  -4
  -2   0  13 252.295 21.6885  -3
 -13   0   1 252.295 21.6885  -2
   0   0  13 252.295 21.6885   1
   2   0  13 -1.1027 4.02929   2
   2   0  13 6.58833 5.24723   4
   2   0  13 -2.0670 1.70313   3
   3   0  13 4.73540 5.48521   4
   3   0  13 4.59302 1.92764   3
  -5   0  13 19.8085 9.83289  -4
   3   0  13 19.8085 9.83289   2
  -6   0  13 -5.4304 4.74766  -4
   4   0  13 -5.4304 4.74766   2
  -6   0  13 4.00200 6.70717  -3
   4   0  13 4.00200 6.70717   1
   4   0  13 3.20820 2.72339   3
  -7   0  13 19.3617 8.30361  -3
   5   0  13 19.3617 8.30361   1
   5   0  13 7.90002 2.90091   3
  -7   0  13 14.6395 6.47095  -4
   5   0  13 14.6395 6.47095   2
   5   0  13 11.0042 6.04929   2
   5   0  13 4.73060 5.86572   4
  -8   0  13 2.36310 7.90722  -3
   6   0  13 2.36310 7.90722   1
  -8   0  13 1.99880 5.23462  -4
   6   0  13 1.99880 5.23462   2
   6   0  13 -0.6575 5.67189   4
   6   0  13 -0.8754 1.81966   3
   6   0  13 -1.3896 3.84464   2
  12   0   8 57.8043 12.8256  -4
  -9   0  13 57.8043 12.8256  -3
   7   0  13 57.8043 12.8256   1
  -9   0  13 65.3198 13.2287  -4
  12   0   8 65.3198 13.2287  -3
   7   0  13 65.3198 13.2287   2
 -14   0   8 137.972 8.12697  -4
   7   0  13 137.972 8.12697   3
  12   0   9 23.1709 12.7545  -4
 -10   0  13 23.1709 12.7545  -3
 -14   0   9 23.1709 12.7545  -2
   8   0  13 23.1709 12.7545   1
  12   0  10 151.818 19.9617  -4
 -11   0  13 151.818 19.9617  -3
 -14   0  10 151.818 19.9617  -2
   9   0  13 151.818 19.9617   1
  12   0  11 -3.6418 9.52051  -4
 -12   0  13 -3.6418 9.52051  -3
 -14   0  11 -3.6418 9.52051  -2
  10   0  13 -3.6418 9.52051   1
  12   0  12 44.7321 14.0125  -4
 -13   0  13 44.7321 14.0125  -3
 -14   0  12 44.7321 14.0125  -2
  11   0  13 44.7321 14.0125   1
 -14   1  12 -6.3423 10.8372  -4
  11   1  13 -6.3423 10.8372  -3
  12   1  12 -6.3423 10.8372  -2
 -13   1  13 -6.3423 10.8372   1
 -14   1  12 -4.8117 7.41733  -4
 -13   1  13 -4.8117 7.41733   1
 -14   1  11 212.044 12.6863  -4
  10   1  13 212.044 12.6863  -3
  12   1  11 212.044 12.6863  -2
 -12   1  13 212.044 12.6863   1
 -14   1  10 -0.6359 6.58883  -4
   9   1  13 -0.6359 6.58883  -3
  12   1  10 -0.6359 6.58883  -2
 -11   1  13 -0.6359 6.58883   1
 -14   1   9 376.341 21.3795  -4
   8   1  13 376.341 21.3795  -3
  12   1   9 376.341 21.3795  -2
 -10   1  13 376.341 21.3795   1
  12   1   8 -0.5597 8.37762  -2
  -9   1  13 -0.5597 8.37762   1
  12   1   7 349.315 20.3732  -2
  -8   1  13 349.315 20.3732   1
  -8   1  13 112.295 10.1325   4
   6   1  13 277.481 20.7922  -3
  -8   1  13 277.481 20.7922   1
   5   1  13 24.2348 5.92490  -3
  -7   1  13 24.2348 5.92490   1
   5   1  13 28.9091 11.5063  -4
  -7   1  13 28.9091 11.5063   2
  -7   1  13 2.97490 3.96339   1
  -7   1  13 2.46909 4.64000   4
  -6   1  13 217.135 14.8332   2
  -6   1  13 336.192 13.7129   1
   4   1  13 577.642 26.5746  -3
  -6   1  13 577.642 26.5746   1
  -6   1  13 171.476 17.1732   4
  -5   1  13 0.23522 4.25628   4
  -5   1  13 13.9453 3.95318   1
 -13   1   3 609.733 24.6998  -4
  -4   1  13 609.733 24.6998   1
 -13   1   3 705.605 44.2311  -4
   2   1  13 705.605 44.2311  -3
  -4   1  13 705.605 44.2311   1
 -13   1   3 396.371 29.3264  -3
  -4   1  13 396.371 29.3264   2
 -13   1   2 308.031 24.3423  -4
   1   1  13 308.031 24.3423  -3
  13   1   2 308.031 24.3423  -2
  -3   1  13 308.031 24.3423   1
 -13   1   1 395.129 20.4479  -4
   0   1  13 395.129 20.4479  -3
  13   1   1 395.129 20.4479  -2
  -2   1  13 395.129 20.4479   1
  13   1   0 107.567 13.3158  -4
  -1   1  13 107.567 13.3158  -3
  13   1   0 107.567 13.3158  -2
  -1   1  13 107.567 13.3158   1
  13   1   1 379.401 28.8414  -4
  -2   1  13 379.401 28.8414  -3
 -13   1   1 379.401 28.8414  -2
   0   1  13 379.401 28.8414   1
   2   1  13 151.477 22.0331   2
   2   1  13 259.470 15.7869   3
   2   1  13 158.073 11.7528   4
  -4   1  13 650.429 42.9051  -3
 -13   1   3 650.429 42.9051  -2
   2   1  13 650.429 42.9051   1
   3   1  13 20.5172 5.05852   4
   3   1  13 16.4412 4.91979   2
  -5   1  13 115.463 12.3661  -4
   3   1  13 115.463 12.3661   2
   3   1  13 33.6019 6.11375   3
   4   1  13 291.561 12.4173   3
  -6   1  13 283.706 13.9852  -4
   4   1  13 283.706 13.9852   2
   4   1  13 197.792 13.6729   4
  -6   1  13 558.823 27.6757  -3
   4   1  13 558.823 27.6757   1
   4   1  13 237.048 21.6267   2
   5   1  13 13.9579 5.03148   4
  -7   1  13 21.8434 6.68140  -4
   5   1  13 21.8434 6.68140   2
   5   1  13 7.46613 2.51967   3
   5   1  13 0.76967 5.28000   2
  -7   1  13 27.8995 6.86348  -3
   5   1  13 27.8995 6.86348   1
   6   1  13 106.710 13.0305   4
   6   1  13 151.527 12.3397   2
   6   1  13 166.707 8.91263   3
  -8   1  13 190.093 12.3425  -4
   6   1  13 190.093 12.3425   2
  -8   1  13 281.190 17.8694  -3
   6   1  13 281.190 17.8694   1
  12   1   8 3.15506 10.8405  -4
  -9   1  13 3.15506 10.8405  -3
   7   1  13 3.15506 10.8405   1
 -14   1   8 7.44009 5.83397  -4
   7   1  13 7.44009 5.83397   3
  -9   1  13 -2.6261 9.34062  -4
  12   1   8 -2.6261 9.34062  -3
   7   1  13 -2.6261 9.34062   2
  12   1   9 313.321 20.5901  -4
 -10   1  13 313.321 20.5901  -3
 -14   1   9 313.321 20.5901  -2
   8   1  13 313.321 20.5901   1
  12   1  10 17.3656 7.94158  -4
 -11   1  13 17.3656 7.94158  -3
 -14   1  10 17.3656 7.94158  -2
   9   1  13 17.3656 7.94158   1
  12   1  11 207.422 16.6125  -4
 -12   1  13 207.422 16.6125  -3
 -14   1  11 207.422 16.6125  -2
  10   1  13 207.422 16.6125   1
  12   1  12 13.7745 7.86029  -4
 -13   1  13 13.7745 7.86029  -3
 -14   1  12 13.7745 7.86029  -2
  11   1  13 13.7745 7.86029   1
  11   1  13 -4.2936 3.97425   2
 -14   2  12 116.258 16.5525  -3
 -13   2  13 116.258 16.5525   2
 -14   2  12 111.397 8.55440  -4
 -13   2  13 111.397 8.55440   1
 -14   2  11 -13.229 10.8965  -4
  10   2  13 -13.229 10.8965  -3
  12   2  11 -13.229 10.8965  -2
 -12   2  13 -13.229 10.8965   1
 -14   2  10 233.159 23.1072  -4
   9   2  13 233.159 23.1072  -3
  12   2  10 233.159 23.1072  -2
 -11   2  13 233.159 23.1072   1
 -14   2   9 13.4706 9.08335  -4
   8   2  13 13.4706 9.08335  -3
  12   2   9 13.4706 9.08335  -2
 -10   2  13 13.4706 9.08335   1
  12   2   8 167.001 9.96099  -2
  -9   2  13 167.001 9.96099   1
  -8   2  13 11.4545 5.06770   4
  12   2   7 2.06271 4.61248  -2
  -8   2  13 2.06271 4.61248   1
   6   2  13 7.25368 7.95057  -3
  -8   2  13 7.25368 7.95057   1
  -7   2  13 54.1202 5.62226   1
  -7   2  13 25.7323 8.01224   4
   5   2  13 92.2764 11.7162  -3
  -7   2  13 92.2764 11.7162   1
   5   2  13 42.6515 11.2683  -4
  -7   2  13 42.6515 11.2683   2
  -6   2  13 2.51954 2.20693   1
  -6   2  13 -1.0390 3.16888   2
  -6   2  13 0.99569 4.26966   4
  -5   2  13 20.1619 3.62304   1
  -5   2  13 8.39785 7.44312   4
 -13   2   3 60.5937 7.23096  -4
  -4   2  13 60.5937 7.23096   1
 -13   2   3 86.7356 9.00131  -3
  -4   2  13 86.7356 9.00131   2
  -4   2  13 4.95862 4.39228   4
 -13   2   2 197.657 19.1999  -4
   1   2  13 197.657 19.1999  -3
  13   2   2 197.657 19.1999  -2
  -3   2  13 197.657 19.1999   1
 -13   2   1 207.679 19.7229  -4
   0   2  13 207.679 19.7229  -3
  13   2   1 207.679 19.7229  -2
  -2   2  13 207.679 19.7229   1
  13   2   0 265.755 22.8293  -4
  -1   2  13 265.755 22.8293  -3
  13   2   0 265.755 22.8293  -2
  -1   2  13 265.755 22.8293   1
  -1   2  13 122.806 7.14125   3
  -1   2  13 123.868 10.1780   1
  13   2   1 192.258 13.3982  -4
  -2   2  13 192.258 13.3982  -3
 -13   2   1 192.258 13.3982  -2
   0   2  13 192.258 13.3982   1
   2   2  13 4.34445 2.75110   3
   2   2  13 1.79225 5.12919   4
   2   2  13 1.98736 3.89441   2
  -4   2  13 59.5182 11.5777  -3
 -13   2   3 59.5182 11.5777  -2
   2   2  13 59.5182 11.5777   1
   3   2  13 23.6057 3.71043   3
  -5   2  13 26.5268 8.51162  -4
   3   2  13 26.5268 8.51162   2
   3   2  13 12.7044 4.44820   4
   3   2  13 17.8299 7.44473   2
  -6   2  13 2.03732 5.26577  -3
   4   2  13 2.03732 5.26577   1
   4   2  13 1.91294 3.24888   4
   4   2  13 -0.2574 1.54734   3
  -6   2  13 6.12511 5.59110  -4
   4   2  13 6.12511 5.59110   2
   4   2  13 3.47047 4.05456   2
   5   2  13 51.6282 5.25666   3
   5   2  13 41.3963 7.77030   4
  -7   2  13 83.3079 9.10545  -3
   5   2  13 83.3079 9.10545   1
   5   2  13 50.6542 11.4860   2
  -7   2  13 79.2940 13.6194  -4
   5   2  13 79.2940 13.6194   2
   6   2  13 2.09755 2.20689   3
  -8   2  13 5.26901 8.31534  -4
   6   2  13 5.26901 8.31534   2
  -8   2  13 0.98486 5.48625  -3
   6   2  13 0.98486 5.48625   1
   6   2  13 1.65797 4.91698   2
 -14   2   8 100.159 7.40546  -4
   7   2  13 100.159 7.40546   3
  12   2   8 149.539 13.8340  -4
  -9   2  13 149.539 13.8340  -3
   7   2  13 149.539 13.8340   1
 -10   2  13 13.1562 10.4585  -3
 -14   2   9 13.1562 10.4585  -2
   8   2  13 13.1562 10.4585   1
  12   2   9 -6.4222 8.42775  -4
   8   2  13 -6.4222 8.42775   1
  12   2  10 208.489 16.6066  -4
 -11   2  13 208.489 16.6066  -3
 -14   2  10 208.489 16.6066  -2
   9   2  13 208.489 16.6066   1
   9   2  13 38.8735 7.01167   2
  12   2  11 -4.8685 6.68642  -4
 -12   2  13 -4.8685 6.68642  -3
 -14   2  11 -4.8685 6.68642  -2
  10   2  13 -4.8685 6.68642   1
 -14   3  11 138.032 18.7181  -4
  10   3  13 138.032 18.7181  -3
  12   3  11 138.032 18.7181  -2
 -12   3  13 138.032 18.7181   1
 -14   3  10 3.26667 9.14567  -4
   9   3  13 3.26667 9.14567  -3
  12   3  10 3.26667 9.14567  -2
 -11   3  13 3.26667 9.14567   1
 -14   3   9 296.940 16.2347  -4
   8   3  13 296.940 16.2347  -3
  12   3   9 296.940 16.2347  -2
 -10   3  13 296.940 16.2347   1
  -9   3  13 4.52470 5.41344   1
  12   3   8 9.16798 4.75234  -2
  -9   3  13 9.16798 4.75234   1
  12   3   7 51.6534 13.8130  -2
  -8   3  13 51.6534 13.8130   1
  -8   3  13 29.0775 8.54913   4
   5   3  13 2.37390 6.71927  -4
  -7   3  13 2.37390 6.71927   2
  -7   3  13 0.37463 2.45205   1
   5   3  13 3.84930 6.88656  -3
  -7   3  13 3.84930 6.88656   1
  -7   3  13 -3.9264 3.52110   4
   4   3  13 220.283 14.5685  -3
  -6   3  13 220.283 14.5685   1
  -6   3  13 85.9146 8.72223   2
  -6   3  13 74.5135 10.7572   4
  -6   3  13 147.941 8.81905   1
  -5   3  13 -2.2654 4.09947   4
  -5   3  13 7.25748 2.81138   1
 -13   3   3 128.622 9.35319  -4
  -4   3  13 128.622 9.35319   1
 -13   3   3 82.4532 9.19005  -3
  -4   3  13 82.4532 9.19005   2
 -13   3   3 144.479 16.8646  -4
   2   3  13 144.479 16.8646  -3
  -4   3  13 144.479 16.8646   1
  -4   3  13 121.374 11.1322   3
 -13   3   2 54.3517 8.93802  -4
   1   3  13 54.3517 8.93802  -3
  13   3   2 54.3517 8.93802  -2
  -3   3  13 54.3517 8.93802   1
  -2   3  13 21.2342 4.39033   4
  -2   3  13 31.0209 4.53123   3
 -13   3   1 49.5137 6.22127  -4
   0   3  13 49.5137 6.22127  -3
  13   3   1 49.5137 6.22127  -2
  -2   3  13 49.5137 6.22127   1
  -1   3  13 9.43134 3.68692   1
  13   3   0 25.8829 6.50822  -4
  -1   3  13 25.8829 6.50822  -3
  13   3   0 25.8829 6.50822  -2
  -1   3  13 25.8829 6.50822   1
  13   3   1 42.2614 7.79228  -4
  -2   3  13 42.2614 7.79228  -3
 -13   3   1 42.2614 7.79228  -2
   0   3  13 42.2614 7.79228   1
   2   3  13 70.5105 8.23728   3
   2   3  13 43.0702 9.06451   4
   2   3  13 68.5911 8.25095   1
  -4   3  13 148.443 12.7084  -3
 -13   3   3 148.443 12.7084  -2
   2   3  13 148.443 12.7084   1
   2   3  13 43.6855 10.4236   2
   3   3  13 7.49933 2.35575   3
  -5   3  13 31.7969 10.2715  -4
   3   3  13 31.7969 10.2715   2
   3   3  13 3.49227 3.47882   4
  -6   3  13 154.250 18.2477  -4
   4   3  13 154.250 18.2477   2
   4   3  13 71.9245 13.3072   2
   4   3  13 45.4464 7.57331   4
  -6   3  13 158.326 12.6799  -3
   4   3  13 158.326 12.6799   1
   4   3  13 59.7602 5.92151   3
   5   3  13 0.70490 3.47636   4
   5   3  13 2.22835 2.43925   3
   5   3  13 -0.0784 5.11379   2
  -7   3  13 1.24817 5.46988  -3
   5   3  13 1.24817 5.46988   1
  -7   3  13 3.30704 9.44366  -4
   5   3  13 3.30704 9.44366   2
   6   3  13 36.8776 5.79238   3
   6   3  13 31.9445 8.81466   2
   6   3  13 33.8035 7.14841   4
  -8   3  13 93.7724 13.1084  -3
   6   3  13 93.7724 13.1084   1
  12   3   8 5.09405 7.27819  -4
  -9   3  13 5.09405 7.27819  -3
   7   3  13 5.09405 7.27819   1
 -14   3   8 9.49267 4.38639  -4
   7   3  13 9.49267 4.38639   3
   7   3  13 -1.0530 5.03144   2
  12   3   9 88.2471 16.7198  -4
   8   3  13 88.2471 16.7198   1
  12   3   9 200.752 22.5957  -4
 -10   3  13 200.752 22.5957  -3
 -14   3   9 200.752 22.5957  -2
   8   3  13 200.752 22.5957   1
  12   3  10 9.58764 7.73859  -4
 -11   3  13 9.58764 7.73859  -3
 -14   3  10 9.58764 7.73859  -2
   9   3  13 9.58764 7.73859   1
  12   3  11 123.223 12.4629  -4
 -12   3  13 123.223 12.4629  -3
 -14   3  11 123.223 12.4629  -2
  10   3  13 123.223 12.4629   1
 -14   4   9 13.9938 9.72776  -4
   8   4  13 13.9938 9.72776  -3
  12   4   9 13.9938 9.72776  -2
 -10   4  13 13.9938 9.72776   1
  12   4   8 113.460 10.4942  -2
  -9   4  13 113.460 10.4942   1
   7   4  13 192.728 22.9584  -3
  12   4   8 192.728 22.9584  -2
  -9   4  13 192.728 22.9584   1
  -8   4  13 2.89612 4.62796   1
  12   4   7 -8.4075 6.42350  -2
  -8   4  13 -8.4075 6.42350   1
  -7   4  13 48.6859 10.2862   4
  -7   4  13 57.8553 8.22131   2
  -7   4  13 72.5165 8.77778   1
   4   4  13 14.6799 11.6688  -3
  -6   4  13 14.6799 11.6688   1
  -6   4  13 -4.5981 4.84583   2
  -6   4  13 -4.7534 3.23457   4
  -6   4  13 0.91900 2.40639   1
  -5   4  13 27.5743 5.58774   1
  -5   4  13 27.2397 7.51109   4
  -5   4  13 28.9846 6.03794   3
  -5   4  13 23.2551 6.46168   2
 -13   4   3 43.3026 16.7887  -4
   2   4  13 43.3026 16.7887  -3
  13   4   3 43.3026 16.7887  -2
  -4   4  13 43.3026 16.7887   1
 -13   4   3 35.9513 5.47501  -4
  -4   4  13 35.9513 5.47501   1
  -4   4  13 3.92550 3.20755   3
 -13   4   3 61.6560 12.3779  -3
  -4   4  13 61.6560 12.3779   2
 -13   4   2 81.3330 11.0275  -4
   1   4  13 81.3330 11.0275  -3
  13   4   2 81.3330 11.0275  -2
  -3   4  13 81.3330 11.0275   1
 -13   4   1 111.581 8.75146  -4
   0   4  13 111.581 8.75146  -3
  13   4   1 111.581 8.75146  -2
  -2   4  13 111.581 8.75146   1
  -2   4  13 7.56995 2.54136   3
  13   4   0 249.233 12.6608  -4
  -1   4  13 249.233 12.6608  -3
  13   4   0 249.233 12.6608  -2
  -1   4  13 249.233 12.6608   1
   0   4  13 7.92092 3.29514   1
  13   4   1 86.7822 13.9322  -4
  -2   4  13 86.7822 13.9322  -3
 -13   4   1 86.7822 13.9322  -2
   0   4  13 86.7822 13.9322   1
  13   4   2 65.3197 16.0538  -4
  -3   4  13 65.3197 16.0538  -3
 -13   4   2 65.3197 16.0538  -2
   1   4  13 65.3197 16.0538   1
  -4   4  13 55.0436 15.2491  -3
 -13   4   3 55.0436 15.2491  -2
   2   4  13 55.0436 15.2491   1
   2   4  13 -0.8903 4.95054   2
   2   4  13 5.13191 3.49332   3
   3   4  13 12.9392 3.43849   3
   3   4  13 6.92437 3.71782   4
  -5   4  13 41.7512 11.8435  -4
   3   4  13 41.7512 11.8435   2
   3   4  13 4.08704 3.56373   1
   3   4  13 3.60096 6.31449   2
   4   4  13 -5.2001 4.21280   2
  -6   4  13 1.96871 5.95580  -3
   4   4  13 1.96871 5.95580   1
   4   4  13 1.74073 3.80694   4
   4   4  13 3.84090 3.11477   3
  -6   4  13 14.1726 9.22060  -4
   4   4  13 14.1726 9.22060   2
   5   4  13 12.4004 3.84249   4
   5   4  13 32.6808 4.39880   3
  -7   4  13 72.5097 12.1651  -3
   5   4  13 72.5097 12.1651   1
  -7   4  13 75.8636 14.8707  -4
   5   4  13 75.8636 14.8707   2
   5   4  13 8.34374 7.70942   2
   6   4  13 -2.9252 3.45450   4
   6   4  13 6.66560 3.33525   3
   6   4  13 5.92800 5.80466   2
  12   4   8 128.731 14.0201  -4
  -9   4  13 128.731 14.0201  -3
   7   4  13 128.731 14.0201   1
   7   4  13 54.0284 12.4319   2
  -9   4  13 167.101 21.6917  -4
  12   4   8 167.101 21.6917  -3
   7   4  13 167.101 21.6917   2
 -14   4   8 147.468 11.4299  -4
   7   4  13 147.468 11.4299   3
  12   4   9 -10.034 10.4445  -4
 -10   4  13 -10.034 10.4445  -3
 -14   4   9 -10.034 10.4445  -2
   8   4  13 -10.034 10.4445   1
  12   4  10 192.389 14.7612  -4
 -11   4  13 192.389 14.7612  -3
 -14   4  10 192.389 14.7612  -2
   9   4  13 192.389 14.7612   1
  12   5   9 99.5569 15.6113  -4
 -10   5  13 99.5569 15.6113   3
  12   5   9 137.522 9.94494  -2
 -10   5  13 137.522 9.94494   1
 -10   5  13 93.6074 10.7135   3
  12   5   8 8.65626 6.24747  -2
  -9   5  13 8.65626 6.24747   1
   7   5  13 5.07092 15.0070  -3
  12   5   8 5.07092 15.0070  -2
  -9   5  13 5.07092 15.0070   1
  -8   5  13 82.7131 14.9938   4
  -8   5  13 85.7304 10.1873   2
  -8   5  13 119.599 18.5168   1
  12   5   7 265.249 21.9539  -2
  -8   5  13 265.249 21.9539   1
  -7   5  13 -1.9291 4.39605   4
  -7   5  13 3.85055 5.93948   1
  -7   5  13 -2.8213 4.68827   2
   5   5  13 11.6033 13.1094  -4
  -7   5  13 11.6033 13.1094   2
   4   5  13 192.672 24.6094  -4
  -6   5  13 192.672 24.6094   2
  -6   5  13 110.920 11.0292   2
  -6   5  13 198.780 9.58208   1
  -6   5  13 100.254 12.8132   4
  -6   5  13 196.281 16.4592   3
  -5   5  13 4.38816 4.70720   2
  -5   5  13 5.12596 4.27978   3
  -5   5  13 6.20609 6.20900   4
  -5   5  13 5.07063 7.73712   1
 -13   5   3 289.941 15.8067  -4
  -4   5  13 289.941 15.8067   1
 -13   5   3 186.892 21.5772  -3
  -4   5  13 186.892 21.5772   2
 -13   5   3 544.318 42.1827  -4
   2   5  13 544.318 42.1827  -3
  13   5   3 544.318 42.1827  -2
  -4   5  13 544.318 42.1827   1
  -4   5  13 243.681 18.5766   3
 -13   5   2 348.191 17.0198  -4
   1   5  13 348.191 17.0198  -3
  13   5   2 348.191 17.0198  -2
  -3   5  13 348.191 17.0198   1
 -13   5   1 362.958 17.0220  -4
   0   5  13 362.958 17.0220  -3
  13   5   1 362.958 17.0220  -2
  -2   5  13 362.958 17.0220   1
  13   5   0 308.236 17.6858  -4
  -1   5  13 308.236 17.6858  -3
  13   5   0 308.236 17.6858  -2
  -1   5  13 308.236 17.6858   1
  13   5   1 367.247 22.8253  -4
  -2   5  13 367.247 22.8253  -3
 -13   5   1 367.247 22.8253  -2
   0   5  13 367.247 22.8253   1
  13   5   2 181.814 18.9695  -3
   1   5  13 181.814 18.9695   2
  13   5   2 299.150 20.6818  -4
  -3   5  13 299.150 20.6818  -3
 -13   5   2 299.150 20.6818  -2
   1   5  13 299.150 20.6818   1
   2   5  13 256.205 19.4212   3
   2   5  13 177.782 17.3439   2
   3   5  13 7.86523 6.36962   2
  -5   5  13 15.6122 11.8170  -4
   3   5  13 15.6122 11.8170   2
   3   5  13 4.97444 3.84086   4
   3   5  13 -1.8665 3.25231   3
   3   5  13 5.17063 3.96938   1
   4   5  13 171.719 8.70342   3
   4   5  13 106.576 13.6075   2
  -6   5  13 295.168 20.3395  -3
   4   5  13 295.168 20.3395   1
  -6   5  13 217.290 16.6913  -4
   4   5  13 217.290 16.6913   2
   4   5  13 88.5945 7.78785   4
  -7   5  13 8.32303 6.93734  -3
   5   5  13 8.32303 6.93734   1
   5   5  13 0.71849 2.67151   3
   5   5  13 1.10313 5.92909   4
  -7   5  13 -0.1182 7.82741  -4
   5   5  13 -0.1182 7.82741   2
   5   5  13 3.21124 6.03622   2
   6   5  13 40.9532 9.27244   4
   6   5  13 47.9752 11.7295   2
   6   5  13 36.9856 7.86554   3
  -8   5  13 96.9403 17.5267  -4
   6   5  13 96.9403 17.5267   2
   7   5  13 -6.4083 6.28164   1
 -14   5   8 -1.8960 8.46810  -4
   7   5  13 -1.8960 8.46810   3
  -9   5  13 -12.044 13.4173  -4
  12   5   8 -12.044 13.4173  -3
   7   5  13 -12.044 13.4173   2
  12   5   8 -0.2660 8.29946  -4
  -9   5  13 -0.2660 8.29946  -3
   7   5  13 -0.2660 8.29946   1
   7   5  13 -0.2005 3.78290   2
  -8   6  13 -2.4492 6.04792   4
  12   6   7 -11.213 8.06807  -2
  -8   6  13 -11.213 8.06807   1
  -8   6  13 8.68267 15.4791   2
  -7   6  13 45.8564 9.34755   3
  -7   6  13 30.8268 11.6898   2
  -7   6  13 12.1031 7.96643   4
  -7   6  13 26.3486 7.83155   1
  -6   6  13 -2.0486 3.82436   1
   4   6  13 -5.5812 8.63859  -4
  -6   6  13 -5.5812 8.63859   2
  -6   6  13 -0.6143 2.96512   3
  -6   6  13 20.4978 9.66896   4
  -5   6  13 10.2267 5.23727   4
  -5   6  13 7.77257 4.63535   3
   2   6  13 67.8595 17.8738  -4
 -13   6   3 67.8595 17.8738  -3
  -4   6  13 67.8595 17.8738   2
 -13   6   3 13.5804 17.1892  -4
   2   6  13 13.5804 17.1892  -3
  -4   6  13 13.5804 17.1892   1
 -13   6   3 43.8470 6.74302  -4
  -4   6  13 43.8470 6.74302   1
 -13   6   3 77.5598 14.7619  -3
  -4   6  13 77.5598 14.7619   2
  -4   6  13 -5.4037 3.51771   2
  -4   6  13 0.11548 3.48978   3
 -13   6   2 85.1366 13.5924  -4
   1   6  13 85.1366 13.5924  -3
  13   6   2 85.1366 13.5924  -2
  -3   6  13 85.1366 13.5924   1
  -3   6  13 45.0638 5.19915   3
 -13   6   1 106.008 17.4336  -4
   0   6  13 106.008 17.4336  -3
  13   6   1 106.008 17.4336  -2
  -2   6  13 106.008 17.4336   1
  -2   6  13 19.9579 6.46433   4
  13   6   0 194.146 17.1656  -4
  -1   6  13 194.146 17.1656  -3
  13   6   0 194.146 17.1656  -2
  -1   6  13 194.146 17.1656   1
   0   6  13 74.8012 8.71963   4
  13   6   1 110.458 13.3421  -4
  -2   6  13 110.458 13.3421  -3
 -13   6   1 110.458 13.3421  -2
   0   6  13 110.458 13.3421   1
  13   6   2 80.5273 13.4696  -4
  -3   6  13 80.5273 13.4696  -3
 -13   6   2 80.5273 13.4696  -2
   1   6  13 80.5273 13.4696   1
   2   6  13 8.09558 4.65366   3
   2   6  13 2.49433 5.42430   2
  -5   6  13 29.6315 13.5770  -4
   3   6  13 29.6315 13.5770   2
   3   6  13 27.4066 6.99265   1
   3   6  13 38.1248 6.64029   3
   3   6  13 21.1594 8.76130   2
   3   6  13 34.5306 10.7770   4
  -6   6  13 2.54695 7.26764  -3
   4   6  13 2.54695 7.26764   1
   4   6  13 2.74913 4.07401   3
   4   6  13 3.33695 3.68086   1
   4   6  13 0.32908 6.49952   2
  -6   6  13 -0.8048 8.00211  -4
   4   6  13 -0.8048 8.00211   2
   5   6  13 -1.3655 6.88332   4
   5   6  13 29.3223 9.70416   2
  -7   6  13 36.8497 9.46811  -4
   5   6  13 36.8497 9.46811   2
  -7   6  13 47.4776 10.3293  -3
   5   6  13 47.4776 10.3293   1
   5   6  13 26.3442 5.25321   3
 -13   7   2 17.6220 9.09726  -4
  -3   7  13 17.6220 9.09726   1
   0   7  13 4.90013 11.5403  -4
 -13   7   1 4.90013 11.5403  -3
  -2   7  13 4.90013 11.5403   2
 -13   7   1 21.9301 20.4194  -4
   0   7  13 21.9301 20.4194  -3
  13   7   1 21.9301 20.4194  -2
  -2   7  13 21.9301 20.4194   1
  13   7   0 3.66232 17.3592  -4
  -1   7  13 3.66232 17.3592  -3
  13   7   0 3.66232 17.3592  -2
  -1   7  13 3.66232 17.3592   1
   0   7  13 -1.8210 5.50767   2
  13   7   1 9.04614 21.1809  -4
  -2   7  13 9.04614 21.1809  -3
 -13   7   1 9.04614 21.1809  -2
   0   7  13 9.04614 21.1809   1
  -3   7  13 19.3026 20.8975  -3
 -13   7   2 19.3026 20.8975  -2
   1   7  13 19.3026 20.8975   1
 -15   0  10 31.2908 14.3858  -4
   9   0  14 31.2908 14.3858  -3
  13   0  10 31.2908 14.3858  -2
 -11   0  14 31.2908 14.3858   1
   8   0  14 7.58681 5.84556  -3
 -11   0  14 7.58681 5.84556   1
 -15   0   9 158.908 19.8599  -4
  13   0   9 158.908 19.8599  -2
 -10   0  14 158.908 19.8599   1
  -8   0  14 96.1683 11.6473   1
  -8   0  14 89.8963 12.8149   3
  -7   0  14 1.73820 3.95305   3
   4   0  14 19.8058 10.2477  -3
  -7   0  14 19.8058 10.2477   1
  -7   0  14 11.7043 6.13842   2
  -7   0  14 0.21630 4.20529   1
  -6   0  14 0.52667 3.73345   3
  -6   0  14 -3.1866 3.84562   2
   3   0  14 10.7064 9.35555  -3
  -6   0  14 10.7064 9.35555   1
  -6   0  14 -0.5873 3.40738   1
  -5   0  14 2.39299 3.55390   1
 -14   0   3 -3.8969 7.76228  -3
  -4   0  14 -3.8969 7.76228   2
 -14   0   2 51.2029 11.0156  -3
  -3   0  14 51.2029 11.0156   2
  -4   0  14 17.7560 10.4161  -3
 -14   0   3 17.7560 10.4161  -2
   2   0  14 17.7560 10.4161   1
   2   0  14 16.4527 4.95354   4
  -5   0  14 25.5642 10.6292  -4
   2   0  14 25.5642 10.6292   2
   3   0  14 2.02483 4.13428   1
   3   0  14 6.54269 4.04991   4
   3   0  14 5.22309 3.62062   3
   4   0  14 13.8491 5.01576   3
   4   0  14 7.29454 4.06015   4
  -7   0  14 26.1375 9.77602  -4
   4   0  14 26.1375 9.77602   2
   4   0  14 9.62414 6.12073   1
   5   0  14 -2.3450 4.14316   1
  -8   0  14 117.403 16.0179  -4
   5   0  14 117.403 16.0179   2
   5   0  14 -1.4776 3.71934   4
   5   0  14 4.33006 3.84708   3
   6   0  14 11.6741 4.96843   4
   6   0  14 11.7109 6.44977   3
   6   0  14 14.9754 7.49338   1
  -9   0  14 29.0614 11.0304  -4
   6   0  14 29.0614 11.0304   2
  -8   0  14 35.9450 7.65366  -4
   6   0  14 35.9450 7.65366   2
   7   0  14 -0.4207 4.10737   4
   7   0  14 -1.9414 5.63507   3
   7   0  14 5.30739 5.18609   1
   8   0  14 3.25509 7.27797   4
   8   0  14 24.7579 9.62165   3
   9   0  14 10.9100 8.65451   4
  10   0  14 20.1866 5.84279   2
  10   0  14 21.8785 5.08439   3
  10   0  14 13.0386 8.82837   4
 -15   1  10 280.693 19.9628  -4
   9   1  14 280.693 19.9628  -3
  13   1  10 280.693 19.9628  -2
 -11   1  14 280.693 19.9628   1
 -15   1   9 17.4918 13.9115  -4
   8   1  14 17.4918 13.9115  -3
  13   1   9 17.4918 13.9115  -2
 -10   1  14 17.4918 13.9115   1
  13   1   8 215.890 22.6380  -2
  -9   1  14 215.890 22.6380   1
  13   1   8 144.884 12.9426  -4
  -9   1  14 144.884 12.9426   3
  -8   1  14 3.02737 2.99682   3
   5   1  14 31.6375 11.7963  -3
  -8   1  14 31.6375 11.7963   1
  -8   1  14 2.87116 4.72890   1
  -7   1  14 39.3802 6.95960   3
   4   1  14 31.0959 5.28972  -3
  -7   1  14 31.0959 5.28972   1
  -7   1  14 42.4050 8.25354   2
  -7   1  14 55.4521 7.97810   1
   3   1  14 108.790 7.26952  -3
  -6   1  14 108.790 7.26952   1
  -6   1  14 6.55742 3.76122   2
  -6   1  14 -1.9527 2.88358   3
  -6   1  14 -3.2499 2.68833   4
  -6   1  14 3.73347 4.17336   1
  -5   1  14 64.0292 10.7029   3
   2   1  14 118.841 8.44973  -3
  -5   1  14 118.841 8.44973   1
  -5   1  14 74.2169 10.3756   1
  -5   1  14 11.2889 9.92955   4
 -14   1   3 88.5564 9.84322  -3
  -4   1  14 88.5564 9.84322   2
 -14   1   2 59.3153 12.3951  -3
  -3   1  14 59.3153 12.3951   2
  14   1   1 99.4450 14.7899  -4
  -2   1  14 99.4450 14.7899  -3
 -14   1   1 99.4450 14.7899  -2
   0   1  14 99.4450 14.7899   1
  -4   1  14 67.8460 9.54830  -3
 -14   1   3 67.8460 9.54830  -2
   2   1  14 67.8460 9.54830   1
   2   1  14 6.40364 3.39903   4
  -5   1  14 53.8558 8.52471  -4
   2   1  14 53.8558 8.52471   2
   3   1  14 79.5878 8.25293   1
   3   1  14 38.2108 4.69094   2
   3   1  14 50.3492 6.18898   4
  -6   1  14 75.8845 9.62730  -4
   3   1  14 75.8845 9.62730   2
   3   1  14 72.5865 9.95492   3
   4   1  14 4.61541 3.09318   4
   4   1  14 1.87367 2.88158   2
  -7   1  14 29.8024 7.48980  -4
   4   1  14 29.8024 7.48980   2
   4   1  14 -2.0163 3.32037   3
   4   1  14 1.01130 4.39665   1
   5   1  14 24.3754 5.79078   1
   5   1  14 19.8995 4.42038   4
  -8   1  14 22.0495 7.07531  -4
   5   1  14 22.0495 7.07531   2
   5   1  14 21.5360 5.22525   3
   6   1  14 2.51107 2.77753   3
   6   1  14 -1.5363 2.67288   4
   6   1  14 -0.8457 2.67502   1
   7   1  14 34.8499 11.5829   3
   7   1  14 23.1830 4.70849   4
   7   1  14 45.8888 7.86156   1
   8   1  14 0.80571 4.89074   4
   8   1  14 0.64750 5.56588   3
   9   1  14 35.2147 7.98639   4
  10   1  14 12.1269 3.83705   2
  10   1  14 10.4482 4.44064   3
 -12   2  14 19.2720 7.64627   2
 -12   2  14 23.7733 10.0572   1
 -12   2  14 12.5513 4.75009   4
 -15   2   9 51.4601 12.4220  -4
 -10   2  14 51.4601 12.4220   1
  -9   2  14 -4.0661 5.11034   1
  13   2   8 11.2494 7.03090  -4
  -9   2  14 11.2494 7.03090   3
  -8   2  14 58.4034 8.20368   3
   5   2  14 68.3868 14.7783  -3
  -8   2  14 68.3868 14.7783   1
  -8   2  14 58.6410 9.51956   1
  -7   2  14 -2.2387 2.96798   3
   4   2  14 18.9237 5.18734  -3
  -7   2  14 18.9237 5.18734   1
  -7   2  14 4.37356 3.75241   2
  -7   2  14 3.44477 5.41890   1
  -6   2  14 6.20938 3.09434   2
   3   2  14 16.8884 4.32982  -3
  -6   2  14 16.8884 4.32982   1
  -6   2  14 4.96101 3.27215   3
  -6   2  14 11.6965 4.79848   1
   2   2  14 22.5848 4.20328  -3
  -5   2  14 22.5848 4.20328   1
  -5   2  14 -0.0381 5.32963   1
  -5   2  14 0.22568 2.49242   3
 -14   2   3 -0.3963 5.41347  -3
  -4   2  14 -0.3963 5.41347   2
 -14   2   3 3.43069 10.1600  -4
   2   2  14 3.43069 10.1600  -3
  -4   2  14 3.43069 10.1600   1
 -14   2   2 12.0963 8.17813  -3
  -3   2  14 12.0963 8.17813   2
  -1   2  14 17.6393 6.45571   3
  14   2   1 56.4600 12.4814  -4
  -2   2  14 56.4600 12.4814  -3
 -14   2   1 56.4600 12.4814  -2
   0   2  14 56.4600 12.4814   1
  -3   2  14 0.62566 9.97155  -3
 -14   2   2 0.62566 9.97155  -2
   1   2  14 0.62566 9.97155   1
   1   2  14 2.28217 4.50295   3
   2   2  14 12.2751 4.31729   4
  -4   2  14 15.6096 9.17362  -3
 -14   2   3 15.6096 9.17362  -2
   2   2  14 15.6096 9.17362   1
   2   2  14 5.45114 6.36349   1
   3   2  14 -4.3378 3.03640   4
  -6   2  14 1.28527 6.23103  -4
   3   2  14 1.28527 6.23103   2
   3   2  14 -1.7586 2.90558   3
   3   2  14 1.96823 2.61242   1
   4   2  14 10.5358 3.63808   4
   4   2  14 10.8433 4.60112   1
   4   2  14 9.97951 4.42464   3
  -7   2  14 20.9918 7.12939  -4
   4   2  14 20.9918 7.12939   2
   5   2  14 4.19797 5.31451   3
   5   2  14 -1.8587 3.17614   1
   5   2  14 -0.1910 2.36631   4
  -8   2  14 55.9510 8.80346  -4
   5   2  14 55.9510 8.80346   2
   6   2  14 38.4256 5.28081   4
   6   2  14 62.2005 8.44764   1
   6   2  14 42.0464 6.64505   3
  -9   2  14 62.7859 12.7292  -4
   6   2  14 62.7859 12.7292   2
   7   2  14 3.66214 3.63499   1
   7   2  14 2.15251 3.17905   4
 -15   2   8 22.2941 9.58868  -4
   7   2  14 22.2941 9.58868   3
   7   2  14 -1.0973 4.89427   3
   8   2  14 26.5329 11.6664   4
   9   2  14 1.34674 4.65302   4
  13   3  10 28.3440 12.4307  -2
 -11   3  14 28.3440 12.4307   1
  13   3  10 24.1619 10.6571  -4
 -11   3  14 24.1619 10.6571   3
 -10   3  14 -2.1421 7.92535   1
  13   3   8 131.398 13.1766  -4
  -9   3  14 131.398 13.1766   3
  -9   3  14 58.4816 10.1332   1
  -8   3  14 -2.5006 5.30986   1
  -8   3  14 -1.9440 2.79934   3
   5   3  14 36.9008 13.6091  -3
  -8   3  14 36.9008 13.6091   1
  -7   3  14 47.5077 11.1985   3
  -7   3  14 33.7052 8.90596   2
   4   3  14 54.8501 9.48450  -3
  -7   3  14 54.8501 9.48450   1
  -7   3  14 40.3930 7.36813   1
   3   3  14 142.473 13.3024  -3
  -6   3  14 142.473 13.3024   1
  -6   3  14 -2.6974 3.10363   2
  -6   3  14 -0.8006 3.45980   1
   4   3  14 -5.3855 12.1768  -4
  -6   3  14 -5.3855 12.1768   2
  -6   3  14 5.05487 3.69657   3
  -5   3  14 68.3116 8.49576   3
  -5   3  14 95.2684 13.0033   1
 -14   3   3 55.1600 6.81316  -3
  -4   3  14 55.1600 6.81316   2
  -4   3  14 -6.2391 5.89329   1
   2   3  14 97.5865 18.0838  -4
 -14   3   3 97.5865 18.0838  -3
  -4   3  14 97.5865 18.0838   2
 -14   3   2 45.7571 9.87848  -3
  -3   3  14 45.7571 9.87848   2
  -3   3  14 23.2194 7.95179   4
  -2   3  14 17.0083 3.52455   3
  -1   3  14 42.4730 6.62559   2
  14   3   1 49.9437 13.0456  -4
 -14   3   1 49.9437 13.0456  -2
   0   3  14 49.9437 13.0456   1
   2   3  14 0.63705 3.15941   4
  -4   3  14 44.6430 12.2239  -3
 -14   3   3 44.6430 12.2239  -2
   2   3  14 44.6430 12.2239   1
  -5   3  14 81.5501 12.9975  -4
   2   3  14 81.5501 12.9975   2
   3   3  14 102.036 10.0925   1
  -6   3  14 83.2196 10.0383  -4
   3   3  14 83.2196 10.0383   2
   3   3  14 66.2293 6.70107   4
   3   3  14 102.453 9.46001   3
   4   3  14 -3.0829 3.20191   1
  -7   3  14 21.2827 7.92274  -4
   4   3  14 21.2827 7.92274   2
   4   3  14 4.97391 3.18200   4
   4   3  14 -1.4221 3.37911   3
   5   3  14 10.6774 3.65238   4
  -8   3  14 13.5895 7.63807  -4
   5   3  14 13.5895 7.63807   2
   5   3  14 20.2186 5.91426   1
   5   3  14 10.3858 5.43726   3
   6   3  14 -5.7649 3.74281   3
   6   3  14 0.27194 4.09489   4
   6   3  14 -0.8789 3.55352   1
  -9   3  14 115.828 16.2458  -4
   6   3  14 115.828 16.2458   2
   7   3  14 4.04843 3.72722   4
   7   3  14 6.76920 4.97721   1
   8   3  14 -8.1602 4.95264   4
  13   4   9 114.187 13.0202  -2
 -10   4  14 114.187 13.0202   1
  13   4   9 62.7130 11.1052  -4
 -10   4  14 62.7130 11.1052   3
  13   4   8 4.16746 7.29921  -4
  -9   4  14 4.16746 7.29921   3
   6   4  14 48.5693 14.6433  -3
  -9   4  14 48.5693 14.6433   1
  -8   4  14 53.1578 8.51918   1
  -8   4  14 28.7398 7.93847   3
  -7   4  14 -3.5826 3.01686   2
   4   4  14 19.3553 6.61166  -3
  -7   4  14 19.3553 6.61166   1
  -7   4  14 -5.4339 4.44293   3
  -7   4  14 1.47511 4.83194   1
  -6   4  14 5.82374 4.31098   2
   3   4  14 -5.4788 9.21803  -3
  -6   4  14 -5.4788 9.21803   1
  -6   4  14 2.40324 4.18725   3
  -6   4  14 1.19462 8.20814   1
   3   4  14 -9.5269 8.90650  -4
  -6   4  14 -9.5269 8.90650   2
  -5   4  14 -9.6313 7.37759   1
   2   4  14 44.2610 8.37113  -3
  -5   4  14 44.2610 8.37113   1
   2   4  14 25.4091 9.01305  -4
  -5   4  14 25.4091 9.01305   2
   2   4  14 4.77866 14.3816  -4
 -14   4   3 4.77866 14.3816  -3
  -4   4  14 4.77866 14.3816   2
  -4   4  14 2.08862 7.58710   1
 -14   4   3 3.16639 5.92708  -3
  -4   4  14 3.16639 5.92708   2
 -14   4   2 108.055 13.5774  -3
  -3   4  14 108.055 13.5774   2
  -2   4  14 56.2604 14.9496   3
  -2   4  14 33.3723 10.4779   2
  -1   4  14 58.5194 7.06751   4
  14   4   1 29.9092 15.1030  -4
 -14   4   1 29.9092 15.1030  -2
   0   4  14 29.9092 15.1030   1
   0   4  14 15.4197 4.87734   4
   0   4  14 27.2834 9.92608   3
  -4   4  14 43.5699 11.9899  -3
 -14   4   3 43.5699 11.9899  -2
   2   4  14 43.5699 11.9899   1
  -5   4  14 22.4423 10.3195  -4
   2   4  14 22.4423 10.3195   2
 -14   4   3 -6.8145 12.6654  -4
   2   4  14 -6.8145 12.6654   3
   2   4  14 7.47412 5.40111   4
   3   4  14 -3.1575 3.40012   1
   3   4  14 -1.9150 2.99765   4
  -6   4  14 -2.8007 6.44481  -4
   3   4  14 -2.8007 6.44481   2
   4   4  14 4.02554 3.08198   4
  -7   4  14 33.7957 8.23188  -4
   4   4  14 33.7957 8.23188   2
   4   4  14 7.93208 4.77423   3
   4   4  14 10.2496 5.47231   1
   5   4  14 3.15186 3.30072   4
   5   4  14 -2.0163 3.58880   3
   5   4  14 -1.6393 3.75771   1
  -8   4  14 10.4080 11.4279  -4
   5   4  14 10.4080 11.4279   2
  -9   4  14 17.8208 11.0514  -4
   6   4  14 17.8208 11.0514   2
   6   4  14 3.47997 3.28761   4
   6   4  14 11.3084 11.3783   3
   6   4  14 9.57161 5.29591   1
   7   4  14 -4.2669 3.03308   1
   7   4  14 3.38375 3.32466   4
  -8   5  14 1.11603 7.35372   2
  -8   5  14 1.05893 8.53825   3
   5   5  14 24.1244 11.8407  -4
  -8   5  14 24.1244 11.8407   2
  -7   5  14 66.7831 9.95173   2
   4   5  14 124.959 11.3463  -3
  -7   5  14 124.959 11.3463   1
 -14   5   6 142.706 20.3616  -4
  13   5   6 142.706 20.3616  -2
  -7   5  14 142.706 20.3616   1
   4   5  14 60.3347 12.4438  -4
  -7   5  14 60.3347 12.4438   2
  -7   5  14 50.9673 8.78857   3
  -7   5  14 74.1909 13.4681   1
   3   5  14 72.7564 8.71853  -3
  -6   5  14 72.7564 8.71853   1
  -6   5  14 -1.0490 3.56288   3
  -6   5  14 0.95835 3.98742   2
   2   5  14 63.3602 10.9908  -3
  -5   5  14 63.3602 10.9908   1
  -5   5  14 45.7748 8.20810   3
  -5   5  14 88.7215 15.2787   1
   2   5  14 26.8997 10.5156  -4
  -5   5  14 26.8997 10.5156   2
  -4   5  14 -8.6960 9.89881   1
 -14   5   3 66.8653 10.9323  -3
  -4   5  14 66.8653 10.9323   2
   2   5  14 103.589 20.9961  -4
 -14   5   3 103.589 20.9961  -3
  -4   5  14 103.589 20.9961   2
  -4   5  14 6.44509 7.89594   3
 -14   5   2 78.6106 19.1836  -4
  -3   5  14 78.6106 19.1836   1
  14   5   2 60.5844 16.3863  -4
  -3   5  14 60.5844 16.3863   3
  14   5   1 84.1085 15.8107  -4
  -2   5  14 84.1085 15.8107  -3
 -14   5   1 84.1085 15.8107  -2
   0   5  14 84.1085 15.8107   1
  14   5   2 153.001 19.6109  -4
  -3   5  14 153.001 19.6109  -3
 -14   5   2 153.001 19.6109  -2
   1   5  14 153.001 19.6109   1
   1   5  14 29.0779 6.37706   4
 -14   5   3 12.6825 14.4111  -2
   2   5  14 12.6825 14.4111   1
 -14   5   3 24.5411 11.7445  -4
   2   5  14 24.5411 11.7445   3
   2   5  14 -0.8304 4.70426   4
   3   5  14 48.3485 14.7793   1
  -6   5  14 36.8407 9.41864  -4
   3   5  14 36.8407 9.41864   2
   3   5  14 24.0213 11.4184   3
   3   5  14 42.8431 6.66526   4
   4   5  14 8.22904 5.00427   3
   4   5  14 -5.2155 3.15660   1
   4   5  14 1.31750 4.54572   4
  -7   5  14 72.4542 10.5663  -4
   4   5  14 72.4542 10.5663   2
  -8   5  14 48.6176 10.0625  -4
   5   5  14 48.6176 10.0625   2
   5   5  14 28.2652 6.29272   4
   5   5  14 57.1744 9.98098   1
   5   5  14 53.4178 14.4250   3
   6   5  14 4.67580 8.10900   1
   6   5  14 -6.1096 4.92316   4
   6   5  14 -4.6340 3.94281   3
  -5   6  14 -12.255 9.93351   1
  -5   6  14 1.89008 8.67441   3
  -5   6  14 2.00761 5.94546   2
   2   6  14 8.99825 7.77955  -3
  -5   6  14 8.99825 7.77955   1
  -4   6  14 -0.6378 11.2824   1
  -4   6  14 7.72484 6.06848   4
 -14   6   3 12.4097 8.74576  -3
  -4   6  14 12.4097 8.74576   2
  -3   6  14 4.77037 5.95866   2
  14   6   2 4.09983 17.6066  -4
  -3   6  14 4.09983 17.6066   3
  -1   6  14 1.53330 5.05832   4
  14   6   1 66.5790 15.6719  -4
  -2   6  14 66.5790 15.6719  -3
 -14   6   1 66.5790 15.6719  -2
   0   6  14 66.5790 15.6719   1
   0   6  14 3.61402 5.23438   4
   1   6  14 4.29901 6.10110   2
 -14   6   2 -18.299 18.9896  -2
   1   6  14 -18.299 18.9896   1
   1   6  14 -0.5853 3.94270   4
 -14   6   3 4.49720 16.0749  -4
   2   6  14 4.49720 16.0749   3
   2   6  14 10.6435 5.46702   4
   3   6  14 9.69886 3.75282   1
   3   6  14 -7.4525 3.40355   3
   3   6  14 -1.7805 6.06409   4
  14   0  10 19.1855 11.1303  -2
 -11   0  15 19.1855 11.1303   1
  14   0   9 -3.9445 10.6710  -4
 -10   0  15 -3.9445 10.6710   3
   7   0  15 55.6308 13.7630  -3
 -10   0  15 55.6308 13.7630   1
   6   0  15 79.9229 15.2876  -3
  -9   0  15 79.9229 15.2876   1
  14   0   8 68.7094 12.9668  -2
  -9   0  15 68.7094 12.9668   1
  -9   0  15 73.8460 12.2475   3
   5   0  15 21.8837 10.6901  -3
  -8   0  15 21.8837 10.6901   1
  -8   0  15 -0.0452 4.11808   1
  -8   0  15 -0.0240 4.74860   3
   4   0  15 23.5662 10.5854  -3
  -7   0  15 23.5662 10.5854   1
  -7   0  15 0.60483 3.99781   3
   4   0  15 -7.5554 11.7477  -4
  -7   0  15 -7.5554 11.7477   2
  -7   0  15 8.44986 8.47426   1
  -6   0  15 -2.0978 4.52989   1
  -6   0  15 2.41953 4.33200   3
   3   0  15 5.04324 7.39732  -4
  -6   0  15 5.04324 7.39732   2
   3   0  15 20.4338 9.35004  -3
  -6   0  15 20.4338 9.35004   1
   2   0  15 3.54813 8.54776  -3
  -5   0  15 3.54813 8.54776   1
  -5   0  15 -2.0250 3.76274   1
 -15   0   3 -5.1757 7.76516  -4
  -4   0  15 -5.1757 7.76516   1
 -15   0   2 4.12955 8.48110  -4
  -3   0  15 4.12955 8.48110   1
  -2   0  15 38.4336 11.9481  -4
  -1   0  15 38.4336 11.9481   2
  -1   0  15 29.5288 8.87542   1
   0   0  15 3.38439 4.73380   1
  -5   0  15 -5.8303 7.72971  -4
   2   0  15 -5.8303 7.72971   2
   2   0  15 -1.3880 2.96865   1
  -6   0  15 15.7910 5.77981  -4
   3   0  15 15.7910 5.77981   2
   3   0  15 -0.2427 3.88635   3
   3   0  15 3.67504 6.11315   1
  -7   0  15 -0.0995 5.47993  -4
   4   0  15 -0.0995 5.47993   2
   4   0  15 2.06101 3.64390   1
  -8   0  15 14.9086 5.72107  -4
   5   0  15 14.9086 5.72107   2
   5   0  15 12.3660 6.04549   3
   5   0  15 10.9227 6.90874   1
   6   0  15 -0.8523 4.46665   1
   6   0  15 -0.3624 4.41806   3
  -9   0  15 66.6447 13.3876  -4
   6   0  15 66.6447 13.3876   2
   7   0  15 29.0429 8.03383   3
   7   0  15 24.4501 9.92132   1
   8   0  15 -2.9444 4.55642   1
   8   1  15 26.0665 10.6895  -4
 -11   1  15 26.0665 10.6895   2
  14   1  10 2.21848 11.7318  -2
 -11   1  15 2.21848 11.7318   1
   8   1  15 17.6269 11.6208  -3
 -11   1  15 17.6269 11.6208   1
  14   1   9 69.0121 14.3251  -2
 -10   1  15 69.0121 14.3251   1
   7   1  15 33.6980 14.9429  -4
 -10   1  15 33.6980 14.9429   2
   7   1  15 40.9495 5.80301  -3
 -10   1  15 40.9495 5.80301   1
  14   1   9 59.3418 10.4754  -4
 -10   1  15 59.3418 10.4754   3
   6   1  15 113.955 7.49027  -3
  -9   1  15 113.955 7.49027   1
  -9   1  15 11.1501 6.18647   1
  -9   1  15 1.75629 3.66091   3
  14   1   8 0.61268 10.6664  -2
  -9   1  15 0.61268 10.6664   1
   5   1  15 63.9197 6.35896  -3
  -8   1  15 63.9197 6.35896   1
  -8   1  15 52.8414 7.87307   1
   5   1  15 38.2074 14.8167  -4
  -8   1  15 38.2074 14.8167   2
  -8   1  15 34.8050 6.69415   3
  -7   1  15 12.0523 4.42146   1
   4   1  15 149.107 8.55500  -3
  -7   1  15 149.107 8.55500   1
  -7   1  15 -1.0180 3.40611   3
   4   1  15 105.268 12.0691  -4
  -7   1  15 105.268 12.0691   2
   3   1  15 160.216 8.90255  -3
  -6   1  15 160.216 8.90255   1
  -6   1  15 41.6015 6.54251   4
  -6   1  15 88.5677 9.32374   3
  -6   1  15 122.427 9.97889   1
   3   1  15 105.146 11.8489  -4
  -6   1  15 105.146 11.8489   2
   2   1  15 99.3086 7.30362  -3
  -5   1  15 99.3086 7.30362   1
  -5   1  15 9.89668 5.45265   1
  -5   1  15 3.73488 3.23876   3
  -4   1  15 126.517 10.6681   3
   1   1  15 226.448 23.1839  -3
  -4   1  15 226.448 23.1839   1
 -15   1   3 172.468 18.5240  -4
  -4   1  15 172.468 18.5240   1
 -15   1   2 64.3846 12.3774  -4
  -3   1  15 64.3846 12.3774   1
  -3   1  15 8.85944 5.11270   3
  -2   1  15 75.8723 13.5118  -4
  -1   1  15 75.8723 13.5118   2
  -1   1  15 4.37345 5.32879   1
   1   1  15 14.6167 6.86439   1
   2   1  15 55.9546 6.97044   3
  -5   1  15 57.5469 9.22008  -4
   2   1  15 57.5469 9.22008   2
   2   1  15 70.5861 8.18290   1
   3   1  15 4.37438 3.77864   1
  -6   1  15 113.976 9.02636  -4
   3   1  15 113.976 9.02636   2
   3   1  15 3.90838 3.66056   3
   4   1  15 116.067 10.8336   1
   4   1  15 87.2481 8.34710   3
  -7   1  15 112.944 11.6393  -4
   4   1  15 112.944 11.6393   2
   5   1  15 -1.6780 3.35930   3
   5   1  15 2.32561 3.47208   1
  -8   1  15 48.8273 6.46196  -4
   5   1  15 48.8273 6.46196   2
  -9   1  15 78.8074 9.76229  -4
   6   1  15 78.8074 9.76229   2
   6   1  15 69.7542 9.33839   1
   6   1  15 38.5530 8.98555   3
   7   1  15 -2.3744 5.03531   3
   7   1  15 0.05187 4.00995   1
 -10   1  15 45.8149 12.5784  -4
   7   1  15 45.8149 12.5784   2
   8   1  15 14.2387 9.36043   1
 -11   1  15 14.7261 10.6675  -4
   8   1  15 14.7261 10.6675   2
   8   1  15 28.3513 9.91320   3
  14   2   9 0.50752 11.7828  -2
 -10   2  15 0.50752 11.7828   1
   7   2  15 2.15594 4.38655  -3
 -10   2  15 2.15594 4.38655   1
   6   2  15 11.2957 4.44486  -3
  -9   2  15 11.2957 4.44486   1
  -9   2  15 14.6869 5.01919   3
   6   2  15 11.0648 12.6743  -4
  -9   2  15 11.0648 12.6743   2
  -8   2  15 -0.7267 5.79803   3
  -8   2  15 1.82233 4.06288   1
   5   2  15 0.77727 9.52122  -3
  -8   2  15 0.77727 9.52122   1
   5   2  15 -1.3777 8.76705  -4
  -8   2  15 -1.3777 8.76705   2
   4   2  15 7.46072 3.90706  -3
  -7   2  15 7.46072 3.90706   1
  -7   2  15 4.00835 3.78918   3
  -7   2  15 11.3139 4.54568   1
   4   2  15 0.67775 8.59888  -4
  -7   2  15 0.67775 8.59888   2
   3   2  15 18.9624 4.14919  -3
  -6   2  15 18.9624 4.14919   1
   3   2  15 8.47571 8.05355  -4
  -6   2  15 8.47571 8.05355   2
  -6   2  15 -1.6645 4.14047   1
  -6   2  15 -0.3076 2.95241   3
  -5   2  15 10.0576 4.54957   1
  -5   2  15 5.33315 3.71873   3
   2   2  15 22.5285 4.21735  -3
  -5   2  15 22.5285 4.21735   1
  -4   2  15 3.31856 2.89652   3
 -15   2   3 30.1476 10.6728  -4
  -4   2  15 30.1476 10.6728   1
  -4   2  15 6.45940 5.94036   1
   1   2  15 125.621 8.59703  -3
  -4   2  15 125.621 8.59703   1
 -15   2   2 70.0796 12.6319  -4
  -3   2  15 70.0796 12.6319   1
  -3   2  15 33.0439 7.28573   4
 -15   2   1 64.8611 12.9023  -4
  -2   2  15 64.8611 12.9023   1
  -2   2  15 83.7736 13.3488  -4
  -1   2  15 83.7736 13.3488   2
  -1   2  15 84.5255 12.2473   1
   0   2  15 10.7643 6.85495   1
  -3   2  15 109.976 17.8381  -3
 -15   2   2 109.976 17.8381  -2
   1   2  15 109.976 17.8381   1
   1   2  15 52.1514 12.5293   3
   1   2  15 60.6325 7.43342   2
  -5   2  15 9.18418 6.48271  -4
   2   2  15 9.18418 6.48271   2
 -15   2   3 30.0572 11.1928  -2
   2   2  15 30.0572 11.1928   1
   2   2  15 -4.1163 4.77775   1
   2   2  15 -1.4294 4.36582   3
  -6   2  15 5.20212 5.34005  -4
   3   2  15 5.20212 5.34005   2
   3   2  15 7.48630 4.16714   3
   3   2  15 31.7235 10.1786   1
   4   2  15 -1.4159 2.87906   1
  -7   2  15 11.4653 5.51649  -4
   4   2  15 11.4653 5.51649   2
   4   2  15 0.96537 2.83420   3
  -8   2  15 11.9798 7.05494  -4
   5   2  15 11.9798 7.05494   2
   5   2  15 4.92772 4.09598   3
   5   2  15 4.56438 4.17373   1
   6   2  15 0.92176 3.41716   1
   6   2  15 1.57023 4.98846   3
  -9   2  15 25.8381 7.42261  -4
   6   2  15 25.8381 7.42261   2
 -10   2  15 16.9444 9.80773  -4
   7   2  15 16.9444 9.80773   2
   7   2  15 2.00796 6.23186   3
   8   2  15 1.16900 4.72962   4
   8   2  15 2.70631 3.72493   3
   8   2  15 5.10104 8.14752   1
   8   2  15 10.3998 6.60699   2
 -10   3  15 10.8466 11.7487   3
   7   3  15 23.0129 7.74019  -3
 -10   3  15 23.0129 7.74019   1
  -9   3  15 11.2450 8.22606   1
  -9   3  15 -3.9216 5.96000   3
   6   3  15 40.3228 6.51736  -3
  -9   3  15 40.3228 6.51736   1
   5   3  15 18.0010 14.5328  -4
  -8   3  15 18.0010 14.5328   2
   5   3  15 30.3667 5.45480  -3
  -8   3  15 30.3667 5.45480   1
  -8   3  15 8.98720 8.80100   3
  -8   3  15 43.4101 11.7776   1
  -8   3  15 20.3812 8.73201   2
  -7   3  15 5.45004 6.86862   2
   4   3  15 54.4071 6.24804  -3
  -7   3  15 54.4071 6.24804   1
   4   3  15 45.6767 14.2807  -4
  -7   3  15 45.6767 14.2807   2
  -7   3  15 5.94223 5.99096   1
   3   3  15 45.9078 9.84055  -4
  -6   3  15 45.9078 9.84055   2
   3   3  15 64.7671 5.98388  -3
  -6   3  15 64.7671 5.98388   1
  -6   3  15 47.9129 7.69405   3
  -6   3  15 67.2768 14.0204   1
  -6   3  15 36.7960 11.0000   2
   2   3  15 38.6842 6.27867  -3
  -5   3  15 38.6842 6.27867   1
  -5   3  15 0.90500 3.23319   3
 -15   3   3 28.9498 10.6028  -3
  -4   3  15 28.9498 10.6028   2
  -4   3  15 40.0562 7.65380   3
  -4   3  15 60.3965 13.2284   1
 -15   3   3 90.8676 14.9485  -4
  -4   3  15 90.8676 14.9485   1
   1   3  15 57.5484 8.29014  -3
  -4   3  15 57.5484 8.29014   1
 -15   3   2 18.5771 9.81413  -4
  -3   3  15 18.5771 9.81413   1
   0   3  15 16.4354 5.88283  -3
  -3   3  15 16.4354 5.88283   1
  -2   3  15 13.2907 5.61417   2
  -2   3  15 5.58338 4.68546   4
  -1   3  15 13.4095 5.66992   4
  -1   3  15 2.01860 4.28992   2
  -2   3  15 13.8850 8.82537  -4
  -1   3  15 13.8850 8.82537   2
   0   3  15 12.8252 5.58244   4
   1   3  15 6.04888 5.21524   4
   1   3  15 -5.3223 5.46693   3
  -5   3  15 26.5427 10.7590  -4
   2   3  15 26.5427 10.7590   2
   2   3  15 22.5000 7.00161   4
 -15   3   3 28.9484 11.2013  -2
   2   3  15 28.9484 11.2013   1
   2   3  15 26.4352 10.5911   1
  -6   3  15 62.3296 7.50018  -4
   3   3  15 62.3296 7.50018   2
   3   3  15 7.12812 5.93918   4
   3   3  15 -1.1226 3.08154   1
   3   3  15 -5.9494 4.20314   3
  -7   3  15 27.0448 6.30130  -4
   4   3  15 27.0448 6.30130   2
   4   3  15 41.8177 8.11138   1
   4   3  15 62.0198 13.3988   3
   4   3  15 18.2252 7.70865   4
   5   3  15 -3.9049 5.44494   3
   5   3  15 2.91222 6.18868   1
  -8   3  15 20.9877 6.36427  -4
   5   3  15 20.9877 6.36427   2
  -8   3  15 8.95262 9.78458  -3
   5   3  15 8.95262 9.78458   1
   5   3  15 4.81497 7.04392   4
  -9   3  15 38.7642 8.33873  -4
   6   3  15 38.7642 8.33873   2
   6   3  15 38.1742 12.7319   1
   6   3  15 55.0198 11.8813   3
  -9   3  15 35.2076 11.1214  -3
   6   3  15 35.2076 11.1214   1
   6   3  15 18.9422 7.94028   4
 -16   3   8 -4.6370 10.8547  -4
   7   3  15 -4.6370 10.8547   3
   7   3  15 1.44727 4.53414   1
   7   3  15 -1.7457 4.68776   4
   7   3  15 14.7356 6.20024   2
   7   3  15 -3.5121 4.85697   3
   5   4  15 18.0710 6.39390  -3
  -8   4  15 18.0710 6.39390   1
  -8   4  15 3.41673 6.74153   3
  -8   4  15 0.08732 7.19473   2
  -8   4  15 -0.0870 9.83966   1
   5   4  15 17.4478 12.0543  -4
  -8   4  15 17.4478 12.0543   2
   4   4  15 32.7055 7.59524  -4
  -7   4  15 32.7055 7.59524   2
  -7   4  15 31.0894 9.77488   2
   4   4  15 58.4072 7.92159  -3
  -7   4  15 58.4072 7.92159   1
  -7   4  15 30.6859 8.47291   1
  -7   4  15 27.8993 12.2519   3
   3   4  15 6.95343 6.17960  -4
  -6   4  15 6.95343 6.17960   2
  -6   4  15 1.05981 3.34257   3
  -6   4  15 1.17964 4.88928   1
   3   4  15 12.1661 5.33681  -3
  -6   4  15 12.1661 5.33681   1
  -6   4  15 5.57249 7.31409   2
   2   4  15 17.1907 9.15305  -4
  -5   4  15 17.1907 9.15305   2
   2   4  15 -0.0243 4.97402  -3
  -5   4  15 -0.0243 4.97402   1
  -5   4  15 7.84116 4.08082   3
   1   4  15 5.83456 5.16627  -3
  -4   4  15 5.83456 5.16627   1
 -15   4   3 2.31071 9.06089  -4
  -4   4  15 2.31071 9.06089   1
  -4   4  15 -2.3828 3.39068   3
   1   4  15 5.51997 8.38223  -4
  -4   4  15 5.51997 8.38223   2
 -15   4   3 15.5361 9.58712  -3
  -4   4  15 15.5361 9.58712   2
   0   4  15 13.5087 6.37040  -3
  -3   4  15 13.5087 6.37040   1
  -3   4  15 16.7860 6.47894   2
  -2   4  15 2.70842 6.00808   2
 -15   4   1 -2.7344 13.4160  -4
  -2   4  15 -2.7344 13.4160   1
  -1   4  15 37.1520 7.46823  -3
  -2   4  15 37.1520 7.46823   1
  -1   4  15 33.6760 11.7424   1
  15   4   1 7.31279 17.0386  -4
  -2   4  15 7.31279 17.0386  -3
 -15   4   1 7.31279 17.0386  -2
   0   4  15 7.31279 17.0386   1
   0   4  15 -1.8444 4.70644   4
   1   4  15 -2.9187 4.52099   4
   1   4  15 9.63066 7.44722   1
   2   4  15 -8.2766 6.78188   1
  -5   4  15 2.46426 8.87367  -4
   2   4  15 2.46426 8.87367   2
   2   4  15 -6.2856 5.55639   4
  -6   4  15 2.52483 5.29941  -4
   3   4  15 2.52483 5.29941   2
   3   4  15 -4.4348 3.38725   1
   3   4  15 3.68434 6.13651   3
   3   4  15 5.93318 5.28159   4
   4   4  15 3.31684 7.09518   1
   4   4  15 -4.2091 4.18937   3
  -7   4  15 39.4203 7.05066  -4
   4   4  15 39.4203 7.05066   2
   4   4  15 -1.7869 5.36332   4
  -7   4  15 46.8334 11.6619  -3
   4   4  15 46.8334 11.6619   1
  -8   4  15 24.4304 10.6709  -3
   5   4  15 24.4304 10.6709   1
  -8   4  15 17.4538 6.64672  -4
   5   4  15 17.4538 6.64672   2
   5   4  15 -0.2981 5.97104   4
   5   4  15 12.8132 6.59819   3
   5   4  15 5.05767 7.86093   1
   6   4  15 -2.6387 4.37607   4
   6   4  15 29.7727 10.0880   2
  -6   5  15 36.0689 10.3077   2
   3   5  15 76.9867 8.79270  -3
  -6   5  15 76.9867 8.79270   1
   3   5  15 51.1048 17.1206  -4
  -6   5  15 51.1048 17.1206   2
  -6   5  15 20.8773 13.0917   3
  -6   5  15 18.7596 13.1952   1
   2   5  15 104.052 9.90493  -3
  -5   5  15 104.052 9.90493   1
   2   5  15 58.6721 11.6681  -4
  -5   5  15 58.6721 11.6681   2
  -5   5  15 2.30940 6.62739   2
  -4   5  15 32.5353 7.88029   3
   1   5  15 10.6242 9.77997  -4
  -4   5  15 10.6242 9.77997   2
 -15   5   3 62.8277 14.3417  -4
  -4   5  15 62.8277 14.3417   1
  -4   5  15 38.1780 9.31148   2
   1   5  15 67.9717 10.0290  -3
  -4   5  15 67.9717 10.0290   1
 -15   5   2 38.4585 13.0150  -4
  -3   5  15 38.4585 13.0150   1
  -3   5  15 14.4769 11.5565   3
  -3   5  15 -3.0331 5.63366   2
   0   5  15 51.3327 9.01261  -3
  -3   5  15 51.3327 9.01261   1
  -1   5  15 53.8396 8.98993  -3
  -2   5  15 53.8396 8.98993   1
  15   5   0 50.6828 22.4617  -4
  -2   5  15 50.6828 22.4617  -3
  -1   5  15 50.6828 22.4617   1
  -2   5  15 47.9396 8.06489  -3
  -1   5  15 47.9396 8.06489   1
   1   5  15 12.6957 5.52792   4
  -4   5  15 34.4083 10.9430  -4
   1   5  15 34.4083 10.9430   2
  -5   5  15 64.7519 12.1784  -4
   2   5  15 64.7519 12.1784   2
   2   5  15 30.2878 7.63210   4
   2   5  15 47.1480 15.7552   1
   3   5  15 -11.944 8.59877   1
   3   5  15 -3.3294 5.12372   3
  -6   5  15 51.4125 9.76917  -4
   3   5  15 51.4125 9.76917   2
   3   5  15 0.85894 5.56360   4
   7   0  16 16.8106 15.2010  -4
 -10   0  16 16.8106 15.2010   2
   6   0  16 23.3300 6.73179  -3
  -9   0  16 23.3300 6.73179   1
   6   0  16 22.0581 10.8035  -4
  -9   0  16 22.0581 10.8035   2
   5   0  16 53.5891 16.1615  -4
  -8   0  16 53.5891 16.1615   2
   5   0  16 110.121 10.4655  -3
  -8   0  16 110.121 10.4655   1
   4   0  16 6.36580 5.38408  -3
  -7   0  16 6.36580 5.38408   1
   4   0  16 1.21664 8.20315  -4
  -7   0  16 1.21664 8.20315   2
   3   0  16 21.5230 7.31224  -4
  -6   0  16 21.5230 7.31224   2
   3   0  16 44.7482 7.70313  -3
  -6   0  16 44.7482 7.70313   1
   2   0  16 2.18247 5.27047  -3
  -5   0  16 2.18247 5.27047   1
   2   0  16 -5.4280 5.94321  -4
  -5   0  16 -5.4280 5.94321   2
   1   0  16 4.07385 4.81037  -3
  -4   0  16 4.07385 4.81037   1
   1   0  16 -6.0339 7.05585  -4
  -4   0  16 -6.0339 7.05585   2
   0   0  16 8.37050 7.51068  -4
  -3   0  16 8.37050 7.51068   2
   0   0  16 10.5910 5.61180  -3
  -3   0  16 10.5910 5.61180   1
  -1   0  16 10.8661 7.70510  -3
  -2   0  16 10.8661 7.70510   1
  -2   0  16 5.08837 5.65634  -3
  -1   0  16 5.08837 5.65634   1
  -2   0  16 9.05372 7.65423  -4
  -1   0  16 9.05372 7.65423   2
  -3   0  16 8.36091 8.31415  -3
   0   0  16 8.36091 8.31415   1
  -3   0  16 7.85416 7.64256  -4
   0   0  16 7.85416 7.64256   2
  -4   0  16 4.36099 7.25146  -3
   1   0  16 4.36099 7.25146   1
  -4   0  16 -2.3356 6.64923  -4
   1   0  16 -2.3356 6.64923   2
  -5   0  16 -3.8027 6.36330  -4
   2   0  16 -3.8027 6.36330   2
  -5   0  16 4.31210 8.03860  -3
   2   0  16 4.31210 8.03860   1
  -6   0  16 56.1264 11.8762  -3
   3   0  16 56.1264 11.8762   1
  -6   0  16 32.2437 6.91326  -4
   3   0  16 32.2437 6.91326   2
  -7   0  16 10.1713 8.86020  -3
   4   0  16 10.1713 8.86020   1
  -7   0  16 0.33131 5.29098  -4
   4   0  16 0.33131 5.29098   2
  -8   0  16 68.5721 8.08161  -4
   5   0  16 68.5721 8.08161   2
  -8   0  16 93.8166 16.2914  -3
   5   0  16 93.8166 16.2914   1
  -9   0  16 10.6525 9.16138  -3
   6   0  16 10.6525 9.16138   1
  -9   0  16 20.0886 9.50747  -4
   6   0  16 20.0886 9.50747   2
   7   0  16 1.54471 5.58865   3
   6   1  16 13.2929 4.44898  -3
  -9   1  16 13.2929 4.44898   1
   6   1  16 1.33132 6.48325  -4
  -9   1  16 1.33132 6.48325   2
   5   1  16 24.6098 5.52734  -4
  -8   1  16 24.6098 5.52734   2
   5   1  16 24.7673 4.82813  -3
  -8   1  16 24.7673 4.82813   1
   4   1  16 14.0505 5.18129  -4
  -7   1  16 14.0505 5.18129   2
   4   1  16 27.5325 5.09574  -3
  -7   1  16 27.5325 5.09574   1
   3   1  16 31.0776 5.46612  -4
  -6   1  16 31.0776 5.46612   2
   3   1  16 50.3346 5.65813  -3
  -6   1  16 50.3346 5.65813   1
   2   1  16 14.6379 5.34272  -4
  -5   1  16 14.6379 5.34272   2
   2   1  16 26.5920 4.90904  -3
  -5   1  16 26.5920 4.90904   1
   1   1  16 86.2760 10.2170  -4
  -4   1  16 86.2760 10.2170   2
   1   1  16 150.980 8.84046  -3
  -4   1  16 150.980 8.84046   1
   0   1  16 108.130 8.60485  -3
  -3   1  16 108.130 8.60485   1
   0   1  16 65.1973 8.96270  -4
  -3   1  16 65.1973 8.96270   2
  -1   1  16 18.6281 6.48841  -4
  -2   1  16 18.6281 6.48841   2
  -1   1  16 36.6400 10.7788  -3
  -2   1  16 36.6400 10.7788   1
  -2   1  16 19.6901 6.51991  -4
  -1   1  16 19.6901 6.51991   2
  -2   1  16 42.0721 7.39569  -3
  -1   1  16 42.0721 7.39569   1
  -3   1  16 65.5440 8.55430  -4
   0   1  16 65.5440 8.55430   2
  -3   1  16 85.6996 9.83143  -3
   0   1  16 85.6996 9.83143   1
  -4   1  16 119.571 11.6257  -3
   1   1  16 119.571 11.6257   1
  -4   1  16 104.374 15.3788  -4
   1   1  16 104.374 15.3788   2
  -5   1  16 9.70918 5.44759  -4
   2   1  16 9.70918 5.44759   2
   2   1  16 3.72164 6.53652   1
  -6   1  16 40.8067 7.82608  -3
   3   1  16 40.8067 7.82608   1
  -6   1  16 38.9139 4.50061  -4
   3   1  16 38.9139 4.50061   2
  -7   1  16 9.25179 5.10629  -4
   4   1  16 9.25179 5.10629   2
  -7   1  16 18.8891 7.26383  -3
   4   1  16 18.8891 7.26383   1
  -8   1  16 23.0747 5.75511  -4
   5   1  16 23.0747 5.75511   2
  -8   1  16 39.9253 10.4666  -3
   5   1  16 39.9253 10.4666   1
  -9   1  16 11.3850 6.04242  -4
   6   1  16 11.3850 6.04242   2
  -9   1  16 14.8428 7.43504  -3
   6   1  16 14.8428 7.43504   1
   7   1  16 10.5297 6.31695   4
   7   1  16 0.16738 5.56172   2
   6   2  16 126.812 9.87225  -3
  -9   2  16 126.812 9.87225   1
   6   2  16 30.2588 12.5140  -4
  -9   2  16 30.2588 12.5140   2
   5   2  16 80.2509 7.34988  -3
  -8   2  16 80.2509 7.34988   1
   5   2  16 58.9942 7.40257  -4
  -8   2  16 58.9942 7.40257   2
   4   2  16 62.3059 5.13679  -3
  -7   2  16 62.3059 5.13679   1
   4   2  16 30.1026 7.17312  -4
  -7   2  16 30.1026 7.17312   2
   3   2  16 16.8834 5.48404  -4
  -6   2  16 16.8834 5.48404   2
   3   2  16 37.1887 4.73870  -3
  -6   2  16 37.1887 4.73870   1
   2   2  16 11.2333 5.09275  -3
  -5   2  16 11.2333 5.09275   1
   2   2  16 8.78492 6.75228  -4
  -5   2  16 8.78492 6.75228   2
   1   2  16 10.5635 5.33107  -3
  -4   2  16 10.5635 5.33107   1
   1   2  16 19.4314 8.39837  -4
  -4   2  16 19.4314 8.39837   2
   1   2  16 46.6014 11.4455  -3
  16   2   2 46.6014 11.4455  -2
  -4   2  16 46.6014 11.4455   1
   0   2  16 10.7248 5.71556  -4
  -3   2  16 10.7248 5.71556   2
   0   2  16 12.7436 5.96403  -3
  -3   2  16 12.7436 5.96403   1
  -1   2  16 11.3121 5.27008  -4
  -2   2  16 11.3121 5.27008   2
  -2   2  16 4.45377 5.20630  -4
  -1   2  16 4.45377 5.20630   2
  -2   2  16 -2.1297 7.20023  -3
  -1   2  16 -2.1297 7.20023   1
  -3   2  16 10.9128 5.63489  -4
   0   2  16 10.9128 5.63489   2
  -3   2  16 8.89792 6.25894  -3
   0   2  16 8.89792 6.25894   1
  -4   2  16 5.37282 6.61609  -4
   1   2  16 5.37282 6.61609   2
  -4   2  16 47.4576 11.6701  -3
   1   2  16 47.4576 11.6701   1
   2   2  16 14.8058 7.66168   3
  -5   2  16 8.90690 6.28434  -3
   2   2  16 8.90690 6.28434   1
  -5   2  16 10.9414 5.65498  -4
   2   2  16 10.9414 5.65498   2
  -6   2  16 36.4562 7.65049  -3
   3   2  16 36.4562 7.65049   1
  -6   2  16 21.8055 5.50384  -4
   3   2  16 21.8055 5.50384   2
  -7   2  16 53.4931 6.61029  -4
   4   2  16 53.4931 6.61029   2
  -7   2  16 38.2334 8.12675  -3
   4   2  16 38.2334 8.12675   1
  -8   2  16 56.4988 7.17914  -4
   5   2  16 56.4988 7.17914   2
  -8   2  16 89.5864 11.0209  -3
   5   2  16 89.5864 11.0209   1
  -9   2  16 77.9058 13.9903  -4
   6   2  16 77.9058 13.9903   2
   5   3  16 30.1925 5.58946  -3
  -8   3  16 30.1925 5.58946   1
   5   3  16 8.69979 9.27486  -4
  -8   3  16 8.69979 9.27486   2
   4   3  16 22.3318 6.89020  -4
  -7   3  16 22.3318 6.89020   2
   4   3  16 35.1743 4.81245  -3
  -7   3  16 35.1743 4.81245   1
   3   3  16 79.4889 5.83450  -3
  -6   3  16 79.4889 5.83450   1
   3   3  16 46.7486 6.93770  -4
  -6   3  16 46.7486 6.93770   2
   2   3  16 81.6812 6.31346  -3
  -5   3  16 81.6812 6.31346   1
   2   3  16 40.7140 7.15074  -4
  -5   3  16 40.7140 7.15074   2
   1   3  16 15.3719 3.82482  -3
  -4   3  16 15.3719 3.82482   1
   1   3  16 13.0312 11.5905  -4
 -16   3   3 13.0312 11.5905  -3
  -4   3  16 13.0312 11.5905   2
   1   3  16 1.20956 7.96387  -4
  -4   3  16 1.20956 7.96387   2
   0   3  16 19.3743 5.63626  -3
  -3   3  16 19.3743 5.63626   1
   0   3  16 11.4994 4.64943  -4
  -3   3  16 11.4994 4.64943   2
  -1   3  16 19.8802 5.01633  -4
  -2   3  16 19.8802 5.01633   2
  -1   3  16 28.0287 7.65337  -3
  -2   3  16 28.0287 7.65337   1
  -2   3  16 31.7589 6.69635  -4
  -1   3  16 31.7589 6.69635   2
  -2   3  16 5.15044 11.2688  -3
  -1   3  16 5.15044 11.2688   1
  -1   3  16 18.8665 5.85528   2
  -3   3  16 20.7882 11.6890  -3
   0   3  16 20.7882 11.6890   1
  -3   3  16 10.0045 5.92259  -4
   0   3  16 10.0045 5.92259   2
  -4   3  16 12.9087 7.42119  -4
   1   3  16 12.9087 7.42119   2
  -4   3  16 0.21662 6.47775  -3
   1   3  16 0.21662 6.47775   1
  -5   3  16 28.8449 7.01591  -4
   2   3  16 28.8449 7.01591   2
  -5   3  16 57.3368 9.64243  -3
   2   3  16 57.3368 9.64243   1
  -6   3  16 41.4718 6.43296  -4
   3   3  16 41.4718 6.43296   2
  -6   3  16 77.9265 13.6641  -3
   3   3  16 77.9265 13.6641   1
  -7   3  16 9.81916 5.80426  -4
   4   3  16 9.81916 5.80426   2
  -7   3  16 35.0202 7.97767  -3
   4   3  16 35.0202 7.97767   1
   5   3  16 25.2206 9.57497   3
   5   3  16 5.69909 8.43763   1
  -8   3  16 31.0685 12.4887  -3
   5   3  16 31.0685 12.4887   1
  -8   3  16 23.4781 7.20405  -4
   5   3  16 23.4781 7.20405   2
   3   4  16 1.48627 4.93482  -3
  -6   4  16 1.48627 4.93482   1
   3   4  16 2.26879 13.1677  -4
  -6   4  16 2.26879 13.1677   2
   2   4  16 64.3347 10.2990  -4
  -5   4  16 64.3347 10.2990   2
   2   4  16 74.9570 6.53450  -3
  -5   4  16 74.9570 6.53450   1
   1   4  16 64.1773 7.24842  -3
  -4   4  16 64.1773 7.24842   1
   1   4  16 53.1167 12.1325  -4
  -4   4  16 53.1167 12.1325   2
   1   4  16 85.1876 16.4138  -4
 -16   4   3 85.1876 16.4138  -3
  -4   4  16 85.1876 16.4138   2
   0   4  16 39.3322 10.1331  -4
  -3   4  16 39.3322 10.1331   2
   0   4  16 188.607 23.6585  -4
 -16   4   2 188.607 23.6585  -3
  -3   4  16 188.607 23.6585   2
  -3   4  16 28.1944 7.08473   2
  -1   4  16 115.431 16.7000  -3
  -2   4  16 115.431 16.7000   1
  -1   4  16 111.160 13.8687  -4
  -2   4  16 111.160 13.8687   2
  -2   4  16 131.120 21.5692  -3
  -1   4  16 131.120 21.5692   1
  -2   4  16 72.4780 8.97633  -4
  -1   4  16 72.4780 8.97633   2
   0   4  16 50.7287 8.81341   4
  -3   4  16 53.9496 10.3547  -4
   0   4  16 53.9496 10.3547   2
  -3   4  16 92.4366 18.3579  -3
   0   4  16 92.4366 18.3579   1
  -4   4  16 13.7657 8.65221  -4
   1   4  16 13.7657 8.65221   2
  -4   4  16 58.5151 10.0343  -3
   1   4  16 58.5151 10.0343   1
  -5   4  16 38.5234 15.4136  -3
   2   4  16 38.5234 15.4136   1
  -5   4  16 42.8330 8.68722  -4
   2   4  16 42.8330 8.68722   2
  -6   4  16 3.36691 6.03441  -4
   3   4  16 3.36691 6.03441   2
   3   4  16 0.36456 6.22635   3
  -6   4  16 -8.1252 10.8700  -3
   3   4  16 -8.1252 10.8700   1
   3   4  16 -9.4898 7.12663   1
   5   0  17 13.0472 10.9562  -4
  -8   0  17 13.0472 10.9562   2
   4   0  17 24.1743 11.0352  -4
  -7   0  17 24.1743 11.0352   2
   4   0  17 21.7433 6.58064  -3
  -7   0  17 21.7433 6.58064   1
   3   0  17 9.66657 5.75166  -3
  -6   0  17 9.66657 5.75166   1
   3   0  17 -3.5644 9.41156  -4
  -6   0  17 -3.5644 9.41156   2
   2   0  17 4.54257 6.62243  -3
  -5   0  17 4.54257 6.62243   1
   2   0  17 -0.7791 8.49536  -4
  -5   0  17 -0.7791 8.49536   2
   1   0  17 4.31571 6.55765  -3
  -4   0  17 4.31571 6.55765   1
   0   0  17 2.05005 6.52479  -3
  -3   0  17 2.05005 6.52479   1
  -1   0  17 12.7378 10.6672  -4
  -2   0  17 12.7378 10.6672   2
  -1   0  17 12.4860 7.53072  -3
  -2   0  17 12.4860 7.53072   1
  -2   0  17 25.7191 11.4663  -4
  -1   0  17 25.7191 11.4663   2
  -2   0  17 18.5047 7.29081  -3
  -1   0  17 18.5047 7.29081   1
  -3   0  17 2.20294 5.78374  -3
   0   0  17 2.20294 5.78374   1
  -4   0  17 3.13487 7.33338  -3
   1   0  17 3.13487 7.33338   1
  -5   0  17 0.93360 6.19806  -4
   2   0  17 0.93360 6.19806   2
  -5   0  17 6.27154 7.08224  -3
   2   0  17 6.27154 7.08224   1
  -6   0  17 7.47393 5.95936  -4
   3   0  17 7.47393 5.95936   2
  -6   0  17 -3.6344 5.98309  -3
   3   0  17 -3.6344 5.98309   1
  -7   0  17 4.30963 5.89286  -4
   4   0  17 4.30963 5.89286   2
   4   1  17 68.3660 7.17986  -3
  -7   1  17 68.3660 7.17986   1
   4   1  17 50.9419 9.42266  -4
  -7   1  17 50.9419 9.42266   2
   3   1  17 38.3876 7.35088  -4
  -6   1  17 38.3876 7.35088   2
   3   1  17 55.9221 6.17468  -3
  -6   1  17 55.9221 6.17468   1
   2   1  17 41.8480 8.34343  -4
  -5   1  17 41.8480 8.34343   2
   2   1  17 25.0015 6.56110  -3
  -5   1  17 25.0015 6.56110   1
   1   1  17 27.8561 6.58025  -3
  -4   1  17 27.8561 6.58025   1
   0   1  17 4.46687 5.38448  -3
  -3   1  17 4.46687 5.38448   1
  -1   1  17 -0.6059 4.59854  -3
  -2   1  17 -0.6059 4.59854   1
  -2   1  17 7.97463 5.04656  -3
  -1   1  17 7.97463 5.04656   1
  -2   1  17 -3.9428 6.62585  -4
  -1   1  17 -3.9428 6.62585   2
  -3   1  17 37.1410 10.3388  -4
   0   1  17 37.1410 10.3388   2
  -3   1  17 25.6099 5.56794  -3
   0   1  17 25.6099 5.56794   1
  -4   1  17 25.8834 6.29205  -3
   1   1  17 25.8834 6.29205   1
  -4   1  17 13.0259 9.07334  -4
   1   1  17 13.0259 9.07334   2
  -5   1  17 45.2452 7.51826  -3
   2   1  17 45.2452 7.51826   1
  -5   1  17 43.6129 6.99554  -4
   2   1  17 43.6129 6.99554   2
  -6   1  17 38.8730 6.72273  -4
   3   1  17 38.8730 6.72273   2
  -6   1  17 32.1350 7.23346  -3
   3   1  17 32.1350 7.23346   1
  -7   1  17 90.9987 10.0896  -4
   4   1  17 90.9987 10.0896   2
  -7   1  17 60.3528 11.6973  -3
   4   1  17 60.3528 11.6973   1
   3   2  17 83.6912 8.13346  -3
  -6   2  17 83.6912 8.13346   1
   3   2  17 48.6473 7.46218  -4
  -6   2  17 48.6473 7.46218   2
   2   2  17 68.4242 8.73265  -3
  -5   2  17 68.4242 8.73265   1
   2   2  17 76.6369 16.2272  -4
  -5   2  17 76.6369 16.2272   2
   1   2  17 145.258 16.8486  -4
  -4   2  17 145.258 16.8486   2
   1   2  17 125.295 16.8566  -3
  -4   2  17 125.295 16.8566   1
   0   2  17 224.216 20.6380  -4
  -3   2  17 224.216 20.6380   2
   0   2  17 155.223 12.8111  -3
  -3   2  17 155.223 12.8111   1
  -1   2  17 184.889 13.0652  -4
  -2   2  17 184.889 13.0652   2
  -1   2  17 183.002 14.0558  -3
  -2   2  17 183.002 14.0558   1
  -2   2  17 371.034 25.9762  -4
  -1   2  17 371.034 25.9762   2
  -2   2  17 178.083 20.9840  -3
  -1   2  17 178.083 20.9840   1
  -3   2  17 118.448 16.9295  -3
   0   2  17 118.448 16.9295   1
  -3   2  17 199.890 20.6438  -4
   0   2  17 199.890 20.6438   2
  -4   2  17 172.511 14.3800  -3
   1   2  17 172.511 14.3800   1
  -5   2  17 43.9447 7.88796  -3
   2   2  17 43.9447 7.88796   1
  -5   2  17 15.7306 11.2232  -4
   2   2  17 15.7306 11.2232   2
  -6   2  17 46.6678 12.9926  -3
   3   2  17 46.6678 12.9926   1
  -6   2  17 83.3022 10.2135  -4
   3   2  17 83.3022 10.2135   2
   2   3  17 27.9705 8.23891  -4
  -5   3  17 27.9705 8.23891   2
  -5   3  17 14.8601 5.44705   1
   2   3  17 13.4024 11.3529  -3
  -5   3  17 13.4024 11.3529   1
   1   3  17 96.5814 10.9385  -3
  -4   3  17 96.5814 10.9385   1
   1   3  17 76.2627 12.7541  -4
  -4   3  17 76.2627 12.7541   2
   0   3  17 54.4330 8.67699  -3
  -3   3  17 54.4330 8.67699   1
   0   3  17 60.3340 11.7109  -4
  -3   3  17 60.3340 11.7109   2
  -1   3  17 33.8523 12.4710  -4
  -2   3  17 33.8523 12.4710   2
  -2   3  17 50.0796 8.17197  -3
  -1   3  17 50.0796 8.17197   1
  -2   3  17 40.5503 11.7541  -4
  -1   3  17 40.5503 11.7541   2
  -3   3  17 55.6307 13.6700  -4
   0   3  17 55.6307 13.6700   2
  -3   3  17 80.1646 12.4637  -3
   0   3  17 80.1646 12.4637   1
  -4   3  17 92.7933 10.4673  -3
   1   3  17 92.7933 10.4673   1
  -5   3  17 30.8108 12.3836  -3
   2   3  17 30.8108 12.3836   1
  -5   3  17 29.7647 13.1626  -4
   2   3  17 29.7647 13.1626   2
   0   0  18 229.380 22.8627  -3
  -3   0  18 229.380 22.8627   1
  -3   0  18 30.0453 12.7462   2
  -1   0  18 414.463 33.6304  -3
  -2   0  18 414.463 33.6304   1
  -3   0  18 315.397 29.4615  -3
   0   0  18 315.397 29.4615   1
  -1   1  18 0.60725 6.13963  -3
  -2   1  18 0.60725 6.13963   1
  -2   1  18 20.7367 6.79701  -3
  -1   1  18 20.7367 6.79701   1
  -3   1  18 -9.8206 10.8451  -4
   0   1  18 -9.8206 10.8451   2
   0   0   0    0.00    0.00   0
;
_shelx_hkl_checksum              66713
loop_
_space_group_symop_operation_xyz
'x, y, z'
'-x, -y, z'
'-x+1/4, y+1/4, z+1/4'
'x+3/4, -y+3/4, z+1/4'
'x, y+1/2, z+1/2'
'-x, -y+1/2, z+1/2'
'-x+1/4, y+3/4, z+3/4'
'x+3/4, -y+5/4, z+3/4'
'x+1/2, y, z+1/2'
'-x+1/2, -y, z+1/2'
'-x+3/4, y+1/4, z+3/4'
'x+5/4, -y+3/4, z+3/4'
'x+1/2, y+1/2, z'
'-x+1/2, -y+1/2, z'
'-x+3/4, y+3/4, z+1/4'
'x+5/4, -y+5/4, z+1/4'
loop_
_atom_site_label
_atom_site_type_symbol
_atom_site_fract_x
_atom_site_fract_y
_atom_site_fract_z
_atom_site_U_iso_or_equiv
_atom_site_adp_type
_atom_site_occupancy
_atom_site_site_symmetry_order
_atom_site_calc_flag
_atom_site_refinement_flags_posn
_atom_site_refinement_flags_adp
_atom_site_refinement_flags_occupancy
_atom_site_disorder_assembly
_atom_site_disorder_group
Ca1 Ca -0.27573(7) 0.52930(8) 0.7035(2) 0.0154(4) Uani 1 1 d . U . . .
O1 O -0.4424(3) 0.2846(3) 1.1537(7) 0.0219(14) Uani 1 1 d . U . . .
O2 O -0.3400(4) 0.4266(3) 0.7478(8) 0.0259(15) Uani 1 1 d . U . . .
O3 O -0.3162(3) 0.3975(4) 1.1629(7) 0.0267(15) Uani 1 1 d . U . . .
O7 O -0.4592(3) 0.3057(4) 0.7589(7) 0.0223(13) Uani 1 1 d . U . . .
O8 O -0.3561(4) 0.6219(4) 0.7000(11) 0.0410(18) Uani 1 1 d . U . . .
C3 C -0.4105(5) 0.3236(5) 1.0482(11) 0.0174(17) Uani 1 1 d . U . . .
C4 C -0.4187(5) 0.3338(5) 0.8637(12) 0.0196(17) Uani 1 1 d . U . . .
C5 C -0.3648(5) 0.3863(5) 0.8621(11) 0.0185(17) Uani 1 1 d . U . . .
C6 C -0.3559(5) 0.3743(5) 1.0480(11) 0.0189(17) Uani 1 1 d . U . . .
C1S C -0.500000 0.500000 0.956(7) 0.098(9) Uani 1 2 d S TU P . .
C2S C -0.500000 0.500000 1.116(8) 0.126(12) Uani 1 2 d S TU P . .
H2S H -0.500000 0.500000 1.237123 0.151 Uiso 1 2 calc R U P . .
C3S C -0.500000 0.500000 0.766(6) 0.107(10) Uani 1 2 d S TU P . .
H3SA H -0.488881 0.452437 0.724706 0.161 Uiso 0.5 1 d R U P A -1
H3SB H -0.468013 0.534345 0.724707 0.161 Uiso 0.5 1 d R U P A -1
H3SC H -0.543106 0.513217 0.724706 0.161 Uiso 0.5 1 d R U P A -1
loop_
_atom_site_aniso_label
_atom_site_aniso_U_11
_atom_site_aniso_U_22
_atom_site_aniso_U_33
_atom_site_aniso_U_23
_atom_site_aniso_U_13
_atom_site_aniso_U_12
Ca1 0.0174(7) 0.0194(7) 0.0094(5) 0.0004(7) 0.0006(6) -0.0006(6)
O1 0.027(3) 0.028(3) 0.011(3) 0.001(2) 0.002(2) -0.010(3)
O2 0.037(4) 0.029(3) 0.012(3) 0.002(2) 0.003(2) -0.012(3)
O3 0.028(3) 0.039(4) 0.012(3) 0.000(3) -0.004(2) -0.017(3)
O7 0.026(3) 0.031(3) 0.010(3) -0.001(2) -0.001(3) -0.008(3)
O8 0.053(4) 0.054(4) 0.016(3) -0.004(4) -0.005(4) 0.032(3)
C3 0.019(4) 0.021(4) 0.012(3) -0.003(3) -0.001(3) -0.004(3)
C4 0.024(4) 0.020(4) 0.015(3) -0.001(3) 0.002(3) -0.005(3)
C5 0.021(4) 0.022(4) 0.012(3) -0.001(3) -0.001(3) -0.007(3)
C6 0.021(4) 0.025(4) 0.011(3) 0.000(3) -0.001(3) -0.005(3)
C1S 0.060(12) 0.046(11) 0.19(3) 0.000 0.000 -0.011(10)
C2S 0.084(19) 0.11(2) 0.19(3) 0.000 0.000 -0.032(18)
C3S 0.054(13) 0.079(16) 0.19(3) 0.000 0.000 0.009(13)
loop_
_atom_type_symbol
_atom_type_description
_atom_type_scat_dispersion_real
_atom_type_scat_dispersion_imag
_atom_type_scat_source
C C 0.0033 0.0016 'International Tables Vol C Tables 4.2.6.8 and 6.1.1.4'
H H 0.0000 0.0000 'International Tables Vol C Tables 4.2.6.8 and 6.1.1.4'
Ca Ca 0.2262 0.3064 'International Tables Vol C Tables 4.2.6.8 and 6.1.1.4'
O O 0.0106 0.0060 'International Tables Vol C Tables 4.2.6.8 and 6.1.1.4'
loop_
_geom_angle_atom_site_label_1
_geom_angle_atom_site_label_2
_geom_angle_atom_site_label_3
_geom_angle
_geom_angle_site_symmetry_1
_geom_angle_site_symmetry_3
_geom_angle_publ_flag
O3 Ca1 O2 160.6(2) 10_464 . ?
O3 Ca1 O8 97.5(3) 10_464 . ?
O2 Ca1 O8 101.9(3) . . ?
O3 Ca1 O1 93.6(2) 10_464 3_454 ?
O2 Ca1 O1 91.3(2) . 3_454 ?
O8 Ca1 O1 76.9(3) . 3_454 ?
O3 Ca1 O7 96.6(2) 10_464 3_455 ?
O2 Ca1 O7 87.3(2) . 3_455 ?
O8 Ca1 O7 77.2(3) . 3_455 ?
O1 Ca1 O7 153.12(19) 3_454 3_455 ?
O3 Ca1 O7 81.7(2) 10_464 12_454 ?
O2 Ca1 O7 83.1(2) . 12_454 ?
O8 Ca1 O7 143.4(2) . 12_454 ?
O1 Ca1 O7 66.70(18) 3_454 12_454 ?
O7 Ca1 O7 139.43(16) 3_455 12_454 ?
O3 Ca1 O1 79.7(2) 10_464 12_454 ?
O2 Ca1 O1 84.6(2) . 12_454 ?
O8 Ca1 O1 142.4(2) . 12_454 ?
O1 Ca1 O1 140.48(15) 3_454 12_454 ?
O7 Ca1 O1 66.11(18) 3_455 12_454 ?
O7 Ca1 O1 73.78(17) 12_454 12_454 ?
O3 Ca1 C4 78.5(3) 10_464 12_454 ?
O2 Ca1 C4 82.8(2) . 12_454 ?
O8 Ca1 C4 166.2(3) . 12_454 ?
O1 Ca1 C4 90.1(2) 3_454 12_454 ?
O7 Ca1 C4 116.2(2) 3_455 12_454 ?
O7 Ca1 C4 23.5(2) 12_454 12_454 ?
O1 Ca1 C4 50.3(2) 12_454 12_454 ?
O3 Ca1 C3 77.5(2) 10_464 12_454 ?
O2 Ca1 C3 83.5(3) . 12_454 ?
O8 Ca1 C3 165.2(3) . 12_454 ?
O1 Ca1 C3 117.0(2) 3_454 12_454 ?
O7 Ca1 C3 89.5(2) 3_455 12_454 ?
O7 Ca1 C3 50.4(2) 12_454 12_454 ?
O1 Ca1 C3 23.4(2) 12_454 12_454 ?
C4 Ca1 C3 26.90(19) 12_454 12_454 ?
O3 Ca1 Ca1 94.32(16) 10_464 10_465 ?
O2 Ca1 Ca1 77.95(17) . 10_465 ?
O8 Ca1 Ca1 112.0(2) . 10_465 ?
O1 Ca1 Ca1 167.13(17) 3_454 10_465 ?
O7 Ca1 Ca1 34.98(16) 3_455 10_465 ?
O7 Ca1 Ca1 104.49(14) 12_454 10_465 ?
O1 Ca1 Ca1 32.49(13) 12_454 10_465 ?
C4 Ca1 Ca1 81.54(18) 12_454 10_465 ?
C3 Ca1 Ca1 55.23(16) 12_454 10_465 ?
O3 Ca1 Ca1 79.91(15) 10_464 10_464 ?
O2 Ca1 Ca1 93.64(16) . 10_464 ?
O8 Ca1 Ca1 110.7(2) . 10_464 ?
O1 Ca1 Ca1 35.24(15) 3_454 10_464 ?
O7 Ca1 Ca1 171.63(17) 3_455 10_464 ?
O7 Ca1 Ca1 32.83(14) 12_454 10_464 ?
O1 Ca1 Ca1 105.67(14) 12_454 10_464 ?
C4 Ca1 Ca1 55.73(18) 12_454 10_464 ?
C3 Ca1 Ca1 82.35(17) 12_454 10_464 ?
Ca1 Ca1 Ca1 137.24(8) 10_465 10_464 ?
C3 O1 Ca1 141.2(5) . 7_445 ?
C3 O1 Ca1 102.4(5) . 4_455 ?
Ca1 O1 Ca1 112.3(2) 7_445 4_455 ?
C5 O2 Ca1 144.0(5) . . ?
C6 O3 Ca1 143.0(5) . 10_465 ?
C4 O7 Ca1 141.7(6) . 7_444 ?
C4 O7 Ca1 102.9(5) . 4_455 ?
Ca1 O7 Ca1 112.2(2) 7_444 4_455 ?
O1 C3 C4 130.5(9) . . ?
O1 C3 C6 139.5(8) . . ?
C4 C3 C6 90.1(8) . . ?
O1 C3 Ca1 54.2(4) . 4_455 ?
C4 C3 Ca1 76.3(6) . 4_455 ?
C6 C3 Ca1 166.3(6) . 4_455 ?
O7 C4 C3 130.4(9) . . ?
O7 C4 C5 139.0(8) . . ?
C3 C4 C5 90.6(8) . . ?
O7 C4 Ca1 53.6(4) . 4_455 ?
C3 C4 Ca1 76.8(6) . 4_455 ?
C5 C4 Ca1 167.4(6) . 4_455 ?
O2 C5 C6 136.6(9) . . ?
O2 C5 C4 134.3(7) . . ?
C6 C5 C4 89.0(7) . . ?
O3 C6 C3 134.6(8) . . ?
O3 C6 C5 135.1(9) . . ?
C3 C6 C5 90.3(7) . . ?
C2S C1S C3S 180.00(4) . . ?
C1S C2S H2S 180.0 . . ?
C1S C3S H3SA 109.5 . . ?
C1S C3S H3SB 109.5 . . ?
H3SA C3S H3SB 109.5 . . ?
C1S C3S H3SC 109.5 . . ?
H3SA C3S H3SC 109.5 . . ?
H3SB C3S H3SC 109.5 . . ?
loop_
_geom_bond_atom_site_label_1
_geom_bond_atom_site_label_2
_geom_bond_distance
_geom_bond_site_symmetry_2
_geom_bond_publ_flag
Ca1 O3 2.318(6) 10_464 ?
Ca1 O2 2.321(6) . ?
Ca1 O8 2.357(6) . ?
Ca1 O1 2.389(6) 3_454 ?
Ca1 O7 2.410(6) 3_455 ?
Ca1 O7 2.548(7) 12_454 ?
Ca1 O1 2.566(6) 12_454 ?
Ca1 C4 3.084(9) 12_454 ?
Ca1 C3 3.090(9) 12_454 ?
Ca1 Ca1 4.1152(13) 10_465 ?
Ca1 Ca1 4.1152(13) 10_464 ?
O1 C3 1.259(11) . ?
O2 C5 1.253(10) . ?
O3 C6 1.266(10) . ?
O7 C4 1.260(11) . ?
C3 C4 1.436(10) . ?
C3 C6 1.447(12) . ?
C4 C5 1.457(12) . ?
C5 C6 1.453(11) . ?
C1S C2S 1.23(6) . ?
C1S C3S 1.45(6) . ?
C2S H2S 0.9300 . ?
C3S H3SA 0.9600 . ?
C3S H3SB 0.9600 . ?
C3S H3SC 0.9600 . ?
loop_
_geom_torsion_atom_site_label_1
_geom_torsion_atom_site_label_2
_geom_torsion_atom_site_label_3
_geom_torsion_atom_site_label_4
_geom_torsion
_geom_torsion_site_symmetry_1
_geom_torsion_site_symmetry_2
_geom_torsion_site_symmetry_3
_geom_torsion_site_symmetry_4
_geom_torsion_publ_flag
Ca1 O1 C3 C4 -150.8(8) 7_445 . . . ?
Ca1 O1 C3 C4 2.5(13) 4_455 . . . ?
Ca1 O1 C3 C6 28(2) 7_445 . . . ?
Ca1 O1 C3 C6 -178.6(12) 4_455 . . . ?
Ca1 O1 C3 Ca1 -153.3(11) 7_445 . . 4_455 ?
Ca1 O7 C4 C3 -157.3(8) 7_444 . . . ?
Ca1 O7 C4 C3 -1.0(13) 4_455 . . . ?
Ca1 O7 C4 C5 24(2) 7_444 . . . ?
Ca1 O7 C4 C5 -179.8(11) 4_455 . . . ?
Ca1 O7 C4 Ca1 -156.2(11) 7_444 . . 4_455 ?
O1 C3 C4 O7 -1(2) . . . . ?
C6 C3 C4 O7 179.5(10) . . . . ?
Ca1 C3 C4 O7 0.9(11) 4_455 . . . ?
O1 C3 C4 C5 178.0(10) . . . . ?
C6 C3 C4 C5 -1.3(9) . . . . ?
Ca1 C3 C4 C5 -180.0(6) 4_455 . . . ?
O1 C3 C4 Ca1 -2.1(10) . . . 4_455 ?
C6 C3 C4 Ca1 178.6(6) . . . 4_455 ?
Ca1 O2 C5 C6 -15(2) . . . . ?
Ca1 O2 C5 C4 160.4(8) . . . . ?
O7 C4 C5 O2 3(2) . . . . ?
C3 C4 C5 O2 -175.8(11) . . . . ?
Ca1 C4 C5 O2 -176(2) 4_455 . . . ?
O7 C4 C5 C6 -179.6(12) . . . . ?
C3 C4 C5 C6 1.3(9) . . . . ?
Ca1 C4 C5 C6 1(3) 4_455 . . . ?
Ca1 O3 C6 C3 175.9(8) 10_465 . . . ?
Ca1 O3 C6 C5 -3(2) 10_465 . . . ?
O1 C3 C6 O3 3(2) . . . . ?
C4 C3 C6 O3 -177.8(12) . . . . ?
Ca1 C3 C6 O3 -172(2) 4_455 . . . ?
O1 C3 C6 C5 -177.8(12) . . . . ?
C4 C3 C6 C5 1.3(9) . . . . ?
Ca1 C3 C6 C5 7(3) 4_455 . . . ?
O2 C5 C6 O3 -5(2) . . . . ?
C4 C5 C6 O3 177.8(12) . . . . ?
O2 C5 C6 C3 175.7(12) . . . . ?
C4 C5 C6 C3 -1.3(8) . . . . ?
