#------------------------------------------------------------------------------
#$Date: 2021-08-30 09:29:47 +0300 (Mon, 30 Aug 2021) $
#$Revision: 268283 $
#$URL: file:///home/coder/svn-repositories/cod/cif/4/51/75/4517518.cif $
#------------------------------------------------------------------------------
#
# This file is available in the Crystallography Open Database (COD),
# http://www.crystallography.net/
#
# All data on this site have been placed in the public domain by the
# contributors.
#
data_4517518
loop_
_publ_author_name
'Li, Liangying'
'Guo, Lidong'
'Zheng, Fang'
'Zhang, Zhiguo'
'Yang, Qiwei'
'Yang, Yiwen'
'Ren, Qilong'
'Bao, Zongbi'
_publ_section_title
;
 Calcium-Based Metal-Organic Framework for Simultaneous Capture of Trace
 Propyne and Propadiene from Propylene.
;
_journal_name_full               'ACS applied materials &amp; interfaces'
_journal_paper_doi               10.1021/acsami.0c03139
_journal_year                    2020
_chemical_formula_sum            'C11 H4 Ca2 O10'
_chemical_formula_weight         376.30
_space_group_crystal_system      orthorhombic
_space_group_IT_number           43
_space_group_name_Hall           'F 2 -2d'
_space_group_name_H-M_alt        'F d d 2'
_atom_sites_solution_hydrogens   difmap
_audit_creation_method           SHELXL-2018/3
_cell_angle_alpha                90
_cell_angle_beta                 90
_cell_angle_gamma                90
_cell_formula_units_Z            8
_cell_length_a                   19.916(4)
_cell_length_b                   18.697(4)
_cell_length_c                   7.6700(16)
_cell_measurement_reflns_used    3679
_cell_measurement_temperature    193(2)
_cell_measurement_theta_max      25.27
_cell_measurement_theta_min      2.99
_cell_volume                     2856.1(10)
_computing_structure_refinement  'SHELXL-2018/3 (Sheldrick, 2018)'
_computing_structure_solution    'SHELXT 2014/5 (Sheldrick, 2014)'
_diffrn_ambient_temperature      193(2)
_diffrn_measured_fraction_theta_full 1.000
_diffrn_measured_fraction_theta_max 1.000
_diffrn_measurement_device_type  'Bruker APEX-II CCD'
_diffrn_measurement_method       '\f and \w scans'
_diffrn_radiation_type           MoK\a
_diffrn_radiation_wavelength     0.71073
_diffrn_reflns_av_R_equivalents  0.0530
_diffrn_reflns_av_unetI/netI     0.0418
_diffrn_reflns_Laue_measured_fraction_full 1.000
_diffrn_reflns_Laue_measured_fraction_max 1.000
_diffrn_reflns_limit_h_max       21
_diffrn_reflns_limit_h_min       -23
_diffrn_reflns_limit_k_max       22
_diffrn_reflns_limit_k_min       -18
_diffrn_reflns_limit_l_max       9
_diffrn_reflns_limit_l_min       -8
_diffrn_reflns_number            4280
_diffrn_reflns_point_group_measured_fraction_full 0.972
_diffrn_reflns_point_group_measured_fraction_max 0.972
_diffrn_reflns_theta_full        25.000
_diffrn_reflns_theta_max         25.000
_diffrn_reflns_theta_min         2.989
_exptl_absorpt_coefficient_mu    0.850
_exptl_crystal_density_diffrn    1.750
_exptl_crystal_description       BLOCK
_exptl_crystal_F_000             1520
_exptl_crystal_size_max          0.120
_exptl_crystal_size_mid          0.090
_exptl_crystal_size_min          0.060
_refine_diff_density_max         1.232
_refine_diff_density_min         -0.541
_refine_diff_density_rms         0.124
_refine_ls_abs_structure_details
;
 Refined as an inversion twin.
;
_refine_ls_abs_structure_Flack   0.11(12)
_refine_ls_extinction_method     none
_refine_ls_goodness_of_fit_ref   1.072
_refine_ls_hydrogen_treatment    constr
_refine_ls_matrix_type           full
_refine_ls_number_parameters     107
_refine_ls_number_reflns         1225
_refine_ls_number_restraints     1
_refine_ls_restrained_S_all      1.071
_refine_ls_R_factor_all          0.0555
_refine_ls_R_factor_gt           0.0544
_refine_ls_shift/su_max          0.000
_refine_ls_shift/su_mean         0.000
_refine_ls_structure_factor_coef Fsqd
_refine_ls_weighting_details
'w=1/[\s^2^(Fo^2^)+(0.0997P)^2^+18.4712P] where P=(Fo^2^+2Fc^2^)/3'
_refine_ls_weighting_scheme      calc
_refine_ls_wR_factor_gt          0.1406
_refine_ls_wR_factor_ref         0.1421
_reflns_Friedel_coverage         0.799
_reflns_Friedel_fraction_full    0.940
_reflns_Friedel_fraction_max     0.940
_reflns_number_gt                1187
_reflns_number_total             1225
_reflns_threshold_expression     'I > 2\s(I)'
_cod_data_source_file            am0c03139_si_001.cif
_cod_data_source_block           20190731zju_gld1_0m_a
_cod_depositor_comments
;

2021-08-30
Z value and formula fixed to values more according to usual
chemical conventions.                 miguel
;
_cod_original_formula_sum            'C44 H16 Ca8 O40'
_cod_original_formula_weight         1505.21
_cod_original_formula_units_Z            2
_cod_database_code               4517518
_shelx_shelxl_version_number     2018/3
_shelx_space_group_comment
;
The symmetry employed for this shelxl refinement is uniquely defined
by the following loop, which should always be used as a source of
symmetry information in preference to the above space-group names.
They are only intended as comments.
;
_shelx_estimated_absorpt_t_min   0.905
_shelx_estimated_absorpt_t_max   0.951
_shelx_res_file
;
TITL 20190731zju_gld1_0m_a.res in P1  New: Fdd2
    20190731zju_gld1_0m_a.res
    created by SHELXL-2018/3 at 22:07:28 on 02-Aug-2019
CELL  0.71073   19.9160   18.6970    7.6700    90.000    90.000    90.000
ZERR        2    0.0040    0.0040    0.0016     0.000     0.000     0.000
LATT -4
SYMM             - X ,            - Y ,              Z
SYMM     0.25000 - X ,    0.25000 + Y ,    0.25000 + Z
SYMM     0.75000 + X ,    0.75000 - Y ,    0.25000 + Z
SFAC C  H  Ca O
UNIT 88 32 16 80
OMIT  -3.00  50.02
L.S. 10
ACTA
BOND $H
FMAP 2
PLAN 0
WGHT    0.099700   18.471199
BASF   0.10694
FVAR       0.18475
RESI 0
TWIN
SIZE .12 .09 .06
CONF
TEMP  -80
CA1   3   -0.026124    0.279017    0.039758    11.00000    0.01872    0.01706 =
         0.00751    0.00067   -0.00008   -0.00052
O1    4    0.068321    0.348210    0.081758    11.00000    0.03224    0.03391 =
         0.01141    0.00059   -0.00011   -0.01355
O2    4    0.194233    0.463320    0.091846    11.00000    0.02519    0.02231 =
         0.01130    0.00138    0.00172   -0.00827
O3    4    0.211333    0.442973    0.486014    11.00000    0.02559    0.02407 =
         0.01208   -0.00281   -0.00050   -0.00769
O4    4    0.091903    0.321081    0.496683    11.00000    0.03660    0.03375 =
         0.00793   -0.00388    0.00313   -0.01194
O5    4   -0.107014    0.369478    0.043094    11.00000    0.05052    0.05673 =
         0.01363    0.00634    0.00216    0.02591
AFIX   3
H18B  2   -0.091664    0.406848   -0.006726    11.00000   -1.50000
H18A  2   -0.141954    0.355528   -0.006956    11.00000   -1.50000
AFIX   0
C1    1    0.107893    0.371865    0.195803    11.00000    0.01909    0.02259 =
         0.00769   -0.00167   -0.00089   -0.00163
C2    1    0.118042    0.361001    0.383499    11.00000    0.02476    0.02297 =
         0.00407    0.00310    0.00351    0.00219
C3    1    0.171623    0.414108    0.381764    11.00000    0.02722    0.02037 =
         0.00874   -0.00198   -0.00103   -0.00068
C4    1    0.162930    0.424107    0.196985    11.00000    0.02099    0.01840 =
         0.01265    0.00000   -0.00002    0.00030
PART 1
C6    1    0.250000    0.250000    0.243877    10.50000    0.02876    0.03363 =
         0.25405    0.00000    0.00000    0.00230
C7    1    0.250000    0.250000    0.410567    10.50000    0.08221    0.06311 =
         0.18024    0.00000    0.00000    0.03446
C5    1    0.250000    0.250000    0.060746    10.50000    0.05401    0.05028 =
         0.22207    0.00000    0.00000   -0.02057
PART 0
HKLF 4 1 1.0000 0.0000 -2.0000 -1.0000 2.0000 0.0000 1.0000 0.0000 0.0000




REM  20190731zju_gld1_0m_a.res in P1  New: Fdd2
REM wR2 = 0.1421, GooF = S = 1.072, Restrained GooF = 1.071 for all data
REM R1 = 0.0544 for 1187 Fo > 4sig(Fo) and 0.0555 for all 1225 data
REM 107 parameters refined using 1 restraints

END

WGHT      0.0965     20.6386

REM Highest difference peak  1.232,  deepest hole -0.541,  1-sigma level  0.124
Q1    1  -0.0640  0.3139  0.0403  11.00000  0.05    1.23
Q2    1  -0.0601  0.2420  0.0340  11.00000  0.05    1.21
Q3    1   0.0105  0.3143  0.0427  11.00000  0.05    1.16
Q4    1   0.0088  0.2429  0.0378  11.00000  0.05    1.14
Q5    1   0.1379  0.4010  0.1948  11.00000  0.05    0.50
Q6    1   0.1500  0.3913  0.3879  11.00000  0.05    0.42
Q7    1   0.1634  0.4988  0.0962  11.00000  0.05    0.36
Q8    1   0.2068  0.4633  0.3156  11.00000  0.05    0.36
Q9    1   0.2280  0.4970  0.1090  11.00000  0.05    0.35
Q10   1   0.1779  0.4754  0.4986  11.00000  0.05    0.34
Q11   1   0.3125  0.2857  0.5048  11.00000  0.05    0.34
Q12   1  -0.1608  0.3117  0.0324  11.00000  0.05    0.33
Q13   1   0.0318  0.3797  0.0742  11.00000  0.05    0.33
Q14   1  -0.1746  0.3031  0.0157  11.00000  0.05    0.33
Q15   1   0.2041  0.2751  0.0315  11.00000  0.05    0.33
Q16   1   0.1681  0.4347  0.0985  11.00000  0.05    0.31
Q17   1   0.1770  0.4079  0.4951  11.00000  0.05    0.30
Q18   1   0.1205  0.2884  0.4924  11.00000  0.05    0.30
Q19   1   0.1105  0.3036  0.0748  11.00000  0.05    0.30
Q20   1   0.0881  0.3717  0.0738  11.00000  0.05    0.30
;
_shelx_res_checksum              48448
_shelx_hkl_file
;
  -1   0   0  186.88    9.90
  -1   0   0  192.98    9.80
  -1   0   0  202.38    9.60
   1   0   0  198.68    9.60
   1   0   0  192.88    9.90
   1   0   0  196.18    9.80
  -2   0   0   99.19    6.20
  -2   0   0   99.89    5.90
  -2   0   0   99.79    5.50
   2   0   0   98.49    5.60
   2   0   0  105.79    6.10
   2   0   0  101.99    6.30
  -3   0   0  732.73   37.40
  -3   0   0  728.43   36.20
  -3   0   0  779.22   37.00
   3   0   0  735.63   36.40
   3   0   0  729.33   37.50
   3   0   0  783.12   37.20
  -4   0   0  344.37   20.10
  -4   0   0  384.16   19.80
   4   0   0  371.46   19.00
  -5   0   0  514.55   28.30
  -5   0   0  518.35   27.40
   5   0   0  528.15   26.80
  -6   0   0  366.46   21.90
  -6   0   0  366.06   20.90
   6   0   0  365.76   20.10
  -7   0   0   49.00    5.70
  -7   0   0   36.40    6.20
   7   0   0   43.10    6.40
   8   0   0    5.80    2.90
   7  -1   0  126.69    9.00
  -7   1   0   94.29   12.40
   6  -1   0  128.29    8.70
  -6   1   0  122.69    9.80
  -6   1   0  130.19   10.60
   5  -1   0  296.47   16.50
  -5   1   0  308.67   17.80
  -5   1   0  312.97   18.70
   4  -1   0  296.57   15.50
  -4   1   0  300.47   16.50
  -4   1   0  285.47   17.10
   3  -1   0 1596.84   77.59
   3  -1   0 1656.33   76.49
   3  -1   0 1565.14   78.89
  -3   1   0 1639.84   77.49
  -3   1   0 1575.44   77.89
  -3   1   0 1607.94   76.39
   2  -1   0  148.59    8.10
   2  -1   0  135.89    8.60
   2  -1   0  148.89    9.10
  -2   1   0  167.38    9.00
  -2   1   0  174.58    8.20
  -2   1   0  163.48    9.30
   1  -1   0  131.69    6.90
   1  -1   0  133.09    6.30
  -1   1   0  125.39    7.10
  -1   1   0  119.69    6.30
  -1   1   0  123.29    6.90
   0   1   0    0.10    0.30
  -1  -1   0  239.08   11.40
   1   1   0  226.98   11.40
  -2  -1   0 2289.37  110.99
  -2  -1   0 2386.46  111.29
   2   1   0 2311.37  111.69
   2   1   0 2274.67  111.09
   2   1   0 2509.65  111.49
  -3  -1   0 1764.32   86.59
  -3  -1   0 1770.12   85.79
  -3  -1   0 1902.71   86.19
   3   1   0 1692.63   85.79
   3   1   0 1951.00   86.49
   3   1   0 1746.23   86.89
  -4  -1   0   15.20    3.20
  -4  -1   0   15.50    2.40
   4   1   0   16.20    2.40
  -5  -1   0   61.89    5.80
  -5  -1   0   51.59    5.10
   5   1   0   69.49    5.30
  -6  -1   0  147.99   10.70
   6   1   0  179.38   10.80
   8   1   0  185.58   12.80
   7  -2   0  111.89    8.20
  -7   2   0  104.69    9.80
  -7   2   0  114.69   11.00
   6  -2   0  369.76   20.60
  -6   2   0  411.36   23.80
  -6   2   0  376.46   22.40
   5  -2   0  111.99    7.50
  -5   2   0  117.39    9.80
  -5   2   0  115.69    8.90
   4  -2   0   12.90    2.20
  -4   2   0   18.10    3.90
  -4   2   0   11.40    3.30
   3  -2   0  556.64   27.10
  -3   2   0  508.15   28.90
  -3   2   0  579.34   29.70
  -3   2   0  566.44   26.90
   2  -2   0  445.06   21.60
   2  -2   0  413.26   22.50
  -2   2   0  443.16   22.80
  -2   2   0  474.75   23.50
  -2   2   0  453.85   21.50
   1  -2   0   12.30    1.70
   0  -2   0   60.09    3.70
   0   2   0   60.99    3.80
  -1  -2   0  133.49    7.00
   1   2   0  140.99    7.00
  -2  -2   0  132.89    7.20
   2   2   0  116.99    6.80
   3   2   0 1772.22   90.69
   3   2   0 1915.91   89.99
   3   2   0 1984.20   90.49
   4   2   0 1008.70   49.20
   5   2   0  209.78   12.30
   6   2   0  219.58   13.30
   7   2   0   97.29    8.30
   8   2   0    4.10    2.60
   7  -3   0   33.90    4.70
  -7   3   0   33.10    7.00
   6  -3   0   26.20    3.80
  -6   3   0   32.10    5.50
  -6   3   0   29.80    6.90
   5  -3   0  251.37   13.70
  -5   3   0  241.18   15.90
  -5   3   0  254.37   16.80
   4  -3   0  742.83   36.80
  -4   3   0  770.62   39.50
  -4   3   0  711.83   38.20
   3  -3   0  264.97   13.40
  -3   3   0  257.07   15.10
  -3   3   0  279.27   16.00
  -3   3   0  251.67   13.40
  -2   3   0  134.89    8.40
  -2   3   0  109.69   10.80
   1  -3   0  228.18   12.70
  -1   3   0  247.28   13.10
   0  -3   0    0.10    1.40
   0   3   0    0.30    0.80
  -1  -3   0   11.80    1.10
  -2  -3   0  195.18   10.50
   2   3   0  196.28   10.30
   3   3   0  843.52   41.10
   4   3   0   14.60    2.60
   5   3   0  215.98   12.70
   6   3   0  259.07   15.20
   7   3   0  357.46   20.60
   8   3   0    7.10    2.80
   6  -4   0   25.00    3.90
  -6   4   0   28.70    7.00
  -6   4   0   20.00    5.60
   5  -4   0   72.99    5.40
  -5   4   0   78.69    8.80
  -5   4   0   76.39    7.90
  -4   4   0   95.09    9.00
  -4   4   0   86.19    8.30
  -3   4   0  447.26   24.10
  -3   4   0  427.76   24.70
  -2   4   0  576.74   30.20
  -2   4   0  591.04   31.20
   0  -4   0   81.29    5.60
   0   4   0   77.79    5.60
  -1  -4   0  226.18   11.20
   1   4   0  225.98   11.30
   1   4   0  226.78   12.30
  -2  -4   0  466.65   23.20
   2   4   0  482.15   23.40
   4   4   0  415.76   21.60
   5   4   0   78.29    6.10
   6   4   0  231.58   14.00
   7   4   0  395.36   22.40
   8   4   0  232.88   15.30
  -6   5   0  124.29   11.70
  -5   5   0  103.49   11.90
  -5   5   0   86.49   12.50
  -4   5   0    4.70    3.60
  -4   5   0    7.60    4.00
  -3   5   0   97.69    9.10
  -3   5   0   86.49    8.10
  -2   5   0   16.40    3.70
  -1   5   0 1561.84   76.19
   1   5   0  722.23   36.10
  -2  -5   0  132.99    7.60
   2   5   0  146.59    8.70
   2   5   0  143.19    7.80
   3   5   0  598.24   29.70
   4   5   0  358.46   19.00
   5   5   0  579.84   29.90
   6   5   0  166.88   11.00
   7   5   0  104.19    8.70
   8   5   0    7.40    2.80
  -5   6   0   54.19    8.70
  -5   6   0   80.59   10.20
  -4   6   0  153.78   12.50
  -3   6   0    8.50    4.00
  -2   6   0    5.40    3.00
  -1   6   0  302.87   17.90
   0   6   0  307.87   17.50
   1   6   0 1574.14   76.59
  -2  -6   0  545.75   27.00
   2   6   0  557.84   27.30
   2   6   0  563.34   28.70
   3   6   0  284.37   15.10
   4   6   0    8.30    1.90
   5   6   0  325.97   18.00
   6   6   0  398.76   22.00
   7   6   0  267.67   16.50
   8   6   0    3.60    2.40
  -4   7   0    0.30    4.50
  -4   7   0   -0.70    4.50
  -3   7   0   11.10    5.20
  -2   7   0  378.16   22.50
  -1   7   0   17.10    4.50
   0   7   0    2.60    2.20
   1   7   0  298.87   17.30
   2   7   0    8.10    2.50
   2   7   0   12.00    1.90
   3   7   0  439.16   23.20
   3   7   0  478.35   24.70
   4   7   0  759.02   37.80
   5   7   0  120.49    8.30
   6   7   0  134.69    9.70
   7   7   0   38.10    5.20
   8   7   0  178.68   12.80
  -3   8   0   69.09    9.20
  -3   8   0   65.19    9.90
  -2   8   0   12.00    6.40
  -1   8   0   83.29    8.40
   0   8   0  174.88   12.40
   1   8   0   19.20    4.10
   2   8   0    0.40    1.90
   3   8   0  106.49    8.40
   3   8   0  109.59    7.10
   4   8   0  105.29    8.30
   4   8   0  100.79    7.20
   5   8   0  262.87   15.20
   6   8   0  345.77   21.10
   7   8   0  127.69    9.70
   8   8   0    1.60    2.60
  -2   9   0  185.88   14.80
  -1   9   0   18.00    5.30
   0   9   0   -5.00    3.20
   1   9   0   74.69    7.60
   2   9   0  425.26   24.40
   3   9   0    0.50    1.80
   3   9   0   -0.10    2.00
   4   9   0   10.50    5.30
   4   9   0    4.70    2.20
   5   9   0   78.89    6.60
   5   9   0   82.29    7.60
   6   9   0   26.30    4.60
   7   9   0  103.49    8.60
  -1  10   0   11.90    5.90
   0  10   0  268.47   18.40
   1  10   0    6.20    3.60
   2  10   0   14.80    4.30
   3  10   0   27.20    5.10
   4  10   0  215.88   14.90
   4  10   0  213.88   12.90
   5  10   0  138.49   11.10
   5  10   0  142.79    9.80
   6  10   0   31.60    4.80
   6  10   0   29.30    5.20
   7  10   0   26.80    4.70
   0  11   0   -3.50    3.90
   1  11   0   37.50    6.80
   2  11   0  231.68   16.40
   3  11   0   99.89    9.80
   4  11   0    3.80    2.50
   4  11   0    7.00    3.30
   5  11   0   89.39    9.30
   5  11   0   98.99    8.10
   6  11   0  172.48   12.10
   5  11  -1  141.69   10.10
   5  11  -1  133.69   11.50
   4  11  -1  128.29   11.10
   4  11  -1  137.39    9.40
   3  11  -1   23.60    5.60
   2  11  -1   31.30    6.10
   1  11  -1  139.79   12.00
   0  11  -1   78.29    9.60
   6  10  -1   29.70    4.80
   5  10  -1  131.09   10.40
   5  10  -1  121.09   10.30
   4  10  -1   56.69    5.60
   4  10  -1   61.09    6.80
   3  10  -1  151.88    9.70
   3  10  -1  150.48   11.60
   2  10  -1  199.88   14.10
   1  10  -1   35.10    5.80
   0  10  -1   96.69    9.50
  -1  10  -1   22.30    6.00
   7   9  -1   55.09    6.80
   6   9  -1  177.68   11.90
   5   9  -1   87.39    7.00
   4   9  -1  152.58   10.80
   4   9  -1  132.79    9.00
   3   9  -1  183.78   10.80
   2   9  -1   62.59    6.60
   1   9  -1   19.20    4.40
   0   9  -1  306.87   24.00
  -1   9  -1    3.10    3.70
  -2   9  -1    1.80    4.00
  -3   9  -1   14.70    5.70
  -3   9  -1   11.20    6.20
   7   8  -1    8.40    3.10
   6   8  -1   93.19    7.60
   5   8  -1  110.49    8.00
   4   8  -1  103.19    7.20
   3   8  -1   90.59    6.30
   3   8  -1   92.19    7.50
   2   8  -1  411.06   23.00
   1   8  -1   38.90    5.10
   0   8  -1   32.30    4.90
  -1   8  -1   70.69    7.70
  -2   8  -1  430.76   25.60
  -3   8  -1  106.69   10.40
  -3   8  -1   92.99   11.40
  -4   8  -1    7.80    6.60
  -4   8  -1    5.70    6.00
   7   7  -1   96.49    8.20
   6   7  -1  310.67   18.10
   5   7  -1  606.54   31.30
   4   7  -1   30.80    3.50
   3   7  -1  265.87   14.40
   2   7  -1  231.48   13.80
   2   7  -1  228.18   12.70
   1   7  -1  144.89    9.80
   0   7  -1  700.93   36.50
  -1   7  -1   12.40    3.60
  -2   7  -1    2.50    3.30
  -3   7  -1   54.39    8.40
  -3   7  -1   38.70    6.70
  -4   7  -1  127.89   11.90
  -4   7  -1  147.09   14.00
   8   6  -1   69.49    7.80
   7   6  -1   63.89    6.60
   5   6  -1  103.99    7.50
   4   6  -1 1208.28   58.89
   3   6  -1  344.57   18.00
   2   6  -1    6.30    1.40
   2   6  -1    6.40    2.10
   1   6  -1  374.96   20.20
   0   6  -1    0.20    1.50
  -1   6  -1  310.97   18.00
  -2   6  -1  140.89   10.40
  -3   6  -1    3.70    3.70
  -3   6  -1    5.40    4.40
  -4   6  -1   69.09    8.10
  -4   6  -1   68.09    9.30
  -5   6  -1   47.70    8.80
  -5   6  -1   59.39    8.30
   8   5  -1   10.50    3.60
   7   5  -1  164.28   11.60
   6   5  -1  607.24   31.90
   5   5  -1  331.57   18.40
   4   5  -1   38.50    3.90
   3   5  -1  709.43   35.00
   2   5  -1  337.27   17.10
   1   5  -1  305.17   15.50
   1   5  -1  303.77   15.30
   1   5  -1  314.47   16.50
   0   5  -1  465.95   24.20
  -1   5  -1 1586.44   77.19
  -2   5  -1    1.30    2.30
  -3   5  -1  197.08   12.80
  -3   5  -1  189.78   14.20
  -4   5  -1  361.66   22.80
  -4   5  -1  367.76   21.40
  -5   5  -1   65.19    9.20
  -5   5  -1   71.69    8.00
  -6   5  -1   20.00    6.30
  -6   5  -1   17.30    5.80
   8   4  -1    3.40    2.80
   7   4  -1  214.48   13.90
   6   4  -1   42.30    4.80
   5   4  -1  611.04   31.50
   4   4  -1  399.56   20.90
   3   4  -1  476.65   24.00
   2   4  -1 1344.47   64.19
  -2  -4   1 1345.27   64.09
   1   4  -1  907.11   44.90
   1   4  -1  969.50   44.70
   0   4  -1  953.00   46.50
  -1   4  -1  753.02   37.50
  -2   4  -1  190.98   12.70
  -2   4  -1  185.98   11.40
  -3   4  -1  415.46   22.40
  -3   4  -1  410.06   23.90
  -4   4  -1  125.79    9.50
  -4   4  -1  121.79   10.60
  -5   4  -1  273.47   17.30
  -5   4  -1  286.97   19.40
   5  -4   1  288.47   14.90
  -6   4  -1   51.29    8.40
  -6   4  -1   39.50    6.60
   6  -4   1   39.20    4.10
   8   3  -1    9.20    3.50
   7   3  -1  202.68   13.30
   6   3  -1   -1.30    1.40
   5   3  -1   26.10    3.50
   4   3  -1  255.57   14.10
   3   3  -1 1679.53   80.29
   2   3  -1  297.97   15.30
  -2  -3   1  307.97   15.30
   1   3  -1  431.56   21.80
   1   3  -1  470.35   22.10
   0   3  -1  990.30   47.70
  -1   3  -1  254.47   13.10
   1  -3   1  228.78   12.60
  -2   3  -1    0.90    1.70
  -2   3  -1    0.60    1.50
   2  -3   1    0.70    1.10
  -3   3  -1  806.52   40.60
  -3   3  -1  813.92   41.90
  -4   3  -1  117.79    8.90
  -4   3  -1  129.99   10.30
   4  -3   1  121.09    7.20
  -5   3  -1   44.40    5.80
  -5   3  -1   45.20    6.60
   5  -3   1   36.40    3.70
  -6   3  -1  209.48   13.80
   6  -3   1  196.28   11.70
  -7   3  -1  110.19   12.00
  -7   3  -1  117.59   10.80
   7  -3   1  127.09    8.50
   8   2  -1   68.59    7.20
   7   2  -1  160.48   11.20
   6   2  -1   40.40    4.70
   5   2  -1   22.00    3.20
   4   2  -1    2.10    1.20
   3   2  -1  639.14   32.10
   2   2  -1  318.77   16.00
   2   2  -1  330.47   16.60
  -2  -2   1  303.07   15.80
   1   2  -1 1785.42   81.79
   1   2  -1 1672.03   81.49
   0   2  -1  418.86   22.70
   0   2  -1  509.55   22.40
   0  -2   1  481.05   22.50
   1  -2   1   12.20    1.40
  -2   2  -1   75.09    4.10
  -2   2  -1   75.19    5.80
  -2   2  -1   70.29    4.90
   2  -2   1   68.69    4.00
   2  -2   1   69.79    5.10
  -3   2  -1  629.04   30.90
  -3   2  -1  615.44   29.80
  -3   2  -1  646.54   32.30
   3  -2   1  573.34   30.40
   3  -2   1  597.14   29.70
  -4   2  -1  301.37   16.90
  -4   2  -1  306.27   18.30
   4  -2   1  297.87   17.80
  -5   2  -1  115.19   10.00
  -5   2  -1  115.79    8.80
   5  -2   1  120.29    7.60
  -6   2  -1   92.39    8.40
  -6   2  -1  109.99   10.10
   6  -2   1   97.19    7.10
  -7   2  -1   52.69    7.20
  -7   2  -1   57.09    8.30
   7  -2   1   58.09    5.50
   8   1  -1    7.00    2.70
   7   1  -1   64.29    6.40
   6   1  -1  571.84   29.70
  -6  -1   1  563.04   30.50
   5   1  -1  553.54   28.20
  -5  -1   1  538.05   28.80
   4   1  -1  240.78   13.40
  -4  -1   1  247.38   14.10
   3   1  -1  614.04   32.50
   3   1  -1  666.63   32.00
  -3  -1   1  659.83   32.50
   2   1  -1    0.20    0.60
   2   1  -1   -0.30    0.70
   2   1  -1    0.30    0.50
  -2  -1   1    0.70    0.60
  -2  -1   1    0.40    0.80
   1   1  -1   76.29    4.50
   1   1  -1   72.29    4.10
  -1   1  -1  147.39    7.20
  -1   1  -1  130.29    8.00
  -1   1  -1  137.19    7.40
   1  -1   1  154.48    7.20
   1  -1   1  147.89    7.30
  -2   1  -1   -0.10    1.00
  -2   1  -1    0.70    0.50
  -2   1  -1   -1.00    0.90
   2  -1   1    0.00    0.50
   2  -1   1   -0.80    0.90
   2  -1   1    0.60    0.80
  -3   1  -1  614.64   29.90
  -3   1  -1  614.14   30.50
  -3   1  -1  643.74   31.90
   3  -1   1  642.14   30.10
   3  -1   1  555.14   30.20
  -4   1  -1  189.18   12.30
  -4   1  -1  195.78   12.80
   4  -1   1  200.78   11.20
  -5   1  -1  530.55   29.40
  -5   1  -1  541.25   27.80
   5  -1   1  515.55   26.90
  -6   1  -1  519.25   27.60
  -6   1  -1  517.45   29.40
   6  -1   1  497.55   26.60
  -7   1  -1   75.19    8.70
  -7   1  -1   86.09    7.70
   7  -1   1   74.39    6.50
   7   0  -1   76.79    7.00
  -7   0   1   84.99    8.20
   6   0  -1   58.69    5.60
  -6   0   1   58.29    6.50
  -6   0   1   63.59    6.60
   5   0  -1  297.67   16.00
  -5   0   1  277.37   17.00
  -5   0   1  287.87   16.90
   4   0  -1  368.36   19.40
  -4   0   1  375.86   20.50
   3   0  -1 1433.36   69.79
   3   0  -1 1490.45   68.99
  -3   0   1 1415.56   70.89
  -3   0   1 1426.86   69.59
   2   0  -1  294.77   14.30
   2   0  -1  294.17   14.90
   2   0  -1  309.77   15.20
  -2   0   1  278.07   15.00
  -2   0   1  249.68   14.50
   1   0  -1   61.19    3.90
   1   0  -1   50.59    3.10
  -1   0  -1  217.28   11.50
  -1   0  -1  237.28   11.00
   1   0   1  234.48   11.00
   1   0   1  210.38   11.50
  -2   0  -1 2208.88  107.49
  -2   0  -1 2365.76  107.59
  -2   0  -1 2197.08  108.49
   2   0   1 2387.56  107.69
   2   0   1 2308.97  107.59
   2   0   1 2220.98  108.59
  -3   0  -1 1719.53   83.29
  -3   0  -1 1698.63   84.69
  -3   0  -1 1810.12   83.59
   3   0   1 1872.21   83.49
   3   0   1 1712.73   83.59
   3   0   1 1708.73   84.79
  -4   0  -1   12.70    2.70
  -4   0  -1    9.70    2.80
   4   0   1   16.90    3.30
   4   0   1   12.50    2.20
  -5   0  -1   82.99    7.40
  -5   0  -1   81.79    6.20
   5   0   1   70.89    5.80
  -6   0  -1   88.69    8.40
  -6   0  -1   90.49    7.10
   6   0   1   82.09    6.90
  -7   0  -1  266.27   18.40
  -7   0  -1  267.77   16.40
   7   0   1  287.67   16.20
  -8   0  -1  152.68   13.40
   8   0   1  172.98   11.40
   7  -1  -1    2.40    2.30
  -7   1   1    4.30    3.40
  -7   1   1    3.60    3.80
   6  -1  -1  265.17   15.30
  -6   1   1  267.17   16.90
  -6   1   1  265.37   17.10
   5  -1  -1   92.39    6.60
  -5   1   1   92.99    8.00
  -5   1   1   91.39    7.80
   4  -1  -1   30.00    3.10
  -4   1   1   28.10    3.90
  -4   1   1   33.50    4.30
   3  -1  -1  395.76   21.90
   3  -1  -1  424.56   21.10
  -3   1   1  438.26   21.60
  -3   1   1  416.66   22.20
  -3   1   1  425.86   22.40
   2  -1  -1  247.58   13.70
   2  -1  -1  261.57   13.10
   2  -1  -1  274.47   14.20
  -2   1   1  268.67   14.20
  -2   1   1  251.27   13.90
   1  -1  -1 1499.65   69.59
   1  -1  -1 1497.55   68.69
   1  -1  -1 1340.67   68.79
  -1   1   1 1485.65   69.29
  -1   1   1 1469.85   69.59
   0  -1  -1 4089.19  187.88
   0   1   1 3913.51  187.88
  -1  -1  -1  201.58   10.00
   1   1   1  201.88   10.00
  -2  -1  -1   -0.20    0.60
   2   1   1   -0.40    0.50
   2   1   1    0.00    0.50
   2   1   1    0.20    0.70
  -3  -1  -1 1752.92   87.89
  -3  -1  -1 1794.82   86.79
   3   1   1 1788.42   88.09
   3   1   1 1844.82   86.89
   3   1   1 1952.90   87.09
  -4  -1  -1 1451.65   71.39
  -4  -1  -1 1435.96   72.79
   4   1   1 1537.05   71.99
   4   1   1 1524.95   71.59
  -5  -1  -1   35.30    4.50
  -5  -1  -1   27.60    3.30
   5   1   1   28.30    3.50
  -6  -1  -1   88.19    8.20
   6   1   1   87.89    7.00
   7   1   1   56.89    6.20
   8   1   1    3.40    2.40
   7  -2  -1   42.40    8.00
  -7   2   1   58.79    7.50
  -7   2   1   73.19    8.50
   6  -2  -1   71.99    6.10
  -6   2   1   67.09    9.30
  -6   2   1   77.89    8.30
   5  -2  -1  541.35   27.30
  -5   2   1  521.35   29.10
  -5   2   1  542.45   29.70
   4  -2  -1 1005.70   49.80
  -4   2   1 1008.60   51.89
  -4   2   1 1069.29   51.99
   3  -2  -1  662.43   31.60
  -3   2   1  632.14   33.20
  -3   2   1  645.64   34.60
   2  -2  -1 1106.69   53.49
  -2   2   1 1143.69   54.99
  -2   2   1 1124.49   54.89
   1  -2  -1  312.07   16.60
  -1   2   1  331.97   16.80
   0  -2  -1  397.46   20.00
   0   2   1  409.76   20.10
  -1  -2  -1  125.89    6.90
  -1  -2  -1  137.39    7.20
   1   2   1  140.59    7.20
   1   2   1  141.09    7.00
  -2  -2  -1 2087.29  103.29
   2   2   1 2290.57  103.49
  -3  -2  -1 1734.43   84.19
   3   2   1 1838.92   84.39
   3   2   1 1739.43   85.29
   4   2   1    1.00    1.00
   4   2   1   -0.20    1.20
   5   2   1  341.47   18.50
   6   2   1  574.54   30.00
   7   2   1  603.54   32.30
   8   2   1   32.80    5.50
   6  -3  -1  178.98   10.90
  -6   3   1  157.68   12.80
  -6   3   1  187.58   13.80
   5  -3  -1   97.59    6.90
  -5   3   1  109.59    9.30
  -5   3   1  109.29    9.80
   4  -3  -1   31.30    3.10
  -4   3   1   31.20    5.10
  -4   3   1   29.10    4.90
   3  -3  -1  300.07   15.80
  -3   3   1  328.87   18.10
  -3   3   1  312.67   18.00
  -2   3   1  326.07   18.40
  -2   3   1  345.47   18.50
   1  -3  -1  870.31   43.90
  -1   3   1  913.91   44.00
   0  -3  -1  949.40   47.30
   0   3   1 1009.10   47.70
  -1  -3  -1   13.20    1.20
  -1  -3  -1   16.80    1.90
   1   3   1   11.20    1.20
   1   3   1   14.90    1.80
  -2  -3  -1   -0.40    0.40
   2   3   1   -0.30    0.60
   3   3   1 1987.50   94.59
   4   3   1 1560.04   75.09
   5   3   1  357.76   19.40
   6   3   1   -2.00    1.20
   8   3   1  221.68   14.80
   6  -4  -1   32.70    4.30
  -6   4   1   27.60    6.70
  -6   4   1   19.20    5.90
   5  -4  -1   83.39    6.30
  -5   4   1   96.49   10.30
  -5   4   1  103.69    9.80
  -4   4   1   89.89    8.40
  -4   4   1   71.89    7.80
  -3   4   1  255.97   15.70
  -3   4   1  254.77   15.90
  -2   4   1    6.30    2.70
  -2   4   1    7.00    2.90
  -1   4   1  310.67   17.30
   0   4   1  976.30   48.00
  -1  -4  -1  243.18   12.90
   1   4   1  242.98   13.20
   2   4   1   71.39    4.50
   2   4   1   70.59    4.80
   3   4   1  669.93   33.00
   4   4   1   13.90    2.50
   5   4   1   29.40    3.70
   6   4   1  597.74   31.30
   7   4   1  189.98   12.90
   8   4   1    4.90    2.50
  -5   5   1   83.99    9.60
  -5   5   1  118.39   15.90
  -4   5   1  137.09   11.40
  -4   5   1  125.69   11.00
  -3   5   1   83.59    8.10
  -3   5   1   90.69    8.40
  -2   5   1  229.78   14.60
  -1   5   1  363.26   20.40
   0   5   1  467.75   24.80
   1   5   1  737.83   36.90
  -2  -5  -1    1.10    0.70
   2   5   1    0.20    0.90
   2   5   1   -0.60    0.80
   4   5   1  212.98   12.10
   5   5   1   75.39    6.00
   6   5   1   91.69    7.30
   7   5   1  612.94   32.60
   8   5   1  216.68   14.60
  -5   6   1   80.79   10.30
  -5   6   1  112.49   11.70
  -4   6   1   38.90    8.00
  -4   6   1   45.60    7.50
  -3   6   1  166.08   12.70
  -3   6   1  161.08   13.10
  -2   6   1  378.16   22.20
  -1   6   1  140.29   10.40
   0   6   1   -0.50    1.60
   1   6   1 1569.74   76.49
  -2  -6  -1  176.58    9.60
   2   6   1  188.68    9.90
   2   6   1  187.28   11.20
   3   6   1  883.41   44.60
   3   6   1  906.71   43.80
   4   6   1  320.57   17.30
   5   6   1  536.85   27.90
   6   6   1  106.79    8.10
   7   6   1   63.79    6.60
   8   6   1   42.80    5.70
  -4   7   1  121.19   11.70
  -4   7   1   84.49   10.40
  -3   7   1  117.49   10.70
  -3   7   1   99.79   11.80
  -2   7   1   55.89    7.10
  -1   7   1   45.50    6.00
   0   7   1  677.63   35.90
   1   7   1  321.87   18.60
   2   7   1   -0.20    1.50
   3   7   1  493.85   26.30
   3   7   1  489.65   24.90
   4   7   1  134.09    9.40
   4   7   1  140.79    8.80
   5   7   1  122.59    8.40
   6   7   1  512.65   27.40
   7   7   1  304.17   18.10
   8   7   1    1.00    2.40
  -3   8   1   13.60    5.70
  -3   8   1   17.70    6.10
  -2   8   1  200.48   14.90
  -1   8   1   12.00    4.40
   0   8   1   32.00    5.40
   1   8   1   14.70    3.60
   2   8   1  139.19   10.10
   3   8   1  226.48   14.50
   3   8   1  236.08   12.90
   4   8   1  166.18   10.00
   4   8   1  149.49   10.80
   5   8   1   44.70    4.90
   5   8   1   43.30    5.30
   6   8   1   96.99    7.80
   7   8   1   70.29    6.90
   8   8   1  184.18   13.20
  -2   9   1    8.10    5.70
  -1   9   1   31.60    6.40
   0   9   1  388.96   23.70
   1   9   1   76.49    8.00
   2   9   1    1.50    2.40
   3   9   1    8.80    3.30
   3   9   1    9.90    2.20
   4   9   1  473.35   26.90
   4   9   1  483.15   25.10
   5   9   1  349.77   19.40
   5   9   1  346.27   20.90
   6   9   1  185.68   14.90
   6   9   1  229.78   14.60
   7   9   1   65.59    6.80
  -1  10   1  116.99   11.60
   0  10   1  102.09   10.50
   1  10   1    9.00    3.70
   2  10   1  529.65   30.20
   3  10   1   56.19    6.80
   4  10   1   95.69    9.20
   4  10   1  111.29    7.70
   5  10   1   84.69    8.10
   5  10   1   74.69    6.70
   6  10   1   41.90    5.30
   6  10   1   46.60    6.10
   7  10   1  133.29   11.10
   7  10   1  146.19   10.60
   0  11   1   85.49   10.30
   1  11   1   13.80    4.90
   2  11   1    3.40    3.30
   3  11   1  134.49   11.50
   4  11   1  243.58   13.80
   4  11   1  223.38   16.30
   5  11   1   64.19    7.90
   5  11   1   72.39    6.70
   6  11   1   37.70    5.40
   6  11   1   33.00    6.50
   3  12   1   10.30    4.40
   4  11  -2   42.70    6.30
   4  11  -2   45.10    5.40
   3  11  -2   65.69    7.60
   3  11  -2   47.20    5.60
   2  11  -2   53.29    7.10
   1  11  -2  134.79   11.60
   6  10  -2  195.68   13.00
   5  10  -2  130.99    9.40
   5  10  -2  137.39   11.00
   4  10  -2   61.39    6.70
   4  10  -2   59.89    5.70
   3  10  -2  139.19   10.80
   3  10  -2  134.59    8.80
   2  10  -2   24.40    5.20
   1  10  -2  220.08   15.10
   0  10  -2   -5.40    2.90
  -1  10  -2  142.29   12.30
   6   9  -2   37.20    5.20
   5   9  -2  128.29    9.60
   4   9  -2  324.17   18.10
   4   9  -2  340.87   20.10
   3   9  -2  270.97   16.50
   3   9  -2  255.67   14.50
   2   9  -2  157.28    8.70
   2   9  -2  114.69   13.90
   1   9  -2   65.49    7.20
   0   9  -2    7.00    5.30
  -1   9  -2   30.10    6.20
  -2   9  -2  200.18   14.60
  -2   9  -2  165.38   16.30
  -3   9  -2   24.30    6.20
  -3   9  -2    4.20    5.90
   7   8  -2   44.50    5.80
   6   8  -2  123.59    9.30
   5   8  -2  203.88   12.70
   4   8  -2    2.10    1.90
   3   8  -2  166.28    9.90
   3   8  -2  164.48   11.30
   2   8  -2  321.07   17.00
   2   8  -2  332.27   18.90
   1   8  -2  374.66   21.30
   0   8  -2  316.47   18.80
  -1   8  -2   15.50    4.10
  -2   8  -2   10.80    4.40
  -3   8  -2   97.19   11.90
  -3   8  -2   93.89   10.60
  -4   8  -2  105.89   11.20
  -4   8  -2   95.59   12.60
   7   7  -2   95.39    8.50
   6   7  -2  151.78   10.60
   5   7  -2   91.59    7.20
   4   7  -2  100.09    7.10
   3   7  -2   44.70    4.00
   2   7  -2  306.07   16.50
   2   7  -2  334.47   18.10
   1   7  -2   82.09    5.40
   1   7  -2  102.19    7.30
   1   7  -2   87.19    5.40
   0   7  -2   11.30    3.10
  -1   7  -2   46.40    5.70
  -2   7  -2  410.16   23.70
  -3   7  -2   42.20    8.20
  -3   7  -2   50.09    6.90
  -4   7  -2   -7.50    4.20
  -4   7  -2   -0.20    4.10
   7   6  -2   55.99    6.30
   6   6  -2  466.45   25.60
   5   6  -2  600.14   31.20
   4   6  -2    8.20    2.10
   3   6  -2  298.97   16.00
   2   6  -2  171.98    9.50
   1   6  -2  168.18    9.80
   1   6  -2  192.58    9.70
   1   6  -2  191.68   11.10
   0   6  -2   31.30    3.80
  -1   6  -2  143.99    9.80
  -2   6  -2    1.90    2.80
  -3   6  -2    9.00    3.80
  -3   6  -2    6.70    4.10
  -4   6  -2  474.55   26.30
  -4   6  -2  446.16   28.70
  -5   6  -2   53.29    9.20
  -5   6  -2   40.60    7.40
   7   5  -2  137.09   10.40
   6   5  -2  126.89    9.40
   5   5  -2  151.38   10.00
   4   5  -2 1428.56   69.39
   3   5  -2  134.69    8.20
   2   5  -2  254.97   13.60
   1   5  -2   54.79    4.10
   1   5  -2   71.39    4.10
   0   5  -2  452.25   23.40
  -1   5  -2  390.66   20.90
  -2   5  -2    8.00    3.30
  -2   5  -2   13.70    3.40
  -3   5  -2  200.48   12.70
  -3   5  -2  197.48   14.80
  -4   5  -2    2.10    3.20
  -4   5  -2   -1.80    2.80
  -5   5  -2   78.39   10.10
  -5   5  -2   70.09    8.20
  -6   5  -2  135.39   13.40
  -6   5  -2  122.19   12.10
   7   4  -2   86.49    7.80
   5   4  -2  119.79    8.40
   4   4  -2   54.39    4.80
   3   4  -2  677.43   33.60
   2   4  -2  882.71   43.70
   1   4  -2  798.32   38.30
   1   4  -2  781.92   38.00
   0   4  -2   26.50    2.70
   0   4  -2   30.90    2.20
   0  -4   2   26.70    2.20
  -1   4  -2  340.47   18.00
  -2   4  -2  577.14   30.70
  -2   4  -2  548.35   29.90
  -3   4  -2  440.36   23.40
  -3   4  -2  439.46   25.50
  -4   4  -2  284.87   16.70
  -4   4  -2  291.17   18.90
  -5   4  -2   76.29    7.50
  -5   4  -2   87.19    9.70
  -6   4  -2   22.90    5.90
  -6   4  -2   32.00    6.00
   6  -4   2   24.20    3.30
   7   3  -2   96.79    8.30
   6   3  -2   46.00    5.30
   5   3  -2  275.17   15.70
   4   3  -2  256.27   14.30
   3   3  -2  722.33   35.60
   2   3  -2 1724.93   81.99
   1   3  -2 3118.19  147.09
   0   3  -2 3386.96  159.28
   0  -3   2 3392.56  159.48
  -1   3  -2 1029.90   49.70
  -2   3  -2  156.28   10.20
  -2   3  -2  142.49    8.50
   2  -3   2  133.79    8.10
  -3   3  -2  812.82   40.80
  -3   3  -2  824.52   39.80
  -3   3  -2  819.92   42.90
   3  -3   2  843.22   39.60
  -4   3  -2    1.30    2.50
  -4   3  -2    0.90    2.20
   4  -3   2    1.40    1.00
  -5   3  -2  301.47   17.90
  -5   3  -2  303.17   20.00
   5  -3   2  317.87   16.20
  -6   3  -2  283.37   17.20
  -6   3  -2  275.87   19.80
   6  -3   2  292.27   15.50
  -7   3  -2   85.29    8.80
  -7   3  -2   86.29   10.60
   7  -3   2   93.39    6.90
   7   2  -2  137.49   10.30
   6   2  -2  111.69    8.40
   5   2  -2  285.87   16.20
   4   2  -2  164.08    9.90
   3   2  -2  718.83   34.50
   3   2  -2  677.23   34.70
   2   2  -2  513.55   29.50
   2   2  -2  606.24   29.20
   2   2  -2  597.84   28.10
  -1   2  -2  440.36   21.10
  -1   2  -2  419.46   20.70
   1  -2   2  432.66   20.70
  -2   2  -2  474.75   24.30
  -2   2  -2  514.65   26.40
  -2   2  -2  520.65   24.70
   2  -2   2  542.05   24.20
   2  -2   2  449.76   24.40
  -3   2  -2  603.94   30.40
  -3   2  -2  671.03   31.20
  -3   2  -2  651.03   33.10
   3  -2   2  580.54   30.70
   3  -2   2  627.34   30.40
  -4   2  -2  269.97   14.90
  -4   2  -2  263.57   16.80
  -5   2  -2  275.77   18.00
  -5   2  -2  282.77   15.80
   5  -2   2  256.87   14.50
  -6   2  -2  145.39   10.40
  -6   2  -2  153.28   12.70
   6  -2   2  148.69    9.30
  -7   2  -2  120.59   11.90
  -7   2  -2  119.59    9.60
   7  -2   2  124.69    8.50
   7   1  -2   56.49    6.10
  -7  -1   2   65.69    7.30
   6   1  -2  102.99    8.10
  -6  -1   2  118.49    9.20
   5   1  -2  116.59    8.20
  -5  -1   2  124.79    9.10
   4   1  -2  230.88   13.30
  -4  -1   2  245.88   14.30
   3   1  -2  699.93   34.90
  -3  -1   2  721.43   35.90
   2   1  -2  141.79    7.80
   2   1  -2  133.19    7.90
   2   1  -2  150.18    8.70
  -2  -1   2  137.29    8.40
   1   1  -2   96.09    6.50
   1   1  -2  117.69    6.30
  -1  -1   2  113.59    6.60
  -1  -1   2  123.89    6.50
   0   1  -2  389.66   22.30
   0   1  -2  501.35   22.30
   0  -1   2  492.85   22.30
  -1   1  -2 1614.24   80.79
  -1   1  -2 1758.02   79.89
   1  -1   2 1709.13   79.79
  -2   1  -2  193.48   11.50
  -2   1  -2  224.78   10.20
   2  -1   2  195.38   10.00
   2  -1   2  171.38   11.10
  -3   1  -2  620.44   33.90
  -3   1  -2  612.14   30.60
  -3   1  -2  685.03   30.80
   3  -1   2  680.13   30.60
   3  -1   2  536.45   30.40
  -4   1  -2   -0.50    1.30
  -4   1  -2    0.00    1.70
   4  -1   2   -1.70    1.40
   4  -1   2    0.40    1.10
  -5   1  -2   20.70    4.50
  -5   1  -2   16.70    3.20
   5  -1   2   12.00    2.30
  -6   1  -2   21.90    3.80
  -6   1  -2   18.30    5.10
   6  -1   2   16.20    2.90
  -7   1  -2  155.68   13.00
  -7   1  -2  152.08   10.50
   7  -1   2  148.09    9.90
  -8   1  -2   64.19    8.80
  -8   1  -2   61.99    7.10
   8  -1   2   69.09    6.60
   7   0  -2   87.89    7.30
  -7   0   2   74.79    8.40
   6   0  -2  461.45   24.80
  -6   0   2  467.75   28.00
   5   0  -2  136.09    8.90
  -5   0   2  136.69   10.00
   4   0  -2   52.89    4.40
  -4   0   2   52.29    4.70
  -4   0   2   54.29    5.50
   3   0  -2  652.53   30.80
  -3   0   2  650.93   32.10
  -3   0   2  565.24   30.80
   2   0  -2  525.45   24.80
   2   0  -2  503.05   26.00
   2   0  -2  472.85   24.80
  -2   0   2  516.25   25.80
   1   0  -2  111.39    6.40
   1   0  -2  109.59    6.90
  -1   0   2  128.49    6.70
  -1   0   2  118.09    6.90
   0   0  -2    6.00    1.20
   0   0   2    7.00    1.30
  -1   0  -2   58.59    3.10
   1   0   2   47.60    3.00
   1   0   2   52.39    3.60
  -2   0  -2  116.89    6.40
  -2   0  -2  106.39    7.20
   2   0   2  119.69    7.90
   2   0   2  117.09    6.30
  -3   0  -2 1720.03   86.29
  -3   0  -2 1717.13   85.89
  -3   0  -2 1850.51   87.99
   3   0   2 1902.31   86.09
   3   0   2 1894.41   86.39
  -4   0  -2  865.41   41.80
  -4   0  -2  830.02   39.40
   4   0   2  828.32   39.70
   4   0   2  713.53   39.40
  -5   0  -2  179.48   13.10
  -5   0  -2  206.38   13.60
   5   0   2  216.58   11.80
  -6   0  -2  162.48   10.40
  -6   0  -2  175.38   12.80
   6   0   2  165.58   10.50
  -7   0  -2   84.89    7.10
   7   0   2   89.29    7.10
  -8   0  -2    6.10    3.50
   8   0   2    4.00    2.20
   7  -1  -2   31.70    4.90
  -7   1   2   33.00    6.10
   6  -1  -2  156.18   10.10
  -6   1   2  140.89   11.10
  -6   1   2  158.48   11.80
   5  -1  -2  491.05   26.10
  -5   1   2  499.15   27.40
  -5   1   2  528.05   28.30
   4  -1  -2 1324.57   62.29
  -4   1   2 1176.78   63.99
  -4   1   2 1364.26   64.19
   3  -1  -2  571.44   29.60
  -3   1   2  614.44   30.60
  -3   1   2  569.34   29.60
   2  -1  -2 1563.44   73.59
  -2   1   2 1462.65   73.99
  -2   1   2 1628.74   75.29
   1  -1  -2  523.65   25.30
   1  -1  -2  471.65   26.00
  -1   1   2  502.45   26.10
  -1   1   2  585.64   25.60
   0  -1  -2  389.26   19.40
   0  -1  -2  384.66   18.80
   0   1   2  401.86   19.50
   0   1   2  391.66   18.90
  -1  -1  -2   60.99    3.40
  -1  -1  -2   68.59    3.40
   1   1   2   57.19    3.40
   1   1   2   53.09    3.40
   1   1   2   57.89    3.80
  -2  -1  -2 2066.29  101.79
  -2  -1  -2 2291.07  102.79
   2   1   2 2268.77  102.79
   2   1   2 1993.00  101.69
  -3  -1  -2 1760.72   85.79
  -3  -1  -2 1738.33   87.09
   3   1   2 1911.61   85.59
   3   1   2 1818.72   87.39
   3   1   2 1798.82   85.89
  -4  -1  -2   -0.40    1.10
   4   1   2   -0.10    1.50
   4   1   2    0.60    1.10
  -5  -1  -2  318.67   19.30
   5   1   2  339.57   17.90
  -6  -1  -2  505.95   28.40
   6   1   2  487.15   26.10
  -7  -1  -2  635.74   35.30
   7   1   2  614.14   32.70
   8   1   2   34.80    4.90
   6  -2  -2  117.69    8.00
  -6   2   2   92.99    9.50
  -6   2   2  112.79    9.70
   5  -2  -2   65.49    5.50
  -5   2   2   74.29    7.30
  -5   2   2   75.79    7.40
   4  -2  -2   10.50    2.10
  -4   2   2    7.70    3.40
  -4   2   2    9.00    2.80
   3  -2  -2  106.59    7.10
  -3   2   2  114.39    7.90
  -3   2   2  121.09    8.70
   2  -2  -2  789.32   37.80
  -2   2   2  824.02   39.70
  -2   2   2  746.33   38.60
   1  -2  -2 2284.67  112.59
   1  -2  -2 2299.97  111.39
  -1   2   2 2434.86  111.69
  -1   2   2 2447.35  112.89
   0  -2  -2 9999.00  464.05
   0   2   2 9779.62  464.05
  -1  -2  -2 1588.84   75.29
  -1  -2  -2 1658.53   75.09
   1   2   2 1535.35   74.89
   1   2   2 1572.84   75.39
  -2  -2  -2  110.69    6.00
   2   2   2  100.99    5.90
   2   2   2  112.09    7.00
   2   2   2   97.09    5.60
  -3  -2  -2 1707.03   83.09
   3   2   2 1729.13   84.29
   3   2   2 1805.52   83.29
   4   2   2 2815.72  132.09
   4   2   2 2744.33  131.69
   5   2   2   72.39    5.80
   6   2   2   21.50    3.70
   7   2   2   91.79    7.60
   8   2   2  237.98   15.10
   6  -3  -2   47.10    4.70
  -6   3   2   31.00    6.80
  -6   3   2   33.50    7.10
   5  -3  -2  167.58   10.10
  -5   3   2  168.68   15.40
  -5   3   2  174.58   12.80
   4  -3  -2   82.49    5.50
  -4   3   2   77.69    7.60
  -4   3   2   72.79    7.20
   3  -3  -2  255.37   13.00
  -3   3   2  238.98   14.70
  -3   3   2  251.77   15.30
   2  -3  -2  208.78   11.00
  -2   3   2  225.88   12.70
  -2   3   2  214.38   13.10
  -1   3   2  586.04   31.30
   0  -3  -2 2746.63  136.99
   0   3   2 3034.40  137.39
  -1  -3  -2  343.77   17.00
  -1  -3  -2  303.37   17.70
   1   3   2  366.06   16.90
   1   3   2  375.86   17.90
   2   3   2  146.39    8.00
   2   3   2  149.29    8.10
  -3  -3  -2 1946.61   87.39
   3   3   2 1693.43   86.59
   4   3   2   -0.10    1.00
   5   3   2   73.39    5.90
   6   3   2 1074.19   53.49
   7   3   2  501.55   27.30
   8   3   2   47.60    5.80
   6  -4  -2  175.08   10.70
  -6   4   2  147.19   13.10
  -6   4   2  191.68   21.10
   5  -4  -2  129.79    8.20
  -5   4   2  136.59   11.40
  -5   4   2  117.79   11.00
   4  -4  -2    2.40    1.50
  -4   4   2    7.10    3.60
  -4   4   2    3.20    3.10
  -3   4   2   31.70    5.20
  -3   4   2   38.20    5.10
  -2   4   2  154.08   10.90
  -2   4   2  163.98   10.50
  -1   4   2   45.30    4.70
   0   4   2   30.10    3.80
  -1  -4  -2  911.31   44.20
   1   4   2  907.81   45.40
   1   4   2  962.50   44.10
  -2  -4  -2  437.16   22.60
   2   4   2  470.95   23.00
   2   4   2  453.65   22.30
   3   4   2  635.04   32.10
   3   4   2  666.83   32.10
   4   4   2  796.42   39.40
   5   4   2  369.16   20.00
   6   4   2   26.00    4.10
   7   4   2  458.75   29.10
   8   4   2  134.99   10.30
   9   4   2  139.89   11.20
  -5   5   2  122.19   11.60
  -5   5   2  147.39   12.40
  -4   5   2  322.17   19.60
  -4   5   2  281.47   20.10
  -3   5   2  144.59   11.40
  -3   5   2  148.89   11.20
  -2   5   2  325.57   19.70
  -2   5   2  339.17   19.60
  -1   5   2  208.28   13.30
   0   5   2  463.25   24.80
   1   5   2  315.47   17.30
  -2  -5  -2  124.39    7.30
   2   5   2  135.29    7.40
   2   5   2  147.69    8.60
   3   5   2  686.03   33.20
   3   5   2  638.84   33.10
   4   5   2    2.00    1.40
   5   5   2  237.48   13.80
   6   5   2  551.14   29.20
   7   5   2  101.89    9.20
   8   5   2   43.90    5.60
   9   5   2  130.59   10.80
  -4   6   2   50.69    7.80
  -4   6   2   36.80    7.70
  -3   6   2  249.48   16.80
  -3   6   2  235.38   18.10
  -2   6   2  299.27   18.90
  -1   6   2   99.19    8.50
   0   6   2   31.50    4.50
   1   6   2  382.36   21.10
  -2  -6  -2  495.95   26.40
   2   6   2  572.04   28.30
   2   6   2  559.64   26.50
   3   6   2  873.61   43.50
   3   6   2  869.51   43.40
   4   6   2  308.07   16.90
   4   6   2  318.47   17.40
   5   6   2   15.70    3.00
   6   6   2  188.68   12.20
   7   6   2  687.33   36.20
   8   6   2  252.37   16.20
  -4   7   2   25.50    6.60
  -4   7   2   37.70    7.90
  -3   7   2  137.69   12.40
  -3   7   2  126.19   11.80
  -2   7   2  152.68   13.30
  -1   7   2  328.87   20.20
   0   7   2   13.20    3.80
   1   7   2  142.19   10.20
   2   7   2   10.80    2.90
   3   7   2  480.95   24.60
   3   7   2  495.85   26.20
   4   7   2   -0.80    1.40
   4   7   2   -0.60    1.30
   5   7   2  293.77   16.90
   5   7   2  284.17   16.30
   6   7   2   19.40    3.80
   7   7   2   96.19    8.20
   8   7   2   36.80    5.50
  -3   8   2   33.70    7.30
  -2   8   2   10.00    5.20
  -1   8   2   67.69    9.90
   0   8   2  301.47   19.00
   1   8   2   44.40    5.60
   2   8   2    0.60    1.90
   3   8   2  207.18   13.50
   3   8   2  214.38   11.70
   4   8   2  356.36   19.30
   4   8   2  365.96   20.80
   5   8   2  358.76   20.10
   5   8   2  377.76   21.20
   6   8   2  156.68   11.10
   6   8   2  153.88   10.50
   7   8   2  153.08   10.90
   8   8   2    0.60    2.10
  -2   9   2   26.70    6.50
  -2   9   2   28.00    7.20
  -1   9   2  185.68   14.50
   0   9   2    5.00    4.30
   1   9   2   14.10    6.40
   2   9   2  432.66   24.90
   3   9   2    8.30    1.80
   3   9   2   11.40    3.40
   4   9   2    0.00    2.10
   4   9   2    0.50    1.60
   5   9   2   98.19    7.40
   5   9   2   88.79   10.80
   6   9   2  349.37   20.80
   6   9   2  346.77   20.20
   7   9   2  130.79    9.80
   7   9   2  128.99   10.20
   8   9   2   64.49    7.00
  -1  10   2   80.69   10.20
   0  10   2    4.20    4.50
   1  10   2   40.20    6.60
   2  10   2   14.90    4.30
   3  10   2   59.49    7.00
   4  10   2  661.43   33.40
   4  10   2  657.73   36.20
   5  10   2  128.49   10.70
   5  10   2  123.29    8.90
   6  10   2   32.70    5.00
   6  10   2   37.10    5.90
   7  10   2  101.39    8.60
   7  10   2  114.49    9.70
   0  11   2   90.09   10.80
   1  11   2  144.89   13.10
   2  11   2  222.18   16.20
   3  11   2  122.89   11.00
   4  11   2    1.00    3.00
   4  11   2    1.10    2.00
   5  11   2   68.39    6.40
   5  11   2   70.79    8.30
   6  11   2  181.88   12.20
   6  11   2  184.38   14.20
   3  12   2   14.00    5.10
   4  12   2  155.58   13.50
   3  11  -3   49.70    6.60
   3  11  -3   45.40    5.40
   2  11  -3   70.99    8.00
   1  11  -3   54.19    7.20
   5  10  -3  260.17   15.60
   4  10  -3    6.10    3.00
   4  10  -3   12.40    3.70
   3  10  -3   98.19    7.30
   3  10  -3  102.29    8.90
   2  10  -3   28.50    3.90
   2  10  -3   25.80    4.80
   1  10  -3  183.68   13.30
   0  10  -3   19.10    5.20
  -1  10  -3  108.49   10.30
   6   9  -3  161.18   11.40
   5   9  -3  250.67   15.20
   4   9  -3   11.20    2.70
   3   9  -3  231.28   14.80
   3   9  -3  225.18   13.00
   2   9  -3   69.09    5.30
   2   9  -3   75.19    7.10
   1   9  -3  240.48   18.80
  -1   9  -3  209.98   15.20
  -2   9  -3   17.10    5.60
  -2   9  -3   15.10    6.00
   6   8  -3   19.10    3.70
   5   8  -3   28.80    4.60
   4   8  -3  541.45   28.20
   3   8  -3  182.38   10.80
   2   8  -3   42.20    4.00
   2   8  -3   46.00    5.00
   1   8  -3  145.19    8.60
   1   8  -3  159.68   10.70
   0   8  -3    2.50    2.60
  -1   8  -3   56.89    6.60
  -2   8  -3  171.18   15.60
  -2   8  -3  184.58   13.10
  -3   8  -3   61.69    8.60
  -3   8  -3   56.79    9.90
  -4   8  -3   10.50    5.60
   7   7  -3   14.30    3.80
   6   7  -3  259.77   16.30
   5   7  -3  155.28   11.30
   4   7  -3    0.20    1.50
   3   7  -3  101.79    7.00
   2   7  -3  465.65   23.60
   1   7  -3   78.89    5.20
   1   7  -3   78.49    6.30
   0   7  -3  287.67   16.70
  -1   7  -3  341.97   19.80
  -2   7  -3   54.49    9.10
  -2   7  -3   51.69    6.40
  -3   7  -3   27.10    5.20
  -3   7  -3   27.20    7.40
  -4   7  -3  139.99   14.80
  -4   7  -3  166.38   12.40
   7   6  -3   88.49    8.30
   6   6  -3   57.09    6.50
   5   6  -3   75.99    7.00
   4   6  -3  135.19    9.00
   3   6  -3   16.40    2.70
   2   6  -3  373.36   19.20
   1   6  -3    5.90    2.00
   1   6  -3    4.60    1.60
   0   6  -3  108.59    7.60
  -1   6  -3  107.69    7.90
  -2   6  -3  374.06   24.40
  -2   6  -3  412.06   22.10
  -3   6  -3    1.20    3.30
  -3   6  -3    2.30    3.10
  -4   6  -3   68.99    7.50
  -4   6  -3   60.39    9.30
  -5   6  -3   40.40    8.90
  -5   6  -3   37.90    6.90
   7   5  -3   38.60    5.70
   6   5  -3  207.38   13.60
   5   5  -3  334.17   18.90
   4   5  -3   22.40    3.40
   3   5  -3  243.78   13.60
   2   5  -3  662.63   32.70
   1   5  -3  123.09    8.10
   0   5  -3  488.35   25.60
   0  -5   3  517.15   25.00
  -1   5  -3  224.18   12.90
  -2   5  -3  235.48   16.40
  -2   5  -3  253.37   14.40
  -3   5  -3   98.59    7.70
  -3   5  -3   93.79    9.60
  -4   5  -3  348.27   20.00
  -4   5  -3  354.76   23.00
  -5   5  -3   87.79   10.70
  -5   5  -3   74.39    7.90
  -6   5  -3   -3.70    4.00
  -6   5  -3    0.00    3.80
   7   4  -3   58.39    6.70
   6   4  -3  188.68   12.60
   5   4  -3  102.69    7.90
   4   4  -3  875.11   43.70
   3   4  -3  326.37   17.40
   2   4  -3  350.66   18.10
   0   4  -3 2128.09  105.59
   0  -4   3 2341.57  105.99
   1  -4   3   85.19    4.90
  -2   4  -3    7.70    2.20
  -2   4  -3    4.40    2.60
  -3   4  -3  334.47   21.10
  -3   4  -3  457.05   24.20
  -4   4  -3  126.59    8.90
  -4   4  -3  120.49   10.90
   4  -4   3  123.99    7.00
  -5   4  -3   77.29    7.50
   5  -4   3   87.99    5.60
  -6   4  -3  483.55   31.20
  -6   4  -3  504.35   28.20
   6  -4   3  538.55   25.80
   7   3  -3   68.59    7.10
   6   3  -3    0.20    1.80
   5   3  -3  391.46   21.50
   4   3  -3   74.69    5.90
   3   3  -3  375.16   19.60
   2   3  -3  384.46   19.60
  -1  -3   3  848.02   41.40
   0   3  -3 1614.94   78.19
   0  -3   3 1683.63   78.49
  -1   3  -3  761.42   37.50
   1  -3   3  783.92   37.10
  -2   3  -3  369.86   18.90
  -2   3  -3  382.66   21.20
   2  -3   3  356.26   18.10
  -3   3  -3  270.87   14.40
  -3   3  -3  282.87   14.90
  -3   3  -3  303.87   17.60
   3  -3   3  241.68   14.30
   3  -3   3  295.57   14.10
  -4   3  -3  121.29    8.60
  -4   3  -3  117.79   10.30
  -5   3  -3  312.77   17.50
  -5   3  -3  294.27   20.20
   5  -3   3  316.97   16.20
  -6   3  -3   -1.80    2.90
  -6   3  -3    1.50    3.10
   6  -3   3    1.60    1.40
  -7   3  -3   31.00    5.60
  -7   3  -3   14.10    6.00
   7  -3   3   24.80    3.60
   7   2  -3   49.40    6.10
   6   2  -3  191.08   12.50
   5   2  -3  381.56   21.00
   4   2  -3   -1.00    1.10
   3   2  -3  555.24   26.50
   3   2  -3  488.35   26.30
   2   2  -3  243.78   13.00
   1   2  -3  982.20   44.90
   1   2  -3  871.21   45.20
   0   2  -3 3347.57  162.88
   0  -2   3 3572.94  163.08
  -1   2  -3 2729.23  122.69
  -1   2  -3 2371.96  121.19
   1  -2   3 2599.14  120.89
   2  -2   3 1386.86   65.79
  -3   2  -3  635.64   32.70
  -3   2  -3  567.04   30.00
   3  -2   3  637.04   29.80
  -4   2  -3  308.97   15.50
  -4   2  -3  293.07   18.10
   4  -2   3  298.67   15.00
   4  -2   3  252.17   14.80
  -5   2  -3  275.97   16.80
  -5   2  -3  295.47   18.60
   5  -2   3  257.87   14.70
  -6   2  -3   68.09    9.00
  -6   2  -3   69.99    6.30
   6  -2   3   72.99    5.50
  -7   2  -3   80.99    7.50
  -7   2  -3   88.29   10.60
   7  -2   3  102.49    7.00
   7   1  -3   98.39    8.30
   6   1  -3  201.68   13.00
  -6  -1   3  195.88   13.80
   5   1  -3  108.99    7.70
  -5  -1   3   90.99    8.20
   4   1  -3   77.29    5.80
  -4  -1   3   71.39    6.50
   3   1  -3  562.34   27.60
  -3  -1   3  532.45   28.60
   2   1  -3    1.10    1.00
  -2  -1   3    1.30    1.40
   1   1  -3  129.79    8.20
   1   1  -3  140.49    7.90
  -1  -1   3  161.88    8.20
  -1  -1   3  131.49    8.20
   0   1  -3  829.52   40.00
  -1   1  -3  567.24   26.90
  -1   1  -3  569.64   27.90
   1  -1   3  534.45   26.80
  -2   1  -3  285.07   16.50
  -2   1  -3  311.67   15.20
   2  -1   3  308.77   15.10
   2  -1   3  298.47   16.40
  -3   1  -3 1839.02   85.29
  -3   1  -3 1709.33   87.19
   3  -1   3 1825.52   85.09
  -4   1  -3  212.18   13.70
   4  -1   3  199.18   11.20
  -5   1  -3   14.70    2.80
  -5   1  -3   13.40    3.90
   5  -1   3   15.60    2.40
  -6   1  -3    2.10    2.40
  -6   1  -3    1.10    1.90
   6  -1   3    0.60    1.30
  -7   1  -3  210.88   13.10
  -7   1  -3  228.08   16.90
   7  -1   3  224.68   13.20
  -8   1  -3    1.60    3.30
   8  -1   3    0.20    2.20
   7   0  -3   19.50    4.10
  -7   0   3   16.40    5.00
  -6   0   3   61.99    7.20
   5   0  -3  331.47   18.60
  -5   0   3  345.77   20.30
   4   0  -3  848.02   41.50
  -4   0   3  823.02   43.00
   3   0  -3  359.76   18.60
  -3   0   3  359.06   20.00
   2   0  -3  241.08   12.90
  -2   0   3  221.88   13.30
   1   0  -3  134.39    8.20
   1   0  -3  144.69    7.60
  -1   0   3  148.89    7.90
  -1   0   3  120.49    8.10
   0   0  -3    2.50    0.90
   0   0  -3    1.60    0.90
   0   0   3    0.10    0.70
  -1   0  -3  115.29    5.90
  -1   0  -3  111.69    6.40
   1   0   3   98.89    6.20
   1   0   3  106.99    5.80
  -2   0  -3  324.47   15.40
  -2   0  -3  272.57   16.30
   2   0   3  307.57   16.40
   2   0   3  313.57   15.30
  -3   0  -3  858.71   41.80
  -3   0  -3  895.11   44.70
   3   0   3  829.82   41.60
  -4   0  -3    9.30    2.90
   4   0   3   12.50    1.90
  -5   0  -3  198.78   14.00
   5   0   3  219.98   12.00
  -6   0  -3  272.87   17.90
   6   0   3  261.17   15.10
  -7   0  -3  397.56   24.60
   7   0   3  358.86   20.60
  -8   0  -3    1.60    2.70
   8   0   3    5.20    2.30
   6  -1  -3  243.88   16.60
  -6   1   3  227.88   15.90
   5  -1  -3   87.99    6.40
  -5   1   3   76.29    7.80
  -5   1   3   74.89    6.60
   4  -1  -3   16.90    2.80
  -4   1   3   10.00    3.40
  -4   1   3   14.50    2.80
   3  -1  -3  283.77   15.10
  -3   1   3  289.17   16.70
   2  -1  -3  338.17   16.90
  -2   1   3  327.37   18.40
   1  -1  -3 1013.30   47.90
   1  -1  -3  926.01   46.60
  -1   1   3  888.91   47.50
  -1   1   3 1063.69   47.00
   0  -1  -3  877.71   40.60
   0  -1  -3  824.42   41.10
   0   1   3  922.11   40.60
   0   1   3  762.22   41.00
  -1  -1  -3  112.19    6.00
  -1  -1  -3  114.19    6.30
  -1  -1  -3  115.89    5.90
   1   1   3  109.39    5.90
   1   1   3  101.19    6.20
   1   1   3  108.49    6.10
  -2  -1  -3    0.70    0.90
  -2  -1  -3    0.30    0.60
   2   1   3    0.10    0.60
  -3  -1  -3 1935.71   89.29
  -3  -1  -3 1864.61   89.99
   3   1   3 1788.92   88.49
  -4  -1  -3 1464.45   72.19
   4   1   3 1464.35   70.29
  -5  -1  -3  323.97   19.90
   5   1   3  351.86   17.80
   5   1   3  333.17   18.00
  -6  -1  -3    1.20    1.90
   6   1   3   -0.90    1.40
  -7  -1  -3  204.98   15.70
   7   1   3  202.18   12.70
  -8  -1  -3  177.58   14.20
   8   1   3  161.88   11.40
   6  -2  -3    8.90    2.80
  -6   2   3   10.70    4.50
  -6   2   3   14.50    3.90
   5  -2  -3  132.49    8.50
  -5   2   3  124.99    9.50
  -5   2   3  120.49   10.90
   4  -2  -3  129.49    8.20
  -4   2   3  145.89   10.50
  -4   2   3  128.99    9.10
   3  -2  -3  203.78   11.50
  -3   2   3  216.28   13.60
  -3   2   3  214.68   12.30
   2  -2  -3  326.47   16.20
  -2   2   3  308.97   17.90
  -1   2   3  659.23   32.20
   0  -2  -3 2649.14  126.89
   0  -2  -3 2646.04  125.89
   0   2   3 2745.23  125.99
   0   2   3 2658.83  126.99
  -1  -2  -3  555.34   26.20
  -1  -2  -3  541.55   25.70
   1   2   3  527.15   25.70
   1   2   3  503.75   26.20
  -2  -2  -3  308.67   15.30
  -2  -2  -3  291.47   14.90
   2   2   3  310.67   15.20
   2   2   3  299.97   15.10
   3   2   3 1632.64   77.79
  -4  -2  -3    1.40    1.30
   4   2   3   -0.30    0.90
   4   2   3    0.50    1.00
  -5  -2  -3   64.39    6.40
   5   2   3   73.29    5.50
   5   2   3   69.59    5.20
  -6  -2  -3  902.31   48.60
   6   2   3  962.70   46.70
   7   2   3  523.05   28.00
   8   2   3   41.30    5.20
   6  -3  -3  160.88   10.00
  -6   3   3  130.99   12.30
  -6   3   3  153.78   12.20
   5  -3  -3   24.20    3.60
  -5   3   3   23.60    5.00
  -5   3   3   24.80    5.30
   4  -3  -3    2.50    1.40
  -4   3   3   -1.00    2.50
  -4   3   3   -0.70    2.20
   3  -3  -3    6.80    1.60
   2  -3  -3  552.04   27.40
  -2   3   3  586.14   30.20
  -2   3   3  549.54   28.60
  -1   3   3 1042.60   50.79
  -1   3   3  992.30   48.80
   0  -3  -3 1227.58   61.19
   0   3   3 1342.67   62.99
   0   3   3 1310.17   61.39
  -1  -3  -3 2378.26  115.49
  -1  -3  -3 2449.05  116.39
   1   3   3 2488.95  115.59
   1   3   3 2491.55  116.59
  -2  -3  -3  283.37   14.50
  -2  -3  -3  296.07   15.00
   2   3   3  269.07   14.30
   2   3   3  284.17   14.70
   3   3   3  726.83   35.00
   3   3   3  706.53   34.70
   4   3   3 1372.26   66.19
   5   3   3   65.69    5.30
   6   3   3   -0.30    1.30
   7   3   3  491.15   26.60
   8   3   3  152.28   10.90
   9   3   3   10.70    3.60
   5  -4  -3  215.28   11.90
  -5   4   3  180.68   14.90
  -5   4   3  211.28   14.80
   4  -4  -3  439.46   22.50
  -4   4   3  442.56   24.90
   3  -4  -3   75.29    5.90
  -3   4   3   85.89    8.30
  -3   4   3   94.29    7.50
   2  -4  -3  306.77   16.00
  -2   4   3  321.47   20.20
  -2   4   3  333.97   19.00
  -1   4   3  111.39    8.50
   0  -4  -3 1815.52   89.99
   0   4   3 2005.60   92.39
  -1  -4  -3  686.33   35.20
   1   4   3  803.22   37.40
   1   4   3  712.43   35.10
  -2  -4  -3 1146.19   55.29
  -2  -4  -3 1150.98   55.69
   2   4   3 1174.48   55.99
   2   4   3 1144.89   55.09
   3   4   3 1638.74   78.49
   3   4   3 1643.24   78.59
   4   4   3   13.10    2.20
   5   4   3  331.17   18.10
   6   4   3  947.51   47.60
   7   4   3  482.15   26.40
   8   4   3    0.70    1.80
   9   4   3   65.99    7.00
  -5   5   3  276.97   18.80
  -4   5   3   13.70    5.00
  -4   5   3   19.70    4.70
  -3   5   3  160.68   11.70
  -3   5   3  168.08   12.80
  -2   5   3  380.56   23.20
  -2   5   3  417.76   22.50
  -1   5   3    1.30    2.80
   0   5   3  441.66   24.10
  -1  -5  -3   42.70    3.10
   1   5   3   53.79    4.80
  -2  -5  -3  300.97   16.10
   2   5   3  320.67   17.30
   2   5   3  329.87   16.00
   3   5   3  587.54   29.70
   4   5   3  188.98   10.80
   4   5   3  185.68   10.80
   5   5   3  209.98   12.40
   6   5   3    1.80    1.70
   8   5   3  144.29   10.70
   9   5   3   69.89    7.50
  -4   6   3   10.70    5.30
  -4   6   3    7.00    4.60
  -3   6   3  213.78   14.70
  -3   6   3  197.58   15.40
  -2   6   3   45.30    6.90
  -2   6   3   49.30    6.40
  -1   6   3   77.29    7.90
   0   6   3  119.99    9.30
   1   6   3  203.58   12.80
  -2  -6  -3    4.30    1.30
   2   6   3    6.60    1.20
   2   6   3    3.60    1.80
   3   6   3  279.37   15.10
   3   6   3  298.77   16.30
   4   6   3  323.67   17.20
   4   6   3  318.47   17.70
   5   6   3   14.60    2.90
   5   6   3   13.80    2.90
   6   6   3  254.57   15.20
   7   6   3  168.98   11.60
   8   6   3   46.10    5.60
   9   6   3   15.80    4.00
  -3   7   3   92.99    9.90
  -3   7   3   97.89   10.60
  -2   7   3   67.09    8.90
  -2   7   3   74.19    8.30
  -1   7   3  153.88   12.20
   0   7   3  269.67   17.00
   1   7   3   95.49    8.00
   2   7   3  228.38   14.10
   3   7   3  462.05   23.30
   3   7   3  464.05   25.00
   4   7   3  128.39    8.30
   4   7   3  136.29    9.30
   5   7   3  298.37   17.00
   5   7   3  283.97   16.30
   6   7   3    0.30    1.50
   6   7   3   -0.20    1.40
   7   7   3  368.46   21.10
   8   7   3  165.18   11.90
  -3   8   3   50.79    8.90
  -3   8   3   42.00    8.30
  -2   8   3   20.50    6.20
  -2   8   3   15.60    5.50
  -1   8   3  255.07   17.80
   0   8   3    7.00    4.00
   1   8   3  340.97   20.60
   2   8   3  410.46   23.40
   3   8   3  110.49    6.90
   3   8   3  117.29    8.90
   4   8   3  153.28    9.20
   4   8   3  144.39   10.50
   5   8   3  371.66   20.90
   5   8   3  353.76   19.80
   6   8   3   82.59    7.00
   6   8   3   85.79    7.40
   7   8   3  230.38   14.90
   7   8   3  246.38   15.30
   8   8   3    2.40    2.30
  -2   9   3   76.49   10.30
  -2   9   3   59.79    9.70
  -1   9   3  189.98   15.30
   0   9   3   38.20    6.60
   1   9   3   66.59    7.80
   2   9   3   65.79    7.50
   3   9   3    1.90    2.30
   3   9   3    0.40    1.20
   4   9   3  464.65   24.30
   4   9   3  473.95   26.60
   5   9   3  105.79    9.00
   5   9   3  102.19    7.60
   6   9   3   -1.10    1.80
   6   9   3    2.50    2.60
   7   9   3  107.79    8.70
   7   9   3  115.29    9.30
   8   9   3   -2.90    1.90
   8   9   3    0.60    2.20
  -1  10   3   28.60    7.40
   0  10   3   18.10    5.30
   1  10   3  230.98   16.70
   2  10   3  195.38   14.40
   3  10   3   26.20    5.00
   4  10   3   95.99    8.80
   4  10   3   92.19    6.60
   5  10   3  110.39   10.00
   5  10   3  118.89    8.30
   6  10   3  678.43   37.30
   7  10   3   30.60    5.70
   7  10   3   30.80    4.90
   1  11   3  114.89   11.50
   2  11   3   18.60    5.40
   3  11   3   99.19    9.80
   4  11   3  215.08   15.70
   4  11   3  211.88   12.20
   5  11   3   64.29    6.00
   5  11   3   63.19    7.70
   6  11   3   -2.70    2.30
   6  11   3    0.00    3.20
   4  10  -4   66.29    6.60
   4  10  -4   64.09    7.30
   3  10  -4  104.29    9.20
   3  10  -4  119.39    8.20
   2  10  -4   20.60    3.70
   2  10  -4   31.20    5.10
   1  10  -4   54.69    6.80
   0  10  -4   27.60    5.50
  -1  10  -4   40.80    6.90
   5   9  -4  244.38   15.30
   4   9  -4   60.19    5.70
   3   9  -4   77.29    6.20
   2   9  -4   29.90    4.80
   2   9  -4   41.90    4.30
   1   9  -4  373.86   20.00
   1   9  -4  404.96   22.70
   0   9  -4    3.90    2.80
  -1   9  -4  189.28   13.70
  -2   9  -4   40.50    7.10
   6   8  -4  301.67   18.70
   5   8  -4  178.38   12.00
   3   8  -4  110.89    7.70
   2   8  -4  221.18   14.40
   2   8  -4  248.98   13.30
   1   8  -4  492.15   27.20
   1   8  -4  517.95   25.50
   0   8  -4  115.49    9.00
  -1   8  -4  255.17   16.10
  -2   8  -4   10.10    5.40
  -3   8  -4   19.60    5.80
  -3   8  -4   21.00    6.90
   6   7  -4   33.40    5.60
   5   7  -4   74.89    6.90
   4   7  -4  755.92   38.60
   3   7  -4  112.59    7.80
   2   7  -4   77.69    5.70
   1   7  -4   77.39    5.30
   1   7  -4   71.69    6.10
   0   7  -4   13.70    3.20
   0   7  -4    9.80    1.90
  -1   7  -4  161.48   10.90
  -2   7  -4  155.68   11.00
  -2   7  -4  146.29   14.20
  -3   7  -4  105.59    9.40
  -3   7  -4  102.79   11.90
  -4   7  -4    1.40    4.30
   6   6  -4   43.90    5.80
   5   6  -4  101.09    8.30
   4   6  -4   20.50    3.60
   3   6  -4   58.09    5.00
   2   6  -4 1140.59   55.49
   1   6  -4   37.80    3.50
   0   6  -4   34.90    3.80
  -1   6  -4   82.59    6.70
   1  -6   4   85.29    5.40
  -2   6  -4  336.07   18.40
  -2   6  -4  298.37   20.80
  -3   6  -4  161.08   11.30
  -4   6  -4  163.98   14.80
  -4   6  -4  169.38   11.80
  -5   6  -4   38.50    6.50
  -5   6  -4   33.20    8.40
   7   5  -4   99.79    9.50
   6   5  -4   12.30    3.10
   5   5  -4   40.30    5.30
   4   5  -4  106.19    7.80
   3   5  -4   80.19    6.10
   2   5  -4  304.97   16.30
   0  -5   4  766.22   38.50
  -1   5  -4    5.60    1.90
   1  -5   4    8.20    1.70
  -2   5  -4  333.37   21.10
  -2   5  -4  345.57   18.60
   2  -5   4  334.77   17.00
  -3   5  -4   87.89    9.70
  -3   5  -4   92.89    7.40
  -4   5  -4   -0.70    3.20
  -5   5  -4   47.10    8.90
  -5   5  -4   69.29    7.00
  -6   5  -4  123.79   10.10
  -6   5  -4  114.59   13.20
   7   4  -4   32.70    6.00
   6   4  -4   47.60    5.80
   5   4  -4  353.46   23.00
   4   4  -4   71.59    6.10
   3   4  -4  284.77   15.80
   2   4  -4  266.67   14.50
  -1  -4   4  115.69    7.60
   0  -4   4  833.02   43.50
  -1   4  -4  126.89    7.40
  -1   4  -4  108.29    7.30
   1  -4   4  123.59    6.90
  -2   4  -4  210.48   13.70
  -2   4  -4  181.98   10.90
   2  -4   4  184.78   10.10
  -3   4  -4  250.57   14.80
  -3   4  -4  277.47   18.10
   3  -4   4  285.27   14.00
  -4   4  -4   91.99    9.50
  -4   4  -4   81.49    6.80
   4  -4   4   93.59    5.60
  -5   4  -4  259.17   19.40
  -5   4  -4  237.78   15.40
   5  -4   4  295.17   14.20
  -6   4  -4   25.20    6.60
  -6   4  -4   21.30    4.90
   6  -4   4   25.10    3.30
   7   3  -4   34.80    5.90
   6   3  -4  578.74   31.20
   5   3  -4  242.48   15.50
   4   3  -4  320.07   17.80
   3   3  -4  401.66   21.10
   2   3  -4    9.30    2.00
  -1  -3   4  168.78    9.90
   0  -3   4 2527.75  119.99
  -1   3  -4 1085.89   54.19
   1  -3   4 1182.18   54.29
  -2   3  -4  271.77   14.00
  -2   3  -4  261.97   16.30
   2  -3   4  262.87   13.50
  -3   3  -4  370.16   21.50
   3  -3   4  354.36   18.20
  -4   3  -4  792.62   42.50
   4  -3   4  773.32   38.10
  -5   3  -4   45.60    7.00
   5  -3   4   44.60    3.80
  -6   3  -4  289.97   20.60
   6  -3   4  281.47   15.30
  -7   3  -4   16.30    6.00
   7  -3   4   29.60    3.90
   7   2  -4   91.29    8.80
   6   2  -4   51.19    5.70
   5   2  -4  219.48   13.60
   4   2  -4  102.89    7.40
   3   2  -4  510.95   26.20
  -1  -2   4  603.84   30.20
   0   2  -4    9.70    1.80
  -1   2  -4  719.53   36.20
  -1   2  -4  768.52   37.70
   1  -2   4  761.92   36.30
  -2   2  -4  909.41   45.90
   2  -2   4  905.71   43.60
  -3   2  -4  686.53   36.70
   3  -2   4  706.23   34.00
  -5   2  -4  113.79   10.60
   5  -2   4  129.09    7.60
  -6   2  -4  153.08   14.90
   6  -2   4  141.79    8.90
  -7   2  -4   86.69   10.50
   7  -2   4  100.19    6.90
   6   1  -4   18.30    3.90
  -6  -1   4   24.30    5.50
   5   1  -4  367.16   20.40
   4   1  -4  324.67   18.10
  -4  -1   4  340.57   19.60
   3   1  -4  525.65   26.50
  -3  -1   4  512.15   27.70
  -2  -1   4  551.64   28.70
  -1  -1   4  460.55   26.70
  -1  -1   4  600.84   27.80
   0   1  -4  587.84   33.80
   0   1  -4  777.22   34.50
   0  -1   4  657.73   34.00
   0  -1   4  751.62   33.90
  -1   1  -4  859.81   47.70
  -1   1  -4 1060.79   48.90
  -1   1  -4  984.60   47.90
   1  -1   4 1097.79   48.00
  -2   1  -4 1616.64   83.19
  -2   1  -4 1694.03   81.69
   2  -1   4 1727.73   81.59
   2  -1   4 1845.22   84.49
  -3   1  -4  454.45   24.70
   3  -1   4  446.96   22.90
  -4   1  -4  334.27   20.10
   4  -1   4  335.67   17.30
  -5   1  -4  546.55   30.90
   5  -1   4  540.65   27.40
  -6   1  -4   18.00    5.20
   6  -1   4   19.10    2.90
  -7   1  -4  231.98   17.40
   7  -1   4  226.68   13.40
  -8   1  -4    0.10    3.20
   8  -1   4    0.90    1.90
   6   0  -4   51.29    5.70
  -6   0   4   37.20    6.40
   5   0  -4   36.90    4.90
  -5   0   4   49.99    6.20
   4   0  -4   81.79    6.20
  -4   0   4   82.09    7.40
   3   0  -4  406.16   20.80
  -3   0   4  394.26   22.40
  -2   0   4  606.04   31.40
  -1   0   4  482.55   24.10
  -1   0   4  420.66   25.20
   0   0  -4   12.80    1.70
   0   0  -4   13.70    2.20
   0   0   4   12.90    2.00
  -1   0  -4  135.39    7.50
  -1   0  -4  134.39    7.90
  -1   0  -4  127.89    7.40
   1   0   4  137.79    7.90
   1   0   4  139.29    7.50
   1   0   4  145.29    7.50
  -2   0  -4  513.15   25.60
  -2   0  -4  552.14   27.00
   2   0   4  530.15   25.60
   2   0   4  488.75   26.50
  -3   0  -4 1650.03   73.69
   3   0   4 1336.07   71.49
  -4   0  -4  370.46   21.90
   4   0   4  396.66   19.70
  -5   0  -4   78.59    7.70
   5   0   4   74.29    5.50
  -6   0  -4  188.48   13.80
   6   0   4  170.48   10.70
  -7   0  -4  378.66   23.90
   7   0   4  360.86   20.20
  -8   0  -4  194.18   15.50
   8   0   4  164.18   11.40
   6  -1  -4   46.20    5.40
  -6   1   4   40.20    6.40
   5  -1  -4   89.29    7.00
  -5   1   4   92.09    8.90
   4  -1  -4  112.89    7.80
  -4   1   4  127.59    9.90
   3  -1  -4  295.27   16.10
  -3   1   4  312.87   18.00
  -2   1   4    7.10    2.70
  -1   1   4  574.94   30.60
  -1   1   4  621.84   30.20
   0  -1  -4  648.64   32.20
   0  -1  -4  644.14   31.40
   0   1   4  704.13   31.60
   0   1   4  590.74   32.10
  -1  -1  -4  131.29    7.60
  -1  -1  -4  133.09    7.70
  -1  -1  -4  128.39    7.40
   1   1   4  147.29    7.80
   1   1   4  140.89    7.80
   1   1   4  147.99    7.60
  -2  -1  -4  135.29    8.50
  -2  -1  -4  132.99    7.50
   2   1   4  135.09    8.40
   2   1   4  141.19    7.60
  -3  -1  -4  650.83   33.90
  -4  -1  -4   14.20    3.30
   4   1   4   10.20    1.90
  -5  -1  -4   23.40    4.40
   5   1   4   30.60    3.20
  -6  -1  -4  496.05   28.50
   6   1   4  488.85   25.70
  -7  -1  -4  190.08   19.70
   7   1   4  190.68   11.90
  -8  -1  -4   -3.10    2.40
   8   1   4    2.50    1.90
   6  -2  -4  286.87   16.30
  -6   2   4  260.87   18.90
   5  -2  -4   65.99    5.70
  -5   2   4   56.89    7.40
   4  -2  -4   16.60    2.90
  -4   2   4   23.40    4.80
   3  -2  -4   69.99    5.20
  -3   2   4   74.29    7.20
  -2   2   4  250.97   15.20
  -1   2   4  157.68    8.90
  -1   2   4  148.39    9.90
   0  -2  -4    8.60    1.50
   0   2   4   11.20    1.60
   0   2   4   12.40    2.70
  -1  -2  -4  915.11   45.00
  -1  -2  -4  988.60   45.90
   1   2   4  997.80   45.20
   1   2   4  963.00   45.80
   1   2   4  846.22   45.20
  -2  -2  -4  550.24   25.40
  -2  -2  -4  541.95   25.70
   2   2   4  526.05   25.60
   2   2   4  469.35   26.20
   2   2   4  514.05   25.50
   3   2   4  449.76   24.60
  -4  -2  -4  961.80   47.30
   4   2   4  891.41   45.20
  -5  -2  -4  337.67   20.10
   5   2   4  335.47   18.00
  -6  -2  -4   20.80    4.40
   6   2   4   21.40    3.20
  -7  -2  -4  496.05   30.20
   7   2   4  516.75   27.10
   8   2   4  111.29    8.60
   5  -3  -4  153.58    9.80
  -5   3   4  148.19   12.40
   4  -3  -4  675.03   33.90
  -4   3   4  678.83   37.40
   3  -3  -4   37.40    3.40
  -3   3   4   34.30    5.50
   2  -3  -4  245.18   12.90
  -2   3   4  245.48   15.30
  -1   3   4   87.39    5.70
  -1   3   4   88.09    7.20
   0  -3  -4 1845.82   94.39
   0   3   4 2058.09   96.29
   0   3   4 2089.19   94.69
  -1  -3  -4  631.24   31.50
  -1  -3  -4  678.53   32.50
   1   3   4  630.24   32.60
   1   3   4  664.33   31.60
  -2  -3  -4 1608.64   77.89
  -2  -3  -4 1635.54   77.89
   2   3   4 1638.94   77.69
   2   3   4 1656.93   78.19
   3   3   4 1402.56   68.19
   3   3   4 1447.16   67.99
   4   3   4   12.80    1.60
   4   3   4   12.90    2.00
   5   3   4  295.97   16.20
   5   3   4  335.57   17.20
   6   3   4 1025.50   50.99
   7   3   4  477.65   25.90
   8   3   4    0.20    1.60
   9   3   4   83.69    7.80
   5  -4  -4  224.18   12.00
  -5   4   4  160.78   14.50
  -5   4   4  198.68   14.00
   4  -4  -4    5.30    1.80
  -4   4   4    2.80    3.10
  -4   4   4   -4.20    3.40
   3  -4  -4   86.49    5.90
  -3   4   4  103.09    9.00
  -3   4   4   88.09    7.60
   2  -4  -4  968.80   46.00
  -2   4   4  883.11   46.60
  -2   4   4  954.50   48.50
  -1   4   4  297.27   15.40
  -1   4   4  291.67   17.60
   0  -4  -4  901.71   45.80
   0   4   4  981.50   46.10
   0   4   4  997.00   48.40
  -1  -4  -4  955.50   48.50
   1   4   4 1044.90   48.70
   1   4   4 1048.00   50.29
  -2  -4  -4  728.23   39.30
   2   4   4  850.51   39.90
   2   4   4  830.52   38.90
   3   4   4  413.16   21.10
   3   4   4  424.26   21.40
   4   4   4  359.96   19.10
   4   4   4  371.06   18.80
   5   4   4   22.90    3.00
   5   4   4   24.20    2.60
   6   4   4   19.20    3.20
   7   4   4  458.65   25.30
   8   4   4  163.98   11.60
   9   4   4   20.60    4.40
   4  -5  -4   41.90    4.30
  -4   5   4   48.90    7.50
  -4   5   4   56.79    7.20
   3  -5  -4   93.39    6.00
  -3   5   4   90.79    8.10
  -3   5   4  101.79    9.80
  -2   5   4   70.99    6.60
  -2   5   4   74.99    8.00
  -1   5   4   29.60    5.20
   0   5   4  601.24   30.20
   0   5   4  640.74   32.90
  -1  -5  -4  110.09    6.30
   1   5   4  114.49    8.20
   1   5   4  107.39    6.20
   2   5   4  218.68   11.50
   2   5   4  219.98   12.90
   3   5   4  641.24   32.10
   3   5   4  666.83   33.00
   4   5   4  305.67   16.30
   4   5   4  300.47   16.20
   5   5   4   70.79    5.50
   5   5   4   63.79    5.00
   6   5   4  449.66   24.20
   8   5   4    0.70    1.70
   9   5   4   19.30    4.30
  -4   6   4   53.79    8.30
  -4   6   4   45.90    8.20
  -3   6   4   54.39    7.00
  -3   6   4   47.70    8.10
  -2   6   4  214.38   13.30
  -2   6   4  149.99   16.70
  -1   6   4   51.89    6.90
   0   6   4   35.10    5.40
   1   6   4    5.10    2.60
   2   6   4  143.69    8.00
   2   6   4  144.29    9.80
   3   6   4  322.57   17.70
   3   6   4  310.77   16.40
   4   6   4    6.60    1.70
   5   6   4  520.25   27.00
   5   6   4  518.25   26.90
   6   6   4  170.98   10.50
   6   6   4  164.38   10.90
   7   6   4  180.78   12.10
   8   6   4  105.09    8.70
   9   6   4   76.49    7.80
  -3   7   4   92.89   11.00
  -3   7   4  103.89   10.10
  -2   7   4   22.10    6.00
  -2   7   4   35.90    6.40
  -1   7   4  324.07   27.00
   0   7   4   10.20    4.10
   1   7   4   89.09    8.10
   2   7   4  322.27   18.90
   2   7   4  321.57   16.30
   3   7   4  274.37   16.40
   3   7   4  283.57   14.70
   4   7   4  761.42   39.00
   4   7   4  764.82   37.90
   5   7   4  124.99    8.30
   5   7   4  123.09    8.80
   6   7   4   15.30    3.10
   6   7   4   17.30    3.20
   7   7   4  393.46   22.00
   7   7   4  379.16   21.30
   8   7   4    0.80    1.80
  -2   8   4   18.60    5.90
  -2   8   4   22.30    5.90
  -1   8   4  357.86   23.00
   0   8   4  102.79    9.90
   1   8   4  149.39   11.70
   2   8   4  319.27   19.40
   3   8   4   85.69    5.60
   3   8   4   87.89    7.60
   4   8   4   99.89    8.10
   4   8   4   99.59    6.70
   5   8   4   42.10    5.10
   5   8   4   42.20    4.30
   6   8   4  152.88   10.80
   6   8   4  154.88   10.30
   7   8   4  236.18   15.00
   7   8   4  249.78   15.20
   8   8   4  174.08   12.20
   8   8   4  171.58   12.00
  -1   9   4   41.80    7.70
   0   9   4    0.30    4.10
   1   9   4  254.47   17.40
   2   9   4  159.28   13.20
   3   9   4  169.38   12.50
   3   9   4  173.88    9.70
   4   9   4    5.20    1.90
   4   9   4    4.00    2.90
   5   9   4  352.36   18.90
   5   9   4  333.97   20.50
   6   9   4  312.27   22.30
   6   9   4  331.57   18.50
   7   9   4  108.99    9.00
   7   9   4  107.49    8.50
   8   9   4    0.90    2.20
   8   9   4    0.60    2.50
   0  10   4   27.90    6.80
   1  10   4  185.98   14.80
   2  10   4   15.00    4.70
   3  10   4  135.19   11.30
   4  10   4  205.18   14.40
   4  10   4  198.68   11.50
   5  10   4   75.39    6.20
   5  10   4   77.09    7.90
   6  10   4   30.30    5.30
   7  10   4   32.00    4.70
   7  10   4   33.30    5.70
   1  11   4   42.20    8.00
   2  11   4   42.30    7.50
   3  11   4   12.70    4.80
   4  11   4   -0.90    2.90
   4  11   4    1.20    1.80
   5  11   4   65.29    5.80
   5  11   4   70.89    8.10
   6  11   4  164.88   13.30
   6  11   4  167.08   11.20
   3  10  -5   54.19    5.80
   3  10  -5   54.29    6.60
   2  10  -5   30.70    4.40
   2  10  -5   36.20    5.40
   1  10  -5  167.08   10.30
   1  10  -5  178.38   12.70
   0  10  -5   14.70    4.40
   4   9  -5   45.10    5.60
   3   9  -5   77.59    9.60
   2   9  -5   11.70    3.50
   2   9  -5   14.70    3.00
   1   9  -5   89.19    6.40
   1   9  -5   91.69    8.10
   0   9  -5    9.30    3.50
  -1   9  -5   47.50    6.60
  -2   9  -5   55.99    7.90
  -2   9  -5   51.09    9.90
   5   8  -5  232.78   15.10
   4   8  -5  112.49    8.70
   3   8  -5   33.60    4.30
   2   8  -5  193.18   11.50
   1   8  -5  326.47   16.70
   1   8  -5  291.17   17.80
   0   8  -5    3.10    1.60
   0   8  -5    0.70    2.20
  -1   8  -5  408.46   23.20
  -2   8  -5   22.60    5.00
  -2   8  -5   17.00    6.30
  -3   8  -5   33.50    8.90
  -3   8  -5   35.10    6.80
   6   7  -5   82.49    8.50
   5   7  -5  130.89   10.30
   4   7  -5   38.30    4.90
   3   7  -5   73.69    6.10
   2   7  -5  837.32   41.70
   1   7  -5  528.35   26.90
   0   7  -5   70.59    6.10
  -1   7  -5  525.25   27.30
   1  -7   5  487.45   25.60
  -2   7  -5   53.19    9.00
  -2   7  -5   69.79    6.90
  -3   7  -5  126.49   13.50
  -3   7  -5  126.79   10.30
  -4   7  -5   75.29   11.30
  -4   7  -5   78.39    8.40
   6   6  -5   90.49    8.60
   5   6  -5   53.49    6.30
   4   6  -5  401.26   22.50
   3   6  -5  108.59    7.90
   2   6  -5   85.69    6.30
   0   6  -5  290.97   16.80
   0  -6   5  322.87   16.80
  -1   6  -5   68.59    6.00
   1  -6   5   82.29    5.60
  -2   6  -5   43.30    5.40
  -2   6  -5   50.89    7.50
   2  -6   5   48.00    4.00
  -3   6  -5  228.28   18.30
  -3   6  -5  251.27   14.90
  -4   6  -5   33.90    7.90
  -4   6  -5   45.60    5.90
  -5   6  -5   44.70    9.70
  -5   6  -5   48.70    6.70
   5   5  -5  113.99    9.20
   4   5  -5   62.39    8.30
   3   5  -5   97.99    7.20
   2   5  -5  547.65   28.10
  -1  -5   5   28.80    3.80
   0  -5   5   27.10    3.20
  -1   5  -5   35.50    3.70
   1  -5   5   33.60    3.40
  -2   5  -5  450.45   24.60
  -2   5  -5  482.35   27.80
   2  -5   5  480.25   23.70
  -3   5  -5  146.29   12.90
  -3   5  -5  144.09    9.80
   3  -5   5  157.68    8.60
  -4   5  -5  126.49   12.30
  -4   5  -5  108.89    8.60
   4  -5   5  127.49    7.30
  -5   5  -5   89.19   11.40
   5  -5   5  101.99    6.40
  -6   5  -5   10.30    6.50
   6   4  -5   98.19    8.80
   5   4  -5  112.99    9.00
   4   4  -5    5.90    2.30
   3   4  -5   94.09    7.00
   2   4  -5  342.57   18.40
  -1  -4   5   17.10    3.10
   0  -4   5  808.52   40.00
   1  -4   5  339.57   17.60
  -2   4  -5  368.46   22.00
  -2   4  -5  370.56   19.10
   2  -4   5  353.16   18.50
  -3   4  -5   48.40    6.90
  -3   4  -5   43.70    4.30
   3  -4   5   42.90    3.40
  -4   4  -5   92.29   10.10
   4  -4   5  108.49    6.50
  -5   4  -5   65.79    9.50
   5  -4   5   65.59    5.00
  -6   4  -5   37.90    8.30
   6  -4   5   37.00    4.00
   6   3  -5    0.30    2.20
   5   3  -5  287.67   17.20
   4   3  -5  232.48   14.00
   3   3  -5  104.29    7.40
  -1  -3   5  272.97   15.20
   0  -3   5  521.45   26.40
  -1   3  -5  107.39    8.00
   1  -3   5  104.09    6.40
  -2   3  -5  692.73   32.80
  -2   3  -5  646.54   35.30
   2  -3   5  664.83   32.70
  -3   3  -5  282.57   17.80
   3  -3   5  281.97   14.70
  -4   3  -5   25.60    6.00
   4  -3   5   33.80    3.20
  -5   3  -5  271.17   20.10
   5  -3   5  297.67   15.30
  -6   3  -5  214.58   17.00
   6  -3   5  200.58   11.70
  -7   3  -5   68.59   10.50
   7  -3   5   93.39    6.60
   6   2  -5  105.99    9.00
   5   2  -5  280.57   16.80
   4   2  -5    0.30    1.30
   3   2  -5  384.66   20.60
  -1  -2   5  170.38   10.20
   0  -2   5  641.44   31.90
  -1   2  -5  153.78    9.20
  -1   2  -5  122.99    7.80
   1  -2   5  135.09    7.80
  -2   2  -5  314.67   18.30
   2  -2   5  330.27   16.50
  -3   2  -5  130.79   10.10
   3  -2   5  131.29    7.60
  -4   2  -5 1146.29   59.09
   4  -2   5 1146.79   55.29
  -5   2  -5  120.79   11.10
   5  -2   5  127.49    7.80
  -6   2  -5  101.99   11.10
   6  -2   5  109.39    7.10
  -7   2  -5  114.69   12.20
   7  -2   5  118.79    8.00
   6   1  -5    0.30    2.10
  -6  -1   5    3.10    3.50
   5   1  -5  106.89    8.30
  -5  -1   5  100.69    9.10
   4   1  -5  226.58   14.40
  -4  -1   5  280.97   16.40
   3   1  -5  390.66   20.30
  -3  -1   5  363.86   21.30
  -2  -1   5    0.20    1.40
  -1  -1   5 1456.45   68.59
  -1  -1   5 1374.06   68.79
   0  -1   5  340.97   18.00
   0  -1   5  342.27   17.70
  -1   1  -5  537.65   26.60
  -1   1  -5  448.26   25.60
   1  -1   5  579.94   26.00
  -2   1  -5  327.17   18.60
   2  -1   5  325.37   16.70
  -3   1  -5  636.34   34.50
   3  -1   5  678.73   32.40
  -4   1  -5   37.00    5.30
   4  -1   5   36.20    3.30
  -5   1  -5  312.87   20.10
   5  -1   5  313.47   16.60
  -6   1  -5  546.35   32.30
   6  -1   5  525.75   27.40
  -7   1  -5  153.48   13.80
   7  -1   5  157.18    9.80
  -8   1  -5    4.40    3.90
   8  -1   5    1.60    1.90
   6   0  -5   88.59    7.90
  -6   0   5   93.39    9.60
   5   0  -5  103.69    8.30
  -5   0   5  112.09    9.90
   4   0  -5    2.50    1.80
  -4   0   5    2.60    2.60
   3   0  -5  109.49    7.80
  -3   0   5  134.29    9.50
  -2   0   5   24.60    3.90
  -1   0   5 1460.05   72.19
  -1   0   5 1503.55   71.59
   0   0  -5   -1.60    1.80
   0   0   5   -0.10    0.70
   0   0   5    0.20    1.40
  -1   0  -5  483.25   24.40
  -1   0  -5  470.25   24.10
   1   0   5  501.25   24.70
   1   0   5  490.25   24.10
   1   0   5  466.45   24.10
  -2   0  -5  216.78   12.70
   2   0   5  208.38   12.50
   2   0   5  227.48   11.70
  -3   0  -5  657.03   34.30
   3   0   5  662.13   32.40
  -4   0  -5  394.26   22.30
   4   0   5  374.56   19.70
  -5   0  -5  542.75   30.70
   5   0   5  546.85   27.60
  -6   0  -5  101.19    9.70
   6   0   5   88.79    6.50
  -7   0  -5  104.39   10.50
   7   0   5  100.39    7.40
  -8   0  -5    1.40    3.10
   8   0   5    2.00    1.90
   6  -1  -5  118.09    9.30
   5  -1  -5   64.09    7.30
  -5   1   5   58.59    7.50
   4  -1  -5   74.19    6.00
  -4   1   5   61.59   10.70
   3  -1  -5   98.59    6.80
  -3   1   5   96.99    8.20
  -2   1   5  416.96   23.00
  -1   1   5  173.58   10.00
  -1   1   5  159.98   10.60
   0   1   5  288.47   16.60
   0   1   5  320.77   15.90
  -1  -1  -5  491.25   24.00
   1   1   5  461.95   24.00
  -2  -1  -5    0.20    1.00
   2   1   5    0.60    0.80
  -3  -1  -5  704.73   35.70
   3   1   5  671.93   33.80
  -4  -1  -5  248.68   15.10
   4   1   5  230.18   12.90
  -5  -1  -5   55.39    6.60
   5   1   5   71.39    5.00
  -6  -1  -5   89.09    8.70
   6   1   5   86.99    6.50
  -7  -1  -5  617.24   35.80
   7   1   5  623.54   32.20
  -8  -1  -5  173.48   14.70
   8   1   5  162.48   11.00
  -5   2   5  133.99   11.70
   4  -2  -5  410.16   22.20
  -4   2   5  428.46   25.00
   3  -2  -5   95.99    6.70
  -3   2   5  101.09    8.60
  -2   2   5  335.37   19.80
  -1   2   5  260.07   14.10
  -1   2   5  252.27   15.20
   0   2   5  540.05   29.70
   0   2   5  620.64   28.90
  -1  -2  -5  522.45   26.50
   1   2   5  529.25   26.70
  -2  -2  -5  204.38   11.00
   2   2   5  231.98   11.40
   2   2   5  204.88   11.20
   2   2   5  194.08   11.70
   3   2   5  711.73   35.00
  -4  -2  -5    1.70    1.50
   4   2   5    0.60    0.80
  -5  -2  -5  216.18   14.20
   5   2   5  194.88   11.70
  -6  -2  -5  553.94   31.80
   6   2   5  566.24   29.00
  -7  -2  -5   83.69   12.10
   7   2   5   92.29    7.10
   8   2   5   38.60    4.70
   5  -3  -5  230.18   14.10
  -5   3   5  224.68   16.70
   4  -3  -5   31.80    3.90
  -4   3   5   24.90    5.60
   3  -3  -5   99.99    7.00
  -3   3   5  117.29    9.90
  -2   3   5  516.25   28.60
  -1   3   5   14.40    3.60
  -1   3   5   16.80    2.50
   0   3   5  306.67   18.60
   0   3   5  377.46   19.30
   1   3   5  117.29   10.00
  -2  -3  -5  312.17   16.00
   2   3   5  257.87   16.10
   2   3   5  328.17   16.40
   2   3   5  327.67   15.90
  -3  -3  -5  790.02   35.70
   3   3   5  671.43   34.40
   3   3   5  645.94   34.20
   4   3   5  227.18   12.50
   5   3   5  173.38   10.40
   6   3   5    1.40    1.20
   7   3   5  471.65   25.60
   8   3   5  130.59    9.60
   9   3   5   68.39    6.80
   4  -4  -5  119.49    7.90
  -4   4   5  107.49   10.80
   3  -4  -5   56.09    4.70
  -3   4   5   63.29    7.70
   2  -4  -5   73.09    5.10
  -2   4   5   71.79    7.80
  -1   4   5   24.30    3.20
  -1   4   5   36.50    5.10
   0   4   5  748.83   36.30
   0   4   5  644.84   36.10
   1   4   5  110.79    7.50
   1   4   5   91.19    7.40
   2   4   5  328.77   16.50
   2   4   5  312.77   18.30
  -3  -4  -5  614.74   30.10
   3   4   5  578.24   29.50
   3   4   5  572.44   29.10
   4   4   5  356.36   18.50
   4   4   5  349.67   18.20
   5   4   5   68.39    4.70
   5   4   5   68.49    5.30
   6   4   5  520.35   27.30
   8   4   5    2.40    2.10
   9   4   5   12.90    3.70
   4  -5  -5   53.89    5.00
  -4   5   5   42.70    8.20
   3  -5  -5   37.60    3.70
  -3   5   5   22.50    5.60
   2  -5  -5  716.03   37.10
  -2   5   5  815.02   43.30
  -1   5   5  183.98   12.70
  -1   5   5  156.38   10.00
   0   5   5   24.60    3.10
   0   5   5   29.20    4.80
   1   5   5  375.96   19.10
   1   5   5  297.97   18.90
   2   5   5  584.94   28.90
   2   5   5  589.14   30.50
   3   5   5  119.09    7.20
   3   5   5  122.99    8.10
   4   5   5   31.40    3.40
   4   5   5   35.20    3.30
   5   5   5  513.15   26.50
   5   5   5  514.25   26.20
   6   5   5   81.09    6.40
   6   5   5   78.39    5.70
   7   5   5   87.79    6.40
   7   5   5  101.79    8.80
   8   5   5  143.69   10.50
   9   5   5   14.80    3.90
  -3   6   5   59.09    8.40
  -3   6   5   56.69    7.50
  -2   6   5  174.48   12.20
  -2   6   5  174.78   14.20
  -1   6   5  463.55   27.30
   0   6   5  260.67   16.80
   1   6   5   28.50    4.80
   1   6   5   29.30    3.00
   2   6   5  343.27   17.30
   2   6   5  331.07   19.30
   3   6   5  263.37   15.50
   3   6   5  269.37   14.20
   4   6   5 1001.60   49.40
   4   6   5  987.70   48.60
   5   6   5  292.17   16.30
   5   6   5  298.27   16.50
   6   6   5   75.99    5.90
   6   6   5   68.09    5.90
   7   6   5  596.64   31.80
   7   6   5  603.24   30.90
   8   6   5   28.50    3.90
   8   6   5   38.00    4.80
   9   6   5   73.69    7.40
  -3   7   5   32.50    7.70
  -3   7   5   49.90    7.60
  -2   7   5   16.10    4.80
  -2   7   5   13.60    5.50
  -1   7   5  303.67   20.40
   0   7   5   69.59    7.90
   1   7   5   65.19    7.30
   2   7   5  395.26   22.60
   2   7   5  390.06   19.80
   3   7   5   35.90    3.20
   3   7   5   31.50    4.50
   4   7   5   29.00    4.00
   4   7   5   29.20    3.30
   5   7   5  114.49    8.30
   5   7   5  116.39    7.80
   6   7   5  470.95   25.80
   6   7   5  498.95   26.10
   7   7   5   99.29    7.70
   7   7   5  107.09    8.20
   8   7   5  161.38   10.80
   8   7   5  168.98   11.70
  -2   8   5   31.80    6.50
  -1   8   5  107.49   11.20
   0   8   5    0.00    4.00
   1   8   5  472.45   32.30
   2   8   5   35.90    3.20
   3   8   5  150.58    8.80
   3   8   5  152.88   11.10
   4   8   5  107.49    8.50
   4   8   5  104.29    6.90
   5   8   5  252.17   14.70
   5   8   5  268.77   16.00
   6   8   5  106.69    8.30
   6   8   5  102.19    7.70
   7   8   5  147.69   10.40
   7   8   5  153.48   10.70
   8   8   5    2.50    2.10
   8   8   5    5.50    2.70
  -1   9   5  186.38   15.80
   0   9   5    2.60    4.70
   1   9   5  384.26   23.90
   2   9   5   72.19    8.00
   3   9   5  258.77   13.90
   4   9   5  134.59    8.40
   4   9   5  139.39   10.60
   5   9   5   73.59    5.90
   5   9   5   78.89    7.30
   6   9   5  210.28   14.60
   6   9   5  234.78   14.40
   7   9   5  137.89   10.90
   7   9   5  121.89    9.30
   8   9   5   -1.20    2.30
   8   9   5   -3.70    1.80
   0  10   5   15.70    5.90
   1  10   5   48.80    8.00
   2  10   5   23.60    5.60
   3  10   5  130.59   11.10
   4  10   5   46.80    4.40
   4  10   5   49.00    6.70
   5  10   5  124.99   10.30
   5  10   5  112.49    8.10
   6  10   5   34.50    5.80
   6  10   5   42.80    5.20
   7  10   5  112.59    9.70
   7  10   5  110.49    8.70
   2  11   5   81.09    9.80
   3  11   5   55.29    8.00
   4  11   5  115.69   10.80
   4  11   5  106.89    7.10
   5  11   5   78.39    9.10
   5  11   5   96.39    6.90
   6  11   5   25.40    4.50
   6  11   5   26.80    5.60
   3   9  -6   37.20    5.10
   2   9  -6  124.99   10.10
   2   9  -6  154.08   11.80
   1   9  -6  185.78   10.90
   1   9  -6  164.38   11.90
   0   9  -6    9.20    2.50
   0   9  -6   14.60    3.90
  -1   9  -6  132.99   15.20
  -1   9  -6  169.58   12.10
   4   8  -6   89.69    8.00
   3   8  -6   55.89    5.80
   2   8  -6   59.59    5.60
   1   8  -6  139.19   10.50
   1   8  -6  147.39    9.20
   0   8  -6   34.50    4.70
   0   8  -6   38.10    4.20
  -1   8  -6  103.99    8.70
  -2   8  -6   24.40    5.30
  -2   8  -6   26.40    6.90
  -3   8  -6   35.80    6.70
  -3   8  -6   32.60    8.40
   5   7  -6  210.88   14.40
   4   7  -6   44.40    5.70
   3   7  -6   43.60    5.20
   2   7  -6  219.68   13.10
   1   7  -6   84.89    6.50
   0   7  -6  182.28   11.50
  -1   7  -6  307.57   18.00
   1  -7   6  317.77   17.20
  -2   7  -6   29.80    5.10
  -2   7  -6   29.10    7.20
   2  -7   6   36.30    4.00
  -3   7  -6   76.69    8.00
  -3   7  -6   76.99   11.10
  -4   7  -6   21.10    4.90
  -4   7  -6   24.20    6.60
   5   6  -6  113.09    9.70
   4   6  -6   34.90    4.90
   2   6  -6  404.16   21.80
   0  -6   6  982.10   48.80
  -1   6  -6  500.35   26.40
   1  -6   6  504.15   26.00
  -2   6  -6  219.88   14.60
  -2   6  -6  252.17   18.50
   2  -6   6  280.07   14.20
  -3   6  -6  188.88   12.60
  -3   6  -6  177.78   16.00
   3  -6   6  215.38   11.20
  -4   6  -6   45.30    6.00
  -4   6  -6   42.10    8.80
  -5   6  -6   79.39   11.80
   5   5  -6   69.09    7.20
   4   5  -6  173.88   11.80
   3   5  -6  239.38   14.50
   2   5  -6   33.30    4.20
  -1  -5   6   56.09    5.50
   0  -5   6  326.27   17.90
  -1   5  -6  218.48   12.40
  -1   5  -6  208.58   15.00
   1  -5   6  225.98   12.60
  -2   5  -6   79.79    8.80
  -2   5  -6   84.69    6.30
   2  -5   6   72.29    5.50
  -3   5  -6  160.48   13.80
  -3   5  -6  149.49   10.30
   3  -5   6  182.48    9.70
  -4   5  -6  288.27   22.40
   4  -5   6  380.76   17.90
  -5   5  -6   90.59   12.10
   5  -5   6  117.19    7.20
   6  -5   6  131.69    8.50
   6   4  -6   81.89    8.70
   5   4  -6  106.39    9.00
   4   4  -6  116.79    8.90
   3   4  -6  121.19    8.70
  -1  -4   6   78.89    6.40
   0  -4   6   16.90    2.80
  -1   4  -6   28.10    4.90
   1  -4   6   27.20    3.10
  -2   4  -6 1093.09   56.69
  -2   4  -6 1133.79   53.59
   2  -4   6 1074.29   53.29
  -3   4  -6   98.19    9.40
   3  -4   6   91.49    6.20
  -4   4  -6   -1.80    3.50
   4  -4   6    5.00    1.50
  -5   4  -6   96.19   10.90
   5  -4   6   96.09    6.60
  -6   4  -6   14.90    6.00
   6  -4   6   21.00    3.40
   6   3  -6   10.30    3.90
   5   3  -6   92.19    8.30
   4   3  -6   80.69    7.00
   3   3  -6   25.10    3.70
  -1  -3   6  109.49    7.80
   0  -3   6  136.49    8.60
  -1   3  -6   16.00    3.70
   1  -3   6   15.00    2.30
  -2   3  -6  256.67   16.60
   2  -3   6  277.97   14.40
  -3   3  -6    6.50    3.40
   3  -3   6   12.10    2.00
  -4   3  -6   90.79    9.50
   4  -3   6   99.39    6.40
  -5   3  -6   96.09   10.90
   5  -3   6  108.59    7.00
  -6   3  -6   43.20    7.80
   6  -3   6   39.10    4.10
  -7   3  -6  102.69   12.60
   7  -3   6  107.89    7.60
   6   2  -6   90.69    8.70
   5   2  -6  108.79    8.90
   3   2  -6   51.89    5.20
  -2  -2   6   62.79    5.70
  -1  -2   6  164.28   10.30
   0   2  -6   35.70    3.70
   0  -2   6   39.70    3.80
  -1   2  -6  218.68   13.50
  -1   2  -6  178.98   10.80
  -2   2  -6  238.78   14.80
   2  -2   6  251.37   13.20
  -3   2  -6  236.38   15.40
   3  -2   6  237.98   12.90
  -4   2  -6    8.40    3.70
   4  -2   6   11.20    2.10
  -5   2  -6  577.54   33.50
   5  -2   6  578.24   29.10
  -6   2  -6  388.86   25.50
   6  -2   6  391.46   20.60
  -7   2  -6   49.10    8.80
   7  -2   6   69.19    5.70
   5   1  -6   99.39    8.70
  -5  -1   6  116.39   10.10
  -4  -1   6   85.09    8.10
   3   1  -6   61.39    5.40
  -3  -1   6   57.09    6.10
  -2  -1   6   50.89    5.50
  -2  -1   6   59.29    5.70
  -1  -1   6  650.23   33.50
  -1  -1   6  647.34   33.00
   0  -1   6   78.59    6.00
   0  -1   6   85.89    5.90
  -1   1  -6  126.19    8.10
  -1   1  -6  149.79    8.90
   1  -1   6  142.49    8.20
  -2   1  -6    6.50    2.40
   2  -1   6    5.70    1.40
  -3   1  -6  293.87   17.90
   3  -1   6  311.77   16.00
  -4   1  -6 1376.86   71.49
   4  -1   6 1465.45   68.59
  -5   1  -6  103.49    9.70
   5  -1   6   92.79    6.50
  -6   1  -6  123.59   12.30
   6  -1   6  116.69    7.80
  -7   1  -6   61.09    8.70
   7  -1   6   66.29    5.90
  -8   1  -6   63.69   10.00
   8  -1   6   69.49    6.00
   5   0  -6   64.69    6.60
  -5   0   6   70.49    7.90
   4   0  -6  125.79    9.90
  -4   0   6  121.09   10.40
   3   0  -6   22.80    3.50
  -3   0   6   21.90    4.20
  -2   0   6   62.59    5.90
  -2   0   6   55.79    5.60
  -1   0   6  670.83   35.40
  -1   0   6  705.13   34.90
   0   0   6   20.40    2.60
   0   0   6   22.90    3.00
  -1   0  -6 1318.47   67.09
   1   0   6 1387.06   67.19
   1   0   6 1480.65   67.19
  -2   0  -6  589.84   30.30
   2   0   6  581.74   29.10
  -3   0  -6  342.17   19.70
   3   0   6  348.17   18.00
  -4   0  -6   49.70    6.00
   4   0   6   53.79    4.20
  -5   0  -6  306.77   19.90
   5   0   6  328.57   17.10
  -6   0  -6  381.16   23.80
   6   0   6  367.56   19.90
  -7   0  -6  268.37   19.40
   7   0   6  275.57   16.60
  -8   0  -6   -0.20    2.90
   8   0   6    4.10    2.00
   5  -1  -6  146.89   10.00
  -5   1   6  116.19   11.30
   4  -1  -6  184.88   11.90
  -4   1   6  191.38   14.00
   3  -1  -6  131.89    8.60
  -3   1   6  122.39   10.00
  -2   1   6  227.48   14.10
  -2   1   6  205.78   13.20
  -1   1   6  187.78   11.00
  -1   1   6  169.38   11.40
   0   1   6   83.59    5.70
   0   1   6   81.09    6.30
  -1  -1  -6 1412.56   70.59
   1   1   6 1479.25   70.49
   1   1   6 1493.45   70.19
  -2  -1  -6  596.14   29.70
   2   1   6  531.65   29.20
   2   1   6  603.24   28.80
  -3  -1  -6  533.25   28.80
   3   1   6  557.04   27.40
  -4  -1  -6  249.68   15.20
   4   1   6  224.98   13.00
  -5  -1  -6  549.45   29.90
   5   1   6  505.45   26.80
  -6  -1  -6  155.88   12.70
   6   1   6  165.18   10.00
  -7  -1  -6   56.59    7.90
   7   1   6   55.29    6.30
  -8  -1  -6   35.40    6.90
   8   1   6   43.60    4.60
   5  -2  -6  259.37   14.60
  -5   2   6  195.28   16.60
   4  -2  -6   33.10    4.40
  -4   2   6   37.50    5.90
   3  -2  -6  234.48   13.50
  -2   2   6  378.26   22.00
  -1   2   6  125.69    8.40
  -1   2   6  130.29    9.50
   0   2   6   38.80    3.50
   0   2   6   37.80    4.40
   1   2   6  148.79    8.70
  -2  -2  -6  541.95   27.80
   2   2   6  610.44   28.00
   2   2   6  574.64   28.00
   2   2   6  511.15   28.30
   3   2   6  547.85   27.50
  -4  -2  -6  171.48   11.60
   4   2   6  161.38    9.70
  -5  -2  -6   26.90    4.70
   5   2   6   19.20    2.80
  -6  -2  -6  207.38   14.90
   6   2   6  201.18   12.10
  -7  -2  -6  594.94   34.50
  -8  -2  -6  212.88   17.00
   8   2   6  234.38   14.10
   4  -3  -6   57.19    5.40
  -4   3   6   55.59    7.70
   3  -3  -6  131.19    8.50
  -3   3   6  128.99   11.10
  -2   3   6   36.40    5.50
  -1   3   6   82.99    6.10
  -1   3   6   76.19    7.40
   0   3   6  111.39    8.80
   0   3   6  130.69    7.70
   1   3   6  228.78   14.40
   1   3   6  276.17   13.70
   2   3   6    5.60    2.20
   2   3   6    3.10    1.50
   2   3   6    7.80    1.60
  -3  -3  -6  347.77   17.40
   3   3   6  352.16   17.80
   3   3   6  321.67   17.60
   4   3   6  223.78   12.50
   5   3   6   19.80    2.70
   6   3   6  216.28   12.70
   7   3   6  186.48   15.20
   8   3   6   42.20    4.80
   9   3   6   17.60    3.90
   4  -4  -6   98.09    7.30
  -4   4   6   91.19   10.00
   3  -4  -6   37.00    4.20
  -3   4   6   37.10    7.10
   2  -4  -6  444.96   22.70
  -2   4   6  433.86   27.80
  -1   4   6   49.40    6.40
  -1   4   6   45.20    4.50
   0   4   6   11.20    3.50
   0   4   6    7.00    1.90
   1   4   6   16.00    2.40
   1   4   6   25.60    4.40
   2   4   6  221.08   13.50
   2   4   6  244.38   12.70
   3   4   6  268.37   15.30
   3   4   6  291.87   15.00
   4   4   6   50.39    4.10
   4   4   6   50.39    4.20
   5   4   6  538.85   27.60
   6   4   6  201.28   12.10
   7   4   6  164.48   10.90
   8   4   6  117.59    9.00
   9   4   6   57.09    6.30
   3  -5  -6   46.50    4.60
  -3   5   6   46.90    7.80
   2  -5  -6  200.38   11.30
  -2   5   6  200.78   15.00
  -1   5   6  285.87   16.50
  -1   5   6  321.77   19.60
   0   5   6  293.97   15.80
   0   5   6  289.17   18.20
   1   5   6   24.50    4.70
   1   5   6   33.70    3.10
   2   5   6  243.68   13.30
   2   5   6  254.87   15.00
   3   5   6  207.98   11.70
   3   5   6  216.48   12.80
   4   5   6 1283.37   62.19
   4   5   6 1284.47   62.59
   5   5   6  276.07   15.30
   5   5   6  283.97   15.50
   6   5   6  153.78    9.40
   6   5   6  161.78   10.20
   7   5   6  531.95   28.40
   8   5   6   42.50    5.00
   9   5   6   65.99    6.80
   3  -6  -6   30.00    3.90
  -3   6   6   27.70    6.70
   2  -6  -6   33.50    3.70
  -2   6   6   45.60    7.40
  -1   6   6   96.29    9.60
   0   6   6  837.22   42.90
   0   6   6  913.01   46.50
   1   6   6  191.28   13.10
   1   6   6  181.88   10.40
   2   6   6  960.20   47.70
   2   6   6 1005.30   49.99
   3   6   6    8.20    2.90
   3   6   6    9.80    2.00
   4   6   6    8.40    2.60
   4   6   6   10.30    2.00
   5   6   6   82.29    6.10
   5   6   6   85.79    6.50
   6   6   6  347.27   18.80
   6   6   6  346.47   19.20
   7   6   6   47.50    5.20
   7   6   6   52.49    4.90
   8   6   6  238.98   14.50
   8   6   6  205.88   12.90
   9   6   6   15.40    3.90
   9   6   6   12.20    3.00
  -2   7   6  128.79   12.80
  -1   7   6  127.49   11.90
   0   7   6  166.08   13.30
   1   7   6  428.96   22.20
   1   7   6  443.86   25.70
   2   7   6   60.09    4.60
   2   7   6   69.19    7.10
   3   7   6   87.19    6.10
   3   7   6   92.99    7.90
   4   7   6   84.69    5.90
   4   7   6   79.49    7.10
   5   7   6  545.25   28.50
   5   7   6  529.25   27.60
   6   7   6  122.39    8.70
   6   7   6  122.79    8.60
   7   7   6  266.47   15.90
   7   7   6  281.17   16.40
   8   7   6   39.70    4.70
   8   7   6   37.40    4.80
  -1   8   6  153.58   13.90
   0   8   6   23.70    6.00
   1   8   6  361.76   22.50
   2   8   6  161.98    9.50
   2   8   6  174.78   12.60
   3   8   6  169.98    9.90
   3   8   6  175.88   12.40
   4   8   6    3.00    1.40
   4   8   6    5.90    2.70
   5   8   6   96.09    6.90
   5   8   6   95.69    7.90
   6   8   6  373.16   20.70
   6   8   6  350.16   20.60
   7   8   6   61.49    6.10
   7   8   6   73.99    6.60
   8   8   6    0.80    2.60
   8   8   6    1.60    1.80
   0   9   6    3.30    4.80
   1   9   6   90.09    9.90
   2   9   6   22.40    5.20
   3   9   6  204.58   14.60
   3   9   6  204.88   11.50
   4   9   6  264.37   21.40
   4   9   6  306.67   15.80
   5   9   6   84.39    6.30
   5   9   6   83.69    7.90
   6   9   6   29.00    4.90
   6   9   6   23.60    4.80
   7   9   6   64.29    6.20
   7   9   6   68.39   10.30
   8   9   6   66.59    7.20
   8   9   6   69.09    6.80
   1  10   6  183.58   15.50
   2  10   6   23.00    5.70
   3  10   6   93.79    6.20
   3  10   6   91.09    9.70
   4  10   6   51.69    7.00
   4  10   6   52.19    4.60
   5  10   6  107.99   10.10
   5  10   6  125.89    8.30
   6  10   6   27.60    5.40
   6  10   6   22.90    3.90
   7  10   6  138.19    9.70
   7  10   6  121.49   10.70
   3  11   6   48.10    7.90
   4  11   6   38.30    3.90
   4  11   6   25.20    5.90
   5  11   6  115.09   10.90
   5  11   6  122.59    8.20
   6  11   6  153.48   10.40
   2   9  -7   15.50    3.50
   1   9  -7  126.89   10.10
   1   9  -7  135.19   10.80
   0   9  -7   13.40    2.90
   0   9  -7    8.30    3.80
   3   8  -7   13.00    3.20
   2   8  -7  153.38   10.50
   1   8  -7   28.50    4.40
   1   8  -7   27.50    5.00
   0   8  -7   30.50    5.10
   0   8  -7   45.80    4.80
  -1   8  -7  159.78   11.00
  -1   8  -7  134.19   13.80
  -2   8  -7   23.80    5.50
  -2   8  -7   12.50    6.80
   2  -8   7   30.70    4.70
   4   7  -7   16.90    3.90
   3   7  -7   82.19    7.20
   2   7  -7    4.70    2.50
   1   7  -7   96.19    7.50
   0   7  -7   54.79    5.40
   0  -7   7   53.89    5.90
  -1   7  -7  137.69    9.60
  -1   7  -7  132.09   12.50
   1  -7   7  122.89    8.90
  -2   7  -7   17.80    6.20
  -2   7  -7   17.50    4.30
   2  -7   7   13.80    3.00
  -3   7  -7   81.19   12.10
  -3   7  -7   96.49    8.70
   3  -7   7  117.09    7.70
   4   6  -7   26.20    4.70
   3   6  -7   95.79    7.90
   2   6  -7   59.19    7.90
   0  -6   7  267.27   15.70
  -1   6  -7   81.69    8.90
  -1   6  -7   75.79    6.20
   1  -6   7   72.79    6.20
  -2   6  -7  184.98   11.70
  -2   6  -7  164.98   15.80
   2  -6   7  197.48   11.40
  -3   6  -7   55.39    9.10
  -3   6  -7   44.90    5.80
  -4   6  -7    6.90    6.10
   5   5  -7  124.89   10.40
   4   5  -7   83.09    7.80
   3   5  -7  131.59    9.60
   2   5  -7  237.78   14.50
  -1  -5   7  465.55   25.40
   0  -5   7   69.39    6.00
  -1   5  -7  351.66   22.10
   1  -5   7  383.86   20.10
  -2   5  -7  844.22   40.50
  -2   5  -7  778.12   43.80
   2  -5   7  799.22   40.20
  -3   5  -7   75.49   14.10
   3  -5   7   88.59    6.10
  -4   5  -7    5.00    4.40
   4  -5   7   10.10    2.10
  -5   5  -7  112.89   13.80
   5  -5   7  149.79    8.70
   5   4  -7   71.39    7.60
   4   4  -7    4.10    2.40
   3   4  -7  124.69    9.30
  -1  -4   7   72.79    6.40
   0   4  -7   32.30    4.80
   0  -4   7   28.20    3.70
  -1   4  -7   51.89    6.50
   1  -4   7   55.39    4.80
  -2   4  -7   83.09    5.90
  -2   4  -7   65.39    7.80
   2  -4   7   70.89    5.50
  -3   4  -7  109.89   10.00
   3  -4   7   99.89    6.90
  -4   4  -7  430.16   29.70
   4  -4   7  537.85   25.10
  -5   4  -7  107.49   12.40
   5  -4   7  130.19    8.10
  -6   4  -7   20.80    7.10
   6  -4   7   27.00    3.90
   5   3  -7   11.30    3.30
   4   3  -7  180.78   12.20
   3   3  -7   70.69    6.50
  -1  -3   7  290.07   16.80
   0   3  -7  177.58   11.30
   0  -3   7  176.78   11.00
  -1   3  -7   76.79    6.90
   1  -3   7   80.69    5.90
  -2   3  -7  502.15   27.80
   2  -3   7  509.95   25.80
  -3   3  -7   34.30    6.00
   3  -3   7   50.39    4.10
  -4   3  -7   -0.80    2.70
   4  -3   7    1.40    1.40
  -5   3  -7  190.08   15.40
   5  -3   7  188.28   11.10
  -6   3  -7  188.38   16.30
   6  -3   7  186.78   11.20
   7  -3   7   31.10    4.30
   5   2  -7   11.40    3.60
   4   2  -7   -1.20    1.80
   3   2  -7   26.60    6.80
  -2  -2   7  345.07   20.00
  -1  -2   7   96.59    7.30
   0  -2   7   44.20    4.30
  -1   2  -7  109.59    8.30
   1  -2   7  112.59    7.30
  -2   2  -7  328.87   19.30
   2  -2   7  339.57   17.80
  -3   2  -7   82.29    7.70
   3  -2   7   74.89    5.50
  -4   2  -7  134.99   11.20
   4  -2   7  129.79    8.30
  -5   2  -7   77.19    9.50
   5  -2   7   79.79    5.90
  -6   2  -7   93.89   10.50
   6  -2   7   89.79    6.60
  -7   2  -7  110.59   12.20
   7  -2   7  105.59    7.60
   5   1  -7   74.19    7.60
  -5  -1   7   81.79    8.90
   4   1  -7  177.68   12.50
  -4  -1   7  217.08   14.50
   3   1  -7   34.80    5.70
  -2  -1   7    0.50    2.10
  -2  -1   7   -3.30    1.90
  -1  -1   7   84.29    6.90
  -1  -1   7   80.39    6.50
   0  -1   7  460.85   25.80
   0  -1   7  537.65   26.50
  -1   1  -7  170.78   10.30
   1  -1   7  167.68    9.90
  -2   1  -7  427.56   23.80
   2  -1   7  452.75   22.80
  -3   1  -7  292.47   17.60
   3  -1   7  283.57   15.50
  -4   1  -7   14.20    4.00
   4  -1   7   21.00    2.80
  -5   1  -7  527.45   31.40
   5  -1   7  557.14   27.80
  -6   1  -7  268.27   19.40
   6  -1   7  277.77   15.30
  -7   1  -7  120.29   12.20
   7  -1   7  119.19    8.30
   5   0  -7  122.69   10.10
  -5   0   7  132.79   11.60
   4   0  -7    2.40    2.20
  -4   0   7    2.50    2.70
   3   0  -7   85.89    6.90
  -3   0   7   74.39    7.60
  -2   0   7  361.56   21.00
  -2   0   7  380.56   21.60
  -1   0   7   88.79    7.20
  -1   0   7   86.29    6.70
   0   0   7    0.40    1.80
   0   0   7   -0.20    1.20
   1   0   7  672.93   32.70
   1   0   7  632.54   33.80
  -2   0  -7   26.30    4.30
   2   0   7   28.30    3.00
  -3   0  -7  374.26   21.70
   3   0   7  394.76   20.10
  -4   0  -7  810.02   42.90
   4   0   7  825.82   40.60
  -5   0  -7  127.79   11.00
   5   0   7  139.79    8.50
   6   0   7   75.59    5.90
  -7   0  -7   34.10    7.00
   7   0   7   35.60    4.10
  -8   0  -7  150.28   14.20
   8   0   7  160.48   10.30
   4  -1  -7   91.99    7.70
  -4   1   7   92.59    9.10
   3  -1  -7  127.89    9.10
  -3   1   7  130.69   10.70
  -2   1   7  121.59    9.40
  -2   1   7   96.99    8.30
  -1   1   7   98.79    8.00
  -1   1   7   88.59    7.00
   0   1   7  481.85   25.00
   0   1   7  477.35   25.60
   1   1   7  673.03   32.60
   1   1   7  628.04   32.90
  -2  -1  -7   -2.40    1.60
  -2  -1  -7   -0.20    1.40
   2   1   7    0.90    1.80
   2   1   7    1.50    1.30
   2   1   7    0.60    0.90
  -3  -1  -7  509.45   27.10
   3   1   7  492.05   25.50
  -4  -1  -7   67.69    6.90
   4   1   7   74.59    5.40
  -5  -1  -7  135.99   10.60
   5   1   7  113.79    7.90
  -6  -1  -7  582.44   33.60
   6   1   7  589.34   30.10
  -7  -1  -7  228.88   17.20
   7   1   7  223.78   13.40
  -8  -1  -7    4.40    3.70
   8   1   7    5.20    2.30
   4  -2  -7   20.60    3.70
  -4   2   7   18.10    5.50
   3  -2  -7  161.78   10.50
  -3   2   7  160.68   12.50
  -2   2   7   92.89    8.50
  -1   2   7  324.17   18.10
  -1   2   7  324.87   19.20
   0   2   7   43.00    4.30
   0   2   7   52.59    5.50
   1   2   7  170.68   10.80
   1   2   7  173.38   10.10
   2   2   7   21.10    3.30
   2   2   7   26.30    2.80
   2   2   7   23.90    3.10
   3   2   7  515.25   26.20
  -4  -2  -7   -1.40    1.40
   4   2   7   -0.50    0.90
  -5  -2  -7  281.47   17.80
   5   2   7  271.57   15.30
  -6  -2  -7   40.60    6.30
   6   2   7   39.40    4.10
  -7  -2  -7   85.89    9.60
   7   2   7   90.39    6.90
  -8  -2  -7   33.90    6.80
   8   2   7   32.50    4.40
   4  -3  -7   28.40    4.70
  -4   3   7   22.50    6.00
   3  -3  -7  114.59    7.90
  -3   3   7   97.69    9.70
  -2   3   7  251.67   18.40
  -1   3   7   65.19    6.00
  -1   3   7   84.49    7.80
   0   3   7  180.58   11.10
   0   3   7  192.98   12.50
   1   3   7  106.79    8.30
   1   3   7  117.49    7.30
   2   3   7  470.25   23.40
   2   3   7  440.36   23.80
   3   3   7  407.56   20.50
   3   3   7  377.86   20.30
   4   3   7   75.09    5.50
   5   3   7  284.77   15.80
   6   3   7    0.70    1.20
   7   3   7  322.87   18.30
   8   3   7  210.58   13.30
   3  -4  -7   88.39    7.00
  -3   4   7   89.79    9.50
  -2   4   7   79.19    8.80
  -1   4   7  511.25   28.20
  -1   4   7  469.25   25.70
   0   4   7   39.80    4.20
   1   4   7   74.89    5.40
   1   4   7   64.19    6.50
   2   4   7  342.97   17.90
   2   4   7  335.07   19.00
   3   4   7  267.27   15.30
   3   4   7  283.47   15.00
   4   4   7  764.32   37.60
   4   4   7  747.13   37.40
   5   4   7  110.09    7.50
   6   4   7   42.10    4.40
   7   4   7  312.07   17.80
   8   4   7    0.80    1.40
   9   4   7  143.89   10.60
   3  -5  -7   20.90    3.40
  -3   5   7   20.90    5.90
   2  -5  -7   18.00    2.90
  -2   5   7   12.10    5.10
  -1   5   7  217.08   13.70
  -1   5   7  255.77   16.80
   0   5   7  118.99    7.60
   0   5   7   87.99    9.10
   1   5   7   51.19    6.30
   1   5   7   48.50    4.40
   2   5   7  478.05   24.30
   2   5   7  472.85   25.90
   3   5   7   78.59    5.60
   3   5   7   79.49    6.60
   4   5   7   15.50    2.40
   4   5   7   12.50    2.90
   5   5   7  121.39    8.30
   5   5   7  128.99    8.30
   6   5   7  553.04   28.80
   7   5   7   85.99    6.90
   8   5   7  200.08   13.00
   9   5   7  127.69    9.90
   2  -6  -7  144.89    9.00
  -2   6   7  146.09   13.30
  -1   6   7  106.89   10.80
   0   6   7  288.57   15.20
   0   6   7  228.68   22.90
   1   6   7  317.37   19.30
   1   6   7  291.67   16.40
   2   6   7   63.99    5.20
   2   6   7   82.09    7.40
   3   6   7   37.20    3.60
   3   6   7   36.70    5.10
   4   6   7  121.29    7.80
   4   6   7  123.49    8.80
   5   6   7  492.35   26.00
   5   6   7  512.75   26.50
   6   6   7   62.99    5.40
   6   6   7   55.29    5.30
   7   6   7  208.98   12.50
   7   6   7  216.18   13.20
   8   6   7   30.30    4.40
  -1   7   7   62.19    8.90
   0   7   7   58.09    8.00
   0   7   7   51.49    5.00
   1   7   7   92.69    6.40
   2   7   7  740.33   37.90
   2   7   7  661.03   34.70
   3   7   7   90.19    8.00
   3   7   7   85.69    6.10
   4   7   7   -1.80    2.20
   4   7   7   -1.50    1.20
   5   7   7   67.59    5.70
   5   7   7   87.69    7.10
   6   7   7  252.87   15.00
   7   7   7   32.90    4.50
   7   7   7   36.70    4.50
   8   7   7    7.50    2.50
   8   7   7   -1.10    1.60
  -1   8   7  142.89   13.70
   0   8   7   16.20    5.30
   1   8   7  129.89   11.90
   2   8   7  156.78   12.30
   2   8   7  151.38    9.30
   3   8   7   87.29    8.20
   3   8   7   76.59    5.80
   4   8   7  461.65   25.40
   4   8   7  429.56   23.10
   5   8   7  171.68   10.50
   5   8   7  167.38   11.80
   6   8   7   71.59    6.00
   6   8   7   72.19    6.80
   7   8   7  118.69    8.80
   7   8   7  122.49    9.20
   8   8   7  157.08   10.90
   8   8   7  150.68   10.80
   0   9   7    6.50    5.90
   1   9   7  183.28   15.00
   2   9   7    5.60    4.40
   3   9   7   71.89    5.40
   3   9   7   71.49    8.10
   4   9   7    9.00    4.20
   4   9   7   14.70    2.70
   5   9   7  130.29    8.50
   5   9   7  120.09   12.40
   6   9   7  152.28   11.70
   6   9   7  162.18   10.30
   7   9   7  116.19    8.50
   7   9   7  100.99    9.70
   2  10   7    6.00    5.30
   3  10   7  108.69   10.30
   3  10   7   92.39    6.70
   4  10   7    7.10    2.20
   4  10   7   11.60    4.60
   5  10   7  136.09    9.10
   5  10   7  141.09   11.50
   6  10   7   26.80    4.20
   6  10   7   32.00    5.70
   7  10   7   36.50    4.90
   2   8  -8    4.70    3.10
   1   8  -8  106.39    8.60
   0   8  -8   12.80    5.70
   0   8  -8   22.00    4.50
  -1   8  -8  124.49   10.70
  -1   8  -8  121.39   13.50
   3   7  -8   58.69    6.70
   2   7  -8   58.29    6.50
   1   7  -8  129.39    9.40
   0   7  -8   46.60    8.30
   0   7  -8   51.29    5.50
   0  -7   8   47.00    9.10
  -1   7  -8   36.30    7.60
  -1   7  -8   30.60    4.60
   1  -7   8   20.50    4.00
  -2   7  -8  131.89   13.60
  -2   7  -8  147.89   10.10
   2  -7   8  133.09    9.50
  -3   7  -8   33.50    8.10
  -3   7  -8   27.40    5.40
   3  -7   8   42.20    5.20
   3   6  -8   82.79    7.50
   2   6  -8    5.70    2.90
   0   6  -8   61.29    7.70
   0  -6   8   45.00    5.60
  -1   6  -8   99.39   10.20
  -1   6  -8   94.49    7.10
   1  -6   8   91.39    7.40
  -2   6  -8   52.19    5.50
  -2   6  -8   47.40    8.30
   2  -6   8   47.30    5.10
  -3   6  -8   39.80    8.20
   3  -6   8   54.59    5.30
   4  -6   8   69.29    5.90
   4   5  -8   42.60    6.10
   3   5  -8  101.29    8.50
   2   5  -8    2.80    2.60
  -1  -5   8  274.57   22.20
   0   5  -8   63.89    6.90
   0  -5   8   43.10    5.20
  -1   5  -8  247.08   16.60
   1  -5   8  245.48   14.60
  -2   5  -8  189.78   14.70
  -2   5  -8  195.28   11.70
   2  -5   8  203.08   12.10
  -3   5  -8   22.00    5.70
   3  -5   8   29.90    3.80
  -4   5  -8   42.80    8.60
   4  -5   8   57.99    5.00
  -5   5  -8  240.78   20.00
   5  -5   8  254.27   14.30
   4   4  -8  140.39   10.70
   3   4  -8   78.09    7.20
   1   4  -8  216.98   12.70
  -1  -4   8  188.88   13.50
   0   4  -8  164.98   11.00
   0  -4   8  144.79   10.30
  -1   4  -8  492.55   27.10
   1  -4   8  474.25   25.60
  -2   4  -8  371.96   22.20
  -2   4  -8  388.16   19.30
   2  -4   8  345.57   19.70
  -3   4  -8   65.09    8.20
   3  -4   8   68.09    5.50
  -4   4  -8    2.40    3.60
   4  -4   8    7.70    2.20
  -5   4  -8  192.48   16.70
   5  -4   8  200.98   11.80
   6  -4   8  204.28   15.70
   4   3  -8   18.10    3.90
   3   3  -8   28.60    4.90
  -1  -3   8   88.39    7.40
   0   3  -8    2.30    2.40
   0  -3   8    5.20    2.30
  -1   3  -8   79.79    7.00
   1  -3   8   78.29    6.20
  -2   3  -8   22.80    5.10
   2  -3   8   27.40    3.40
  -3   3  -8  112.59   10.10
   3  -3   8  122.09    7.90
  -4   3  -8  666.23   37.50
   4  -3   8  648.34   33.20
  -5   3  -8   20.10    5.90
   5  -3   8   26.70    3.70
  -6   3  -8   28.10    7.80
   4   2  -8  140.39   10.60
   3   2  -8   56.99    6.20
  -2  -2   8    0.20    2.00
  -1  -2   8  102.29    8.00
   0  -2   8   75.39    6.30
  -1   2  -8  306.87   17.00
   1  -2   8  280.77   16.30
  -2   2  -8  342.57   19.90
   2  -2   8  342.57   18.50
  -3   2  -8   98.79    9.00
   3  -2   8  107.69    7.30
  -4   2  -8   19.00    4.90
   4  -2   8   16.10    2.90
  -5   2  -8  128.89   12.20
   5  -2   8  139.79    8.90
  -6   2  -8  108.29   11.70
  -7   2  -8   49.20    9.40
   7  -2   8   54.79    5.40
   4   1  -8   33.00    5.30
  -4  -1   8   44.40    6.40
   3   1  -8   63.89    6.50
  -3  -1   8   74.59    7.60
  -1  -1   8   15.00    3.30
  -1  -1   8   22.70    4.20
   0  -1   8   19.90    3.60
   1  -1   8  100.39    7.10
  -2   1  -8  218.08   13.50
   2  -1   8  214.58   12.50
  -3   1  -8   73.79    7.60
   3  -1   8   91.99    6.20
  -4   1  -8  119.39    9.80
   4  -1   8   93.39    7.00
  -5   1  -8   80.79    8.90
   5  -1   8   91.79    6.60
  -6   1  -8  143.49   12.80
   6  -1   8  128.99   11.20
  -7   1  -8    0.60    3.70
   7  -1   8    5.80    2.20
  -4   0   8  166.78   13.20
   3   0  -8   31.30    4.90
  -3   0   8   42.90    6.10
  -2   0   8    2.20    2.50
  -2   0   8    0.10    3.90
  -1   0   8   18.50    3.30
  -1   0   8   22.10    4.10
   0   0   8  273.97   16.10
   0   0   8  271.97   15.70
   1   0   8   95.09    6.80
   1   0   8   86.99    6.50
  -2   0  -8   59.29    5.90
   2   0   8   54.19    4.70
  -3   0  -8  112.59    8.80
   3   0   8  104.19    7.20
  -4   0  -8   71.79    7.60
   4   0   8   79.19    5.90
  -5   0  -8  346.07   21.50
   5   0   8  337.77   18.60
  -6   0  -8  475.95   28.70
   6   0   8  469.55   26.40
  -7   0  -8   87.59   10.10
   7   0   8   80.89    6.50
   8   0   8    1.00    1.70
   4  -1  -8   49.30    6.00
  -4   1   8   56.09    7.70
   3  -1  -8   83.09    7.30
  -3   1   8   79.99    8.30
  -2   1   8  193.08   13.40
  -2   1   8  177.58   15.50
  -1   1   8  135.29   10.10
  -1   1   8  116.39    8.80
   0   1   8   13.00    3.30
   0   1   8   13.30    2.90
   1   1   8   89.39    6.90
   1   1   8   84.39    6.30
  -2  -1  -8   58.29    5.20
   2   1   8   51.59    4.70
   2   1   8   59.99    4.90
  -3  -1  -8  382.76   21.30
   3   1   8  365.36   19.90
  -4  -1  -8  341.87   20.10
   4   1   8  323.07   17.90
  -5  -1  -8  101.49    9.30
   5   1   8  109.79    7.40
   6   1   8  104.09    8.60
  -7  -1  -8   59.69    8.40
   7   1   8   67.99    5.80
  -8  -1  -8  210.38   17.10
   8   1   8  192.88   12.60
   3  -2  -8  112.19    8.50
  -3   2   8  104.59   10.10
  -2   2   8  114.69   10.10
  -1   2   8   90.69    7.70
  -1   2   8  117.79    9.10
   0   2   8   96.99    7.80
   0   2   8   94.29    7.20
   1   2   8  112.99    7.60
   1   2   8  112.29    8.30
   2   2   8   62.59    5.40
   2   2   8   61.99    5.00
   3   2   8  370.96   19.80
  -4  -2  -8  116.79    9.30
   4   2   8  115.69    7.70
  -5  -2  -8  396.56   23.30
   5   2   8  377.26   20.60
  -6  -2  -8  120.89   11.00
   6   2   8  132.69    9.90
  -7  -2  -8  154.18   13.40
   7   2   8  157.08   10.30
  -8  -2  -8    0.90    3.10
   8   2   8    3.70    1.90
   3  -3  -8  109.69    8.20
  -3   3   8   97.99   10.30
  -2   3   8    5.80    3.90
  -1   3   8  228.58   14.20
  -1   3   8  239.38   15.90
   0   3   8    3.90    1.90
   0   3   8    3.30    2.80
   1   3   8  309.67   17.20
   1   3   8  318.27   18.20
   2   3   8  232.88   13.20
   2   3   8  231.98   13.70
   3   3   8   96.29    7.80
   3   3   8  104.09    7.00
   4   3   8  345.17   18.60
   5   3   8  363.56   19.60
   7   3   8  182.58   11.60
   8   3   8    7.70    2.50
   3  -4  -8   76.99    6.70
  -3   4   8   67.99    9.10
  -2   4   8   10.40    5.00
  -1   4   8  509.35   29.30
  -1   4   8  503.85   27.20
   0   4   8  165.58   10.70
   0   4   8  164.08   12.10
   1   4   8   80.39    6.20
   1   4   8   84.09    7.70
   2   4   8  382.66   21.20
   2   4   8  374.86   20.10
   3   4   8   93.29    7.10
   3   4   8   94.29    6.50
   4   4   8   65.39    6.20
   4   4   8   76.89    5.70
   5   4   8  101.49    7.20
   6   4   8  103.59    9.30
   7   4   8  181.78   11.50
   8   4   8  216.68   13.70
   2  -5  -8   91.99    7.20
  -2   5   8   90.39    9.90
  -1   5   8  119.59   10.90
  -1   5   8  107.99    8.50
   0   5   8   72.69    6.10
   0   5   8   55.59   10.60
   1   5   8  501.15   28.40
   1   5   8  510.95   26.30
   2   5   8   36.70    5.30
   2   5   8   30.50    3.70
   3   5   8   98.19    7.00
   3   5   8  114.69    8.40
   4   5   8   97.99    7.40
   4   5   8  103.49    7.00
   5   5   8  312.97   17.00
   5   5   8  313.87   17.30
   6   5   8  119.49    8.50
   7   5   8  151.68   10.20
   8   5   8    5.40    2.40
  -1   6   8  156.78   13.30
   0   6   8   53.79    5.80
   0   6   8   65.09    8.40
   1   6   8  263.27   16.80
   1   6   8  220.88   13.50
   2   6   8  386.46   20.60
   2   6   8  386.06   22.70
   3   6   8  115.09    8.80
   3   6   8   96.29    7.00
   4   6   8   16.70    3.90
   4   6   8   15.80    2.70
   5   6   8   84.39    6.80
   5   6   8   74.59    6.00
   6   6   8  456.55   24.60
   6   6   8  466.05   24.40
   7   6   8   63.39    5.70
   8   6   8    6.80    2.70
  -1   7   8   94.29   11.10
   0   7   8   62.69    8.80
   0   7   8   61.69    5.70
   1   7   8   99.79   10.30
   1   7   8  100.79    7.40
   2   7   8  186.18   13.70
   2   7   8  180.58   11.00
   3   7   8   61.79    7.00
   3   7   8   50.49    4.80
   4   7   8  623.64   31.70
   4   7   8  623.44   33.30
   5   7   8  117.79    8.20
   5   7   8  131.09    9.40
   6   7   8  154.88    9.90
   6   7   8  141.79   10.20
   7   7   8   79.29    6.70
   7   7   8   74.09    6.40
   8   7   8  179.08   12.00
   8   7   8  172.18   11.20
   0   8   8   19.10    6.30
   1   8   8   62.69    5.60
   1   8   8   52.89    8.20
   2   8   8   38.20    4.30
   2   8   8   55.69    7.80
   3   8   8   30.40    7.00
   3   8   8   29.20    3.60
   4   8   8    4.30    1.70
   4   8   8   -0.50    3.10
   5   8   8   29.00    5.10
   5   8   8   30.80    4.30
   6   8   8  111.49    8.90
   6   8   8  105.29    7.90
   7   8   8    6.90    3.00
   7   8   8    1.30    2.00
   8   8   8    0.70    2.20
   1   9   8  136.79   13.40
   2   9   8  120.89    8.20
   2   9   8  124.79   11.80
   3   9   8   70.99    7.90
   3   9   8   49.80    4.90
   4   9   8   34.10    4.20
   4   9   8   37.20    6.30
   5   9   8  169.58   13.30
   5   9   8  195.98   13.90
   6   9   8   39.80    4.60
   6   9   8   32.30    7.50
   7   9   8   39.00    6.50
   7   9   8   49.40    5.40
   3  10   8   40.70    4.60
   3  10   8   39.10    7.40
   4  10   8   46.50    4.80
   4  10   8   46.40    7.30
   5  10   8  232.18   14.00
   5  10   8  241.28   16.70
   6  10   8  163.58   12.60
   6  10   8  152.58   10.40
   1   7  -9   82.39    8.10
   1   7  -9  112.59   14.60
   0   7  -9   14.50    5.80
   0  -7   9    7.60    3.50
  -1   7  -9   94.19   11.10
  -1   7  -9   88.49    7.60
   1  -7   9   87.59    8.00
   2  -7   9   11.50    3.40
   2   6  -9    0.70    2.70
   1   6  -9  180.78   13.20
   0   6  -9    3.90    4.00
   0  -6   9    3.30    2.50
  -1   6  -9  132.69   13.00
  -1   6  -9  143.29    9.20
   1  -6   9  109.99    9.20
  -2   6  -9  126.09    9.20
  -2   6  -9  116.59   12.20
   2  -6   9  160.18   11.70
  -3   6  -9   26.20    6.70
   3   5  -9   26.90    5.00
   2   5  -9    8.90    3.40
   1   5  -9   85.99    7.80
  -1  -5   9   65.09    7.30
   0   5  -9    8.10    3.50
   0  -5   9    1.10    2.00
  -1   5  -9  105.99    9.60
   1  -5   9   87.19    8.70
  -2   5  -9   15.00    7.80
  -2   5  -9    5.90    2.60
   2  -5   9    6.00    3.40
   3  -5   9   37.60    4.90
  -4   5  -9   45.60    8.70
   3   4  -9   39.90    5.70
  -1  -4   9  213.38   14.20
   0   4  -9   26.70    4.90
   0  -4   9   22.00    4.00
  -1   4  -9  471.45   24.70
   1  -4   9  387.16   25.50
  -2   4  -9   73.39    7.60
   2  -4   9   55.59    5.70
   3  -4   9   33.40    4.20
  -4   4  -9   94.19   10.50
   4  -4   9   79.69    7.50
  -5   4  -9  187.88   16.30
   5  -4   9  191.28   12.00
   3   3  -9  111.99    9.30
  -1  -3   9  207.48   13.60
   0  -3   9   12.20    3.40
  -1   3  -9  208.38   13.30
   1  -3   9  201.48   12.90
  -2   3  -9  206.28   14.20
   2  -3   9  216.48   12.80
  -3   3  -9  134.89   11.10
   3  -3   9  127.89    8.70
  -4   3  -9   24.70    6.00
   4  -3   9   31.60    4.00
  -5   3  -9  156.08   14.20
   5  -3   9  175.08   11.20
  -6   3  -9  145.79   14.40
   6  -3   9  139.89    9.70
   3   2  -9    1.80    2.40
  -1  -2   9    8.80    3.00
   0  -2   9    5.30    3.40
  -1   2  -9  108.59    8.30
   1  -2   9  105.39    7.90
  -2   2  -9   87.49    7.70
   2  -2   9   78.59    6.40
  -3   2  -9  206.18   14.30
   3  -2   9  211.88   12.60
  -4   2  -9  389.36   23.50
   4  -2   9  369.46   20.40
  -5   2  -9   66.19    8.70
  -6   2  -9   10.20    4.50
   6  -2   9   18.50    3.30
   3   1  -9    3.40    2.60
  -3  -1   9    2.30    3.60
  -2  -1   9    2.80    2.40
  -2  -1   9   -1.00    2.80
  -1  -1   9    6.10    2.40
   0  -1   9  427.86   24.00
   1  -1   9  109.19    7.90
  -2   1  -9  110.49    8.70
   2  -1   9  104.29    7.60
  -3   1  -9  127.59   10.10
   3  -1   9  126.69    8.60
  -4   1  -9   69.09    7.60
   4  -1   9   70.59    5.80
  -6   1  -9  215.48   17.30
   6  -1   9  245.58   13.90
  -7   1  -9   34.40    7.80
   7  -1   9   30.40    4.30
   3   0  -9  107.59    9.10
  -3   0   9  119.19   10.30
  -2   0   9  291.77   19.10
  -2   0   9  339.67   20.00
  -1   0   9    7.00    3.30
  -1   0   9    6.80    2.50
   0   0   9   -1.40    2.10
   0   0   9   -0.50    1.40
   1   0   9   23.10    3.60
   1   0   9   23.20    3.30
  -2   0  -9  433.16   22.90
   2   0   9  396.86   22.10
  -3   0  -9   19.50    4.30
   3   0   9   23.00    3.20
  -4   0  -9    1.30    2.50
   4   0   9    6.70    2.20
  -5   0  -9   43.00    6.50
   5   0   9   36.30    5.80
  -6   0  -9   65.89    8.40
   6   0   9   60.29    5.50
  -7   0  -9   77.29   10.00
   7   0   9   98.59    7.40
   3  -1  -9   55.69    6.40
  -3   1   9   68.99    7.80
  -2   1   9   12.50    3.70
  -2   1   9   13.40    4.20
  -1   1   9   15.00    4.00
  -1   1   9    8.00    3.30
   0   1   9  456.65   25.30
   0   1   9  479.55   25.90
   1   1   9   17.40    3.20
   1   1   9   23.30    3.90
   2   1   9    2.10    1.50
   2   1   9    2.30    2.00
  -3  -1  -9   72.79    6.80
   3   1   9   65.89    5.50
  -4  -1  -9  276.47   17.10
   4   1   9  249.48   14.90
  -5  -1  -9  392.76   24.10
   5   1   9  408.56   23.00
  -6  -1  -9  195.98   15.00
   6   1   9  191.88   12.00
  -7  -1  -9   60.99    8.50
   7   1   9   57.69    5.50
   8   1   9    2.30    1.90
   3  -2  -9   37.70    5.30
  -3   2   9   35.20    6.70
  -2   2   9   47.50    7.00
  -1   2   9  122.39   11.40
   0   2   9    2.10    2.00
   0   2   9    4.50    3.00
   1   2   9  128.29    9.20
   1   2   9  119.89    8.50
   2   2   9  400.56   22.00
   2   2   9  420.76   22.20
   3   2   9   58.09    5.10
   4   2   9    1.60    1.40
  -5  -2  -9  222.48   15.70
   5   2   9  243.08   15.20
   6   2   9  179.48   11.30
  -7  -2  -9  152.28   13.00
   7   2   9  129.39    9.40
  -8  -2  -9   63.39    9.00
   8   2   9   73.39    6.50
  -2   3   9   18.80    5.30
  -1   3   9  288.77   18.60
   0   3   9   22.90    3.60
   0   3   9   18.50    4.70
   1   3   9  127.59    9.50
   1   3   9  108.39    8.10
   2   3   9  114.19    8.00
   2   3   9  115.59    8.60
   3   3   9   24.50    4.00
   3   3   9   25.60    3.40
   4   3   9  256.97   14.80
   5   3   9  260.67   17.40
   6   3   9   -1.60    1.20
   7   3   9   95.29    7.30
   8   3   9   14.50    3.40
  -2   4   9   13.30    4.80
  -1   4   9  128.99   12.00
  -1   4   9  106.19   10.60
   0   4   9   28.60    7.70
   0   4   9   26.30    4.40
   1   4   9  227.18   13.50
   1   4   9  222.88   14.90
   2   4   9   80.99    6.50
   2   4   9   90.99    7.60
   3   4   9  126.39    8.50
   3   4   9  125.59    8.90
   4   4   9    4.70    2.50
   4   4   9    2.30    1.50
   6   4   9  180.98   11.40
   7   4   9   88.79    7.10
   8   4   9    1.30    1.80
  -1   5   9  203.68   15.70
   0   5   9   11.20    4.70
   0   5   9    9.50    3.00
   1   5   9  456.95   25.30
   1   5   9  501.45   27.70
   2   5   9  238.38   13.90
   2   5   9  234.08   15.30
   3   5   9  216.08   12.80
   3   5   9  217.98   13.80
   4   5   9   79.19    6.30
   4   5   9   82.99    6.90
   5   5   9   29.40    4.50
   5   5   9   30.10    4.10
   6   5   9  196.78   12.20
   7   5   9  137.09    9.70
   8   5   9   11.90    2.90
  -1   6   9  126.89   12.30
   0   6   9   11.00    5.40
   0   6   9   10.60    3.00
   1   6   9  112.89    8.40
   1   6   9  122.69   11.00
   2   6   9   74.69    6.10
   2   6   9   66.69    7.90
   3   6   9  117.29    9.60
   3   6   9  123.69    8.20
   4   6   9  389.36   21.60
   4   6   9  371.56   20.60
   5   6   9   89.99    6.90
   5   6   9   90.29    7.40
   6   6   9   56.69    5.40
   7   6   9   60.19    5.70
   8   6   9   66.69    6.40
   0   7   9   20.40    6.20
   0   7   9   16.00    3.60
   1   7   9  132.49    9.30
   1   7   9  131.59   11.90
   2   7   9   10.30    2.20
   2   7   9    6.50    4.80
   3   7   9   38.10    4.20
   3   7   9   36.30    6.20
   4   7   9   31.90    5.60
   4   7   9   25.20    3.90
   5   7   9   69.59    6.90
   5   7   9   65.79    5.80
   6   7   9  217.08   13.80
   6   7   9  230.98   13.60
   7   7   9   81.79    6.90
   7   7   9   81.39    7.00
   1   8   9   85.99    7.20
   1   8   9   94.89   10.60
   2   8   9  141.69    9.80
   2   8   9  156.18   12.80
   3   8   9   46.70    5.00
   3   8   9   36.70    7.10
   4   8   9   94.99   12.30
   5   8   9  135.49   10.80
   5   8   9  139.29    9.30
   6   8   9   14.50    2.90
   6   8   9    8.40    3.40
   7   8   9   20.60    4.40
   7   8   9   27.40    4.00
   3   9   9   38.80    7.10
   3   9   9   25.40    4.20
   4   9   9   26.20    5.10
   5   9   9  213.58   14.40
   5   9   9  172.38   11.70
   6   9   9  120.29   11.40
   6   9   9  133.19    9.30
   0  -6  10    6.30    3.10
  -1   6 -10   98.49    7.50
  -1   6 -10  101.49   10.50
   1  -6  10   70.89    7.60
   2  -6  10    1.00    2.60
  -1  -5  10  123.59   10.40
   0   5 -10    1.20    3.10
   0  -5  10    2.50    2.50
  -1   5 -10  171.08   12.30
   1  -5  10  135.99   10.80
  -2   5 -10   62.29    5.70
  -2   5 -10   66.09    8.60
   2  -5  10   65.29    6.50
  -3   5 -10   20.60    5.90
   3  -5  10   13.70    3.50
  -1  -4  10   32.50    5.90
   0  -4  10   -2.10    1.50
  -1   4 -10   87.79    8.20
   1  -4  10   62.39    6.80
  -2   4 -10   11.80    4.10
   2  -4  10    8.90    3.10
  -3   4 -10   78.99    9.20
   3  -4  10   73.19    6.70
  -4   4 -10   80.09   10.10
   4  -4  10   98.49    7.40
  -1  -3  10  115.69    9.70
   0  -3  10    5.40    2.30
  -1   3 -10  258.77   15.60
   1  -3  10  240.28   15.40
  -2   3 -10    5.90    3.30
   2  -3  10    2.00    1.90
  -3   3 -10   95.99    9.30
   3  -3  10   83.79    7.10
  -4   3 -10   58.99    7.90
   4  -3  10   47.80    5.20
  -5   3 -10  234.28   18.10
   5  -3  10  244.58   14.60
  -1  -2  10  114.29    9.50
   0  -2  10   30.20    4.70
   1  -2  10  214.08   13.60
  -2   2 -10  110.59    8.90
   2  -2  10   96.29    7.80
  -3   2 -10  129.99   10.50
   3  -2  10  121.49    8.80
  -4   2 -10   32.60    7.20
   4  -2  10   39.40    4.60
  -5   2 -10  125.69   12.00
   5  -2  10  133.39    9.20
  -6   2 -10  260.07   19.50
   6  -2  10  258.57   15.40
  -1  -1  10    3.80    2.50
   0  -1  10   80.09    7.20
   1  -1  10    8.40    2.80
  -2   1 -10  211.78   13.30
   2  -1  10  188.28   12.50
  -3   1 -10  137.69   10.40
   3  -1  10  123.29    9.00
  -4   1 -10  191.78   13.50
   4  -1  10  169.58   11.30
  -5   1 -10   56.99    8.00
   5  -1  10   54.59    5.40
  -6   1 -10   46.40    7.70
   6  -1  10   36.60    4.60
  -2   0  10   38.00    6.30
  -1   0  10    3.40    2.40
  -1   0  10    3.50    3.00
   0   0  10  135.89   10.50
   0   0  10  159.58   10.90
   1   0  10    6.30    3.10
   1   0  10    5.70    2.40
   2   0  10    1.00    1.30
  -3   0 -10   73.79    7.70
   3   0  10   82.39    6.90
  -4   0 -10  129.59   10.50
   4   0  10  124.69    8.80
  -5   0 -10   97.39   11.90
   5   0  10  104.79    7.80
  -6   0 -10   57.09    7.90
   6   0  10   47.50    5.20
  -7   0 -10   17.60    5.80
   7   0  10   26.60    4.30
  -2   1  10   93.09    9.30
  -1   1  10  126.59   10.20
   0   1  10   76.79    7.40
   0   1  10   97.99    8.20
   1   1  10    5.60    2.90
   1   1  10    8.40    2.60
   2   1  10  633.04   32.60
  -3  -1 -10   44.80    5.60
   3   1  10   30.20    4.90
  -4  -1 -10  102.19    9.10
   4   1  10   83.29    6.90
  -5  -1 -10  106.89    9.90
   5   1  10  101.89    7.80
  -6  -1 -10   12.00    4.60
   6   1  10   19.40    3.50
  -7  -1 -10  105.19   11.20
   7   1  10   99.99    7.90
  -2   2  10   78.39    8.90
  -1   2  10  119.09    9.90
   0   2  10   38.00    5.10
   0   2  10   41.40    6.00
   1   2  10   14.00    3.40
   1   2  10   17.20    4.10
   2   2  10    0.00    2.60
   2   2  10   -1.70    1.50
   3   2  10   35.90    4.20
   3   2  10   31.70    5.10
   4   2  10  538.25   28.40
   5   2  10  269.47   15.80
  -6  -2 -10   45.60    7.20
   6   2  10   56.49    5.40
  -7  -2 -10   59.49    8.40
   7   2  10   62.49    5.90
  -1   3  10   32.20    5.70
  -1   3  10   41.60    6.80
   0   3  10    7.30    3.70
   0   3  10    2.60    2.20
   1   3  10  253.67   15.50
   1   3  10  236.28   15.10
   2   3  10  196.28   12.60
   3   3  10   79.69    6.20
   3   3  10   53.29    6.60
   4   3  10   84.89    6.80
   5   3  10  271.37   15.80
   6   3  10  562.14   29.70
   7   3  10   69.39    6.30
  -1   4  10  182.28   14.20
  -1   4  10  183.28   13.10
   0   4  10   -4.30    3.40
   0   4  10    2.20    2.60
   1   4  10  283.17   17.90
   1   4  10  276.67   16.90
   2   4  10   59.19    7.10
   3   4  10   87.69    8.70
   3   4  10  128.89    8.80
   4   4  10  128.59    8.90
   4   4  10  128.39    8.70
   5   4  10   93.19    7.30
   6   4  10   48.70    5.10
   7   4  10   69.69    6.30
   0   5  10    3.10    2.90
   0   5  10    2.60    4.20
   1   5  10   87.79    7.90
   1   5  10  102.59    9.40
   2   5  10    3.80    3.60
   2   5  10    1.90    2.20
   3   5  10  117.79    9.30
   3   5  10  148.29   10.30
   4   5  10  170.78   11.40
   4   5  10  176.78   11.20
   5   5  10  104.09    7.80
   6   5  10   24.10    3.70
   7   5  10   56.79    5.70
   0   6  10    7.10    3.20
   0   6  10   -1.10    4.50
   1   6  10  188.48   14.20
   1   6  10  183.08   12.50
   2   6  10    6.40    4.20
   2   6  10    8.10    2.90
   3   6  10  105.09    9.20
   3   6  10   96.49    7.70
   4   6  10   35.50    4.40
   4   6  10   34.70    5.50
   5   6  10   59.69    5.40
   5   6  10   55.69    6.10
   6   6  10   52.29    5.30
   7   6  10  104.09    8.10
   1   7  10  107.89    9.00
   1   7  10  136.59   12.30
   2   7  10   81.69    7.30
   2   7  10   91.89    9.80
   3   7  10   69.29    6.30
   4   7  10   58.19    5.50
   4   7  10   53.19    6.90
   5   7  10  129.69    9.00
   5   7  10  130.19   10.00
   6   7  10   33.90    5.30
   6   7  10   30.70    4.30
   7   7  10   30.30    4.20
   3   8  10   17.70    3.50
   3   8  10   20.60    5.90
   4   8  10   97.89    9.30
   4   8  10   82.09    6.90
   5   8  10  209.48   14.80
   5   8  10  206.48   12.90
   6   8  10  261.57   16.30
   6   8  10  251.07   15.40
   0  -4  11    0.50    2.00
  -1   4 -11  124.69   10.50
   1  -4  11  132.89   10.30
  -2   4 -11    9.10    4.50
   2  -4  11    2.10    2.70
  -3   4 -11   57.59    8.10
   3  -4  11   46.50    5.90
  -1  -3  11   55.19    7.10
   0  -3  11   56.79    6.50
   1  -3  11   32.40    5.00
  -2   3 -11   12.90    4.30
   2  -3  11   12.20    3.40
  -3   3 -11   85.29   14.20
   3  -3  11   78.19    7.10
  -4   3 -11   17.50    5.10
   4  -3  11   24.20    4.30
  -1  -2  11   52.89    6.60
   0  -2  11   39.30    5.60
   1  -2  11  120.49    9.50
  -2   2 -11   42.90    6.10
   2  -2  11   32.20    4.80
  -3   2 -11  105.49    9.40
   3  -2  11   85.99    7.60
  -4   2 -11   24.70    5.70
   4  -2  11   24.50    4.10
  -5   2 -11  215.28   16.00
   5  -2  11  192.98   13.00
  -1  -1  11  109.49    9.60
   1  -1  11  129.79    9.90
   2  -1  11   16.60    3.50
  -3   1 -11   73.99    7.90
   3  -1  11   66.69    6.30
  -4   1 -11   97.29    9.30
   4  -1  11   77.49    7.20
  -5   1 -11  112.79   10.90
   5  -1  11  111.69    8.50
   6  -1  11   76.69    6.90
  -1   0  11  122.79   10.30
   0   0  11    2.00    2.30
   0   0  11   -2.80    3.70
   1   0  11   11.40    3.40
   2   0  11  296.77   17.60
  -3   0 -11   39.20    6.20
   3   0  11   32.90    4.50
  -4   0 -11   11.60    3.90
   4   0  11    6.40    2.40
  -5   0 -11   55.89    7.80
   5   0  11   56.29    5.70
  -6   0 -11  106.59   10.70
   6   0  11   93.59    7.90
  -1   1  11   78.49    8.20
  -1   1  11   77.29    8.10
   0   1  11  133.99   10.40
   0   1  11  115.09    9.90
   1   1  11    5.50    3.30
   1   1  11    2.50    2.30
   2   1  11   -2.20    1.60
   2   1  11   -1.00    2.60
   3   1  11   59.99    5.90
  -4  -1 -11  256.97   15.80
   4   1  11  187.68   13.30
  -5  -1 -11  107.39   11.70
   5   1  11  101.29    8.00
  -6  -1 -11    3.90    3.70
   6   1  11    5.00    2.20
  -1   2  11   80.89    8.70
  -1   2  11   71.59    8.00
   0   2  11   57.29    6.60
   0   2  11   58.49    7.10
   1   2  11  163.28   11.50
   1   2  11  151.18   11.20
   2   2  11  345.87   18.90
   2   2  11  307.07   18.90
   3   2  11   72.69    6.10
   3   2  11   59.29    6.10
   4   2  11   -2.20    1.60
   5   2  11  107.49    8.30
   6   2  11  114.29    8.70
   7   2  11   90.09    7.60
   0   3  11   76.99    7.80
   0   3  11   78.39    8.30
   1   3  11  157.48   11.30
   2   3  11    7.40    2.60
   2   3  11   17.80    4.10
   3   3  11   38.10    5.10
   3   3  11   31.40    4.60
   4   3  11  174.58   11.50
   5   3  11  105.89    8.20
   6   3  11    1.20    1.70
   7   3  11   35.60    4.80
   0   4  11    2.10    2.80
   0   4  11   -0.60    4.10
   1   4  11   47.80    5.90
   1   4  11   47.50    6.50
   2   4  11   33.10    4.80
   2   4  11   32.40    5.50
   3   4  11   84.29    7.20
   3   4  11   72.29    6.70
   4   4  11    6.30    2.30
   5   4  11   99.89    7.80
   6   4  11  107.29    8.30
   7   4  11   38.90    4.80
   1   5  11  171.48   12.40
   1   5  11  176.08   13.70
   2   5  11   17.60    3.80
   2   5  11   15.80    4.80
   3   5  11  108.59    8.50
   3   5  11  113.59    9.30
   4   5  11   89.89    7.70
   4   5  11   86.99    7.20
   5   5  11   60.09    5.90
   6   5  11    2.60    1.90
   7   5  11   90.19    7.70
   2   6  11   17.80    5.30
   2   6  11   15.90    3.50
   3   6  11   89.19    7.50
   4   6  11   18.00    3.60
   4   6  11   28.60    5.30
   5   6  11  123.49    9.30
   5   6  11  114.69    8.70
   6   6  11   93.09    7.70
   3   7  11   58.49    5.90
   3   7  11   52.39    8.00
   4   7  11   32.70   10.00
   4   7  11   24.00    4.30
   5   7  11  212.88   14.00
   5   7  11  199.38   13.10
   6   7  11   83.19    7.30
   1  -2  12   59.69    6.80
   2  -2  12   68.09    7.10
  -3   2 -12   31.30    6.40
   3  -2  12   25.80    4.70
   1  -1  12   62.79    6.90
   2  -1  12   70.89    7.20
   3  -1  12   33.00    5.00
  -4   1 -12   61.49   11.80
   4  -1  12   36.50    5.10
   1   0  12  133.69   10.60
   2   0  12   29.10    4.80
  -3   0 -12  128.09   10.40
   3   0  12   98.59    8.60
  -4   0 -12  218.38   14.70
   4   0  12  149.88   11.90
  -5   0 -12  156.78   12.80
   5   0  12  127.29   10.10
   1   1  12  142.39   11.20
   2   1  12  200.88   13.50
   3   1  12    2.20    2.00
   4   1  12   26.20    4.50
  -5  -1 -12  102.39    9.80
   5   1  12   75.29    7.30
   1   2  12  106.59    9.10
   1   2  12   86.59    8.70
   2   2  12   30.90    4.90
   2   2  12   38.10    5.50
   3   2  12    8.20    3.40
   3   2  12    4.60    2.30
   4   2  12  146.49   10.70
   5   2  12   21.60    3.80
   6   2  12   73.69    7.00
   1   3  12   79.29    8.20
   1   3  12   83.19    8.60
   2   3  12   91.09    8.00
   2   3  12   74.99    7.30
   3   3  12  103.39    8.90
   3   3  12  123.39    9.00
   4   3  12   30.70    4.70
   5   3  12   12.70    3.10
   6   3  12   11.80    3.10
   2   4  12   75.79    7.50
   2   4  12   90.59    8.40
   3   4  12   47.70    5.90
   3   4  12   43.00    5.40
   4   4  12  168.28   11.10
   4   4  12  169.98   11.80
   5   4  12   72.39    6.80
   6   4  12   68.79    6.70
   3   5  12   37.80    5.20
   3   5  12   40.20    6.90
   4   5  12   46.40    5.60
   4   5  12   50.09    6.30
   5   5  12  113.99    8.90
   0   0   0    0.00    0.00

_computing_structure_solution     'SHELXT 2014/5 (Sheldrick, 2014)'
;
_shelx_hkl_checksum              92977
loop_
_space_group_symop_operation_xyz
'x, y, z'
'-x, -y, z'
'-x+1/4, y+1/4, z+1/4'
'x+3/4, -y+3/4, z+1/4'
'x, y+1/2, z+1/2'
'-x, -y+1/2, z+1/2'
'-x+1/4, y+3/4, z+3/4'
'x+3/4, -y+5/4, z+3/4'
'x+1/2, y, z+1/2'
'-x+1/2, -y, z+1/2'
'-x+3/4, y+1/4, z+3/4'
'x+5/4, -y+3/4, z+3/4'
'x+1/2, y+1/2, z'
'-x+1/2, -y+1/2, z'
'-x+3/4, y+3/4, z+1/4'
'x+5/4, -y+5/4, z+1/4'
loop_
_atom_site_label
_atom_site_type_symbol
_atom_site_fract_x
_atom_site_fract_y
_atom_site_fract_z
_atom_site_U_iso_or_equiv
_atom_site_adp_type
_atom_site_occupancy
_atom_site_site_symmetry_order
_atom_site_calc_flag
_atom_site_refinement_flags_posn
_atom_site_refinement_flags_adp
_atom_site_refinement_flags_occupancy
_atom_site_disorder_assembly
_atom_site_disorder_group
Ca1 Ca -0.02612(6) 0.27902(6) 0.0398(2) 0.0144(4) Uani 1 1 d . . . . .
O1 O 0.0683(3) 0.3482(3) 0.0818(6) 0.0259(13) Uani 1 1 d . . . . .
O2 O 0.1942(3) 0.4633(3) 0.0918(6) 0.0196(12) Uani 1 1 d . . . . .
O3 O 0.2113(3) 0.4430(3) 0.4860(6) 0.0206(12) Uani 1 1 d . . . . .
O4 O 0.0919(3) 0.3211(3) 0.4967(6) 0.0261(13) Uani 1 1 d . . . . .
O5 O -0.1070(3) 0.3695(4) 0.0431(10) 0.0403(15) Uani 1 1 d . . . . .
H18B H -0.091664 0.406848 -0.006726 0.060 Uiso 1 1 d R U . . .
H18A H -0.141954 0.355528 -0.006956 0.060 Uiso 1 1 d R U . . .
C1 C 0.1079(4) 0.3719(4) 0.1958(9) 0.0165(15) Uani 1 1 d . . . . .
C2 C 0.1180(4) 0.3610(4) 0.3835(9) 0.0173(15) Uani 1 1 d . . . . .
C3 C 0.1716(4) 0.4141(4) 0.3818(10) 0.0188(16) Uani 1 1 d . . . . .
C4 C 0.1629(4) 0.4241(4) 0.1970(9) 0.0173(16) Uani 1 1 d . . . . .
C6 C 0.250000 0.250000 0.244(7) 0.105(14) Uani 1 2 d S T P A 1
C7 C 0.250000 0.250000 0.411(6) 0.109(12) Uani 1 2 d S T P A 1
C5 C 0.250000 0.250000 0.061(6) 0.109(12) Uani 1 2 d S T P A 1
loop_
_atom_site_aniso_label
_atom_site_aniso_U_11
_atom_site_aniso_U_22
_atom_site_aniso_U_33
_atom_site_aniso_U_23
_atom_site_aniso_U_13
_atom_site_aniso_U_12
Ca1 0.0187(7) 0.0171(7) 0.0075(7) 0.0007(5) -0.0001(5) -0.0005(5)
O1 0.032(3) 0.034(3) 0.011(3) 0.001(2) 0.000(2) -0.014(2)
O2 0.025(3) 0.022(3) 0.011(3) 0.001(2) 0.002(2) -0.008(2)
O3 0.026(3) 0.024(3) 0.012(3) -0.003(2) -0.001(2) -0.008(2)
O4 0.037(3) 0.034(3) 0.008(3) -0.004(2) 0.003(2) -0.012(3)
O5 0.051(3) 0.057(4) 0.014(3) 0.006(3) 0.002(3) 0.026(3)
C1 0.019(4) 0.023(4) 0.008(3) -0.002(3) -0.001(3) -0.002(3)
C2 0.025(4) 0.023(4) 0.004(3) 0.003(3) 0.004(3) 0.002(3)
C3 0.027(4) 0.020(4) 0.009(3) -0.002(3) -0.001(3) -0.001(3)
C4 0.021(4) 0.018(4) 0.013(4) 0.000(3) 0.000(3) 0.000(3)
C6 0.029(9) 0.034(10) 0.25(5) 0.000 0.000 0.002(7)
C7 0.082(18) 0.063(16) 0.18(4) 0.000 0.000 0.034(14)
C5 0.054(11) 0.050(11) 0.22(4) 0.000 0.000 -0.021(9)
loop_
_atom_type_symbol
_atom_type_description
_atom_type_scat_dispersion_real
_atom_type_scat_dispersion_imag
_atom_type_scat_source
C C 0.0033 0.0016 'International Tables Vol C Tables 4.2.6.8 and 6.1.1.4'
H H 0.0000 0.0000 'International Tables Vol C Tables 4.2.6.8 and 6.1.1.4'
Ca Ca 0.2262 0.3064 'International Tables Vol C Tables 4.2.6.8 and 6.1.1.4'
O O 0.0106 0.0060 'International Tables Vol C Tables 4.2.6.8 and 6.1.1.4'
loop_
_geom_angle_atom_site_label_1
_geom_angle_atom_site_label_2
_geom_angle_atom_site_label_3
_geom_angle
_geom_angle_site_symmetry_1
_geom_angle_site_symmetry_3
_geom_angle_publ_flag
O1 Ca1 O4 159.7(2) . 6_554 ?
O1 Ca1 O5 98.9(2) . . ?
O4 Ca1 O5 101.4(2) 6_554 . ?
O1 Ca1 O2 91.85(19) . 4_455 ?
O4 Ca1 O2 92.70(18) 6_554 4_455 ?
O5 Ca1 O2 77.1(2) . 4_455 ?
O1 Ca1 O3 95.63(19) . 4_454 ?
O4 Ca1 O3 88.79(18) 6_554 4_454 ?
O5 Ca1 O3 77.3(2) . 4_454 ?
O2 Ca1 O3 154.15(17) 4_455 4_454 ?
O1 Ca1 O2 80.29(18) . 7_544 ?
O4 Ca1 O2 83.51(18) 6_554 7_544 ?
O5 Ca1 O2 143.0(2) . 7_544 ?
O2 Ca1 O2 139.82(14) 4_455 7_544 ?
O3 Ca1 O2 65.99(16) 4_454 7_544 ?
O1 Ca1 O3 81.89(18) . 7_544 ?
O4 Ca1 O3 81.97(18) 6_554 7_544 ?
O5 Ca1 O3 143.0(2) . 7_544 ?
O2 Ca1 O3 65.92(15) 4_455 7_544 ?
O3 Ca1 O3 139.65(14) 4_454 7_544 ?
O2 Ca1 O3 73.95(15) 7_544 7_544 ?
O1 Ca1 C4 78.0(2) . 7_544 ?
O4 Ca1 C4 82.3(2) 6_554 7_544 ?
O5 Ca1 C4 166.2(3) . 7_544 ?
O2 Ca1 C4 116.31(19) 4_455 7_544 ?
O3 Ca1 C4 89.48(19) 4_454 7_544 ?
O2 Ca1 C4 23.52(18) 7_544 7_544 ?
O3 Ca1 C4 50.46(18) 7_544 7_544 ?
O1 Ca1 C3 78.9(2) . 7_544 ?
O4 Ca1 C3 81.4(2) 6_554 7_544 ?
O5 Ca1 C3 166.1(3) . 7_544 ?
O2 Ca1 C3 89.23(19) 4_455 7_544 ?
O3 Ca1 C3 116.5(2) 4_454 7_544 ?
O2 Ca1 C3 50.61(18) 7_544 7_544 ?
O3 Ca1 C3 23.35(19) 7_544 7_544 ?
C4 Ca1 C3 27.10(17) 7_544 7_544 ?
O1 Ca1 Ca1 79.14(13) . 6 ?
O4 Ca1 Ca1 93.61(13) 6_554 6 ?
O5 Ca1 Ca1 110.8(2) . 6 ?
O2 Ca1 Ca1 34.66(12) 4_455 6 ?
O3 Ca1 Ca1 170.81(14) 4_454 6 ?
O2 Ca1 Ca1 105.45(12) 7_544 6 ?
O3 Ca1 Ca1 32.59(11) 7_544 6 ?
C4 Ca1 Ca1 82.07(14) 7_544 6 ?
C3 Ca1 Ca1 55.32(15) 7_544 6 ?
O1 Ca1 Ca1 94.12(14) . 6_554 ?
O4 Ca1 Ca1 78.26(14) 6_554 6_554 ?
O5 Ca1 Ca1 112.0(2) . 6_554 ?
O2 Ca1 Ca1 168.12(13) 4_455 6_554 ?
O3 Ca1 Ca1 34.95(12) 4_454 6_554 ?
O2 Ca1 Ca1 32.37(11) 7_544 6_554 ?
O3 Ca1 Ca1 104.79(12) 7_544 6_554 ?
C4 Ca1 Ca1 55.30(14) 7_544 6_554 ?
C3 Ca1 Ca1 81.87(15) 7_544 6_554 ?
Ca1 Ca1 Ca1 137.19(6) 6 6_554 ?
O1 Ca1 H18B 85.3 . . ?
O4 Ca1 H18B 114.7 6_554 . ?
O5 Ca1 H18B 17.0 . . ?
O2 Ca1 H18B 87.5 4_455 . ?
O3 Ca1 H18B 68.6 4_454 . ?
O2 Ca1 H18B 130.3 7_544 . ?
O3 Ca1 H18B 149.9 7_544 . ?
C4 Ca1 H18B 151.0 7_544 . ?
C3 Ca1 H18B 163.7 7_544 . ?
Ca1 Ca1 H18B 118.0 6 . ?
Ca1 Ca1 H18B 103.2 6_554 . ?
O1 Ca1 H18A 114.4 . . ?
O4 Ca1 H18A 85.8 6_554 . ?
O5 Ca1 H18A 16.7 . . ?
O2 Ca1 H18A 83.5 4_455 . ?
O3 Ca1 H18A 70.8 4_454 . ?
O2 Ca1 H18A 135.6 7_544 . ?
O3 Ca1 H18A 146.3 7_544 . ?
C4 Ca1 H18A 157.2 7_544 . ?
C3 Ca1 H18A 165.0 7_544 . ?
Ca1 Ca1 H18A 118.2 6 . ?
Ca1 Ca1 H18A 103.2 6_554 . ?
H18B Ca1 H18A 29.3 . . ?
C1 O1 Ca1 143.7(4) . . ?
C4 O2 Ca1 141.1(5) . 12_454 ?
C4 O2 Ca1 102.5(4) . 3 ?
Ca1 O2 Ca1 112.97(19) 12_454 3 ?
C3 O3 Ca1 141.5(5) . 12_455 ?
C3 O3 Ca1 102.4(4) . 3 ?
Ca1 O3 Ca1 112.46(19) 12_455 3 ?
C2 O4 Ca1 144.6(5) . 6 ?
Ca1 O5 H18B 109.9 . . ?
Ca1 O5 H18A 110.1 . . ?
H18B O5 H18A 110.4 . . ?
O1 C1 C2 136.0(7) . . ?
O1 C1 C4 134.9(6) . . ?
C2 C1 C4 89.0(6) . . ?
O4 C2 C3 135.5(7) . . ?
O4 C2 C1 134.6(7) . . ?
C3 C2 C1 89.9(6) . . ?
O3 C3 C4 130.6(7) . . ?
O3 C3 C2 138.8(7) . . ?
C4 C3 C2 90.5(6) . . ?
O3 C3 Ca1 54.2(4) . 3 ?
C4 C3 Ca1 76.4(4) . 3 ?
C2 C3 Ca1 166.9(5) . 3 ?
O2 C4 C3 130.4(7) . . ?
O2 C4 C1 139.0(7) . . ?
C3 C4 C1 90.5(6) . . ?
O2 C4 Ca1 54.0(3) . 3 ?
C3 C4 Ca1 76.5(4) . 3 ?
C1 C4 Ca1 166.9(5) . 3 ?
C7 C6 C5 180.000(16) . . ?
loop_
_geom_bond_atom_site_label_1
_geom_bond_atom_site_label_2
_geom_bond_distance
_geom_bond_site_symmetry_2
_geom_bond_publ_flag
Ca1 O1 2.306(5) . ?
Ca1 O4 2.308(5) 6_554 ?
Ca1 O5 2.336(6) . ?
Ca1 O2 2.395(5) 4_455 ?
Ca1 O3 2.401(5) 4_454 ?
Ca1 O2 2.544(5) 7_544 ?
Ca1 O3 2.553(5) 7_544 ?
Ca1 C4 3.072(7) 7_544 ?
Ca1 C3 3.073(8) 7_544 ?
Ca1 Ca1 4.1191(12) 6 ?
Ca1 Ca1 4.1192(11) 6_554 ?
Ca1 H18B 2.7465 . ?
Ca1 H18A 2.7379 . ?
O1 C1 1.258(9) . ?
O2 C4 1.256(9) . ?
O3 C3 1.247(9) . ?
O4 C2 1.258(9) . ?
O5 H18B 0.8530 . ?
O5 H18A 0.8364 . ?
C1 C2 1.468(9) . ?
C1 C4 1.468(10) . ?
C2 C3 1.458(10) . ?
C3 C4 1.440(9) . ?
C6 C7 1.28(5) . ?
C6 C5 1.40(6) . ?
loop_
_geom_torsion_atom_site_label_1
_geom_torsion_atom_site_label_2
_geom_torsion_atom_site_label_3
_geom_torsion_atom_site_label_4
_geom_torsion
_geom_torsion_site_symmetry_1
_geom_torsion_site_symmetry_2
_geom_torsion_site_symmetry_3
_geom_torsion_site_symmetry_4
_geom_torsion_publ_flag
Ca1 O1 C1 C2 7.0(16) . . . . ?
Ca1 O1 C1 C4 -171.1(6) . . . . ?
Ca1 O4 C2 C3 -162.7(6) 6 . . . ?
Ca1 O4 C2 C1 15.5(16) 6 . . . ?
O1 C1 C2 O4 3.7(17) . . . . ?
C4 C1 C2 O4 -177.7(9) . . . . ?
O1 C1 C2 C3 -177.6(9) . . . . ?
C4 C1 C2 C3 1.0(6) . . . . ?
Ca1 O3 C3 C4 155.4(6) 12_455 . . . ?
Ca1 O3 C3 C4 0.6(10) 3 . . . ?
Ca1 O3 C3 C2 -24.4(16) 12_455 . . . ?
Ca1 O3 C3 C2 -179.2(9) 3 . . . ?
Ca1 O3 C3 Ca1 154.8(9) 12_455 . . 3 ?
O4 C2 C3 O3 -2.5(17) . . . . ?
C1 C2 C3 O3 178.8(10) . . . . ?
O4 C2 C3 C4 177.6(9) . . . . ?
C1 C2 C3 C4 -1.1(7) . . . . ?
O4 C2 C3 Ca1 -179.7(17) . . . 3 ?
C1 C2 C3 Ca1 2(3) . . . 3 ?
Ca1 O2 C4 C3 152.9(6) 12_454 . . . ?
Ca1 O2 C4 C3 -3.0(10) 3 . . . ?
Ca1 O2 C4 C1 -25.9(16) 12_454 . . . ?
Ca1 O2 C4 C1 178.2(9) 3 . . . ?
Ca1 O2 C4 Ca1 155.9(8) 12_454 . . 3 ?
O3 C3 C4 O2 1.9(15) . . . . ?
C2 C3 C4 O2 -178.2(8) . . . . ?
Ca1 C3 C4 O2 2.5(8) 3 . . . ?
O3 C3 C4 C1 -178.8(8) . . . . ?
C2 C3 C4 C1 1.1(7) . . . . ?
Ca1 C3 C4 C1 -178.3(5) 3 . . . ?
O3 C3 C4 Ca1 -0.5(8) . . . 3 ?
C2 C3 C4 Ca1 179.4(5) . . . 3 ?
O1 C1 C4 O2 -3.3(17) . . . . ?
C2 C1 C4 O2 178.0(9) . . . . ?
O1 C1 C4 C3 177.6(9) . . . . ?
C2 C1 C4 C3 -1.1(7) . . . . ?
O1 C1 C4 Ca1 170.3(17) . . . 3 ?
C2 C1 C4 Ca1 -8(3) . . . 3 ?
