#------------------------------------------------------------------------------
#$Date: 2020-05-29 00:15:59 +0300 (Fri, 29 May 2020) $
#$Revision: 252434 $
#$URL: file:///home/coder/svn-repositories/cod/cif/4/51/77/4517726.cif $
#------------------------------------------------------------------------------
#
# This file is available in the Crystallography Open Database (COD),
# http://www.crystallography.net/
#
# All data on this site have been placed in the public domain by the
# contributors.
#
data_4517726
loop_
_publ_author_name
'Li, Jialuo'
'Yuan, Shuai'
'Qin, Jun-Sheng'
'Huang, Lan'
'Bose, Riya'
'Pang, Jiandong'
'Zhang, Peng'
'Xiao, Zhifeng'
'Tan, Kui'
'Malko, Anton V.'
'Cagin, Tahir'
'Zhou, Hong-Cai'
_publ_section_title
;
 Fluorescence Enhancement in Solid State by Isolating Perylene
 Fluorophores in Metal-Organic Frameworks.
;
_journal_name_full               'ACS applied materials &amp; interfaces'
_journal_paper_doi               10.1021/acsami.0c05512
_journal_year                    2020
_chemical_formula_moiety         '0.08(C175.68 H21.76 O64 Zr12)'
_chemical_formula_sum            'C14.64 H1.81 O5.33 Zr'
_chemical_formula_weight         354.21
_space_group_crystal_system      cubic
_space_group_IT_number           225
_space_group_name_Hall           '-F 4 2 3'
_space_group_name_H-M_alt        'F m -3 m'
_atom_sites_solution_hydrogens   geom
_audit_creation_date             2020-02-19
_audit_creation_method
;
Olex2 1.2
(compiled 2018.05.29 svn.r3508 for OlexSys, GUI svn.r5506)
;
_cell_angle_alpha                90
_cell_angle_beta                 90
_cell_angle_gamma                90
_cell_formula_units_Z            24
_cell_length_a                   26.7798(11)
_cell_length_b                   26.7798
_cell_length_c                   26.7798
_cell_measurement_reflns_used    703
_cell_measurement_temperature    100(2)
_cell_measurement_theta_max      18.229
_cell_measurement_theta_min      2.328
_cell_volume                     19205.3(8)
_computing_cell_refinement       'SAINT v8.34A (Bruker, 2013)'
_computing_data_reduction        'SAINT v8.34A (Bruker, 2013)'
_computing_molecular_graphics    'Olex2 (Dolomanov et al., 2009)'
_computing_publication_material  'Olex2 (Dolomanov et al., 2009)'
_computing_structure_refinement  'XL (Sheldrick, 2008)'
_computing_structure_solution    'SHELXS  (Sheldrick, 2008)'
_diffrn_ambient_temperature      100
_diffrn_detector                 'Bruker APEX2 area detector'
_diffrn_detector_area_resol_mean 7.9
_diffrn_detector_type            'CCD area detector'
_diffrn_measured_fraction_theta_full 0.998
_diffrn_measured_fraction_theta_max 0.998
_diffrn_measurement_device       'three-circle diffractometer'
_diffrn_measurement_device_type  'Bruker APEX2 microsource'
_diffrn_measurement_method       '\w and \f scans'
_diffrn_radiation_monochromator  'mirror optics'
_diffrn_radiation_probe          x-ray
_diffrn_radiation_type           MoK\a
_diffrn_radiation_wavelength     0.71073
_diffrn_reflns_av_R_equivalents  0.1347
_diffrn_reflns_av_unetI/netI     0.0383
_diffrn_reflns_Laue_measured_fraction_full 0.998
_diffrn_reflns_Laue_measured_fraction_max 0.998
_diffrn_reflns_limit_h_max       32
_diffrn_reflns_limit_h_min       -28
_diffrn_reflns_limit_k_max       34
_diffrn_reflns_limit_k_min       -29
_diffrn_reflns_limit_l_max       34
_diffrn_reflns_limit_l_min       -26
_diffrn_reflns_number            25702
_diffrn_reflns_point_group_measured_fraction_full 0.998
_diffrn_reflns_point_group_measured_fraction_max 0.998
_diffrn_reflns_theta_full        25.242
_diffrn_reflns_theta_max         27.465
_diffrn_reflns_theta_min         2.151
_diffrn_source                   'microfocus sealed X-ray tube'
_diffrn_source_type              'Incoatec I\ms'
_exptl_absorpt_coefficient_mu    0.352
_exptl_absorpt_correction_T_max  0.7456
_exptl_absorpt_correction_T_min  0.5882
_exptl_absorpt_correction_type   multi-scan
_exptl_absorpt_process_details
;
SADABS-2016/2 (Bruker,2016/2) was used for absorption correction.
wR2(int) was 0.0770 before and 0.0656 after correction.
The Ratio of minimum to maximum transmission is 0.7889.
The \l/2 correction factor is Not present.
;
_exptl_crystal_colour            colourless
_exptl_crystal_colour_primary    colourless
_exptl_crystal_density_diffrn    0.735
_exptl_crystal_description       block
_exptl_crystal_F_000             4136
_exptl_crystal_size_max          0.1
_exptl_crystal_size_mid          0.1
_exptl_crystal_size_min          0.1
_refine_diff_density_max         1.426
_refine_diff_density_min         -0.683
_refine_diff_density_rms         0.120
_refine_ls_extinction_coef       0.00024(7)
_refine_ls_extinction_expression Fc^*^=kFc[1+0.001xFc^2^\l^3^/sin(2\q)]^-1/4^
_refine_ls_extinction_method     'SHELXL-2014/7 (Sheldrick 2014'
_refine_ls_goodness_of_fit_ref   1.057
_refine_ls_hydrogen_treatment    constr
_refine_ls_matrix_type           full
_refine_ls_number_parameters     62
_refine_ls_number_reflns         1159
_refine_ls_number_restraints     78
_refine_ls_restrained_S_all      1.040
_refine_ls_R_factor_all          0.0738
_refine_ls_R_factor_gt           0.0583
_refine_ls_shift/su_max          0.001
_refine_ls_shift/su_mean         0.000
_refine_ls_structure_factor_coef Fsqd
_refine_ls_weighting_details
'w=1/[\s^2^(Fo^2^)+(0.1100P)^2^+152.4162P] where P=(Fo^2^+2Fc^2^)/3'
_refine_ls_weighting_scheme      calc
_refine_ls_wR_factor_gt          0.1630
_refine_ls_wR_factor_ref         0.1768
_reflns_Friedel_coverage         0.000
_reflns_number_gt                919
_reflns_number_total             1159
_reflns_threshold_expression     'I > 2\s(I)'
_cod_data_source_file            am0c05512_si_001.cif
_cod_data_source_block           uio67_0m
_cod_original_cell_volume        19205(2)
_cod_database_code               4517726
_shelx_shelxl_version_number     2014/7
_shelx_space_group_comment
;
The symmetry employed for this shelxl refinement is uniquely defined
by the following loop, which should always be used as a source of
symmetry information in preference to the above space-group names.
They are only intended as comments.
;
_shelx_estimated_absorpt_t_max   0.966
_shelx_estimated_absorpt_t_min   0.966
_olex2_refinement_description
;
1. Fixed Uiso
 At 1.2 times of:
  All C(H) groups
 At 1.5 times of:
  All O(H) groups
2. Restrained distances
 C2-C4
 2.45 with sigma of 0.02
 C4-C4_$1
 2.45 with sigma of 0.02
 C3-C5
 2.45 with sigma of 0.02
 C4_$1-C7_$1
 1.45 with sigma of 0.02
 C3_$1-C7_$1
 2.45 with sigma of 0.02
 C7_$1-C5
 2.45 with sigma of 0.02
 C5-C4_$3
 2.45 with sigma of 0.02
 C7_$1-C4_$2
 2.45 with sigma of 0.02
 C6-C3
 1.45 with sigma of 0.02
 C6-C4
 2.45 with sigma of 0.02
 C6-C2
 2.45 with sigma of 0.02
 C36-C6
 1.45 with sigma of 0.02
 C3-C36
 2.45 with sigma of 0.02
 C36-C7
 2.45 with sigma of 0.02
 C11-C36
 1.45 with sigma of 0.02
 C7-C11
 1.45 with sigma of 0.02
 C4-C11
 2.45 with sigma of 0.02
 C11-C6
 2.45 with sigma of 0.02
3. Restrained planarity
 C3_$1, C2, C3, C4, C5, C4_$1
 with sigma of 0.1
 C6_$1, C3_$1, C4_$1, C7_$1, C2, C5
 with sigma of 0.05
 C6, C3, C2, C4
 with sigma of 0.1
 C36, C6, C3, C4, C7
 with sigma of 0.1
 C6, C3, C4, C7, C11, C36
 with sigma of 0.1
4. Rigid bond restraints
 C6, C3, C4, C7, C11, C36
 with sigma for 1-2 distances of 0.01 and sigma for 1-3 distances of 0.01
5. Uiso/Uaniso restraints and constraints
C6 \\sim C3 \\sim C4 \\sim C7 \\sim C11 \\sim C36: within 2A with sigma of 0.04
and sigma for terminal atoms of 0.08
6. Others
 Fixed Sof: C6(0.02) H6(0.02) C7(0.02) C36(0.02) H36(0.02) C11(0.02) H11(0.02)
7.a Ternary CH refined with riding coordinates:
 O2(H2)
7.b Aromatic/amide H refined with riding coordinates:
 C6(H6), C36(H36), C11(H11)
;
_smtbx_masks_void_probe_radius   1.2
_smtbx_masks_void_truncation_radius 1.2
_shelx_res_file
;
    uio67_0m.res created by SHELXL-2014/7

TITL UiO67_0m in Fm-3m
CELL 0.71073 26.7798 26.7798 26.7798 90 90 90
ZERR 24 0.0011 0 0 0 0 0
LATT 4
SYMM -Y,+X,+Z
SYMM -X,-Y,+Z
SYMM +Y,-X,+Z
SYMM +X,-Z,+Y
SYMM +X,-Y,-Z
SYMM +X,+Z,-Y
SYMM +Z,+Y,-X
SYMM -X,+Y,-Z
SYMM -Z,+Y,+X
SYMM +Z,+X,+Y
SYMM +Y,+Z,+X
SYMM -Y,-Z,+X
SYMM +Z,-X,-Y
SYMM -Y,+Z,-X
SYMM -Z,-X,+Y
SYMM -Z,+X,-Y
SYMM +Y,-Z,-X
SYMM +Y,+X,-Z
SYMM -Y,-X,-Z
SYMM -X,+Z,+Y
SYMM -X,-Z,-Y
SYMM +Z,-Y,+X
SYMM -Z,-Y,-X
SFAC C H O Zr
UNIT 351.36 43.52 128 24
EQIV $1 1-X,1.5-Z,1.5-Y
EQIV $2 1-X,1.5-Y,1.5-Z
EQIV $3 +X,1.5-Y,1.5-Z
DFIX 2.45 C2 C4
DFIX 2.45 C4 C4_$1
DFIX 2.45 C3 C5
DFIX 1.45 C4_$1 C7_$1
DFIX 2.45 C3_$1 C7_$1
DFIX 2.45 C7_$1 C5
DFIX 2.45 C5 C4_$3
DFIX 2.45 C7_$1 C4_$2
DFIX 1.45 C6 C3
DFIX 2.45 C6 C4
DFIX 2.45 C6 C2
DFIX 1.45 C36 C6
DFIX 2.45 C3 C36
DFIX 2.45 C36 C7
DFIX 1.45 C11 C36
DFIX 1.45 C7 C11
DFIX 2.45 C4 C11
DFIX 2.45 C11 C6
FLAT C3_$1 C2 C3 C4 C5 C4_$1
FLAT 0.05 C6_$1 C3_$1 C4_$1 C7_$1 C2 C5
FLAT C6 C3 C2 C4
FLAT C36 C6 C3 C4 C7
FLAT C6 C3 C4 C7 C11 C36
DELU C6 C3 C4 C7 C11 C36
SIMU C6 C3 C4 C7 C11 C36

L.S. 5 0 0
PLAN  4
SIZE 0.1 0.1 0.1
TEMP -173.15
CONF
MORE -1
BOND $H
ABIN
fmap 2 53
acta
REM <olex2.extras>
REM <HklSrc "%.\\UiO67_0m.hkl">
REM </olex2.extras>

WGHT    0.110000  152.416183
EXTI    0.000241
FVAR       0.00382
ZR3   4    0.500000    0.500000    0.907572    10.12500    0.01199    0.01199 =
         0.00821    0.00000    0.00000    0.00000
C1    1    0.500000    0.617699    0.882301    10.25000    0.04513    0.02307 =
         0.02307    0.01072    0.00000    0.00000
C2    1    0.500000    0.656434    0.843566    10.25000    0.07790    0.03186 =
         0.03186    0.01054    0.00000    0.00000
C5    1    0.500000    0.730521    0.769479    10.25000    0.12180    0.03643 =
         0.03643    0.01542    0.00000    0.00000
O1    3    0.500000    0.571617    0.866750    10.50000    0.03564    0.02799 =
         0.03442    0.01886    0.00000    0.00000
O2    3    0.454544    0.545456    0.954544    10.16667    0.05701    0.05701 =
         0.05701   -0.04056    0.04056   -0.04056
AFIX  13
H2    2    0.432984    0.567016    0.932984    10.16667   -1.50000
AFIX   0
C3    1    0.500000    0.706431    0.856636    10.50000    0.25807    0.03209 =
         0.04149    0.02004    0.00000    0.00000
C4    1    0.500000    0.743041    0.819796    10.50000    0.28352    0.03878 =
         0.04557    0.01674    0.00000    0.00000
C6    1    0.500000    0.720422    0.908411    10.02000    0.27036    0.04013 =
         0.04398    0.01422    0.00000    0.00000
AFIX  43
H6    2    0.500000    0.695537    0.933693    10.02000   -1.20000
AFIX   0
C7    1    0.500000    0.795422    0.832288    10.02000    0.28956    0.03437 =
         0.05756    0.02127    0.00000    0.00000
C36   1    0.500000    0.771838    0.921437    10.02000    0.28547    0.04270 =
         0.05314    0.01003    0.00000    0.00000
AFIX  43
H36   2    0.500000    0.781344    0.955614    10.02000   -1.20000
AFIX   0
C11   1    0.500000    0.809194    0.883684    10.02000    0.29205    0.03809 =
         0.06171    0.01094    0.00000    0.00000
AFIX  43
H11   2    0.500000    0.843484    0.892774    10.02000   -1.20000
AFIX   0
HKLF 4

REM  UiO67_0m in Fm-3m
REM R1 =  0.0583 for     919 Fo > 4sig(Fo)  and  0.0738 for all    1159 data
REM     62 parameters refined using     78 restraints

END

WGHT      0.1100    152.4377

REM Highest difference peak  1.426,  deepest hole -0.683,  1-sigma level  0.120
Q1    1   0.5000  0.7583  1.0000  10.12500  0.05    1.43
Q2    1   0.5000  0.5551  0.8399  10.50000  0.05    0.71
Q3    1   0.4409  0.5414  0.9409  10.50000  0.05    0.44
Q4    1   0.4750  0.5416  0.9584  10.50000  0.05    0.41
;
_shelx_res_checksum              68409
_shelx_hkl_file
;
  -2   0   2    0.00    0.00   1
  -2   2   0    0.00    0.01   1
  -2  -2  -2    6.73    0.06   1
  -2  -2   2    6.57    0.05   1
  -2   2   2    6.75    0.04   1
   2  -2  -2    6.59    0.04   1
   2   2  -2    6.75    0.06   1
  -3  -1  -1    0.57    0.02   1
  -3  -1   1    0.03    0.01   1
  -3   1  -1    0.06    0.01   1
  -1  -3  -1    1.39    0.03   1
  -1  -3   1    1.23    0.03   1
  -1  -1  -3    1.20    0.03   1
  -1  -1   3    0.29    0.02   1
  -1   1   3    1.07    0.02   1
  -1   3  -1    1.74    0.03   1
  -1   3   1    0.95    0.02   1
   1  -3  -1    1.71    0.03   1
   1  -3   1    1.21    0.03   1
   1  -1  -3    1.68    0.03   1
   1  -1   3    1.65    0.03   1
   1   1   3    1.70    0.03   1
   1   3  -1    1.71    0.03   1
   1   3   1    1.69    0.03   1
   3  -1   1    1.72    0.03   1
   3   1  -1    1.69    0.02   1
   3   1   1    1.67    0.03   1
  -3  -3  -1    0.84    0.03   1
  -3  -3   1    0.84    0.03   1
  -3  -1  -3    0.73    0.03   1
  -3  -1   3    0.79    0.02   1
  -3   1  -3    0.77    0.03   1
  -3   1   3    0.82    0.02   1
  -3   3  -1    0.81    0.03   1
  -3   3   1    0.83    0.02   1
  -1  -3  -3    0.80    0.03   1
  -1  -3   3    0.81    0.03   1
  -1   3  -3    0.81    0.03   1
  -1   3   3    0.84    0.03   1
   1  -3  -3    0.82    0.03   1
   1  -3   3    0.80    0.03   1
   1   3  -3    0.79    0.03   1
   1   3   3    0.79    0.03   1
   3  -3  -1    0.81    0.02   1
   3  -3   1    0.82    0.03   1
   3  -1  -3    0.80    0.02   1
   3  -1   3    0.79    0.03   1
   3   1  -3    0.79    0.02   1
   3   1   3    0.78    0.03   1
   3   3  -1    0.79    0.03   1
   3   3   1    0.79    0.03   1
  -3  -3  -3    2.03    0.05   1
  -3  -3   3    1.95    0.04   1
  -3   3   3    2.01    0.03   1
   3  -3  -3    2.00    0.03   1
   3  -3   3    1.90    0.05   1
   3  -3   3    1.80    0.04   1
   3   3  -3    1.93    0.04   1
   3   3   3    1.95    0.05   1
  -4   0   0    1.83    0.03   1
   0  -4   0    1.84    0.04   1
   0   0  -4    1.83    0.04   1
   0   0   4    1.73    0.04   1
   0   4   0    1.91    0.04   1
   4   0   0    1.85    0.03   1
  -4   0  -2    0.01    0.01   1
  -4   0   2    0.00    0.01   1
  -2  -4   0    0.01    0.01   1
  -2   4   0    0.03    0.01   1
   0  -2  -4    0.00    0.01   1
   0  -2   4    0.01    0.01   1
   0   2   4    0.00    0.01   1
   2  -4   0    0.00    0.01   1
   2   4   0    0.01    0.01   1
   4   0  -2    0.01    0.01   1
   4   0   2    0.00    0.01   1
  -4  -2   0    0.04    0.01   1
  -2   0  -4    0.01    0.01   1
  -2   0   4    0.03    0.01   1
   0  -4  -2    0.02    0.01   1
   0  -4   2    0.01    0.01   1
   0   4  -2    0.02    0.01   1
   0   4   2    0.02    0.01   1
   2   0  -4    0.00    0.01   1
   2   0   4    0.00    0.01   1
   4  -2   0    0.01    0.01   1
   4  -2   0    0.03    0.01   1
   4   2   0    0.02    0.01   1
  -4  -2  -2    0.01    0.01   1
  -4  -2   2    0.00    0.01   1
  -4   2  -2    0.02    0.01   1
  -4   2   2    0.02    0.01   1
  -2  -4  -2    0.02    0.02   1
  -2  -4   2    0.02    0.01   1
  -2  -2  -4    0.01    0.02   1
  -2  -2   4    0.02    0.01   1
  -2   2  -4    0.04    0.02   1
  -2   2   4    0.00    0.01   1
  -2   4  -2    0.03    0.01   1
  -2   4   2    0.03    0.01   1
   2  -4  -2    0.03    0.01   1
   2  -4   2    0.01    0.01   1
   2  -2  -4    0.01    0.01   1
   2  -2   4    0.03    0.01   1
   2   2  -4    0.03    0.01   1
   2   2   4    0.00    0.01   1
   2   4  -2    0.01    0.01   1
   2   4   2    0.03    0.02   1
   4  -2  -2    0.01    0.01   1
   4  -2   2    0.00    0.01   1
   4   2  -2    0.01    0.01   1
   4   2   2    0.02    0.02   1
  -4  -4   0    0.17    0.02   1
  -4   0  -4    0.15    0.02   1
  -4   0   4    0.16    0.02   1
  -4   0   4    0.18    0.02   1
  -4   4   0    0.18    0.02   1
   0  -4  -4    0.18    0.02   1
   0  -4   4    0.15    0.02   1
   0   4  -4    0.16    0.02   1
   0   4   4    0.18    0.02   1
   4  -4   0    0.20    0.02   1
   4   0   4    0.10    0.02   1
   4   4   0    0.21    0.02   1
  -4  -4  -2    1.59    0.05   1
  -4  -4   2    1.49    0.04   1
  -4  -2  -4    1.31    0.05   1
  -4  -2   4    1.47    0.04   1
  -4   2  -4    1.32    0.04   1
  -4   2   4    1.41    0.03   1
  -4   4  -2    1.52    0.04   1
  -4   4   2    1.51    0.03   1
  -2  -4  -4    1.45    0.05   1
  -2  -4   4    1.46    0.04   1
  -2   4  -4    1.48    0.05   1
  -2   4   4    1.52    0.04   1
   2  -4  -4    1.53    0.04   1
   2  -4   4    1.49    0.05   1
   2   4  -4    1.39    0.05   1
   2   4   4    1.52    0.05   1
   4  -4  -2    1.51    0.03   1
   4  -4   2    1.47    0.04   1
   4  -2  -4    1.40    0.03   1
   4  -2   4    1.38    0.05   1
   4   2  -4    1.37    0.04   1
   4   2   4    1.16    0.05   1
   4   4  -2    1.46    0.04   1
   4   4   2    1.58    0.05   1
  -4  -4  -4    0.64    0.05   1
  -4  -4   4    0.58    0.03   1
  -4   4   4    0.56    0.03   1
   4  -4  -4    0.56    0.03   1
   4  -4   4    0.59    0.04   1
   4  -4   4    0.53    0.04   1
   4   4  -4    0.52    0.04   1
  -5  -1  -1    0.64    0.03   1
  -5  -1   1    0.68    0.02   1
  -5   1  -1    0.62    0.03   1
  -5   1   1    0.62    0.02   1
  -1  -5  -1    0.65    0.03   1
  -1  -5   1    0.59    0.03   1
  -1  -1  -5    0.64    0.03   1
  -1  -1   5    0.65    0.03   1
  -1   1  -5    0.64    0.03   1
  -1   1   5    0.62    0.03   1
  -1   5  -1    0.64    0.03   1
  -1   5   1    0.63    0.03   1
   1  -5  -1    0.65    0.03   1
   1  -5   1    0.66    0.03   1
   1  -1  -5    0.62    0.03   1
   1  -1   5    0.61    0.03   1
   1   1  -5    0.63    0.03   1
   1   1   5    0.57    0.03   1
   1   5  -1    0.67    0.04   1
   1   5   1    0.63    0.03   1
   5  -1  -1    0.61    0.02   1
   5  -1   1    0.59    0.02   1
   5   1  -1    0.63    0.02   1
   5   1   1    0.65    0.03   1
  -5  -1  -3    2.43    0.05   1
  -5  -1   3    2.55    0.04   1
  -5   1  -3    2.57    0.05   1
  -3  -5  -1    2.58    0.06   1
  -3  -5   1    2.62    0.06   1
  -3   5  -1    2.55    0.05   1
  -3   5   1    2.58    0.05   1
  -1  -3  -5    2.53    0.06   1
  -1  -3   5    2.47    0.05   1
  -1   3   5    2.43    0.05   1
   1  -3  -5    2.43    0.05   1
   1  -3   5    2.56    0.06   1
   1  -3   5    2.38    0.06   1
   1   3  -5    2.47    0.05   1
   1   3   5    2.58    0.06   1
   3  -5  -1    2.67    0.05   1
   3  -5   1    2.53    0.05   1
   3   5  -1    2.41    0.05   1
   3   5   1    2.53    0.06   1
   5  -1   3    2.50    0.05   1
   5   1  -3    2.51    0.04   1
   5   1   3    2.37    0.05   1
  -5  -3  -1    2.59    0.05   1
  -5  -3   1    2.57    0.05   1
  -5   3   1    2.55    0.03   1
  -3  -1  -5    2.47    0.06   1
  -3  -1   5    2.44    0.04   1
  -3  -1   5    2.40    0.04   1
  -3   1  -5    2.43    0.06   1
  -3   1   5    2.55    0.04   1
  -1  -5  -3    2.62    0.06   1
  -1  -5   3    2.57    0.06   1
  -1   5  -3    2.46    0.06   1
  -1   5   3    2.65    0.05   1
   1  -5  -3    2.54    0.05   1
   1  -5   3    2.55    0.06   1
   1   5  -3    2.54    0.06   1
   1   5   3    2.56    0.06   1
   3  -1  -5    2.49    0.04   1
   3  -1   5    2.28    0.06   1
   3   1   5    2.38    0.06   1
   5  -3  -1    2.50    0.03   1
   5  -3   1    2.48    0.04   1
   5  -3   1    2.41    0.04   1
   5   3  -1    2.50    0.05   1
   5   3   1    2.51    0.05   1
  -5  -3  -3    0.48    0.05   1
  -5  -3   3    0.42    0.03   1
  -5   3   3    0.46    0.02   1
  -3  -5  -3    0.67    0.05   1
  -3  -5   3    0.47    0.04   1
  -3  -3  -5    0.37    0.04   1
  -3  -3   5    0.40    0.03   1
  -3   3   5    0.39    0.03   1
  -3   5  -3    0.41    0.04   1
  -3   5   3    0.47    0.03   1
   3  -5  -3    0.45    0.03   1
   3  -5   3    0.44    0.04   1
   3  -3  -5    0.40    0.03   1
   3  -3   5    0.45    0.04   1
   3  -3   5    0.39    0.04   1
   3   3  -5    0.42    0.03   1
   3   3   5    0.39    0.04   1
   3   5  -3    0.40    0.04   1
   3   5   3    0.55    0.04   1
   5  -3  -3    0.51    0.02   1
   5  -3   3    0.41    0.03   1
   5   3  -3    0.45    0.03   1
   5   3   3    0.66    0.05   1
  -5  -5  -1    1.49    0.05   1
  -5  -5   1    1.49    0.05   1
  -5  -1  -5    1.29    0.05   1
  -5  -1   5    1.42    0.03   1
  -5   1  -5    1.40    0.05   1
  -5   1   5    1.39    0.03   1
  -5   5  -1    1.34    0.04   1
  -5   5   1    1.39    0.04   1
  -1  -5  -5    1.24    0.05   1
  -1  -5   5    1.42    0.05   1
  -1   5  -5    1.21    0.05   1
  -1   5   5    1.37    0.05   1
   1  -5  -5    1.41    0.05   1
   1  -5   5    1.37    0.05   1
   5  -5  -1    1.43    0.04   1
   5  -5   1    1.39    0.04   1
   5  -1   5    1.17    0.06   1
   5   1  -5    1.37    0.04   1
   5   5  -1    1.31    0.05   1
   5   5   1    1.35    0.05   1
  -5  -5  -3    3.89    0.08   1
  -5  -5   3    3.83    0.07   1
  -5  -3  -5    3.80    0.08   1
  -5  -3   5    3.71    0.06   1
  -5   3  -5    3.65    0.07   1
  -5   3   5    3.77    0.04   1
  -5   5  -3    3.64    0.07   1
  -5   5   3    3.87    0.05   1
  -3  -5   5    3.87    0.07   1
  -3   5  -5    3.69    0.08   1
  -3   5   5    3.82    0.06   1
   3  -5  -5    3.80    0.06   1
   3  -5   5    3.68    0.07   1
   3   5   5    3.90    0.08   1
   5  -5  -3    3.95    0.05   1
   5  -5   3    3.90    0.07   1
   5  -3  -5    3.66    0.04   1
   5  -3   5    3.45    0.08   1
   5   3  -5    3.75    0.06   1
   5   3   5    3.59    0.08   1
   5   5  -3    3.82    0.07   1
   5   5   3    3.87    0.08   1
  -5  -5  -5    3.22    0.08   1
  -5  -5   5    3.21    0.06   1
  -5   5   5    3.27    0.05   1
   5  -5  -5    3.35    0.05   1
   5  -5   5    3.37    0.07   1
   5  -5   5    3.15    0.07   1
   5   5   5    3.25    0.08   1
  -6   0   0   16.41    0.09   1
   0  -6   0   17.44    0.13   1
   0   0  -6   16.49    0.12   1
   0   0   6   16.98    0.13   1
   0   6   0   17.36    0.13   1
   6   0   0   16.43    0.09   1
  -6   0  -2    0.61    0.03   1
  -6   0   2    0.75    0.02   1
  -2  -6   0    0.69    0.04   1
  -2   6   0    0.69    0.04   1
   0  -2  -6    0.64    0.04   1
   0  -2   6    0.54    0.04   1
   0   2   6    0.58    0.04   1
   2  -6   0    0.67    0.04   1
   2   6   0    0.67    0.04   1
   6   0  -2    0.67    0.02   1
   6   0   2    0.56    0.03   1
  -6   0  -4    0.80    0.04   1
  -6   0   4    0.85    0.02   1
  -4  -6   0    0.85    0.05   1
  -4   6   0    0.87    0.04   1
   0  -4  -6    0.76    0.05   1
   0  -4   6    0.80    0.04   1
   0   4  -6    0.84    0.06   1
   0   4   6    0.81    0.05   1
   4  -6   0    0.83    0.04   1
   6   0  -4    0.83    0.02   1
   6   0   4    0.64    0.04   1
  -6  -2   0    0.72    0.04   1
  -6   2   0    0.64    0.02   1
  -2   0  -6    0.63    0.04   1
  -2   0   6    0.62    0.03   1
   0  -6  -2    0.77    0.04   1
   0  -6   2    0.69    0.04   1
   0   6  -2    0.67    0.04   1
   0   6   2    0.66    0.04   1
   2   0  -6    0.66    0.03   1
   2   0   6    0.62    0.04   1
   6  -2   0    0.63    0.02   1
   6   2   0    0.69    0.03   1
  -6  -2  -2    0.28    0.03   1
  -6  -2   2    0.33    0.02   1
  -6   2  -2    0.33    0.03   1
  -2  -6  -2    0.34    0.04   1
  -2  -6   2    0.32    0.04   1
  -2  -2  -6    0.32    0.03   1
  -2  -2   6    0.33    0.03   1
  -2  -2   6    0.29    0.03   1
  -2   2  -6    0.35    0.04   1
  -2   2   6    0.27    0.03   1
  -2   6  -2    0.30    0.03   1
  -2   6   2    0.33    0.03   1
   2  -6  -2    0.38    0.03   1
   2  -6   2    0.33    0.04   1
   2  -2  -6    0.32    0.03   1
   2  -2   6    0.23    0.03   1
   2   2   6    0.22    0.03   1
   2   6  -2    0.30    0.03   1
   2   6   2    0.32    0.04   1
   6  -2   2    0.28    0.03   1
   6   2  -2    0.33    0.03   1
   6   2   2    0.42    0.04   1
  -6  -2  -4    0.80    0.05   1
  -6  -2   4    1.00    0.03   1
  -6   2  -4    0.98    0.04   1
  -4  -6  -2    0.99    0.05   1
  -4  -6   2    0.97    0.05   1
  -4   6  -2    0.92    0.04   1
  -4   6   2    1.02    0.04   1
  -2  -4  -6    0.92    0.05   1
  -2  -4   6    0.98    0.04   1
  -2   4   6    0.95    0.04   1
   2  -4  -6    0.95    0.04   1
   2  -4   6    0.87    0.05   1
   2  -4   6    0.93    0.05   1
   2   4  -6    0.76    0.07   1
   2   4   6    0.89    0.05   1
   4  -6  -2    0.97    0.04   1
   4  -6   2    0.98    0.04   1
   4   6   2    1.02    0.05   1
   6  -2   4    0.91    0.04   1
   6   2  -4    0.93    0.03   1
  -6  -4   0    0.86    0.04   1
  -6   4   0    0.81    0.03   1
  -4   0  -6    0.68    0.05   1
  -4   0   6    0.83    0.03   1
  -4   0   6    0.79    0.03   1
   0  -6  -4    0.92    0.05   1
   0  -6   4    0.85    0.05   1
   0   6  -4    0.87    0.05   1
   0   6   4    0.86    0.05   1
   4   0   6    0.70    0.06   1
   6  -4   0    0.85    0.03   1
   6   4   0    0.85    0.04   1
  -6  -4  -2    1.07    0.05   1
  -6  -4   2    1.00    0.04   1
  -6   4   2    0.95    0.02   1
  -4  -2  -6    0.79    0.05   1
  -4  -2   6    0.91    0.04   1
  -4   2  -6    0.86    0.05   1
  -4   2   6    0.93    0.03   1
  -2  -6  -4    1.14    0.06   1
  -2  -6   4    0.96    0.05   1
  -2   6  -4    0.85    0.05   1
  -2   6   4    0.96    0.04   1
   2  -6  -4    1.10    0.04   1
   2  -6   4    0.97    0.05   1
   2   6  -4    1.00    0.05   1
   2   6   4    1.09    0.05   1
   4  -2  -6    0.94    0.03   1
   4  -2   6    0.85    0.05   1
   4   2  -6    0.90    0.04   1
   4   2   6    0.81    0.05   1
   6  -4  -2    0.98    0.03   1
   6  -4   2    0.95    0.04   1
   6  -4   2    0.92    0.04   1
   6   4  -2    0.94    0.04   1
   6   4   2    0.93    0.05   1
  -6  -4  -4    1.27    0.05   1
  -6  -4   4    1.08    0.04   1
  -6   4   4    1.16    0.03   1
  -4  -6  -4    1.15    0.05   1
  -4  -6   4    1.19    0.05   1
  -4  -4  -6    1.15    0.05   1
  -4  -4   6    1.21    0.04   1
  -4   4   6    1.19    0.04   1
  -4   6  -4    1.17    0.05   1
  -4   6   4    1.22    0.04   1
   4  -6  -4    1.17    0.04   1
   4  -6   4    1.12    0.05   1
   4  -4  -6    1.13    0.04   1
   4  -4   6    1.07    0.05   1
   4  -4   6    1.12    0.05   1
   4   4  -6    1.05    0.05   1
   4   4   6    1.07    0.05   1
   4   6  -4    1.15    0.05   1
   4   6   4    1.13    0.05   1
   6  -4  -4    1.16    0.03   1
   6  -4   4    1.17    0.05   1
   6   4  -4    1.13    0.04   1
   6   4   4    1.17    0.05   1
  -6  -6   0    0.91    0.05   1
  -6   0  -6    0.83    0.05   1
  -6   0   6    0.88    0.03   1
  -6   0   6    0.90    0.03   1
  -6   6   0    0.94    0.04   1
   0  -6  -6    0.89    0.05   1
   0  -6   6    1.01    0.05   1
   0   6  -6    0.90    0.05   1
   0   6   6    0.94    0.05   1
   6  -6   0    0.91    0.04   1
   6   0   6    0.92    0.05   1
   6   6   0    0.89    0.05   1
  -6  -6  -2    3.90    0.08   1
  -6  -6   2    4.01    0.07   1
  -6  -2  -6    3.83    0.08   1
  -6  -2   6    3.87    0.06   1
  -6   2  -6    3.82    0.08   1
  -6   2   6    3.84    0.04   1
  -6   6  -2    3.91    0.07   1
  -6   6   2    3.83    0.06   1
  -2  -6  -6    3.88    0.08   1
  -2  -6   6    3.98    0.08   1
  -2   6  -6    3.73    0.08   1
  -2   6   6    3.28    0.08   1
   2  -6  -6    3.86    0.07   1
   2  -6   6    3.68    0.08   1
   2   6  -6    3.87    0.08   1
   2   6   6    3.82    0.08   1
   6  -6  -2    3.93    0.06   1
   6  -6   2    3.95    0.07   1
   6  -2  -6    3.64    0.04   1
   6  -2   6    3.93    0.08   1
   6   2  -6    3.72    0.06   1
   6   2   6    3.99    0.08   1
   6   6  -2    3.64    0.07   1
   6   6   2    3.81    0.08   1
  -6  -6  -4    3.59    0.08   1
  -6  -6   4    3.64    0.07   1
  -6  -4  -6    3.61    0.08   1
  -6  -4   6    3.54    0.07   1
  -6   4   6    3.54    0.05   1
  -6   6   4    3.60    0.05   1
  -4  -6  -6    3.63    0.08   1
  -4  -6   6    3.61    0.07   1
  -4   6   6    3.67    0.06   1
   4  -6  -6    3.54    0.06   1
   4  -6   6    3.66    0.08   1
   4   6  -6    3.52    0.08   1
   4   6   6    3.64    0.08   1
   6  -6  -4    3.56    0.05   1
   6  -6   4    3.62    0.07   1
   6  -4  -6    3.46    0.05   1
   6  -4   6    3.36    0.08   1
   6   4  -6    3.45    0.07   1
   6   4   6    3.52    0.08   1
   6   6  -4    3.47    0.07   1
   6   6   4    3.60    0.08   1
  -6  -6   6    8.66    0.11   1
  -6   6   6    8.28    0.08   1
   6  -6  -6    8.10    0.08   1
   6  -6   6    8.14    0.12   1
   6  -6   6    8.14    0.12   1
   6   6  -6    8.19    0.11   1
   6   6   6    8.38    0.13   1
  -7  -1  -1    3.17    0.05   1
  -7  -1   1    3.20    0.05   1
  -7   1  -1    3.03    0.05   1
  -7   1   1    3.10    0.04   1
  -1  -7  -1    3.22    0.07   1
  -1  -7   1    3.20    0.07   1
  -1  -1  -7    3.09    0.07   1
  -1  -1   7    3.07    0.06   1
  -1   1  -7    3.04    0.07   1
  -1   1   7    2.96    0.06   1
  -1   7   1    3.22    0.07   1
   1  -7  -1    3.26    0.07   1
   1  -7   1    3.24    0.07   1
   1  -1  -7    3.07    0.06   1
   1   1  -7    3.07    0.07   1
   1   7  -1    3.07    0.08   1
   1   7   1    2.95    0.08   1
   7  -1  -1    3.14    0.04   1
   7  -1   1    3.01    0.05   1
   7   1  -1    3.08    0.05   1
   7   1   1    3.09    0.06   1
  -7  -1  -3    0.11    0.02   1
  -7  -1   3    0.12    0.01   1
  -7   1  -3    0.09    0.02   1
  -3  -7  -1    0.14    0.03   1
  -3  -7   1    0.15    0.03   1
  -3   7  -1    0.14    0.03   1
  -3   7   1    0.14    0.02   1
  -1  -3  -7    0.09    0.02   1
  -1  -3   7    0.13    0.02   1
  -1  -3   7    0.11    0.03   1
  -1   3   7    0.15    0.02   1
   1  -3  -7    0.12    0.02   1
   1  -3   7    0.10    0.02   1
   1  -3   7    0.12    0.03   1
   1   3   7    0.12    0.03   1
   3  -7  -1    0.19    0.02   1
   3  -7   1    0.12    0.02   1
   3   7  -1    0.16    0.03   1
   3   7   1    0.14    0.03   1
   7  -1   3    0.13    0.02   1
   7   1  -3    0.13    0.01   1
   7   1   3    0.11    0.02   1
  -7  -1  -5    0.36    0.04   1
  -7  -1   5    0.44    0.02   1
  -7   1  -5    0.45    0.04   1
  -7   1   5    0.42    0.02   1
  -7   1   5    0.45    0.02   1
  -5  -7  -1    0.44    0.04   1
  -5  -7   1    0.49    0.04   1
  -5   7  -1    0.35    0.03   1
  -5   7   1    0.38    0.03   1
  -1  -5  -7    0.41    0.04   1
  -1  -5   7    0.47    0.04   1
  -1   5  -7    0.35    0.04   1
  -1   5   7    0.40    0.04   1
   1  -5  -7    0.44    0.04   1
   1  -5   7    0.45    0.04   1
   1   5  -7    0.42    0.04   1
   1   5   7    0.40    0.04   1
   5  -7  -1    0.42    0.03   1
   5  -7   1    0.39    0.04   1
   5   7  -1    0.42    0.04   1
   5   7   1    0.47    0.04   1
   7  -1   5    0.40    0.04   1
   7   1  -5    0.39    0.02   1
   7   1   5    0.40    0.04   1
  -7  -3  -1    0.17    0.02   1
  -7  -3   1    0.16    0.02   1
  -3  -1  -7    0.09    0.02   1
  -3  -1   7    0.13    0.02   1
  -3  -1   7    0.13    0.02   1
  -3   1  -7    0.09    0.02   1
  -3   1   7    0.14    0.02   1
  -1  -7  -3    0.17    0.03   1
  -1  -7   3    0.12    0.03   1
  -1   7  -3    0.08    0.02   1
  -1   7   3    0.18    0.03   1
   1  -7  -3    0.14    0.03   1
   1  -7   3    0.13    0.03   1
   1   7  -3    0.13    0.03   1
   1   7   3    0.13    0.03   1
   3  -1  -7    0.14    0.02   1
   3  -1   7    0.14    0.03   1
   3   1   7    0.14    0.03   1
   7  -3  -1    0.16    0.01   1
   7  -3  -1    0.16    0.01   1
   7  -3   1    0.15    0.02   1
   7  -3   1    0.13    0.02   1
   7   3  -1    0.12    0.02   1
   7   3   1    0.17    0.02   1
  -7  -3  -3    0.21    0.03   1
  -7  -3   3    0.14    0.02   1
  -7   3  -3    0.17    0.02   1
  -3  -7  -3    0.19    0.03   1
  -3  -7   3    0.14    0.03   1
  -3  -3  -7    0.13    0.03   1
  -3  -3   7    0.17    0.02   1
  -3   3  -7    0.12    0.03   1
  -3   3   7    0.15    0.02   1
  -3   7  -3    0.13    0.02   1
  -3   7   3    0.18    0.02   1
   3  -7  -3    0.23    0.03   1
   3  -7   3    0.13    0.03   1
   3  -3  -7    0.15    0.02   1
   3  -3   7    0.14    0.03   1
   3   3  -7    0.16    0.03   1
   3   3   7    0.15    0.03   1
   3   7  -3    0.14    0.03   1
   3   7   3    0.13    0.03   1
   7  -3   3    0.14    0.02   1
   7   3  -3    0.16    0.02   1
   7   3   3    0.18    0.04   1
  -7  -3  -5    1.42    0.06   1
  -7  -3   5    1.35    0.04   1
  -7   3  -5    1.35    0.05   1
  -7   3   5    1.41    0.02   1
  -5  -7  -3    1.44    0.06   1
  -5  -7   3    1.50    0.06   1
  -5   7  -3    1.37    0.05   1
  -5   7   3    1.46    0.04   1
  -3  -5  -7    1.37    0.06   1
  -3  -5   7    1.49    0.05   1
  -3   5   7    1.40    0.05   1
   3  -5  -7    1.43    0.05   1
   3  -5   7    1.42    0.06   1
   3  -5   7    1.40    0.06   1
   3   5  -7    1.37    0.05   1
   3   5   7    1.37    0.06   1
   5  -7  -3    1.50    0.04   1
   5  -7   3    1.54    0.05   1
   5   7  -3    1.39    0.06   1
   5   7   3    1.43    0.06   1
   7  -3  -5    1.36    0.02   1
   7  -3   5    1.38    0.05   1
   7   3  -5    1.34    0.04   1
   7   3   5    1.36    0.06   1
  -7  -5  -1    0.42    0.04   1
  -7  -5   1    0.47    0.04   1
  -7   5   1    0.45    0.02   1
  -5  -1  -7    0.48    0.04   1
  -5  -1   7    0.40    0.03   1
  -5  -1   7    0.41    0.03   1
  -5   1  -7    0.40    0.04   1
  -5   1   7    0.46    0.03   1
  -1  -7  -5    0.47    0.04   1
  -1  -7   5    0.41    0.04   1
  -1   7  -5    0.39    0.04   1
  -1   7   5    0.44    0.04   1
   1  -7  -5    0.41    0.04   1
   1  -7   5    0.43    0.04   1
   1   7  -5    0.42    0.04   1
   1   7   5    0.45    0.04   1
   5  -1  -7    0.43    0.03   1
   5  -1   7    0.37    0.04   1
   5   1   7    0.41    0.04   1
   7  -5  -1    0.35    0.03   1
   7  -5   1    0.45    0.03   1
   7   5   1    0.43    0.04   1
  -7  -5  -3    1.44    0.06   1
  -7  -5   3    1.37    0.05   1
  -7   5   3    1.37    0.03   1
  -5  -3  -7    1.40    0.06   1
  -5  -3   7    1.43    0.05   1
  -5   3  -7    1.43    0.06   1
  -5   3   7    1.42    0.04   1
  -3  -7  -5    1.46    0.06   1
  -3  -7   5    1.42    0.05   1
  -3   7  -5    1.48    0.06   1
  -3   7   5    1.44    0.05   1
   3  -7  -5    1.41    0.05   1
   3  -7   5    1.37    0.06   1
   3   7  -5    1.34    0.05   1
   3   7   5    1.49    0.06   1
   5  -3  -7    1.35    0.04   1
   5  -3   7    1.40    0.06   1
   5   3  -7    1.40    0.05   1
   5   3   7    1.36    0.06   1
   7  -5  -3    1.45    0.03   1
   7  -5   3    1.38    0.05   1
   7   5  -3    1.21    0.06   1
   7   5   3    1.40    0.06   1
  -7  -5  -5    2.65    0.07   1
  -7  -5   5    2.68    0.06   1
  -7   5   5    2.71    0.04   1
  -5  -7  -5    2.26    0.07   1
  -5  -7   5    2.70    0.07   1
  -5  -5  -7    2.43    0.08   1
  -5  -5   7    2.75    0.06   1
  -5   5   7    2.69    0.05   1
  -5   7  -5    2.81    0.07   1
  -5   7   5    2.70    0.05   1
   5  -7  -5    2.70    0.06   1
   5  -7   5    2.74    0.07   1
   5  -5  -7    2.65    0.05   1
   5  -5   7    2.65    0.07   1
   5  -5   7    2.51    0.07   1
   5   5  -7    2.62    0.07   1
   5   5   7    2.67    0.08   1
   5   7  -5    2.54    0.07   1
   5   7   5    2.75    0.08   1
   7  -5  -5    2.65    0.04   1
   7  -5   5    2.63    0.07   1
   7  -5   5    2.64    0.07   1
   7   5  -5    2.72    0.07   1
   7   5   5    2.65    0.07   1
  -7  -7  -1    0.42    0.04   1
  -7  -7   1    0.42    0.04   1
  -7  -1  -7    0.40    0.04   1
  -7  -1   7    0.42    0.03   1
  -7  -1   7    0.34    0.02   1
  -7   1  -7    0.40    0.04   1
  -7   1   7    0.41    0.02   1
  -7   1   7    0.37    0.02   1
  -7   7  -1    0.36    0.04   1
  -7   7   1    0.40    0.03   1
  -1  -7  -7    0.38    0.04   1
  -1  -7   7    0.42    0.04   1
  -1   7  -7    0.41    0.04   1
  -1   7   7    0.35    0.04   1
   1  -7  -7    0.35    0.04   1
   1  -7   7    0.36    0.04   1
   1   7  -7    0.44    0.04   1
   1   7   7    0.43    0.04   1
   7  -7  -1    0.37    0.03   1
   7  -7   1    0.44    0.04   1
   7  -1   7    0.44    0.04   1
   7   1   7    0.38    0.04   1
   7   7  -1    0.40    0.04   1
   7   7   1    0.38    0.04   1
  -7  -7  -3    1.28    0.06   1
  -7  -7   3    1.36    0.05   1
  -7  -3  -7    1.20    0.07   1
  -7  -3   7    1.26    0.04   1
  -7   3  -7    1.39    0.06   1
  -7   3   7    1.32    0.03   1
  -7   7  -3    1.31    0.05   1
  -7   7   3    1.37    0.04   1
  -3  -7   7    1.27    0.06   1
  -3   7  -7    1.22    0.06   1
  -3   7   7    1.38    0.05   1
   3  -7  -7    1.37    0.05   1
   3   7  -7    1.33    0.06   1
   3   7   7    1.39    0.06   1
   7  -7  -3    1.38    0.04   1
   7  -7   3    1.39    0.05   1
   7  -3  -7    1.27    0.03   1
   7  -3   7    1.36    0.06   1
   7   3  -7    1.25    0.04   1
   7   3   7    1.25    0.06   1
   7   7  -3    1.30    0.05   1
   7   7   3    1.30    0.06   1
  -7  -7  -5    5.59    0.11   1
  -7  -7   5    5.68    0.10   1
  -7  -5  -7    5.83    0.11   1
  -7  -5   7    5.95    0.09   1
  -7   5   7    5.93    0.06   1
  -7   7   5    5.79    0.07   1
  -5  -7  -7    5.72    0.11   1
  -5  -7   7    5.88    0.10   1
  -5   7   7    5.74    0.08   1
   5  -7  -7    5.66    0.08   1
   5  -7   7    5.55    0.10   1
   5  -7   7    5.53    0.10   1
   5   7  -7    5.49    0.10   1
   5   7   7    5.96    0.11   1
   7  -7  -5    5.71    0.07   1
   7  -7   5    5.76    0.10   1
   7  -7   5    5.46    0.10   1
   7  -5  -7    5.66    0.06   1
   7  -5   7    5.56    0.10   1
   7   5  -7    5.81    0.09   1
   7   5   7    5.73    0.11   1
   7   7  -5    5.90    0.10   1
   7   7   5    5.80    0.11   1
  -7  -7  -7    9.73    0.14   1
  -7  -7   7   10.06    0.13   1
  -7   7   7    9.97    0.10   1
   7  -7  -7    9.67    0.10   1
   7  -7   7    9.92    0.14   1
   7  -7   7    9.83    0.14   1
   7   7  -7    9.93    0.13   1
   7   7   7   10.19    0.15   1
  -8   0   0   19.61    0.11   1
   0  -8   0   20.76    0.16   1
   0   0   8   20.00    0.16   1
   0   8   0   20.71    0.17   1
   8   0   0   19.65    0.11   1
  -8   0  -2    0.34    0.03   1
  -8   0   2    0.34    0.02   1
  -2  -8   0    0.34    0.04   1
  -2   8   0    0.31    0.04   1
   0  -2  -8    0.37    0.04   1
   0  -2   8    0.26    0.03   1
   0   2  -8    0.25    0.03   1
   0   2   8    0.24    0.03   1
   2  -8   0    0.36    0.04   1
   2   8   0    0.25    0.03   1
   8   0  -2    0.31    0.02   1
   8   0   2    0.28    0.03   1
  -8   0  -4    0.10    0.02   1
  -8   0   4    0.12    0.01   1
  -4  -8   0    0.13    0.03   1
  -4   8   0    0.12    0.02   1
   0  -4  -8    0.14    0.03   1
   0  -4   8    0.18    0.03   1
   0  -4   8    0.14    0.03   1
   0   4   8    0.12    0.03   1
   4  -8   0    0.18    0.03   1
   4   8   0    0.17    0.03   1
   8   0  -4    0.13    0.01   1
   8   0   4    0.16    0.03   1
  -8   0  -6   -0.02    0.02   1
  -8   0   6    0.00    0.01   1
  -8   0   6    0.00    0.01   1
  -6  -8   0    0.00    0.02   1
   0  -6  -8    0.01    0.02   1
   0  -6   8    0.00    0.02   1
   0   6  -8    0.02    0.02   1
   0   6   8    0.00    0.02   1
   6  -8   0   -0.01    0.02   1
   6   8   0    0.02    0.02   1
   8   0   6   -0.02    0.02   1
  -8  -2   0    0.28    0.03   1
  -8   2   0    0.26    0.02   1
  -2   0  -8    0.24    0.03   1
  -2   0   8    0.29    0.03   1
   0  -8  -2    0.29    0.03   1
   0  -8   2    0.26    0.03   1
   0   8  -2    0.36    0.04   1
   0   8   2    0.37    0.04   1
   2   0  -8    0.27    0.03   1
   2   0   8    0.29    0.03   1
   8  -2   0    0.30    0.02   1
   8   2   0    0.32    0.03   1
  -8  -2  -2    0.99    0.04   1
  -8  -2   2    0.99    0.03   1
  -8   2  -2    0.94    0.04   1
  -2  -8  -2    0.95    0.05   1
  -2  -8   2    0.96    0.05   1
  -2  -2  -8    1.01    0.05   1
  -2  -2   8    0.99    0.04   1
  -2  -2   8    0.96    0.04   1
  -2   2  -8    0.89    0.05   1
  -2   2   8    0.88    0.04   1
  -2   8  -2    0.89    0.05   1
  -2   8   2    0.95    0.05   1
   2  -8  -2    0.90    0.04   1
   2  -8   2    0.94    0.05   1
   2  -2  -8    0.95    0.04   1
   2  -2   8    0.92    0.05   1
   2   2   8    0.93    0.05   1
   2   8  -2    0.87    0.05   1
   2   8   2    0.99    0.05   1
   8  -2  -2    0.91    0.02   1
   8  -2  -2    0.92    0.02   1
   8  -2   2    0.92    0.04   1
   8   2  -2    0.95    0.03   1
   8   2   2    0.91    0.04   1
  -8  -2  -4    0.29    0.04   1
  -8  -2   4    0.26    0.02   1
  -8   2  -4    0.29    0.03   1
  -4  -8  -2    0.38    0.04   1
  -4  -8   2    0.25    0.03   1
  -4   8  -2    0.28    0.03   1
  -2  -4  -8    0.35    0.04   1
  -2  -4   8    0.34    0.04   1
   2  -4  -8    0.32    0.04   1
   2  -4   8    0.31    0.04   1
   2  -4   8    0.34    0.04   1
   2   4  -8    0.31    0.03   1
   2   4   8    0.34    0.04   1
   4  -8  -2    0.28    0.03   1
   4  -8   2    0.42    0.04   1
   4   8  -2    0.39    0.04   1
   4   8   2    0.22    0.03   1
   8  -2   4    0.27    0.03   1
   8   2  -4    0.29    0.02   1
   8   2   4    0.31    0.04   1
  -8  -2  -6    0.36    0.04   1
  -8  -2   6    0.33    0.03   1
  -8   2  -6    0.33    0.04   1
  -8   2   6    0.37    0.01   1
  -6  -8  -2    0.37    0.04   1
  -6  -8   2    0.28    0.03   1
  -6   8  -2    0.34    0.04   1
  -6   8   2    0.32    0.03   1
  -2  -6  -8    0.40    0.04   1
  -2  -6   8    0.35    0.04   1
  -2   6   8    0.31    0.03   1
   2  -6  -8    0.34    0.04   1
   2   6  -8    0.34    0.04   1
   2   6   8    0.38    0.05   1
   6  -8  -2    0.35    0.03   1
   6  -8   2    0.33    0.04   1
   6   8  -2    0.25    0.03   1
   6   8   2    0.30    0.03   1
   8  -2   6    0.30    0.04   1
   8   2  -6    0.29    0.03   1
   8   2   6    0.39    0.04   1
  -8  -4   0    0.13    0.02   1
  -4   0  -8    0.15    0.03   1
  -4   0   8    0.13    0.02   1
   0  -8  -4    0.13    0.03   1
   0  -8   4    0.17    0.03   1
   0   8  -4    0.20    0.03   1
   0   8   4    0.14    0.03   1
   4   0  -8    0.16    0.02   1
   4   0   8    0.16    0.03   1
   8  -4   0    0.18    0.02   1
   8  -4   0    0.16    0.02   1
   8   4   0    0.14    0.02   1
  -8  -4  -2    0.34    0.04   1
  -8  -4   2    0.38    0.03   1
  -4  -2  -8    0.29    0.03   1
  -4  -2   8    0.34    0.03   1
  -4  -2   8    0.29    0.03   1
  -4   2  -8    0.29    0.03   1
  -4   2   8    0.28    0.03   1
  -2  -8  -4    0.35    0.04   1
  -2  -8   4    0.34    0.04   1
  -2   8  -4    0.36    0.04   1
  -2   8   4    0.31    0.04   1
   2  -8  -4    0.30    0.04   1
   2  -8   4    0.24    0.03   1
   2   8  -4    0.24    0.03   1
   2   8   4    0.25    0.03   1
   4  -2  -8    0.31    0.03   1
   4  -2   8    0.31    0.03   1
   4   2   8    0.27    0.03   1
   8  -4  -2    0.33    0.02   1
   8  -4  -2    0.29    0.02   1
   8  -4   2    0.25    0.03   1
   8  -4   2    0.26    0.03   1
   8   4  -2    0.33    0.03   1
   8   4   2    0.34    0.04   1
  -8  -4  -4    0.24    0.03   1
  -8  -4   4    0.18    0.02   1
  -4  -8  -4    0.16    0.03   1
  -4  -8   4    0.18    0.03   1
  -4  -4  -8    0.14    0.03   1
  -4  -4   8    0.18    0.02   1
  -4   4   8    0.15    0.02   1
  -4   8  -4    0.20    0.03   1
   4  -8  -4    0.16    0.02   1
   4  -8   4    0.17    0.03   1
   4  -4  -8    0.18    0.02   1
   4  -4   8    0.16    0.03   1
   4  -4   8    0.16    0.03   1
   4   4  -8    0.12    0.03   1
   4   4   8    0.15    0.03   1
   4   8  -4    0.15    0.03   1
   4   8   4    0.16    0.03   1
   8  -4   4    0.20    0.03   1
   8   4  -4    0.17    0.02   1
   8   4   4    0.17    0.03   1
  -8  -4   6    1.54    0.05   1
  -8   4  -6    1.41    0.06   1
  -8   4   6    1.49    0.03   1
  -6  -8  -4    1.37    0.06   1
  -6  -8   4    1.45    0.06   1
  -6   8  -4    1.52    0.06   1
  -6   8   4    1.51    0.05   1
  -4  -6  -8    1.49    0.06   1
  -4  -6   8    1.51    0.06   1
   4  -6  -8    1.41    0.05   1
   4  -6   8    1.41    0.06   1
   4  -6   8    1.37    0.06   1
   4   6  -8    1.39    0.06   1
   4   6   8    1.38    0.06   1
   6  -8  -4    1.45    0.05   1
   6  -8   4    1.52    0.06   1
   6   8  -4    1.52    0.06   1
   6   8   4    1.43    0.06   1
   8  -4  -6    1.42    0.03   1
   8  -4   6    1.42    0.06   1
   8   4  -6    1.29    0.05   1
   8   4   6    1.42    0.06   1
  -8  -6   0    0.01    0.02   1
  -8   6   0    0.02    0.01   1
  -6   0  -8    0.02    0.02   1
  -6   0   8    0.01    0.01   1
  -6   0   8    0.03    0.01   1
   0  -8  -6    0.02    0.02   1
   0  -8   6    0.02    0.03   1
   0   8  -6    0.03    0.02   1
   0   8   6    0.00    0.02   1
   6   0   8    0.01    0.02   1
   8  -6   0   -0.01    0.01   1
   8   6   0   -0.03    0.02   1
  -8  -6  -2    0.37    0.04   1
  -8  -6   2    0.42    0.04   1
  -8   6   2    0.36    0.02   1
  -6  -2   8    0.34    0.03   1
  -6  -2   8    0.29    0.03   1
  -6   2  -8    0.27    0.03   1
  -6   2   8    0.37    0.02   1
  -2  -8  -6    0.31    0.04   1
  -2  -8   6    0.32    0.04   1
  -2   8  -6    0.38    0.05   1
  -2   8   6    0.32    0.04   1
   2  -8  -6    0.29    0.03   1
   2   8  -6    0.30    0.03   1
   2   8   6    0.26    0.03   1
   6  -2  -8    0.33    0.03   1
   6  -2   8    0.32    0.03   1
   6   2   8    0.32    0.04   1
   8  -6  -2    0.32    0.03   1
   8  -6   2    0.38    0.04   1
   8   6  -2    0.34    0.04   1
   8   6   2    0.31    0.04   1
  -8  -6  -4    1.32    0.07   1
  -8  -6   4    1.49    0.05   1
  -8   6   4    1.48    0.03   1
  -6  -4  -8    1.41    0.06   1
  -6  -4   8    1.42    0.05   1
  -6   4  -8    1.26    0.07   1
  -6   4   8    1.31    0.04   1
  -4  -8  -6    1.38    0.06   1
  -4  -8   6    1.38    0.07   1
  -4   8  -6    1.50    0.06   1
  -4   8   6    1.54    0.05   1
   4  -8  -6    1.50    0.05   1
   4  -8   6    1.29    0.07   1
   4   8  -6    1.52    0.06   1
   4   8   6    1.52    0.07   1
   6  -4  -8    1.42    0.04   1
   6  -4   8    1.42    0.06   1
   6   4  -8    1.40    0.05   1
   6   4   8    1.46    0.06   1
   8  -6  -4    1.48    0.03   1
   8  -6   4    1.40    0.05   1
   8  -6   4    1.36    0.05   1
   8   6  -4    1.53    0.06   1
   8   6   4    1.54    0.06   1
  -8  -6  -6    5.64    0.11   1
  -8  -6   6    5.80    0.09   1
  -8   6   6    5.78    0.06   1
  -6  -8  -6    5.87    0.11   1
  -6  -6  -8    5.63    0.11   1
  -6  -6   8    5.83    0.10   1
  -6   6   8    5.78    0.08   1
  -6   8  -6    5.88    0.11   1
  -6   8   6    5.51    0.08   1
   6  -8  -6    5.76    0.08   1
   6  -8   6    5.77    0.11   1
   6  -6  -8    5.57    0.08   1
   6  -6   8    5.79    0.11   1
   6  -6   8    5.83    0.11   1
   6   6  -8    5.64    0.10   1
   6   6   8    5.90    0.11   1
   6   8  -6    5.49    0.10   1
   6   8   6    6.00    0.11   1
   8  -6  -6    5.75    0.06   1
   8  -6   6    5.51    0.10   1
   8   6  -6    5.62    0.09   1
   8   6   6    5.72    0.11   1
  -8   0  -8    1.20    0.06   1
  -8   0   8    1.18    0.04   1
  -8   0   8    1.15    0.03   1
   0  -8   8    1.08    0.06   1
   0   8  -8    1.15    0.06   1
   0   8   8    1.22    0.06   1
   8  -8   0    1.23    0.05   1
   8   0   8    1.14    0.06   1
   8   8   0    1.11    0.06   1
  -8  -8  -2    0.01    0.03   1
  -8  -8   2    0.04    0.02   1
  -8  -2  -8    0.01    0.03   1
  -8  -2   8    0.01    0.02   1
  -8   2  -8    0.00    0.02   1
  -8   2   8    0.02    0.01   1
  -8   2   8    0.05    0.01   1
  -8   8  -2    0.03    0.02   1
  -8   8   2    0.00    0.01   1
  -2  -8  -8    0.01    0.03   1
  -2  -8   8    0.06    0.03   1
  -2   8  -8    0.01    0.03   1
  -2   8   8    0.02    0.02   1
   2  -8  -8    0.05    0.02   1
   2  -8   8    0.04    0.03   1
   2   8  -8    0.01    0.02   1
   2   8   8    0.05    0.03   1
   8  -8  -2    0.02    0.02   1
   8  -8   2    0.01    0.02   1
   8  -2   8    0.00    0.02   1
   8   2  -8    0.01    0.02   1
   8   2   8   -0.02    0.03   1
   8   8  -2    0.01    0.02   1
   8   8   2    0.02    0.03   1
  -8  -8  -4    1.10    0.06   1
  -8  -8   4    1.06    0.06   1
  -8  -4  -8    1.00    0.06   1
  -8  -4   8    1.08    0.05   1
  -8   4  -8    1.13    0.06   1
  -8   4   8    1.09    0.03   1
  -8   8  -4    1.08    0.05   1
  -8   8   4    1.09    0.04   1
  -4  -8  -8    1.04    0.06   1
  -4  -8   8    1.06    0.06   1
  -4   8  -8    1.11    0.06   1
  -4   8   8    1.18    0.05   1
   4  -8  -8    1.12    0.05   1
   4  -8   8    1.06    0.06   1
   4   8  -8    1.08    0.06   1
   4   8   8    1.12    0.06   1
   8  -8  -4    1.07    0.04   1
   8  -8   4    1.10    0.06   1
   8  -4  -8    1.10    0.03   1
   8  -4   8    1.11    0.06   1
   8   4  -8    1.19    0.05   1
   8   4   8    1.15    0.06   1
   8   8  -4    1.04    0.05   1
   8   8   4    1.10    0.06   1
  -8  -8  -6    4.44    0.11   1
  -8  -8   6    3.87    0.10   1
  -8  -6  -8    4.34    0.11   1
  -8  -6   8    4.66    0.09   1
  -8   6   8    4.51    0.06   1
  -8   8   6    4.52    0.07   1
  -6  -8  -8    4.19    0.10   1
  -6  -8   8    4.51    0.10   1
  -6   8   8    4.61    0.08   1
   6  -8  -8    4.39    0.08   1
   6  -8   8    4.41    0.10   1
   6  -8   8    4.26    0.10   1
   6   8  -8    4.43    0.10   1
   6   8   8    4.45    0.11   1
   8  -8  -6    4.37    0.07   1
   8  -8   6    4.37    0.10   1
   8  -8   6    4.28    0.10   1
   8  -6  -8    4.30    0.06   1
   8  -6   8    4.42    0.10   1
   8  -6   8    4.20    0.10   1
   8   6  -8    4.34    0.09   1
   8   6   8    4.37    0.11   1
   8   8  -6    4.59    0.09   1
   8   8   6    4.45    0.11   1
  -8  -8  -8    2.60    0.09   1
  -8  -8   8    2.65    0.08   1
  -8   8   8    2.77    0.06   1
   8  -8  -8    2.63    0.06   1
   8  -8   8    2.69    0.09   1
   8  -8   8    2.63    0.08   1
   8   8  -8    2.57    0.08   1
   8   8   8    2.74    0.09   1
  -9  -1  -1    5.82    0.08   1
  -9  -1   1    5.92    0.07   1
  -9   1  -1    5.80    0.07   1
  -9   1   1    5.68    0.05   1
  -1  -9  -1    5.74    0.10   1
  -1  -9   1    6.04    0.10   1
  -1  -1  -9    5.77    0.10   1
  -1  -1   9    5.70    0.09   1
  -1   1  -9    5.89    0.10   1
  -1   1   9    5.77    0.09   1
  -1   9  -1    5.92    0.10   1
  -1   9   1    6.04    0.10   1
   1  -9  -1    5.91    0.10   1
   1  -9   1    6.03    0.10   1
   1  -1  -9    5.81    0.09   1
   1  -1   9    5.88    0.10   1
   1   1  -9    5.72    0.09   1
   1   1   9    5.88    0.10   1
   1   9  -1    6.15    0.10   1
   1   9   1    5.94    0.10   1
   9  -1  -1    5.75    0.06   1
   9  -1   1    5.87    0.07   1
   9   1  -1    5.77    0.07   1
   9   1   1    5.66    0.08   1
  -9  -1  -3    0.04    0.02   1
  -9  -1   3    0.08    0.01   1
  -9   1  -3    0.04    0.02   1
  -3  -9  -1    0.05    0.02   1
  -3  -9   1    0.05    0.02   1
  -3   9  -1    0.07    0.03   1
  -3   9   1    0.02    0.02   1
  -1  -3  -9    0.05    0.03   1
  -1  -3   9    0.04    0.02   1
  -1  -3   9    0.04    0.02   1
  -1   3   9    0.03    0.02   1
   1  -3  -9    0.03    0.02   1
   1  -3   9    0.06    0.03   1
   1   3   9    0.03    0.02   1
   3  -9  -1    0.05    0.02   1
   3  -9   1    0.04    0.02   1
   3   9  -1    0.10    0.03   1
   3   9   1    0.06    0.03   1
   9  -1   3    0.03    0.02   1
   9   1  -3    0.04    0.01   1
   9   1   3    0.03    0.02   1
  -9  -1  -5    0.13    0.02   1
  -9  -1   5    0.05    0.01   1
  -9   1  -5    0.05    0.02   1
  -5  -9   1    0.08    0.03   1
  -5   9  -1    0.08    0.02   1
  -5   9   1    0.08    0.02   1
  -1  -5  -9    0.08    0.03   1
  -1  -5   9    0.08    0.02   1
  -1   5   9    0.07    0.02   1
   1  -5  -9    0.06    0.02   1
   1  -5   9    0.02    0.02   1
   1   5   9    0.02    0.02   1
   5  -9  -1    0.08    0.02   1
   5  -9   1    0.07    0.02   1
   5   9  -1    0.04    0.02   1
   5   9   1    0.05    0.03   1
   9  -1   5    0.02    0.02   1
   9   1  -5    0.07    0.01   1
   9   1   5    0.07    0.02   1
  -9  -1  -7    0.40    0.05   1
  -9  -1   7    0.40    0.03   1
  -9   1   7    0.39    0.02   1
  -9   1   7    0.39    0.02   1
  -7  -9  -1    0.44    0.05   1
  -7  -9   1    0.42    0.05   1
  -7   9  -1    0.44    0.04   1
  -7   9   1    0.44    0.04   1
  -1  -7  -9    0.38    0.05   1
  -1  -7   9    0.43    0.05   1
  -1   7  -9    0.40    0.04   1
  -1   7   9    0.46    0.05   1
   1  -7  -9    0.49    0.05   1
   1  -7   9    0.48    0.05   1
   1   7  -9    0.43    0.05   1
   1   7   9    0.49    0.05   1
   7  -9  -1    0.42    0.04   1
   7  -9   1    0.44    0.04   1
   7   9  -1    0.37    0.04   1
   7   9   1    0.47    0.05   1
   9  -1   7    0.41    0.04   1
   9   1  -7    0.39    0.03   1
   9   1   7    0.32    0.04   1
  -9  -3  -1    0.08    0.02   1
  -9  -3   1    0.09    0.02   1
  -9   3  -1    0.05    0.02   1
  -3  -1  -9    0.00    0.02   1
  -3  -1   9    0.02    0.02   1
  -3   1  -9    0.06    0.03   1
  -1  -9  -3    0.03    0.02   1
  -1  -9   3    0.04    0.03   1
  -1   9  -3    0.05    0.02   1
  -1   9   3    0.06    0.03   1
   1  -9  -3    0.07    0.02   1
   1  -9   3    0.04    0.03   1
   1   9  -3    0.03    0.03   1
   1   9   3    0.05    0.02   1
   3  -1  -9    0.01    0.02   1
   3  -1   9    0.04    0.02   1
   3   1   9    0.03    0.02   1
   9  -3  -1    0.04    0.01   1
   9  -3  -1    0.07    0.01   1
   9  -3   1    0.04    0.02   1
   9   3  -1    0.04    0.02   1
   9   3   1    0.02    0.02   1
  -9  -3  -3    0.05    0.02   1
  -9  -3   3    0.03    0.01   1
  -9   3  -3    0.09    0.02   1
  -3  -9  -3    0.07    0.03   1
  -3  -9   3    0.08    0.03   1
  -3  -3  -9    0.03    0.02   1
  -3  -3   9    0.09    0.02   1
  -3  -3   9    0.03    0.02   1
  -3   3  -9    0.07    0.03   1
  -3   3   9    0.03    0.02   1
  -3   9  -3    0.05    0.02   1
  -3   9   3    0.06    0.02   1
   3  -9  -3    0.05    0.02   1
   3  -9   3    0.01    0.02   1
   3  -3  -9    0.07    0.02   1
   3  -3   9    0.04    0.02   1
   3   3   9    0.05    0.02   1
   3   9  -3    0.08    0.03   1
   3   9   3    0.05    0.03   1
   9  -3   3    0.03    0.02   1
   9   3  -3    0.06    0.02   1
   9   3   3    0.04    0.02   1
  -9  -3  -5    0.16    0.03   1
  -9  -3   5    0.10    0.02   1
  -9   3  -5    0.15    0.03   1
  -5  -9  -3    0.13    0.03   1
  -5   9  -3    0.15    0.03   1
  -5   9   3    0.16    0.03   1
  -3  -5  -9    0.21    0.04   1
  -3  -5   9    0.15    0.03   1
  -3   5   9    0.15    0.02   1
   3  -5  -9    0.16    0.03   1
   3  -5   9    0.12    0.03   1
   3  -5   9    0.17    0.03   1
   3   5  -9    0.15    0.03   1
   3   5   9    0.13    0.03   1
   5  -9  -3    0.15    0.03   1
   5  -9   3    0.11    0.03   1
   5   9  -3    0.11    0.03   1
   5   9   3    0.18    0.03   1
   9  -3   5    0.16    0.03   1
   9   3  -5    0.17    0.02   1
   9   3   5    0.13    0.03   1
  -9  -3  -7    0.00    0.02   1
  -9  -3   7    0.01    0.02   1
  -9   3  -7    0.06    0.03   1
  -9   3   7    0.01    0.01   1
  -7  -9  -3    0.00    0.02   1
  -7  -9   3    0.00    0.02   1
  -7   9  -3   -0.03    0.02   1
  -3  -7  -9    0.00    0.03   1
  -3  -7   9    0.03    0.03   1
  -3   7   9    0.00    0.02   1
   3  -7  -9    0.03    0.02   1
   3  -7   9    0.04    0.03   1
   3  -7   9    0.07    0.03   1
   3   7  -9    0.03    0.02   1
   3   7   9    0.03    0.03   1
   7  -9  -3    0.03    0.02   1
   7  -9   3    0.02    0.02   1
   7   9  -3    0.01    0.02   1
   7   9   3    0.04    0.02   1
   9  -3   7    0.01    0.02   1
   9   3  -7    0.01    0.02   1
   9   3   7   -0.01    0.02   1
  -9  -5  -1    0.13    0.03   1
  -9  -5   1    0.06    0.02   1
  -5  -1  -9    0.07    0.03   1
  -5  -1   9    0.10    0.02   1
  -5   1   9    0.10    0.02   1
  -1  -9  -5    0.07    0.03   1
  -1   9  -5    0.05    0.03   1
  -1   9   5    0.08    0.02   1
   1  -9  -5    0.03    0.02   1
   1   9  -5    0.05    0.02   1
   1   9   5    0.04    0.02   1
   5  -1  -9    0.08    0.02   1
   5  -1   9    0.05    0.02   1
   5   1   9    0.10    0.03   1
   9  -5  -1    0.08    0.02   1
   9  -5  -1    0.09    0.02   1
   9  -5   1    0.04    0.02   1
   9  -5   1    0.07    0.02   1
   9   5  -1    0.08    0.02   1
   9   5   1    0.05    0.02   1
  -9  -5  -3    0.13    0.03   1
  -9  -5   3    0.14    0.02   1
  -9   5   3    0.15    0.02   1
  -5  -3  -9    0.13    0.03   1
  -5  -3   9    0.16    0.02   1
  -5  -3   9    0.16    0.03   1
  -5   3  -9    0.16    0.03   1
  -5   3   9    0.16    0.02   1
  -3  -9  -5    0.15    0.03   1
  -3  -9   5    0.17    0.04   1
  -3   9  -5    0.10    0.03   1
  -3   9   5    0.15    0.03   1
   3  -9  -5    0.17    0.03   1
   3  -9   5    0.15    0.03   1
   3   9  -5    0.16    0.03   1
   3   9   5    0.16    0.03   1
   5  -3  -9    0.14    0.02   1
   5  -3   9    0.14    0.03   1
   5   3   9    0.09    0.03   1
   9  -5  -3    0.16    0.02   1
   9  -5   3    0.21    0.03   1
   9  -5   3    0.12    0.02   1
   9   5  -3    0.11    0.02   1
   9   5   3    0.15    0.03   1
  -9  -5  -5    0.93    0.06   1
  -9  -5   5    0.89    0.04   1
  -9   5   5    0.90    0.02   1
  -5  -9  -5    0.98    0.06   1
  -5  -9   5    0.97    0.05   1
  -5  -5  -9    0.94    0.06   1
  -5  -5   9    0.96    0.05   1
  -5   5   9    0.80    0.05   1
  -5   9  -5    0.89    0.06   1
  -5   9   5    1.02    0.05   1
   5  -9  -5    0.90    0.05   1
   5  -9   5    1.00    0.06   1
   5  -5  -9    0.89    0.04   1
   5  -5   9    0.83    0.06   1
   5  -5   9    0.91    0.06   1
   5   5  -9    0.82    0.05   1
   5   5   9    0.83    0.06   1
   5   9  -5    0.96    0.06   1
   5   9   5    0.90    0.06   1
   9  -5  -5    0.88    0.02   1
   9  -5   5    0.90    0.05   1
   9  -5   5    0.87    0.05   1
   9   5  -5    0.96    0.04   1
   9   5   5    0.93    0.06   1
  -9  -5  -7    1.96    0.08   1
  -9  -5   7    1.92    0.06   1
  -9   5   7    2.01    0.03   1
  -7  -9  -5    1.90    0.08   1
  -7  -9   5    1.98    0.07   1
  -7   9  -5    2.02    0.07   1
  -5  -7  -9    2.00    0.08   1
  -5  -7   9    2.05    0.07   1
  -5   7   9    2.09    0.06   1
   5  -7  -9    1.99    0.06   1
   5  -7   9    2.03    0.08   1
   5  -7   9    1.92    0.07   1
   5   7  -9    2.13    0.07   1
   5   7   9    2.13    0.08   1
   7  -9  -5    2.03    0.06   1
   7  -9   5    2.13    0.07   1
   7   9  -5    2.06    0.07   1
   7   9   5    2.08    0.08   1
   9  -5  -7    1.94    0.03   1
   9  -5   7    2.01    0.07   1
   9   5  -7    1.91    0.06   1
   9   5   7    2.01    0.08   1
  -9  -7  -1    0.43    0.04   1
  -9  -7   1    0.42    0.04   1
  -9   7   1    0.42    0.03   1
  -7  -1  -9    0.49    0.05   1
  -7  -1   9    0.40    0.03   1
  -7  -1   9    0.43    0.03   1
  -7   1  -9    0.38    0.04   1
  -7   1   9    0.42    0.03   1
  -7   1   9    0.44    0.03   1
  -1  -9  -7    0.38    0.04   1
  -1  -9   7    0.40    0.05   1
  -1   9  -7    0.40    0.05   1
  -1   9   7    0.55    0.05   1
   1  -9  -7    0.46    0.05   1
   1  -9   7    0.40    0.05   1
   1   9  -7    0.44    0.05   1
   1   9   7    0.47    0.05   1
   7  -1   9    0.40    0.05   1
   7   1   9    0.33    0.04   1
   9  -7  -1    0.44    0.03   1
   9  -7   1    0.44    0.04   1
   9   7  -1    0.38    0.04   1
   9   7   1    0.42    0.04   1
  -9  -7  -3    0.01    0.03   1
  -9  -7   3    0.03    0.02   1
  -9   7   3    0.00    0.01   1
  -7  -3  -9   -0.03    0.02   1
  -7  -3   9    0.00    0.02   1
  -7   3  -9    0.00    0.02   1
  -7   3   9    0.02    0.01   1
  -3  -9  -7    0.02    0.03   1
  -3  -9   7    0.04    0.03   1
  -3   9  -7    0.04    0.03   1
  -3   9   7    0.01    0.02   1
   3  -9  -7    0.03    0.02   1
   3  -9   7    0.01    0.03   1
   3   9  -7    0.03    0.03   1
   3   9   7   -0.02    0.02   1
   7  -3  -9    0.00    0.02   1
   7  -3   9   -0.01    0.02   1
   7   3  -9    0.01    0.02   1
   7   3   9    0.04    0.03   1
   9  -7  -3    0.00    0.01   1
   9  -7   3    0.00    0.02   1
   9  -7   3    0.04    0.02   1
   9   7  -3    0.00    0.02   1
   9   7   3    0.01    0.02   1
  -9  -7  -5    2.01    0.08   1
  -9  -7   5    2.03    0.06   1
  -9   7   5    2.05    0.04   1
  -7  -5  -9    1.94    0.08   1
  -7  -5   9    2.03    0.06   1
  -7   5   9    2.04    0.05   1
  -5  -9  -7    2.07    0.08   1
  -5  -9   7    2.07    0.07   1
  -5   9  -7    2.09    0.08   1
  -5   9   7    2.05    0.06   1
   5  -9  -7    2.01    0.06   1
   5  -9   7    1.90    0.07   1
   5   9  -7    1.98    0.07   1
   5   9   7    2.26    0.08   1
   7  -5  -9    1.94    0.05   1
   7  -5   9    1.91    0.07   1
   7  -5   9    2.02    0.07   1
   7   5  -9    1.91    0.06   1
   7   5   9    2.11    0.08   1
   9  -7  -5    2.03    0.04   1
   9  -7   5    1.78    0.07   1
   9  -7   5    2.00    0.07   1
   9   7  -5    2.04    0.06   1
   9   7   5    2.01    0.07   1
  -9  -7  -7    2.60    0.09   1
  -9  -7   7    2.68    0.07   1
  -9   7   7    2.70    0.05   1
  -7  -9  -7    2.51    0.09   1
  -7  -9   7    2.66    0.08   1
  -7  -7  -9    2.62    0.09   1
  -7  -7   9    2.65    0.08   1
  -7   7   9    2.47    0.08   1
  -7   9   7    2.67    0.06   1
   7  -9  -7    2.71    0.06   1
   7  -9   7    2.70    0.09   1
   7  -7  -9    2.76    0.06   1
   7  -7   9    2.84    0.09   1
   7  -7   9    2.79    0.09   1
   7   7  -9    2.65    0.07   1
   7   7   9    2.68    0.09   1
   7   9  -7    2.66    0.08   1
   7   9   7    2.47    0.08   1
   9  -7  -7    2.60    0.05   1
   9  -7   7    2.57    0.08   1
   9  -7   7    2.56    0.08   1
   9   7  -7    2.73    0.07   1
   9   7   7    2.53    0.08   1
  -9  -9  -1    5.36    0.11   1
  -9  -9   1    5.35    0.11   1
  -9  -1  -9    5.29    0.11   1
  -9  -1   9    5.24    0.07   1
  -9  -1   9    4.97    0.07   1
  -9   1  -9    5.25    0.11   1
  -9   1   9    5.30    0.06   1
  -9   1   9    5.10    0.06   1
  -9   9  -1    5.25    0.09   1
  -9   9   1    5.24    0.08   1
  -1  -9  -9    5.26    0.11   1
  -1  -9   9    5.27    0.11   1
  -1   9  -9    5.21    0.11   1
  -1   9   9    5.42    0.11   1
   1  -9  -9    5.18    0.10   1
   1  -9   9    5.30    0.11   1
   1   9  -9    5.07    0.11   1
   1   9   9    5.42    0.11   1
   9  -9  -1    5.26    0.08   1
   9  -9   1    5.42    0.09   1
   9  -1   9    5.31    0.11   1
   9   1   9    5.24    0.11   1
   9   9  -1    5.29    0.11   1
   9   9   1    5.20    0.11   1
  -9  -9  -3    1.46    0.07   1
  -9  -9   3    1.51    0.07   1
  -9  -3  -9    1.55    0.07   1
  -9  -3   9    1.52    0.05   1
  -9   3  -9    1.45    0.07   1
  -9   3   9    1.36    0.03   1
  -9   9  -3    1.74    0.06   1
  -9   9   3    1.37    0.04   1
  -3  -9  -9    1.52    0.07   1
  -3  -9   9    1.51    0.07   1
  -3   9  -9    1.31    0.07   1
  -3   9   9    1.55    0.06   1
   3  -9   9    1.56    0.07   1
   3   9  -9    1.52    0.07   1
   3   9   9    1.32    0.07   1
   9  -9  -3    1.42    0.05   1
   9  -9   3    1.47    0.06   1
   9  -3   9    1.43    0.06   1
   9   3  -9    1.46    0.05   1
   9   3   9    1.39    0.07   1
   9   9  -3    1.39    0.06   1
   9   9   3    1.48    0.07   1
  -9  -9  -5    0.08    0.03   1
  -9  -9   5    0.04    0.03   1
  -9  -5  -9    0.01    0.03   1
  -9  -5   9   -0.02    0.02   1
  -9   5   9    0.00    0.01   1
  -9   9   5    0.03    0.01   1
  -5  -9  -9   -0.01    0.03   1
  -5  -9   9    0.02    0.03   1
  -5   9   9    0.00    0.02   1
   5  -9  -9   -0.01    0.02   1
   5  -9   9    0.01    0.03   1
   5   9  -9    0.00    0.02   1
   5   9   9    0.03    0.03   1
   9  -9  -5    0.02    0.02   1
   9  -9   5    0.00    0.03   1
   9  -9   5   -0.01    0.02   1
   9  -5  -9   -0.01    0.01   1
   9  -5   9    0.05    0.03   1
   9   5  -9   -0.04    0.02   1
   9   5   9    0.00    0.03   1
   9   9  -5    0.01    0.02   1
   9   9   5    0.00    0.02   1
  -9  -9  -7    0.05    0.04   1
  -9  -9   7    0.02    0.03   1
  -9  -7  -9    0.05    0.03   1
  -9  -7   9    0.02    0.03   1
  -9   7   9    0.01    0.01   1
  -9   9   7    0.01    0.02   1
  -7  -9  -9   -0.01    0.03   1
  -7  -9   9    0.02    0.03   1
  -7   9   9    0.05    0.02   1
   7  -9  -9    0.00    0.02   1
   7  -9   9    0.06    0.03   1
   7  -9   9    0.06    0.03   1
   7   9  -9    0.04    0.02   1
   7   9   9   -0.02    0.03   1
   9  -9  -7    0.02    0.02   1
   9  -9   7   -0.02    0.03   1
   9  -9   7   -0.01    0.02   1
   9  -7  -9   -0.01    0.01   1
   9  -7   9    0.06    0.03   1
   9  -7   9    0.04    0.02   1
   9   7  -9    0.03    0.02   1
   9   7   9    0.02    0.03   1
   9   9  -7    0.01    0.02   1
   9   9   7    0.08    0.03   1
  -9  -9  -9    1.86    0.09   1
  -9  -9   9    1.85    0.07   1
  -9   9   9    1.62    0.06   1
   9  -9  -9    1.69    0.05   1
   9  -9   9    1.81    0.08   1
   9  -9   9    1.68    0.07   1
   9   9  -9    1.85    0.07   1
   9   9   9    1.79    0.08   1
 -10   0   0    5.64    0.07   1
   0 -10   0    5.78    0.10   1
   0   0 -10    5.40    0.10   1
   0   0  10    5.59    0.10   1
   0  10   0    5.77    0.10   1
  10   0   0    5.50    0.07   1
 -10   0  -2    1.12    0.04   1
 -10   0   2    1.11    0.03   1
  -2  10   0    1.10    0.05   1
   0  -2 -10    1.12    0.05   1
   0  -2  10    1.06    0.05   1
   0   2 -10    1.10    0.06   1
   0   2  10    1.02    0.05   1
   2 -10   0    1.08    0.05   1
   2  10   0    1.07    0.06   1
  10   0  -2    1.12    0.03   1
  10   0   2    0.99    0.04   1
 -10   0  -4    0.06    0.02   1
 -10   0   4    0.14    0.01   1
  -4 -10   0    0.07    0.03   1
  -4  10   0    0.06    0.02   1
   0  -4 -10    0.09    0.03   1
   0  -4  10    0.07    0.03   1
   0   4  10    0.04    0.02   1
   4 -10   0    0.06    0.02   1
   4  10   0    0.06    0.03   1
  10   0  -4    0.07    0.01   1
  10   0   4    0.06    0.02   1
 -10   0  -6    0.01    0.02   1
 -10   0   6    0.00    0.01   1
  -6 -10   0    0.01    0.03   1
  -6  10   0   -0.01    0.02   1
   0  -6  10    0.00    0.02   1
   0  -6  10   -0.01    0.02   1
   0   6  10   -0.02    0.03   1
   6 -10   0    0.04    0.02   1
   6  10   0    0.02    0.03   1
  10   0   6    0.02    0.02   1
 -10   0  -8    5.08    0.11   1
 -10   0   8    4.99    0.06   1
 -10   0   8    4.64    0.05   1
  -8 -10   0    5.05    0.11   1
  -8  10   0    5.07    0.09   1
   0  -8 -10    5.04    0.11   1
   0  -8  10    4.87    0.11   1
   0   8 -10    5.15    0.11   1
   0   8  10    4.91    0.11   1
   8 -10   0    5.04    0.09   1
   8  10   0    4.88    0.10   1
  10   0   8    4.97    0.10   1
 -10  -2   0    1.10    0.04   1
 -10   2   0    1.10    0.03   1
  -2   0 -10    1.14    0.06   1
  -2   0  10    1.11    0.05   1
   0 -10  -2    1.08    0.06   1
   0  10  -2    1.12    0.06   1
   0  10   2    1.06    0.05   1
   2   0 -10    1.04    0.05   1
   2   0  10    1.12    0.06   1
  10  -2   0    1.07    0.03   1
  10   2   0    1.09    0.04   1
 -10  -2  -2    2.07    0.06   1
 -10  -2   2    2.10    0.05   1
 -10   2  -2    1.90    0.05   1
  -2 -10   2    1.79    0.08   1
  -2  -2 -10    1.98    0.08   1
  -2  -2  10    2.03    0.06   1
  -2  -2  10    2.04    0.06   1
  -2   2  10    2.01    0.06   1
  -2  10  -2    2.15    0.07   1
  -2  10   2    2.05    0.06   1
   2 -10  -2    2.06    0.06   1
   2 -10   2    1.94    0.07   1
   2  -2 -10    2.00    0.06   1
   2  -2  10    1.97    0.07   1
   2   2  10    1.90    0.07   1
   2  10  -2    2.19    0.07   1
   2  10   2    2.01    0.07   1
  10  -2  -2    2.04    0.03   1
  10  -2   2    1.98    0.05   1
  10   2  -2    2.09    0.05   1
  10   2   2    2.03    0.06   1
 -10  -2  -4    0.00    0.02   1
 -10  -2   4    0.04    0.01   1
 -10   2  -4   -0.01    0.02   1
  -4 -10  -2    0.00    0.02   1
  -4 -10   2    0.04    0.03   1
  -4  10  -2    0.01    0.02   1
  -4  10   2    0.01    0.02   1
  -2  -4 -10    0.02    0.03   1
  -2  -4  10    0.01    0.02   1
  -2  -4  10    0.02    0.02   1
  -2   4  10    0.01    0.02   1
   2  -4 -10    0.04    0.02   1
   2  -4  10   -0.01    0.02   1
   2  -4  10    0.01    0.03   1
   2   4  10    0.01    0.02   1
   4 -10  -2    0.02    0.02   1
   4 -10   2   -0.01    0.02   1
   4  10  -2    0.02    0.03   1
   4  10   2    0.03    0.03   1
  10  -2   4    0.00    0.02   1
  10   2  -4    0.03    0.01   1
  10   2   4    0.02    0.02   1
 -10  -2  -6    0.23    0.05   1
 -10  -2   6    0.14    0.02   1
 -10   2  -6    0.16    0.03   1
  -6 -10  -2    0.19    0.03   1
  -6 -10   2    0.16    0.03   1
  -6  10  -2    0.18    0.03   1
  -6  10   2    0.25    0.03   1
  -2  -6 -10    0.14    0.03   1
  -2  -6  10    0.20    0.03   1
  -2   6  10    0.19    0.03   1
   2  -6 -10    0.17    0.03   1
   2  -6  10    0.19    0.04   1
   2  -6  10    0.25    0.04   1
   2   6 -10    0.20    0.03   1
   2   6  10    0.15    0.03   1
   6 -10  -2    0.24    0.03   1
   6 -10   2    0.22    0.03   1
   6  10  -2    0.22    0.03   1
   6  10   2    0.24    0.04   1
  10  -2   6    0.22    0.03   1
  10   2  -6    0.19    0.02   1
  10   2   6    0.16    0.03   1
 -10  -2  -8    3.62    0.09   1
 -10  -2   8    3.68    0.06   1
 -10   2  -8    3.66    0.09   1
 -10   2   8    3.68    0.04   1
 -10   2   8    3.69    0.04   1
  -8 -10  -2    3.83    0.10   1
  -8 -10   2    3.96    0.09   1
  -8  10  -2    3.93    0.08   1
  -8  10   2    3.76    0.08   1
  -2  -8 -10    3.76    0.10   1
  -2  -8  10    3.86    0.10   1
  -2   8  10    3.67    0.09   1
   2  -8 -10    3.49    0.09   1
   2  -8  10    3.71    0.10   1
   2   8 -10    3.68    0.10   1
   2   8  10    3.76    0.10   1
   8 -10  -2    3.70    0.08   1
   8 -10   2    3.82    0.09   1
   8  10  -2    3.59    0.09   1
   8  10   2    3.84    0.10   1
  10  -2   8    3.75    0.09   1
  10   2  -8    3.65    0.06   1
  10   2   8    3.77    0.09   1
 -10  -4   0    0.07    0.02   1
  -4   0 -10    0.07    0.03   1
  -4   0  10    0.06    0.02   1
   0 -10  -4    0.06    0.03   1
   0 -10   4    0.06    0.03   1
   0  10  -4    0.05    0.03   1
   0  10   4    0.08    0.03   1
   4   0 -10    0.07    0.02   1
   4   0  10    0.04    0.02   1
  10  -4   0    0.10    0.02   1
  10  -4   0    0.09    0.02   1
  10   4   0    0.08    0.02   1
 -10  -4  -2    0.00    0.02   1
 -10  -4   2    0.03    0.02   1
  -4  -2 -10    0.02    0.02   1
  -4  -2  10    0.01    0.02   1
  -4  -2  10    0.02    0.02   1
  -4   2 -10   -0.02    0.03   1
  -4   2  10    0.03    0.02   1
  -2 -10  -4    0.03    0.03   1
  -2 -10   4    0.02    0.02   1
  -2  10  -4    0.00    0.02   1
  -2  10   4    0.02    0.02   1
   2 -10  -4    0.02    0.02   1
   2 -10   4    0.03    0.03   1
   2  10  -4    0.03    0.03   1
   2  10   4   -0.01    0.02   1
   4  -2 -10    0.01    0.02   1
   4  -2  10    0.00    0.02   1
   4   2  10    0.02    0.02   1
  10  -4  -2    0.01    0.01   1
  10  -4   2    0.04    0.02   1
  10  -4   2    0.02    0.02   1
  10   4  -2    0.00    0.02   1
  10   4   2    0.04    0.02   1
 -10  -4  -4    0.00    0.02   1
 -10  -4   4   -0.02    0.01   1
 -10   4  -4    0.00    0.02   1
  -4 -10  -4   -0.03    0.03   1
  -4 -10   4   -0.01    0.02   1
  -4  -4 -10   -0.01    0.03   1
  -4  -4  10   -0.02    0.02   1
  -4  -4  10    0.01    0.02   1
  -4   4  10    0.05    0.02   1
  -4  10  -4    0.01    0.02   1
  -4  10   4   -0.02    0.02   1
   4 -10  -4    0.00    0.02   1
   4 -10   4    0.00    0.02   1
   4  -4 -10   -0.02    0.02   1
   4  -4  10   -0.02    0.03   1
   4   4  10    0.00    0.02   1
   4  10  -4    0.01    0.02   1
   4  10   4    0.00    0.03   1
  10  -4   4    0.02    0.02   1
  10   4  -4   -0.03    0.02   1
  10   4   4    0.02    0.02   1
 -10  -4  -6    0.16    0.03   1
 -10  -4   6    0.17    0.02   1
 -10   4  -6    0.22    0.04   1
  -6 -10  -4    0.19    0.04   1
  -6 -10   4    0.20    0.04   1
  -6  10  -4    0.21    0.03   1
  -6  10   4    0.22    0.03   1
  -4  -6 -10    0.30    0.04   1
  -4  -6  10    0.22    0.03   1
  -4   6  10    0.23    0.03   1
   4  -6 -10    0.17    0.03   1
   4  -6  10    0.21    0.03   1
   4  -6  10    0.21    0.03   1
   4   6 -10    0.24    0.04   1
   4   6  10    0.17    0.03   1
   6 -10  -4    0.22    0.03   1
   6 -10   4    0.26    0.04   1
   6  10  -4    0.21    0.03   1
   6  10   4    0.25    0.04   1
  10  -4   6    0.24    0.03   1
  10   4  -6    0.15    0.03   1
  10   4   6    0.25    0.03   1
 -10  -4  -8    0.41    0.05   1
 -10  -4   8    0.46    0.04   1
 -10   4  -8    0.44    0.05   1
 -10   4   8    0.47    0.02   1
  -8 -10  -4    0.40    0.05   1
  -8 -10   4    0.57    0.05   1
  -8  10  -4    0.43    0.05   1
  -8  10   4    0.44    0.04   1
  -4  -8 -10    0.34    0.04   1
  -4  -8  10    0.53    0.05   1
  -4   8  10    0.48    0.04   1
   4  -8 -10    0.49    0.05   1
   4  -8  10    0.44    0.05   1
   4  -8  10    0.48    0.05   1
   4   8 -10    0.40    0.05   1
   4   8  10    0.53    0.06   1
   8 -10  -4    0.43    0.04   1
   8 -10   4    0.46    0.05   1
   8  10  -4    0.45    0.04   1
   8  10   4    0.46    0.05   1
  10  -4   8    0.48    0.05   1
  10   4  -8    0.43    0.04   1
  10   4   8    0.40    0.04   1
 -10  -6   0    0.02    0.02   1
  -6   0 -10    0.01    0.03   1
  -6   0  10    0.02    0.02   1
   0 -10  -6    0.00    0.02   1
   0 -10   6    0.01    0.02   1
   0  10  -6    0.02    0.03   1
   0  10   6   -0.02    0.02   1
   6   0  10    0.00    0.02   1
  10  -6   0    0.00    0.02   1
  10  -6   0    0.00    0.02   1
  10   6   0   -0.01    0.02   1
 -10  -6  -2    0.24    0.04   1
 -10  -6   2    0.20    0.03   1
  -6  -2 -10    0.21    0.04   1
  -6  -2  10    0.15    0.02   1
  -6  -2  10    0.31    0.04   1
  -6   2 -10    0.16    0.04   1
  -6   2  10    0.15    0.02   1
  -2 -10  -6    0.18    0.03   1
  -2 -10   6    0.12    0.03   1
  -2  10  -6    0.16    0.03   1
  -2  10   6    0.18    0.03   1
   2 -10  -6    0.16    0.03   1
   2 -10   6    0.21    0.04   1
   2  10  -6    0.23    0.04   1
   2  10   6    0.12    0.03   1
   6  -2 -10    0.18    0.02   1
   6  -2  10    0.12    0.03   1
   6   2  10    0.10    0.03   1
  10  -6  -2    0.22    0.02   1
  10  -6   2    0.19    0.03   1
  10  -6   2    0.18    0.03   1
  10   6  -2    0.12    0.03   1
  10   6   2    0.17    0.03   1
 -10  -6  -4    0.21    0.03   1
 -10  -6   4    0.21    0.03   1
 -10   6   4    0.22    0.02   1
  -6  -4 -10    0.20    0.04   1
  -6  -4  10    0.19    0.03   1
  -6   4 -10    0.33    0.04   1
  -6   4  10    0.18    0.03   1
  -4 -10  -6    0.21    0.04   1
  -4 -10   6    0.25    0.04   1
  -4  10  -6    0.22    0.03   1
  -4  10   6    0.20    0.03   1
   4 -10  -6    0.22    0.03   1
   4 -10   6    0.28    0.04   1
   4  10  -6    0.18    0.03   1
   4  10   6    0.16    0.03   1
   6  -4 -10    0.22    0.03   1
   6  -4  10    0.14    0.03   1
   6   4  10    0.24    0.04   1
  10  -6  -4    0.25    0.02   1
  10  -6   4    0.21    0.03   1
  10  -6   4    0.26    0.03   1
  10   6  -4    0.20    0.03   1
  10   6   4    0.20    0.03   1
 -10  -6  -6    1.37    0.07   1
 -10  -6   6    1.36    0.05   1
 -10   6   6    1.46    0.03   1
  -6 -10  -6    1.38    0.07   1
  -6 -10   6    1.41    0.07   1
  -6  -6 -10    1.36    0.07   1
  -6  -6  10    1.38    0.06   1
  -6   6  10    1.44    0.05   1
  -6  10  -6    1.51    0.07   1
  -6  10   6    1.41    0.05   1
   6 -10  -6    1.42    0.06   1
   6 -10   6    1.54    0.07   1
   6  -6 -10    1.42    0.05   1
   6  -6  10    1.38    0.07   1
   6  -6  10    1.44    0.07   1
   6   6 -10    1.50    0.06   1
   6   6  10    1.49    0.07   1
   6  10  -6    1.40    0.07   1
   6  10   6    1.47    0.07   1
  10  -6  -6    1.40    0.03   1
  10  -6   6    1.35    0.06   1
  10  -6   6    1.46    0.06   1
  10   6  -6    1.42    0.05   1
  10   6   6    1.50    0.07   1
 -10  -6  -8    0.03    0.04   1
 -10  -6   8   -0.01    0.02   1
 -10   6   8    0.02    0.01   1
  -8 -10  -6    0.03    0.03   1
  -8 -10   6    0.05    0.03   1
  -8  10  -6    0.03    0.03   1
  -8  10   6    0.02    0.02   1
  -6  -8 -10    0.02    0.03   1
  -6  -8  10    0.04    0.02   1
  -6   8  10    0.02    0.02   1
   6  -8 -10    0.03    0.02   1
   6  -8  10    0.04    0.03   1
   6  -8  10    0.06    0.03   1
   6   8 -10    0.04    0.03   1
   6   8  10    0.03    0.03   1
   8 -10  -6    0.05    0.02   1
   8 -10   6    0.08    0.03   1
   8  10  -6   -0.02    0.02   1
   8  10   6    0.04    0.03   1
  10  -6  -8    0.04    0.01   1
  10  -6   8    0.03    0.03   1
  10  -6   8    0.00    0.03   1
  10   6  -8    0.01    0.02   1
  10   6   8    0.08    0.03   1
 -10  -8   0    5.14    0.10   1
  -8   0 -10    4.87    0.11   1
  -8   0  10    4.93    0.07   1
  -8   0  10    4.99    0.07   1
   0 -10  -8    5.00    0.11   1
   0 -10   8    5.15    0.11   1
   0  10  -8    4.98    0.11   1
   0  10   8    5.15    0.11   1
   8   0  10    4.83    0.11   1
  10  -8   0    5.00    0.08   1
  10   8   0    4.91    0.10   1
 -10  -8  -2    3.76    0.10   1
 -10  -8   2    3.50    0.09   1
 -10   8   2    3.65    0.06   1
  -8  -2 -10    3.59    0.10   1
  -8  -2  10    3.84    0.07   1
  -8  -2  10    3.47    0.07   1
  -8   2 -10    3.57    0.09   1
  -8   2  10    3.71    0.06   1
  -2 -10  -8    3.81    0.10   1
  -2 -10   8    3.85    0.10   1
  -2  10  -8    3.67    0.10   1
  -2  10   8    3.80    0.09   1
   2 -10  -8    3.42    0.09   1
   2 -10   8    4.00    0.10   1
   2  10  -8    3.55    0.09   1
   2  10   8    3.81    0.10   1
   8  -2  10    3.72    0.10   1
   8   2  10    3.70    0.10   1
  10  -8  -2    3.81    0.06   1
  10  -8   2    3.75    0.08   1
  10   8  -2    4.03    0.09   1
  10   8   2    3.65    0.09   1
 -10  -8  -4    0.56    0.06   1
 -10  -8   4    0.45    0.05   1
 -10   8   4    0.43    0.03   1
  -8  -4 -10    0.37    0.04   1
  -8  -4  10    0.46    0.04   1
  -8   4 -10    0.50    0.06   1
  -8   4  10    0.39    0.03   1
  -4 -10  -8    0.48    0.05   1
  -4 -10   8    0.53    0.05   1
  -4  10  -8    0.47    0.05   1
  -4  10   8    0.51    0.04   1
   4 -10  -8    0.46    0.05   1
   4 -10   8    0.46    0.05   1
   4  10  -8    0.45    0.05   1
   4  10   8    0.45    0.05   1
   8  -4 -10    0.41    0.03   1
   8  -4  10    0.40    0.05   1
   8   4 -10    0.47    0.04   1
   8   4  10    0.44    0.05   1
  10  -8  -4    0.49    0.03   1
  10  -8   4    0.45    0.05   1
  10  -8   4    0.41    0.04   1
  10   8  -4    0.43    0.04   1
  10   8   4    0.36    0.04   1
 -10  -8  -6   -0.03    0.03   1
 -10  -8   6    0.02    0.02   1
 -10   8   6    0.01    0.01   1
  -8  -6 -10   -0.03    0.03   1
  -8   6  10    0.00    0.02   1
  -6 -10  -8    0.00    0.03   1
  -6 -10   8   -0.03    0.03   1
  -6  10  -8    0.07    0.03   1
  -6  10   8    0.00    0.02   1
   6 -10  -8    0.02    0.02   1
   6 -10   8    0.08    0.03   1
   6  10  -8   -0.01    0.03   1
   6  10   8    0.01    0.03   1
   8  -6 -10    0.03    0.02   1
   8  -6  10    0.05    0.03   1
   8  -6  10    0.07    0.03   1
   8   6 -10    0.05    0.02   1
   8   6  10    0.01    0.03   1
  10  -8  -6    0.01    0.02   1
  10  -8   6   -0.03    0.02   1
  10  -8   6    0.04    0.02   1
  10   8  -6    0.03    0.02   1
  10   8   6    0.01    0.03   1
 -10  -8  -8    0.35    0.05   1
 -10  -8   8    0.41    0.05   1
 -10   8   8    0.40    0.03   1
  -8 -10  -8    0.36    0.05   1
  -8 -10   8    0.45    0.05   1
  -8  -8 -10    0.53    0.06   1
  -8  -8  10    0.38    0.04   1
  -8   8  10    0.51    0.04   1
  -8  10   8    0.41    0.04   1
   8 -10  -8    0.44    0.04   1
   8 -10   8    0.45    0.05   1
   8 -10   8    0.45    0.05   1
   8  -8 -10    0.41    0.04   1
   8  -8  10    0.38    0.05   1
   8  -8  10    0.44    0.05   1
   8   8 -10    0.31    0.04   1
   8   8  10    0.36    0.04   1
   8  10  -8    0.40    0.05   1
   8  10   8    0.47    0.05   1
  10  -8  -8    0.38    0.03   1
  10  -8   8    0.41    0.05   1
  10  -8   8    0.47    0.05   1
  10   8  -8    0.41    0.04   1
  10   8   8    0.49    0.05   1
 -10 -10   0    3.40    0.10   1
 -10   0 -10    3.32    0.10   1
 -10   0  10    3.47    0.06   1
 -10   0  10    3.39    0.06   1
 -10  10   0    3.54    0.08   1
   0 -10 -10    3.48    0.10   1
   0 -10  10    3.53    0.10   1
   0  10 -10    3.42    0.10   1
   0  10  10    3.46    0.09   1
  10 -10   0    3.48    0.08   1
  10   0  10    3.29    0.09   1
  10  10   0    3.56    0.09   1
 -10 -10  -2    3.74    0.10   1
 -10 -10   2    3.62    0.10   1
 -10  -2 -10    3.70    0.10   1
 -10  -2  10    3.65    0.07   1
 -10   2 -10    3.47    0.10   1
 -10   2  10    3.64    0.05   1
 -10   2  10    3.59    0.05   1
 -10  10  -2    3.67    0.08   1
 -10  10   2    3.64    0.07   1
  -2 -10 -10    3.93    0.10   1
  -2 -10  10    3.73    0.10   1
  -2  10 -10    3.60    0.10   1
  -2  10  10    3.76    0.09   1
   2 -10 -10    3.56    0.09   1
   2 -10  10    3.75    0.11   1
   2  10 -10    3.49    0.10   1
   2  10  10    3.89    0.10   1
  10 -10  -2    3.68    0.07   1
  10 -10   2    3.46    0.10   1
  10  -2  10    3.65    0.10   1
  10   2  10    3.77    0.10   1
  10  10  -2    3.81    0.09   1
  10  10   2    3.58    0.10   1
 -10 -10  -4    0.77    0.07   1
 -10 -10   4    0.82    0.06   1
 -10  -4 -10    0.79    0.07   1
 -10  -4  10    0.77    0.04   1
 -10   4 -10    0.80    0.06   1
 -10   4  10    0.70    0.03   1
 -10  10   4    0.89    0.06   1
  -4 -10 -10    0.82    0.07   1
  -4 -10  10    0.79    0.06   1
  -4  10 -10    0.73    0.06   1
  -4  10  10    0.71    0.05   1
   4 -10 -10    0.66    0.05   1
   4 -10  10    0.74    0.07   1
   4  10 -10    0.79    0.06   1
   4  10  10    0.76    0.06   1
  10 -10  -4    0.72    0.04   1
  10 -10   4    0.87    0.06   1
  10  -4  10    0.76    0.06   1
  10   4 -10    0.76    0.04   1
  10   4  10    0.74    0.06   1
  10  10  -4    0.84    0.05   1
  10  10   4    0.83    0.06   1
 -10 -10  -6    0.12    0.04   1
 -10 -10   6    0.11    0.03   1
 -10  -6 -10    0.14    0.04   1
 -10   6  10    0.10    0.01   1
  -6 -10 -10    0.09    0.04   1
  -6 -10  10    0.10    0.04   1
  -6  10  10    0.05    0.02   1
   6 -10 -10    0.14    0.03   1
   6 -10  10    0.07    0.03   1
   6 -10  10    0.12    0.03   1
   6  10 -10    0.17    0.03   1
   6  10  10    0.11    0.03   1
  10 -10  -6    0.07    0.02   1
  10 -10   6    0.11    0.03   1
  10 -10   6    0.12    0.03   1
  10  -6 -10    0.08    0.02   1
  10  -6  10    0.07    0.03   1
  10  -6  10    0.07    0.03   1
  10   6 -10    0.07    0.02   1
  10   6  10    0.13    0.04   1
  10  10  -6    0.05    0.03   1
  10  10   6    0.07    0.03   1
 -10 -10  -8    2.12    0.09   1
 -10 -10   8    2.22    0.08   1
 -10  -8 -10    2.07    0.09   1
 -10  -8  10    1.97    0.08   1
 -10   8  10    2.03    0.05   1
 -10  10   8    1.88    0.06   1
  -8 -10 -10    1.89    0.09   1
  -8 -10  10    2.07    0.09   1
  -8  10  10    1.94    0.06   1
   8 -10 -10    2.05    0.06   1
   8 -10  10    1.77    0.09   1
   8 -10  10    2.04    0.08   1
   8  10 -10    2.09    0.08   1
   8  10  10    1.97    0.08   1
  10 -10  -8    1.91    0.06   1
  10 -10   8    2.01    0.08   1
  10 -10   8    2.03    0.08   1
  10  -8 -10    2.00    0.05   1
  10  -8  10    1.98    0.09   1
  10  -8  10    2.04    0.08   1
  10   8 -10    1.91    0.07   1
  10   8  10    2.15    0.09   1
  10  10  -8    2.02    0.07   1
  10  10   8    2.18    0.09   1
 -10 -10 -10    2.20    0.10   1
 -10 -10  10    2.37    0.09   1
 -10  10  10    2.37    0.06   1
  10 -10 -10    2.35    0.06   1
  10 -10  10    2.49    0.10   1
  10 -10  10    2.40    0.09   1
  10  10 -10    2.34    0.08   1
  10  10  10    2.29    0.09   1
 -11  -1  -1    2.10    0.05   1
 -11  -1   1    2.04    0.05   1
 -11   1  -1    2.07    0.05   1
 -11   1   1    2.01    0.04   1
  -1 -11  -1    2.12    0.07   1
  -1 -11   1    1.94    0.07   1
  -1  -1 -11    1.84    0.08   1
  -1  -1  11    2.02    0.07   1
  -1   1 -11    2.01    0.07   1
  -1   1  11    1.92    0.06   1
  -1  11  -1    1.95    0.07   1
  -1  11   1    2.17    0.07   1
   1 -11  -1    1.79    0.08   1
   1 -11   1    2.14    0.07   1
   1  -1 -11    2.05    0.07   1
   1  -1  11    1.99    0.07   1
   1   1 -11    1.99    0.07   1
   1   1  11    2.03    0.07   1
   1  11  -1    2.04    0.07   1
   1  11   1    2.08    0.07   1
  11  -1  -1    2.09    0.04   1
  11  -1   1    1.99    0.05   1
  11   1  -1    2.10    0.05   1
  11   1   1    2.12    0.06   1
 -11  -1  -3    0.20    0.03   1
 -11  -1   3    0.20    0.02   1
 -11   1  -3    0.18    0.02   1
 -11   1   3    0.16    0.01   1
  -3 -11  -1    0.11    0.03   1
  -3 -11   1    0.14    0.03   1
  -3  11  -1    0.19    0.03   1
  -3  11   1    0.19    0.03   1
  -1  -3 -11    0.12    0.03   1
  -1  -3  11    0.14    0.03   1
  -1  -3  11    0.16    0.03   1
  -1   3  11    0.14    0.03   1
   1  -3 -11    0.19    0.03   1
   1  -3  11    0.16    0.03   1
   1   3  11    0.11    0.03   1
   3 -11  -1    0.17    0.04   1
   3 -11   1    0.10    0.03   1
   3  11  -1    0.14    0.03   1
   3  11   1    0.20    0.04   1
  11  -1  -3    0.18    0.02   1
  11  -1   3    0.14    0.02   1
  11   1  -3    0.17    0.02   1
  11   1   3    0.17    0.03   1
 -11  -1  -5   -0.02    0.02   1
 -11  -1   5    0.01    0.01   1
 -11   1  -5   -0.02    0.02   1
  -5 -11  -1   -0.01    0.03   1
  -5 -11   1   -0.01    0.03   1
  -5  11  -1    0.00    0.02   1
  -5  11   1    0.08    0.02   1
  -1  -5 -11    0.00    0.02   1
  -1  -5  11    0.00    0.02   1
  -1  -5  11   -0.01    0.02   1
  -1   5  11   -0.01    0.02   1
   1  -5  11   -0.02    0.03   1
   1  -5  11    0.02    0.02   1
   1   5  11   -0.02    0.02   1
   5 -11  -1    0.01    0.02   1
   5  11  -1   -0.01    0.02   1
   5  11   1    0.00    0.02   1
  11  -1   5    0.00    0.02   1
  11   1  -5    0.01    0.01   1
  11   1   5   -0.04    0.02   1
 -11  -1  -7    2.16    0.08   1
 -11  -1   7    2.16    0.04   1
 -11   1  -7    2.10    0.07   1
  -7 -11  -1    2.19    0.08   1
  -7 -11   1    2.11    0.08   1
  -7  11  -1    2.06    0.07   1
  -7  11   1    2.25    0.07   1
  -1  -7 -11    2.27    0.08   1
  -1  -7  11    2.16    0.08   1
  -1   7  11    2.22    0.08   1
   1  -7 -11    2.17    0.07   1
   1  -7  11    2.15    0.08   1
   1  -7  11    1.97    0.08   1
   1   7  11    2.12    0.08   1
   7 -11  -1    2.19    0.07   1
   7  11  -1    2.10    0.08   1
   7  11   1    2.15    0.08   1
  11  -1   7    2.08    0.07   1
  11   1  -7    2.12    0.04   1
  11   1   7    2.20    0.08   1
 -11  -1  -9    3.80    0.10   1
 -11  -1   9    3.81    0.06   1
 -11  -1   9    3.61    0.06   1
 -11   1  -9    3.62    0.10   1
 -11   1   9    3.73    0.05   1
 -11   1   9    3.71    0.05   1
  -9 -11  -1    3.89    0.10   1
  -9 -11   1    3.96    0.10   1
  -9  11  -1    3.74    0.09   1
  -9  11   1    3.74    0.08   1
  -1  -9 -11    3.68    0.10   1
  -1  -9  11    3.76    0.10   1
  -1   9 -11    3.72    0.10   1
  -1   9  11    3.78    0.10   1
   1  -9 -11    3.64    0.09   1
   1  -9  11    3.89    0.11   1
   1   9 -11    3.71    0.10   1
   1   9  11    3.63    0.10   1
   9 -11  -1    3.75    0.08   1
   9  11  -1    3.83    0.10   1
   9  11   1    3.65    0.10   1
  11  -1   9    3.54    0.09   1
  11   1   9    3.85    0.10   1
 -11  -3  -1    0.20    0.03   1
 -11  -3   1    0.24    0.03   1
 -11   3  -1    0.17    0.02   1
  -3  -1 -11    0.23    0.04   1
  -3  -1  11    0.14    0.02   1
  -3   1 -11    0.16    0.03   1
  -3   1  11    0.13    0.02   1
  -1 -11  -3    0.17    0.03   1
  -1 -11   3    0.15    0.03   1
  -1  11  -3    0.20    0.04   1
  -1  11   3    0.12    0.03   1
   1 -11  -3    0.26    0.03   1
   1 -11   3    0.17    0.03   1
   1  11  -3    0.19    0.03   1
   1  11   3    0.19    0.03   1
   3  -1 -11    0.15    0.03   1
   3  -1  11    0.17    0.03   1
   3   1  11    0.12    0.03   1
  11  -3  -1    0.16    0.02   1
  11  -3  -1    0.16    0.02   1
  11  -3   1    0.15    0.02   1
  11   3  -1    0.18    0.02   1
  11   3   1    0.17    0.03   1
 -11  -3  -3    0.53    0.04   1
 -11  -3   3    0.62    0.03   1
 -11   3  -3    0.52    0.04   1
  -3 -11  -3    0.52    0.05   1
  -3 -11   3    0.57    0.05   1
  -3  -3 -11    0.59    0.05   1
  -3  -3  11    0.49    0.04   1
  -3  -3  11    0.54    0.04   1
  -3   3 -11    0.56    0.06   1
  -3   3  11    0.51    0.04   1
  -3  11  -3    0.57    0.05   1
  -3  11   3    0.49    0.04   1
   3 -11  -3    0.61    0.05   1
   3 -11   3    0.51    0.05   1
   3  -3 -11    0.51    0.04   1
   3  -3  11    0.46    0.05   1
   3   3  11    0.52    0.05   1
   3  11  -3    0.56    0.05   1
   3  11   3    0.56    0.05   1
  11  -3   3    0.51    0.04   1
  11   3  -3    0.50    0.03   1
  11   3   3    0.50    0.04   1
 -11  -3  -5    0.00    0.03   1
 -11  -3   5   -0.04    0.01   1
 -11   3  -5    0.01    0.02   1
  -5 -11  -3    0.03    0.03   1
  -5 -11   3    0.00    0.02   1
  -5  11  -3    0.03    0.02   1
  -5  11   3    0.00    0.02   1
  -3  -5 -11    0.04    0.03   1
  -3  -5  11    0.00    0.02   1
  -3  -5  11   -0.04    0.02   1
  -3   5  11   -0.02    0.02   1
   3  -5 -11    0.02    0.02   1
   3  -5  11    0.00    0.03   1
   3   5  11    0.01    0.03   1
   5 -11  -3   -0.01    0.02   1
   5 -11   3    0.02    0.03   1
   5  11  -3   -0.01    0.03   1
   5  11   3    0.01    0.03   1
  11  -3   5    0.00    0.02   1
  11   3  -5   -0.01    0.01   1
  11   3   5   -0.02    0.02   1
 -11  -3  -7    1.24    0.07   1
 -11  -3   7    1.14    0.04   1
 -11   3  -7    1.26    0.06   1
  -7 -11  -3    1.23    0.07   1
  -7 -11   3    1.23    0.06   1
  -7  11  -3    1.22    0.06   1
  -7  11   3    1.33    0.05   1
  -3  -7 -11    1.18    0.07   1
  -3  -7  11    1.14    0.06   1
  -3   7  11    1.08    0.06   1
   3  -7  11    1.17    0.07   1
   3  -7  11    1.16    0.07   1
   3   7 -11    1.18    0.06   1
   3   7  11    1.15    0.07   1
   7 -11  -3    1.23    0.05   1
   7 -11   3    1.21    0.06   1
   7  11  -3    1.13    0.06   1
   7  11   3    1.24    0.07   1
  11  -3   7    1.20    0.06   1
  11   3  -7    1.11    0.04   1
  11   3   7    1.20    0.06   1
 -11  -3  -9    2.20    0.08   1
 -11  -3   9    2.06    0.05   1
 -11   3  -9    1.96    0.08   1
 -11   3   9    2.04    0.03   1
  -9 -11  -3    2.09    0.09   1
  -9 -11   3    1.93    0.08   1
  -9  11  -3    2.03    0.07   1
  -9  11   3    2.12    0.06   1
  -3  -9 -11    2.01    0.08   1
  -3  -9  11    2.12    0.08   1
  -3   9  11    2.03    0.07   1
   3  -9 -11    2.15    0.07   1
   3  -9  11    2.12    0.09   1
   3  -9  11    1.89    0.08   1
   3   9 -11    1.98    0.08   1
   3   9  11    2.07    0.08   1
   9 -11  -3    2.12    0.06   1
   9 -11   3    2.05    0.07   1
   9  11  -3    2.03    0.08   1
   9  11   3    1.97    0.08   1
  11  -3   9    1.95    0.08   1
  11   3   9    2.00    0.08   1
 -11  -5  -1    0.01    0.02   1
 -11  -5   1    0.04    0.02   1
  -5  -1 -11   -0.01    0.03   1
  -5  -1  11    0.00    0.02   1
  -5  -1  11    0.01    0.02   1
  -5   1 -11   -0.01    0.02   1
  -5   1  11   -0.03    0.02   1
  -1 -11  -5    0.04    0.03   1
  -1 -11   5   -0.02    0.03   1
  -1  11  -5    0.00    0.02   1
  -1  11   5   -0.01    0.02   1
   1 -11  -5   -0.02    0.03   1
   1 -11   5   -0.02    0.03   1
   1  11  -5    0.02    0.02   1
   1  11   5    0.00    0.02   1
   5  -1 -11    0.00    0.02   1
   5  -1  11   -0.01    0.02   1
   5   1  11    0.02    0.03   1
  11  -5  -1    0.00    0.01   1
  11  -5  -1   -0.01    0.01   1
  11  -5   1    0.02    0.02   1
  11  -5   1    0.00    0.02   1
  11   5  -1    0.00    0.02   1
  11   5   1    0.03    0.02   1
 -11  -5   3    0.02    0.02   1
  -5  -3 -11    0.00    0.02   1
  -5  -3  11   -0.01    0.02   1
  -5  -3  11   -0.04    0.02   1
  -5   3 -11   -0.01    0.03   1
  -5   3  11   -0.04    0.02   1
  -3 -11  -5   -0.01    0.03   1
  -3 -11   5    0.03    0.03   1
  -3  11  -5   -0.01    0.03   1
  -3  11   5   -0.01    0.02   1
   3 -11   5    0.00    0.03   1
   3  11  -5    0.00    0.02   1
   3  11   5   -0.02    0.02   1
   5  -3 -11   -0.01    0.02   1
   5  -3  11    0.02    0.03   1
   5   3  11   -0.03    0.02   1
  11  -5  -3   -0.01    0.01   1
  11  -5  -3    0.00    0.01   1
  11  -5   3   -0.01    0.02   1
  11  -5   3   -0.01    0.02   1
  11   5  -3   -0.02    0.02   1
  11   5   3    0.01    0.02   1
 -11  -5  -5    0.41    0.05   1
 -11  -5   5    0.25    0.03   1
  -5 -11  -5    0.32    0.04   1
  -5 -11   5    0.34    0.04   1
  -5  -5 -11    0.35    0.05   1
  -5  -5  11    0.33    0.04   1
  -5   5  11    0.32    0.04   1
  -5  11  -5    0.34    0.04   1
  -5  11   5    0.33    0.04   1
   5 -11  -5    0.42    0.04   1
   5 -11   5    0.30    0.04   1
   5  -5 -11    0.36    0.04   1
   5  -5  11    0.22    0.03   1
   5  -5  11    0.20    0.03   1
   5   5  11    0.29    0.04   1
   5  11  -5    0.25    0.04   1
   5  11   5    0.20    0.03   1
  11  -5   5    0.35    0.04   1
  11  -5   5    0.27    0.03   1
  11   5  -5    0.34    0.04   1
  11   5   5    0.35    0.04   1
 -11  -5  -7    0.05    0.03   1
 -11  -5   7   -0.02    0.02   1
  -7 -11  -5   -0.06    0.03   1
  -7 -11   5    0.01    0.03   1
  -7  11  -5    0.05    0.03   1
  -7  11   5    0.02    0.02   1
  -5  -7 -11   -0.02    0.03   1
  -5  -7  11    0.01    0.02   1
  -5   7  11    0.00    0.02   1
   5  -7 -11   -0.02    0.02   1
   5  -7  11    0.02    0.03   1
   5  -7  11    0.04    0.03   1
   5   7 -11    0.00    0.03   1
   5   7  11    0.02    0.03   1
   7 -11  -5    0.00    0.02   1
   7 -11   5    0.03    0.03   1
   7  11  -5    0.01    0.02   1
   7  11   5    0.00    0.02   1
  11  -5   7   -0.05    0.02   1
  11   5  -7    0.00    0.02   1
  11   5   7   -0.01    0.02   1
 -11  -5  -9    0.15    0.04   1
 -11  -5   9    0.15    0.03   1
 -11   5  -9    0.17    0.04   1
 -11   5   9    0.17    0.02   1
  -9 -11  -5    0.22    0.04   1
  -9 -11   5    0.18    0.04   1
  -9  11  -5    0.18    0.04   1
  -9  11   5    0.18    0.03   1
  -5  -9 -11    0.14    0.04   1
  -5  -9  11    0.17    0.04   1
  -5   9  11    0.22    0.03   1
   5  -9  11    0.14    0.04   1
   5  -9  11    0.18    0.04   1
   5   9 -11    0.10    0.03   1
   5   9  11    0.15    0.03   1
   9 -11  -5    0.16    0.03   1
   9 -11   5    0.20    0.04   1
   9  11  -5    0.16    0.03   1
   9  11   5    0.17    0.04   1
  11  -5   9    0.19    0.03   1
  11   5  -9    0.15    0.02   1
  11   5   9    0.14    0.03   1
 -11  -7  -1    2.27    0.07   1
  -7  -1 -11    2.18    0.08   1
  -7  -1  11    2.10    0.06   1
  -7  -1  11    2.18    0.06   1
  -7   1 -11    2.21    0.08   1
  -7   1  11    2.10    0.06   1
  -7   1  11    2.04    0.06   1
  -1 -11  -7    2.35    0.08   1
  -1 -11   7    2.22    0.08   1
  -1  11  -7    2.22    0.08   1
  -1  11   7    2.20    0.07   1
   1 -11  -7    2.26    0.08   1
   1 -11   7    2.33    0.08   1
   1  11  -7    2.20    0.08   1
   1  11   7    2.23    0.08   1
   7  -1  11    2.19    0.08   1
   7   1  11    2.19    0.08   1
  11  -7  -1    2.13    0.05   1
  11  -7  -1    2.12    0.05   1
  11  -7   1    2.18    0.06   1
  11  -7   1    2.05    0.07   1
  11   7  -1    2.22    0.07   1
  11   7   1    2.19    0.07   1
 -11  -7  -3    1.16    0.06   1
 -11  -7   3    1.27    0.06   1
 -11   7   3    1.17    0.03   1
  -7  -3 -11    1.15    0.07   1
  -7  -3  11    1.25    0.05   1
  -7  -3  11    1.13    0.05   1
  -7   3 -11    1.15    0.07   1
  -3 -11  -7    1.21    0.07   1
  -3 -11   7    1.26    0.07   1
  -3  11  -7    1.21    0.07   1
  -3  11   7    1.25    0.06   1
   3 -11  -7    1.21    0.06   1
   3 -11   7    1.21    0.07   1
   3  11  -7    1.17    0.06   1
   3  11   7    1.29    0.07   1
   7  -3 -11    1.15    0.04   1
   7  -3  11    1.19    0.07   1
   7   3  11    1.26    0.07   1
  11  -7  -3    1.21    0.04   1
  11  -7   3    1.27    0.05   1
  11  -7   3    1.11    0.05   1
  11   7  -3    1.24    0.05   1
  11   7   3    1.27    0.06   1
 -11  -7  -5    0.06    0.03   1
 -11  -7   5    0.00    0.02   1
 -11   7   5    0.01    0.01   1
  -7  -5 -11    0.01    0.03   1
  -7   5  11   -0.03    0.02   1
  -5 -11  -7    0.01    0.03   1
  -5 -11   7    0.02    0.03   1
  -5  11  -7    0.02    0.03   1
  -5  11   7    0.01    0.02   1
   5 -11  -7    0.01    0.03   1
   5 -11   7   -0.01    0.03   1
   5  11  -7    0.01    0.03   1
   5  11   7    0.00    0.03   1
   7  -5 -11    0.00    0.02   1
   7  -5  11   -0.04    0.02   1
   7   5 -11    0.01    0.02   1
   7   5  11   -0.01    0.03   1
  11  -7  -5    0.04    0.01   1
  11  -7   5    0.07    0.03   1
  11  -7   5   -0.04    0.02   1
  11   7  -5    0.01    0.02   1
  11   7   5    0.03    0.03   1
 -11  -7  -7    0.00    0.03   1
 -11   7   7    0.02    0.01   1
  -7 -11  -7    0.06    0.04   1
  -7 -11   7    0.01    0.03   1
  -7  -7 -11    0.05    0.03   1
  -7  -7  11   -0.01    0.03   1
  -7   7  11    0.04    0.02   1
  -7  11  -7    0.03    0.03   1
  -7  11   7    0.04    0.02   1
   7 -11  -7    0.02    0.02   1
   7 -11   7    0.01    0.03   1
   7  -7 -11    0.02    0.02   1
   7  -7  11   -0.01    0.03   1
   7  -7  11    0.05    0.03   1
   7   7 -11    0.04    0.02   1
   7   7  11    0.00    0.02   1
   7  11  -7    0.04    0.03   1
   7  11   7    0.09    0.03   1
  11  -7  -7    0.01    0.01   1
  11  -7   7   -0.04    0.02   1
  11  -7   7    0.02    0.02   1
  11   7  -7    0.03    0.02   1
  11   7   7    0.06    0.03   1
 -11  -7  -9    0.40    0.06   1
 -11  -7   9    0.35    0.04   1
 -11   7   9    0.37    0.02   1
  -9 -11  -7    0.38    0.05   1
  -9 -11   7    0.35    0.04   1
  -9  11   7    0.43    0.04   1
  -7  -9 -11    0.44    0.06   1
  -7  -9  11    0.35    0.05   1
  -7   9  11    0.43    0.04   1
   7  -9 -11    0.34    0.04   1
   7  -9  11    0.46    0.05   1
   7  -9  11    0.41    0.05   1
   7   9 -11    0.30    0.04   1
   7   9  11    0.33    0.04   1
   9 -11  -7    0.43    0.04   1
   9 -11   7    0.48    0.05   1
   9  11  -7    0.41    0.05   1
   9  11   7    0.55    0.06   1
  11  -7  -9    0.37    0.03   1
  11  -7   9    0.41    0.05   1
  11  -7   9    0.39    0.05   1
  11   7  -9    0.45    0.04   1
  11   7   9    0.30    0.04   1
 -11  -9  -1    3.72    0.10   1
 -11  -9   1    3.84    0.10   1
 -11   9   1    3.84    0.07   1
  -9  -1 -11    3.69    0.10   1
  -9  -1  11    3.62    0.07   1
  -9  -1  11    3.72    0.07   1
  -9   1 -11    3.68    0.10   1
  -9   1  11    3.75    0.06   1
  -9   1  11    3.66    0.06   1
  -1 -11  -9    3.77    0.10   1
  -1 -11   9    3.74    0.10   1
  -1  11  -9    3.63    0.10   1
  -1  11   9    3.84    0.10   1
   1 -11  -9    3.67    0.10   1
   1 -11   9    3.64    0.10   1
   1  11  -9    3.75    0.10   1
   1  11   9    3.80    0.10   1
   9  -1  11    3.72    0.10   1
   9   1  11    3.78    0.10   1
  11  -9  -1    3.90    0.07   1
  11  -9   1    3.79    0.08   1
  11   9  -1    3.85    0.09   1
  11   9   1    3.69    0.09   1
 -11  -9  -3    1.99    0.08   1
 -11  -9   3    2.09    0.07   1
 -11   9   3    2.01    0.05   1
  -9  -3 -11    2.05    0.08   1
  -9  -3  11    2.00    0.06   1
  -9  -3  11    1.95    0.06   1
  -9   3 -11    2.02    0.08   1
  -9   3  11    1.95    0.05   1
  -3 -11  -9    2.00    0.08   1
  -3 -11   9    2.05    0.08   1
  -3  11  -9    1.99    0.08   1
  -3  11   9    2.03    0.07   1
   3 -11  -9    2.05    0.08   1
   3 -11   9    2.04    0.08   1
   3  11  -9    2.01    0.08   1
   3  11   9    2.09    0.08   1
   9  -3  11    2.02    0.08   1
   9   3  11    2.12    0.08   1
  11  -9  -3    2.09    0.05   1
  11  -9   3    1.92    0.06   1
  11   9  -3    2.00    0.07   1
  11   9   3    2.11    0.08   1
 -11  -9  -5    0.13    0.04   1
 -11  -9   5    0.20    0.04   1
 -11   9   5    0.13    0.02   1
  -9  -5 -11    0.19    0.04   1
  -9   5 -11    0.07    0.04   1
  -9   5  11    0.15    0.02   1
  -5 -11  -9    0.12    0.04   1
  -5 -11   9    0.12    0.03   1
  -5  11  -9    0.21    0.04   1
  -5  11   9    0.15    0.03   1
   5 -11  -9    0.14    0.03   1
   5 -11   9    0.18    0.04   1
   5  11  -9    0.15    0.03   1
   5  11   9    0.18    0.04   1
   9  -5 -11    0.13    0.02   1
   9  -5  11    0.16    0.03   1
   9   5 -11    0.13    0.03   1
   9   5  11    0.12    0.03   1
  11  -9  -5    0.17    0.02   1
  11  -9   5    0.19    0.04   1
  11  -9   5    0.14    0.03   1
  11   9  -5    0.20    0.03   1
  11   9   5    0.12    0.03   1
 -11  -9  -7    0.45    0.06   1
 -11  -9   7    0.39    0.04   1
 -11   9   7    0.32    0.03   1
  -9  -7 -11    0.31    0.05   1
  -9  -7  11    0.40    0.04   1
  -7 -11  -9    0.42    0.05   1
  -7 -11   9    0.35    0.05   1
  -7  11   9    0.34    0.04   1
   7 -11  -9    0.35    0.04   1
   7 -11   9    0.35    0.05   1
   7  11  -9    0.41    0.05   1
   7  11   9    0.37    0.05   1
   9  -7 -11    0.31    0.03   1
   9  -7  11    0.42    0.05   1
   9  -7  11    0.30    0.04   1
   9   7 -11    0.39    0.04   1
   9   7  11    0.44    0.05   1
  11  -9  -7    0.38    0.03   1
  11  -9   7    0.48    0.05   1
  11  -9   7    0.29    0.04   1
  11   9  -7    0.36    0.04   1
  11   9   7    0.43    0.05   1
 -11  -9  -9    1.75    0.09   1
 -11  -9   9    1.77    0.08   1
 -11   9   9    1.91    0.05   1
  -9 -11  -9    1.78    0.09   1
  -9 -11   9    1.84    0.08   1
  -9  -9 -11    1.69    0.09   1
  -9  -9  11    1.78    0.08   1
  -9   9  11    1.77    0.06   1
  -9  11   9    1.92    0.06   1
   9 -11  -9    1.69    0.06   1
   9 -11   9    1.72    0.09   1
   9 -11   9    1.65    0.07   1
   9  -9 -11    1.77    0.06   1
   9  -9  11    1.63    0.09   1
   9  -9  11    1.75    0.08   1
   9   9 -11    1.82    0.07   1
   9   9  11    1.89    0.09   1
   9  11  -9    1.61    0.07   1
   9  11   9    1.92    0.08   1
  11  -9  -9    1.71    0.05   1
  11  -9   9    1.66    0.08   1
  11  -9   9    1.78    0.07   1
  11   9  -9    1.59    0.07   1
  11   9   9    1.89    0.08   1
 -11 -11  -1    3.39    0.10   1
 -11 -11   1    3.40    0.10   1
 -11  -1 -11    3.38    0.10   1
 -11  -1  11    3.48    0.07   1
 -11  -1  11    3.10    0.07   1
 -11   1 -11    3.35    0.10   1
 -11   1  11    3.38    0.06   1
 -11   1  11    3.39    0.06   1
 -11  11  -1    3.53    0.08   1
 -11  11   1    3.52    0.08   1
  -1 -11 -11    3.48    0.10   1
  -1 -11  11    3.39    0.11   1
  -1  11 -11    3.25    0.10   1
  -1  11  11    3.40    0.10   1
   1 -11 -11    3.09    0.09   1
   1 -11  11    3.42    0.11   1
   1  11 -11    3.30    0.10   1
   1  11  11    3.30    0.10   1
  11 -11  -1    3.51    0.08   1
  11  -1  11    3.34    0.10   1
  11   1  11    3.45    0.10   1
  11  11  -1    3.36    0.09   1
  11  11   1    3.46    0.10   1
 -11 -11  -3    2.56    0.10   1
 -11 -11   3    2.51    0.09   1
 -11  -3 -11    2.48    0.10   1
 -11  -3  11    2.56    0.07   1
 -11  -3  11    2.37    0.06   1
 -11   3 -11    2.43    0.09   1
 -11   3  11    2.41    0.05   1
 -11   3  11    2.46    0.04   1
 -11  11  -3    2.48    0.08   1
 -11  11   3    2.41    0.06   1
  -3 -11 -11    2.59    0.09   1
  -3 -11  11    2.44    0.09   1
  -3  11 -11    2.36    0.09   1
  -3  11  11    2.60    0.08   1
   3 -11 -11    2.45    0.08   1
   3 -11  11    2.40    0.09   1
   3  11 -11    2.53    0.09   1
   3  11  11    2.70    0.09   1
  11 -11  -3    2.52    0.06   1
  11 -11   3    2.51    0.08   1
  11  -3  11    2.54    0.09   1
  11   3  11    2.55    0.09   1
  11  11  -3    2.59    0.08   1
  11  11   3    2.42    0.09   1
 -11 -11  -5    0.57    0.07   1
 -11 -11   5    0.61    0.06   1
 -11  -5 -11    0.57    0.06   1
 -11  -5  11    0.62    0.05   1
 -11   5 -11    0.50    0.06   1
 -11   5  11    0.48    0.03   1
 -11  11   5    0.51    0.04   1
  -5 -11 -11    0.56    0.06   1
  -5 -11  11    0.56    0.06   1
  -5  11  11    0.52    0.05   1
   5 -11 -11    0.55    0.05   1
   5 -11  11    0.47    0.06   1
   5  11 -11    0.54    0.05   1
   5  11  11    0.42    0.05   1
  11 -11  -5    0.53    0.04   1
  11 -11   5    0.50    0.05   1
  11 -11   5    0.47    0.05   1
  11  -5 -11    0.50    0.03   1
  11  -5  11    0.53    0.05   1
  11   5 -11    0.53    0.04   1
  11   5  11    0.44    0.05   1
  11  11  -5    0.61    0.05   1
  11  11   5    0.50    0.05   1
 -11 -11  -7    1.69    0.09   1
 -11 -11   7    1.76    0.08   1
 -11  -7 -11    1.73    0.09   1
 -11  -7  11    1.52    0.07   1
 -11   7  11    1.64    0.04   1
 -11  11   7    1.77    0.05   1
  -7 -11 -11    1.60    0.09   1
  -7 -11  11    1.56    0.08   1
  -7  11  11    1.64    0.06   1
   7 -11 -11    1.72    0.07   1
   7 -11  11    1.53    0.09   1
   7 -11  11    1.52    0.07   1
   7  11 -11    1.57    0.07   1
   7  11  11    1.84    0.09   1
  11 -11  -7    1.64    0.05   1
  11 -11   7    1.53    0.08   1
  11 -11   7    1.62    0.07   1
  11  -7 -11    1.59    0.04   1
  11  -7  11    1.60    0.08   1
  11  -7  11    1.62    0.07   1
  11   7 -11    1.63    0.06   1
  11   7  11    1.66    0.08   1
  11  11  -7    1.65    0.07   1
  11  11   7    1.71    0.08   1
 -11 -11  -9    1.99    0.10   1
 -11 -11   9    2.16    0.09   1
 -11  -9 -11    1.93    0.10   1
 -11  -9  11    1.91    0.08   1
 -11  11   9    1.98    0.06   1
  -9 -11 -11    2.10    0.10   1
  -9 -11  11    2.00    0.09   1
  -9  11  11    2.02    0.06   1
   9 -11 -11    1.92    0.07   1
   9 -11  11    1.90    0.10   1
   9 -11  11    1.98    0.08   1
   9  11 -11    2.34    0.08   1
   9  11  11    2.05    0.09   1
  11 -11  -9    1.93    0.06   1
  11 -11   9    1.84    0.09   1
  11 -11   9    2.14    0.08   1
  11  -9 -11    1.96    0.05   1
  11  -9  11    1.78    0.09   1
  11  -9  11    1.94    0.08   1
  11   9 -11    1.79    0.07   1
  11   9  11    1.99    0.09   1
  11  11  -9    1.89    0.08   1
  11  11   9    1.95    0.09   1
 -11 -11 -11    2.04    0.11   1
 -11 -11  11    2.24    0.09   1
 -11  11  11    2.21    0.06   1
  11 -11 -11    2.18    0.06   1
  11 -11  11    2.06    0.10   1
  11 -11  11    2.24    0.09   1
  11  11 -11    2.28    0.08   1
  11  11  11    2.31    0.10   1
 -12   0   0    7.52    0.09   1
   0 -12   0    7.76    0.13   1
   0   0 -12    7.38    0.12   1
   0   0  12    7.61    0.12   1
   0  12   0    7.72    0.13   1
  12   0   0    7.54    0.09   1
 -12   0  -2    0.60    0.04   1
 -12   0   2    0.65    0.03   1
  -2 -12   0    0.60    0.05   1
  -2  12   0    0.62    0.05   1
   0  -2 -12    0.55    0.05   1
   0  -2  12    0.62    0.05   1
   0   2 -12    0.68    0.05   1
   0   2  12    0.62    0.05   1
   2 -12   0    0.64    0.05   1
   2  12   0    0.63    0.05   1
  12   0  -2    0.60    0.03   1
  12   0   2    0.62    0.04   1
 -12   0  -4    0.15    0.03   1
 -12   0   4    0.17    0.01   1
  -4 -12   0    0.25    0.04   1
  -4  12   0    0.15    0.03   1
   0  -4 -12    0.14    0.03   1
   0  -4  12    0.17    0.03   1
   0  -4  12    0.16    0.03   1
   0   4  12    0.15    0.03   1
   4 -12   0    0.16    0.03   1
   4  12   0    0.12    0.03   1
  12   0  -4    0.17    0.02   1
  12   0   4    0.12    0.03   1
 -12   0  -6    0.70    0.05   1
 -12   0   6    0.73    0.02   1
  -6 -12   0    0.64    0.06   1
  -6  12   0    0.73    0.05   1
   0  -6 -12    0.69    0.06   1
   0  -6  12    0.75    0.06   1
   0  -6  12    0.76    0.06   1
   0   6  12    0.63    0.05   1
   6 -12   0    0.69    0.05   1
   6  12   0    0.75    0.06   1
  12   0  -6    0.68    0.02   1
  12   0   6    0.75    0.05   1
 -12   0  -8    2.91    0.09   1
 -12   0   8    2.81    0.04   1
 -12   0   8    2.79    0.04   1
  -8 -12   0    3.02    0.10   1
  -8  12   0    2.96    0.08   1
   0  -8 -12    2.99    0.09   1
   0  -8  12    2.86    0.09   1
   0  -8  12    2.72    0.09   1
   0   8  12    2.93    0.09   1
   8 -12   0    3.05    0.08   1
   8  12   0    2.95    0.09   1
  12   0   8    2.91    0.09   1
 -12   0 -10    3.41    0.10   1
 -12   0  10    3.38    0.05   1
 -12   0  10    3.28    0.05   1
 -10 -12   0    3.40    0.11   1
 -10  12   0    3.24    0.08   1
   0 -10 -12    3.27    0.10   1
   0 -10  12    3.29    0.11   1
   0  10 -12    3.22    0.10   1
   0  10  12    3.39    0.10   1
  10 -12   0    3.23    0.08   1
  10  12   0    3.31    0.10   1
  12   0  10    3.10    0.09   1
 -12  -2   0    0.57    0.04   1
 -12   2   0    0.57    0.03   1
  -2   0 -12    0.67    0.05   1
  -2   0  12    0.60    0.04   1
   0 -12  -2    0.63    0.05   1
   0 -12   2    0.63    0.06   1
   0  12  -2    0.70    0.05   1
   0  12   2    0.68    0.05   1
   2   0  12    0.55    0.05   1
  12  -2   0    0.56    0.03   1
 -12  -2  -2    0.18    0.03   1
 -12  -2   2    0.17    0.02   1
 -12   2  -2    0.23    0.03   1
 -12   2   2    0.16    0.02   1
  -2 -12  -2    0.17    0.03   1
  -2 -12   2    0.15    0.03   1
  -2  -2 -12    0.18    0.04   1
  -2  -2  12    0.17    0.03   1
  -2   2 -12    0.18    0.04   1
  -2   2  12    0.10    0.03   1
  -2  12  -2    0.15    0.03   1
  -2  12   2    0.13    0.03   1
   2 -12  -2    0.18    0.03   1
   2 -12   2    0.23    0.04   1
   2  -2  12    0.15    0.03   1
   2   2  12    0.11    0.03   1
   2  12  -2    0.15    0.03   1
   2  12   2    0.16    0.03   1
  12  -2  -2    0.21    0.02   1
  12   2  -2    0.15    0.02   1
  12   2   2    0.17    0.03   1
 -12  -2  -4    0.03    0.03   1
 -12  -2   4    0.04    0.02   1
 -12   2  -4   -0.02    0.02   1
  -4 -12  -2    0.03    0.03   1
  -4 -12   2    0.05    0.03   1
  -4  12  -2    0.03    0.02   1
  -4  12   2   -0.02    0.02   1
  -2  -4 -12    0.06    0.03   1
  -2  -4  12    0.02    0.02   1
  -2  -4  12    0.04    0.02   1
  -2   4  12    0.01    0.02   1
   2  -4 -12   -0.02    0.03   1
   2  -4  12    0.00    0.03   1
   2  -4  12    0.02    0.03   1
   2   4  12   -0.03    0.03   1
   4 -12  -2    0.01    0.02   1
   4 -12   2    0.00    0.03   1
   4  12  -2    0.00    0.02   1
   4  12   2    0.04    0.03   1
  12  -2   4    0.01    0.02   1
  12   2  -4    0.03    0.01   1
  12   2   4    0.00    0.02   1
 -12  -2  -6    0.08    0.03   1
 -12  -2   6    0.09    0.02   1
 -12   2  -6    0.12    0.03   1
  -6 -12  -2    0.15    0.04   1
  -6 -12   2    0.09    0.03   1
  -6  12  -2    0.09    0.03   1
  -6  12   2    0.10    0.03   1
  -2  -6 -12    0.04    0.03   1
  -2  -6  12    0.24    0.04   1
  -2  -6  12    0.12    0.03   1
  -2   6  12    0.08    0.03   1
   2  -6 -12    0.11    0.03   1
   2  -6  12    0.08    0.03   1
   2  -6  12    0.08    0.03   1
   2   6  12    0.06    0.03   1
   6 -12   2    0.09    0.03   1
   6  12  -2    0.06    0.03   1
   6  12   2    0.14    0.03   1
  12  -2   6    0.06    0.02   1
  12   2  -6    0.07    0.01   1
  12   2   6    0.06    0.03   1
 -12  -2  -8    0.82    0.06   1
 -12  -2   8    0.94    0.04   1
 -12   2  -8    0.89    0.06   1
  -8 -12  -2    0.93    0.07   1
  -8 -12   2    0.87    0.07   1
  -8  12  -2    0.90    0.05   1
  -8  12   2    0.88    0.05   1
  -2  -8 -12    0.92    0.07   1
  -2  -8  12    0.91    0.07   1
  -2   8  12    0.90    0.06   1
   2  -8 -12    0.84    0.06   1
   2  -8  12    0.81    0.07   1
   2  -8  12    0.95    0.06   1
   2   8 -12    0.82    0.06   1
   2   8  12    0.96    0.06   1
   8 -12  -2    0.92    0.06   1
   8 -12   2    0.86    0.06   1
   8  12  -2    0.99    0.06   1
   8  12   2    0.82    0.06   1
  12  -2   8    0.83    0.06   1
  12   2  -8    0.81    0.04   1
  12   2   8    0.81    0.06   1
 -12  -2 -10    2.13    0.09   1
 -12  -2  10    2.19    0.05   1
 -12  -2  10    2.16    0.05   1
 -12   2 -10    2.01    0.08   1
 -12   2  10    2.17    0.04   1
 -12   2  10    2.29    0.03   1
 -10 -12  -2    2.19    0.09   1
 -10 -12   2    2.28    0.09   1
 -10  12  -2    2.19    0.07   1
 -10  12   2    2.40    0.07   1
  -2 -10 -12    2.37    0.09   1
  -2 -10  12    2.13    0.09   1
  -2  10  12    2.31    0.08   1
   2 -10 -12    2.26    0.08   1
   2 -10  12    2.15    0.09   1
   2  10 -12    2.31    0.08   1
   2  10  12    2.28    0.09   1
  10 -12  -2    2.19    0.07   1
  10 -12   2    2.11    0.08   1
  10  12  -2    2.30    0.08   1
  10  12   2    2.30    0.08   1
  12  -2  10    2.26    0.08   1
  12   2  10    2.13    0.08   1
 -12  -4   0    0.13    0.03   1
  -4   0 -12    0.17    0.04   1
   0 -12  -4    0.16    0.03   1
   0 -12   4    0.15    0.03   1
   0  12  -4    0.14    0.03   1
   0  12   4    0.15    0.03   1
   4   0 -12    0.25    0.03   1
   4   0  12    0.14    0.03   1
  12  -4   0    0.17    0.02   1
  12  -4   0    0.15    0.02   1
  12   4   0    0.15    0.02   1
 -12  -4  -2    0.06    0.03   1
 -12  -4   2    0.06    0.02   1
  -4  -2 -12    0.04    0.03   1
  -4  -2  12    0.02    0.02   1
  -4   2 -12    0.04    0.03   1
  -4   2  12   -0.01    0.02   1
  -2 -12  -4    0.02    0.03   1
  -2 -12   4    0.05    0.03   1
  -2  12  -4    0.02    0.03   1
  -2  12   4    0.06    0.02   1
   2 -12  -4    0.05    0.03   1
   2 -12   4   -0.01    0.03   1
   2  12  -4   -0.02    0.02   1
   2  12   4    0.02    0.03   1
   4  -2 -12    0.03    0.02   1
   4  -2  12   -0.01    0.02   1
   4   2  12    0.00    0.03   1
  12  -4  -2    0.01    0.01   1
  12  -4  -2    0.02    0.01   1
  12   4  -2    0.03    0.02   1
  12   4   2    0.07    0.02   1
 -12  -4  -4    0.01    0.03   1
 -12  -4   4    0.05    0.02   1
 -12   4  -4    0.02    0.02   1
  -4 -12  -4    0.06    0.03   1
  -4 -12   4    0.01    0.03   1
  -4  -4 -12   -0.03    0.03   1
  -4  -4  12    0.00    0.02   1
  -4  -4  12   -0.01    0.02   1
  -4   4  12   -0.03    0.02   1
  -4  12  -4   -0.02    0.02   1
  -4  12   4   -0.02    0.02   1
   4 -12  -4    0.04    0.03   1
   4 -12   4    0.02    0.03   1
   4  -4 -12    0.01    0.02   1
   4  -4  12    0.04    0.03   1
   4   4  12    0.00    0.02   1
   4  12  -4    0.01    0.03   1
   4  12   4    0.02    0.02   1
  12  -4   4    0.02    0.02   1
  12   4   4    0.00    0.02   1
 -12  -4  -6    0.03    0.03   1
 -12  -4   6    0.01    0.02   1
 -12   4  -6    0.01    0.03   1
  -6 -12  -4    0.05    0.03   1
  -6 -12   4    0.01    0.03   1
  -6  12  -4    0.04    0.02   1
  -6  12   4    0.00    0.02   1
  -4  -6 -12    0.02    0.03   1
  -4  -6  12    0.05    0.03   1
  -4  -6  12    0.00    0.02   1
  -4   6  12    0.02    0.02   1
   4  -6 -12   -0.03    0.03   1
   4  -6  12   -0.01    0.03   1
   4  -6  12   -0.03    0.02   1
   4   6  12   -0.03    0.02   1
   6 -12   4    0.02    0.03   1
   6  12  -4   -0.01    0.02   1
   6  12   4   -0.02    0.03   1
  12  -4   6    0.04    0.02   1
  12   4   6    0.06    0.03   1
 -12  -4  -8    0.20    0.04   1
 -12  -4   8    0.15    0.02   1
 -12   4  -8    0.13    0.03   1
  -8 -12  -4    0.16    0.04   1
  -8 -12   4    0.13    0.03   1
  -8  12  -4    0.15    0.03   1
  -8  12   4    0.18    0.03   1
  -4  -8 -12    0.13    0.04   1
  -4  -8  12    0.17    0.04   1
  -4   8  12    0.16    0.03   1
   4  -8 -12    0.15    0.03   1
   4  -8  12    0.23    0.04   1
   4  -8  12    0.17    0.03   1
   4   8 -12    0.19    0.04   1
   4   8  12    0.14    0.04   1
   8 -12  -4    0.20    0.03   1
   8 -12   4    0.17    0.03   1
   8  12  -4    0.16    0.03   1
   8  12   4    0.22    0.04   1
  12  -4   8    0.16    0.03   1
  12   4  -8    0.17    0.02   1
  12   4   8    0.19    0.04   1
 -12  -4 -10    0.56    0.06   1
 -12  -4  10    0.77    0.05   1
 -12   4 -10    0.72    0.07   1
 -10 -12  -4    0.69    0.07   1
 -10 -12   4    0.64    0.07   1
 -10  12  -4    0.64    0.06   1
 -10  12   4    0.67    0.04   1
  -4 -10 -12    0.61    0.07   1
  -4 -10  12    0.68    0.07   1
  -4  10  12    0.76    0.06   1
   4 -10 -12    0.74    0.06   1
   4 -10  12    0.65    0.07   1
   4 -10  12    0.71    0.06   1
   4  10 -12    0.61    0.06   1
   4  10  12    0.62    0.06   1
  10 -12  -4    0.68    0.05   1
  10 -12   4    0.66    0.06   1
  10  12  -4    0.74    0.06   1
  10  12   4    0.73    0.06   1
  12  -4  10    0.67    0.05   1
  12   4 -10    0.72    0.04   1
  12   4  10    0.71    0.06   1
 -12  -6   0    0.72    0.05   1
  -6   0 -12    0.65    0.06   1
  -6   0  12    0.74    0.04   1
  -6   0  12    0.74    0.04   1
   0 -12  -6    0.79    0.06   1
   0 -12   6    0.79    0.06   1
   0  12  -6    0.59    0.06   1
   0  12   6    0.76    0.06   1
   6   0  12    0.63    0.05   1
  12  -6   0    0.70    0.04   1
  12  -6   0    0.70    0.04   1
  12   6   0    0.80    0.05   1
 -12  -6  -2    0.10    0.03   1
 -12  -6   2    0.09    0.03   1
  -6  -2 -12    0.22    0.04   1
  -6  -2  12    0.07    0.02   1
  -6  -2  12    0.06    0.02   1
  -6   2 -12    0.06    0.03   1
  -6   2  12    0.07    0.02   1
  -2 -12  -6    0.09    0.03   1
  -2 -12   6    0.09    0.03   1
  -2  12  -6    0.05    0.03   1
  -2  12   6    0.07    0.03   1
   2 -12  -6    0.10    0.03   1
   2 -12   6    0.08    0.03   1
   2  12  -6    0.10    0.03   1
   2  12   6    0.12    0.03   1
   6  -2 -12    0.11    0.02   1
   6  -2  12    0.11    0.03   1
   6   2  12    0.04    0.03   1
  12  -6  -2    0.09    0.02   1
  12  -6  -2    0.10    0.01   1
  12  -6   2    0.11    0.02   1
  12  -6   2    0.07    0.02   1
  12   6  -2    0.07    0.02   1
  12   6   2    0.05    0.02   1
 -12  -6  -4    0.00    0.03   1
 -12  -6   4    0.02    0.02   1
  -6  -4 -12    0.00    0.03   1
  -6  -4  12    0.03    0.02   1
  -6  -4  12    0.04    0.02   1
  -6   4 -12    0.04    0.03   1
  -6   4  12    0.00    0.02   1
  -4 -12  -6    0.00    0.03   1
  -4 -12   6    0.04    0.03   1
  -4  12  -6   -0.01    0.03   1
  -4  12   6    0.00    0.02   1
   4 -12  -6   -0.01    0.02   1
   4 -12   6   -0.02    0.03   1
   4  12  -6   -0.01    0.02   1
   4  12   6   -0.01    0.02   1
   6  -4 -12   -0.01    0.02   1
   6  -4  12    0.04    0.03   1
   6   4  12    0.01    0.03   1
  12  -6   4    0.01    0.02   1
  12  -6   4    0.03    0.02   1
  12   6  -4    0.00    0.02   1
  12   6   4    0.00    0.02   1
 -12  -6  -6    0.11    0.03   1
 -12  -6   6    0.10    0.03   1
  -6 -12  -6    0.13    0.04   1
  -6 -12   6    0.11    0.04   1
  -6  -6 -12    0.14    0.04   1
  -6  -6  12    0.12    0.03   1
  -6   6  12    0.14    0.02   1
  -6  12  -6    0.14    0.03   1
  -6  12   6    0.06    0.02   1
   6 -12   6    0.10    0.04   1
   6  -6 -12    0.11    0.03   1
   6  -6  12    0.08    0.03   1
   6  -6  12    0.12    0.03   1
   6   6 -12    0.14    0.03   1
   6   6  12    0.11    0.03   1
   6  12  -6    0.06    0.03   1
   6  12   6    0.09    0.03   1
  12  -6   6    0.10    0.03   1
  12  -6   6    0.16    0.03   1
  12   6  -6    0.11    0.02   1
  12   6   6    0.17    0.04   1
 -12  -6  -8   -0.03    0.03   1
 -12  -6   8    0.02    0.02   1
  -8 -12  -6    0.05    0.04   1
  -8 -12   6    0.06    0.03   1
  -8  12  -6    0.04    0.03   1
  -8  12   6    0.00    0.02   1
  -6  -8 -12    0.03    0.04   1
  -6  -8  12   -0.05    0.03   1
  -6   8  12    0.02    0.02   1
   6  -8 -12    0.01    0.03   1
   6  -8  12   -0.03    0.03   1
   6  -8  12   -0.01    0.02   1
   6   8 -12    0.02    0.03   1
   6   8  12   -0.01    0.03   1
   8 -12  -6    0.00    0.02   1
   8 -12   6    0.04    0.03   1
   8  12  -6    0.02    0.03   1
   8  12   6    0.00    0.03   1
  12  -6   8   -0.02    0.03   1
  12  -6   8   -0.03    0.02   1
  12   6  -8    0.00    0.02   1
  12   6   8    0.03    0.03   1
 -12  -6 -10    0.28    0.05   1
 -12   6  10    0.34    0.02   1
 -10 -12  -6    0.40    0.06   1
 -10 -12   6    0.27    0.05   1
 -10  12  -6    0.39    0.05   1
 -10  12   6    0.34    0.04   1
  -6 -10 -12    0.38    0.06   1
  -6 -10  12    0.34    0.05   1
  -6  10  12    0.36    0.04   1
   6 -10 -12    0.35    0.04   1
   6 -10  12    0.23    0.05   1
   6 -10  12    0.22    0.04   1
   6  10 -12    0.35    0.04   1
   6  10  12    0.35    0.05   1
  10 -12  -6    0.27    0.03   1
  10 -12   6    0.28    0.04   1
  10  12  -6    0.30    0.04   1
  10  12   6    0.26    0.04   1
  12  -6 -10    0.22    0.02   1
  12  -6  10    0.33    0.05   1
  12  -6  10    0.37    0.04   1
  12   6 -10    0.35    0.04   1
  12   6  10    0.28    0.04   1
 -12  -8   0    2.90    0.09   1
  -8   0 -12    2.76    0.09   1
  -8   0  12    2.98    0.07   1
  -8   0  12    2.82    0.07   1
   0 -12  -8    2.88    0.09   1
   0 -12   8    3.00    0.10   1
   0  12  -8    3.07    0.09   1
   0  12   8    3.14    0.09   1
   8   0  12    2.88    0.09   1
  12  -8   0    3.05    0.07   1
  12  -8   0    2.76    0.07   1
  12   8   0    2.91    0.08   1
 -12  -8  -2    1.00    0.07   1
 -12  -8   2    0.91    0.06   1
  -8  -2 -12    0.90    0.07   1
  -8  -2  12    0.82    0.05   1
  -8  -2  12    0.89    0.05   1
  -8   2 -12    0.85    0.07   1
  -8   2  12    0.98    0.04   1
  -2 -12  -8    0.99    0.07   1
  -2 -12   8    0.90    0.07   1
  -2  12  -8    0.93    0.06   1
  -2  12   8    0.88    0.06   1
   2 -12  -8    0.98    0.06   1
   2 -12   8    1.00    0.07   1
   2  12  -8    0.86    0.06   1
   2  12   8    0.81    0.06   1
   8  -2  12    0.89    0.06   1
   8   2  12    0.90    0.06   1
  12  -8  -2    0.92    0.04   1
  12  -8   2    0.92    0.05   1
  12  -8   2    0.86    0.04   1
  12   8  -2    0.82    0.05   1
  12   8   2    0.96    0.06   1
 -12  -8  -4    0.21    0.04   1
 -12  -8   4    0.21    0.03   1
 -12   8   4    0.16    0.02   1
  -8  -4 -12    0.18    0.04   1
  -8  -4  12    0.16    0.03   1
  -8   4 -12    0.20    0.04   1
  -8   4  12    0.17    0.03   1
  -4 -12  -8    0.10    0.04   1
  -4 -12   8    0.16    0.04   1
  -4  12  -8    0.20    0.04   1
  -4  12   8    0.16    0.03   1
   4 -12  -8    0.17    0.04   1
   4 -12   8    0.15    0.04   1
   4  12  -8    0.12    0.03   1
   4  12   8    0.16    0.03   1
   8  -4 -12    0.18    0.02   1
   8  -4  12    0.17    0.03   1
   8   4  12    0.24    0.04   1
  12  -8  -4    0.19    0.02   1
  12  -8   4    0.16    0.03   1
  12  -8   4    0.20    0.03   1
  12   8  -4    0.13    0.02   1
  12   8   4    0.19    0.03   1
 -12  -8  -6    0.00    0.04   1
 -12  -8   6    0.01    0.03   1
 -12   8   6    0.02    0.01   1
  -8  -6 -12    0.03    0.03   1
  -8  -6  12    0.01    0.03   1
  -8   6  12    0.00    0.02   1
  -6 -12  -8    0.05    0.04   1
  -6 -12   8    0.04    0.03   1
  -6  12  -8    0.02    0.03   1
  -6  12   8    0.02    0.02   1
   6 -12  -8   -0.01    0.03   1
   6 -12   8   -0.03    0.03   1
   6  12  -8    0.00    0.03   1
   6  12   8    0.02    0.03   1
   8  -6 -12    0.02    0.02   1
   8  -6  12   -0.07    0.03   1
   8  -6  12   -0.04    0.02   1
   8   6 -12    0.02    0.02   1
   8   6  12    0.04    0.03   1
  12  -8  -6   -0.01    0.01   1
  12  -8   6   -0.02    0.03   1
  12  -8   6   -0.01    0.02   1
  12   8  -6    0.02    0.02   1
  12   8   6    0.04    0.03   1
 -12  -8  -8   -0.02    0.03   1
 -12  -8   8    0.02    0.03   1
 -12   8   8    0.03    0.01   1
  -8 -12  -8    0.01    0.04   1
  -8 -12   8   -0.01    0.03   1
  -8  -8 -12    0.08    0.04   1
  -8  -8  12    0.06    0.03   1
  -8   8  12    0.06    0.02   1
  -8  12  -8    0.06    0.03   1
  -8  12   8    0.04    0.02   1
   8 -12  -8   -0.03    0.03   1
   8 -12   8    0.06    0.03   1
   8  -8 -12    0.04    0.02   1
   8  -8  12    0.06    0.04   1
   8  -8  12    0.07    0.03   1
   8   8 -12    0.01    0.02   1
   8   8  12    0.01    0.03   1
   8  12  -8    0.05    0.02   1
   8  12   8    0.03    0.03   1
  12  -8  -8    0.02    0.01   1
  12  -8   8    0.01    0.03   1
  12  -8   8    0.04    0.03   1
  12   8  -8    0.04    0.02   1
  12   8   8    0.02    0.03   1
 -12  -8 -10    1.06    0.08   1
 -12  -8  10    1.15    0.07   1
 -12   8  10    1.10    0.03   1
 -10 -12  -8    0.94    0.08   1
 -10 -12   8    1.12    0.08   1
 -10  12   8    1.12    0.05   1
  -8 -10 -12    0.98    0.09   1
  -8 -10  12    1.24    0.08   1
  -8  10  12    1.13    0.05   1
   8 -10  12    1.17    0.08   1
   8 -10  12    1.12    0.07   1
   8  10 -12    1.17    0.06   1
   8  10  12    1.07    0.07   1
  10 -12  -8    1.10    0.06   1
  10 -12   8    1.28    0.08   1
  10 -12   8    1.04    0.06   1
  10  12  -8    1.04    0.06   1
  10  12   8    1.04    0.07   1
  12  -8 -10    1.02    0.03   1
  12  -8  10    1.33    0.08   1
  12  -8  10    1.09    0.06   1
  12   8 -10    1.09    0.06   1
  12   8  10    0.97    0.07   1
 -12 -10   0    3.40    0.10   1
 -12  10   0    3.17    0.07   1
 -10   0 -12    3.29    0.10   1
 -10   0  12    3.23    0.07   1
 -10   0  12    3.16    0.07   1
   0 -12 -10    3.37    0.10   1
   0 -12  10    3.19    0.10   1
   0  12 -10    3.34    0.10   1
   0  12  10    3.42    0.10   1
  10   0  12    3.26    0.10   1
  12 -10   0    3.38    0.08   1
  12  10   0    3.23    0.09   1
 -12 -10  -2    2.23    0.09   1
 -12 -10   2    2.29    0.08   1
 -12  10   2    2.16    0.06   1
 -10  -2 -12    2.14    0.09   1
 -10  -2  12    2.39    0.06   1
 -10  -2  12    2.25    0.06   1
 -10   2 -12    2.30    0.09   1
 -10   2  12    2.20    0.05   1
 -10   2  12    2.29    0.05   1
  -2 -12 -10    2.18    0.09   1
  -2 -12  10    2.12    0.09   1
  -2  12 -10    2.17    0.09   1
  -2  12  10    2.22    0.08   1
   2 -12 -10    2.16    0.08   1
   2 -12  10    2.19    0.09   1
   2  12 -10    2.26    0.09   1
   2  12  10    2.22    0.08   1
  10  -2  12    2.22    0.08   1
  10   2  12    2.19    0.08   1
  12 -10  -2    2.22    0.06   1
  12 -10   2    2.03    0.06   1
  12  10  -2    2.13    0.07   1
  12  10   2    2.17    0.08   1
 -12 -10  -4    0.70    0.07   1
 -12 -10   4    0.73    0.06   1
 -12  10   4    0.68    0.03   1
 -10  -4 -12    0.55    0.07   1
 -10  -4  12    0.75    0.05   1
 -10  -4  12    0.64    0.05   1
 -10   4 -12    0.71    0.07   1
 -10   4  12    0.59    0.03   1
  -4 -12 -10    0.67    0.07   1
  -4 -12  10    0.73    0.07   1
  -4  12 -10    0.61    0.06   1
  -4  12  10    0.74    0.05   1
   4 -12 -10    0.68    0.06   1
   4 -12  10    0.80    0.07   1
   4  12 -10    0.72    0.06   1
   4  12  10    0.69    0.06   1
  10  -4 -12    0.66    0.04   1
  10  -4  12    0.61    0.05   1
  10   4  12    0.62    0.06   1
  12 -10  -4    0.82    0.04   1
  12 -10   4    0.82    0.06   1
  12 -10   4    0.71    0.05   1
  12  10  -4    0.68    0.05   1
  12  10   4    0.77    0.06   1
 -12 -10  -6    0.19    0.05   1
 -12 -10   6    0.32    0.04   1
 -12  10   6    0.38    0.03   1
 -10  -6 -12    0.36    0.05   1
 -10  -6  12    0.24    0.04   1
 -10   6  12    0.27    0.03   1
  -6 -12 -10    0.23    0.05   1
  -6 -12  10    0.27    0.05   1
  -6  12 -10    0.27    0.04   1
  -6  12  10    0.31    0.04   1
   6 -12 -10    0.31    0.04   1
   6 -12  10    0.28    0.05   1
   6  12 -10    0.31    0.04   1
   6  12  10    0.36    0.05   1
  10  -6 -12    0.31    0.03   1
  10  -6  12    0.26    0.05   1
  10  -6  12    0.30    0.04   1
  10   6 -12    0.29    0.03   1
  10   6  12    0.48    0.06   1
  12 -10  -6    0.28    0.03   1
  12 -10   6    0.35    0.04   1
  12 -10   6    0.35    0.04   1
  12  10  -6    0.33    0.04   1
  12  10   6    0.32    0.05   1
 -12 -10  -8    1.13    0.08   1
 -12 -10   8    1.10    0.07   1
 -12  10   8    1.06    0.04   1
 -10  -8 -12    1.06    0.09   1
 -10  -8  12    1.10    0.07   1
 -10   8  12    1.14    0.05   1
  -8 -12 -10    1.07    0.08   1
  -8 -12  10    1.16    0.08   1
  -8  12  10    1.04    0.06   1
   8 -12 -10    1.16    0.06   1
   8 -12  10    0.91    0.08   1
   8 -12  10    1.05    0.07   1
   8  12 -10    1.32    0.07   1
   8  12  10    1.02    0.07   1
  10  -8 -12    1.10    0.05   1
  10  -8  12    1.13    0.08   1
  10  -8  12    1.00    0.07   1
  10   8 -12    0.99    0.06   1
  10   8  12    1.20    0.07   1
  12 -10  -8    1.14    0.04   1
  12 -10   8    1.22    0.08   1
  12 -10   8    1.31    0.07   1
  12  10  -8    0.96    0.06   1
  12  10   8    0.99    0.07   1
 -12 -10 -10    1.54    0.09   1
 -12 -10  10    1.44    0.08   1
 -12  10  10    1.40    0.04   1
 -10 -12 -10    1.43    0.09   1
 -10 -12  10    1.41    0.09   1
 -10 -10 -12    1.49    0.09   1
 -10 -10  12    1.30    0.08   1
 -10  10  12    1.56    0.06   1
 -10  12  10    1.45    0.06   1
  10 -12 -10    1.43    0.06   1
  10 -12  10    1.33    0.09   1
  10 -12  10    1.47    0.08   1
  10 -10 -12    1.34    0.05   1
  10 -10  12    1.51    0.09   1
  10 -10  12    1.27    0.08   1
  10  10 -12    1.66    0.07   1
  10  10  12    1.42    0.08   1
  10  12 -10    1.48    0.07   1
  10  12  10    1.37    0.08   1
  12 -10 -10    1.37    0.05   1
  12 -10  10    1.46    0.09   1
  12 -10  10    1.39    0.07   1
  12  10 -10    1.39    0.07   1
  12  10  10    1.53    0.08   1
 -12 -12   0    3.55    0.11   1
 -12   0 -12    3.79    0.12   1
 -12   0  12    3.82    0.07   1
 -12   0  12    3.64    0.06   1
 -12  12   0    3.78    0.09   1
   0 -12 -12    3.82    0.11   1
   0 -12  12    3.72    0.12   1
   0  12 -12    3.67    0.11   1
   0  12  12    3.84    0.11   1
  12 -12   0    3.64    0.09   1
  12   0  12    3.90    0.11   1
  12  12   0    3.86    0.10   1
 -12 -12  -2    1.33    0.09   1
 -12 -12   2    1.68    0.08   1
 -12  -2 -12    1.45    0.08   1
 -12  -2  12    1.58    0.05   1
 -12  -2  12    1.55    0.05   1
 -12   2 -12    1.43    0.09   1
 -12   2  12    1.54    0.04   1
 -12   2  12    1.61    0.04   1
 -12  12  -2    1.49    0.07   1
 -12  12   2    1.48    0.05   1
  -2 -12 -12    1.58    0.09   1
  -2 -12  12    1.47    0.09   1
  -2  12 -12    1.53    0.08   1
  -2  12  12    1.70    0.08   1
   2 -12 -12    1.55    0.08   1
   2 -12  12    1.53    0.09   1
   2  12 -12    1.51    0.08   1
   2  12  12    1.55    0.08   1
  12 -12  -2    1.50    0.06   1
  12 -12   2    1.51    0.07   1
  12  -2  12    1.57    0.08   1
  12   2  12    1.50    0.08   1
  12  12  -2    1.54    0.07   1
  12  12   2    1.62    0.07   1
 -12 -12  -4    0.50    0.06   1
 -12 -12   4    0.59    0.07   1
 -12  -4 -12    0.71    0.07   1
 -12  -4  12    0.67    0.05   1
 -12   4 -12    0.62    0.07   1
 -12   4  12    0.62    0.03   1
 -12   4  12    0.56    0.03   1
 -12  12   4    0.55    0.04   1
  -4 -12 -12    0.64    0.07   1
  -4 -12  12    0.52    0.06   1
  -4  12  12    0.53    0.05   1
   4 -12 -12    0.54    0.06   1
   4 -12  12    0.47    0.06   1
   4  12 -12    0.65    0.06   1
   4  12  12    0.64    0.06   1
  12 -12  -4    0.67    0.05   1
  12 -12   4    0.87    0.06   1
  12  -4  12    0.58    0.06   1
  12   4  12    0.61    0.06   1
  12  12  -4    0.51    0.05   1
  12  12   4    0.62    0.06   1
 -12 -12  -6    0.57    0.06   1
 -12 -12   6    0.69    0.07   1
 -12  -6 -12    0.55    0.06   1
 -12  -6  12    0.62    0.06   1
 -12  12   6    0.64    0.04   1
  -6 -12 -12    0.58    0.07   1
  -6 -12  12    0.63    0.07   1
  -6  12  12    0.56    0.05   1
   6 -12 -12    0.68    0.06   1
   6 -12  12    0.65    0.08   1
   6 -12  12    0.61    0.06   1
   6  12 -12    0.50    0.06   1
   6  12  12    0.70    0.07   1
  12 -12  -6    0.57    0.04   1
  12 -12   6    0.69    0.07   1
  12 -12   6    0.58    0.05   1
  12  -6 -12    0.57    0.03   1
  12  -6  12    0.58    0.06   1
  12   6 -12    0.54    0.05   1
  12   6  12    0.61    0.06   1
  12  12  -6    0.65    0.05   1
  12  12   6    0.63    0.06   1
 -12 -12  -8    0.99    0.09   1
 -12 -12   8    1.16    0.08   1
 -12  -8 -12    1.05    0.09   1
 -12  -8  12    0.91    0.07   1
 -12   8  12    1.03    0.04   1
 -12  12   8    1.05    0.05   1
  -8 -12 -12    1.05    0.09   1
  -8 -12  12    1.14    0.09   1
  -8  12  12    0.98    0.06   1
   8 -12 -12    1.00    0.06   1
   8 -12  12    0.89    0.09   1
   8 -12  12    0.94    0.07   1
   8  12 -12    0.94    0.07   1
   8  12  12    0.89    0.08   1
  12 -12  -8    0.88    0.05   1
  12 -12   8    0.95    0.08   1
  12 -12   8    0.94    0.06   1
  12  -8 -12    0.88    0.04   1
  12  -8  12    1.01    0.08   1
  12  -8  12    0.87    0.07   1
  12   8 -12    1.05    0.06   1
  12   8  12    1.00    0.07   1
  12  12  -8    0.99    0.06   1
  12  12   8    0.97    0.07   1
 -12 -12 -10    1.09    0.10   1
 -12 -12  10    1.19    0.08   1
 -12 -10 -12    1.09    0.10   1
 -12 -10  12    1.29    0.08   1
 -12  10  12    1.19    0.05   1
 -12  12  10    1.17    0.05   1
 -10 -12 -12    1.16    0.10   1
 -10 -12  12    1.02    0.08   1
 -10  12  12    1.14    0.06   1
  10 -12 -12    0.97    0.07   1
  10 -12  12    1.06    0.09   1
  10 -12  12    1.23    0.08   1
  10  12 -12    0.89    0.07   1
  10  12  12    1.05    0.07   1
  12 -12 -10    1.09    0.05   1
  12 -12  10    1.21    0.09   1
  12 -12  10    1.05    0.07   1
  12 -10 -12    1.11    0.05   1
  12 -10  12    0.96    0.08   1
  12 -10  12    1.08    0.07   1
  12  10 -12    1.09    0.06   1
  12  10  12    1.27    0.08   1
  12  12 -10    1.01    0.06   1
  12  12  10    1.44    0.08   1
 -12 -12 -12    1.09    0.10   1
 -12 -12  12    1.06    0.09   1
 -12  12  12    1.06    0.05   1
  12 -12 -12    1.00    0.05   1
  12 -12  12    1.01    0.10   1
  12 -12  12    1.03    0.07   1
  12  12 -12    0.91    0.07   1
  12  12  12    0.96    0.07   1
 -13  -1  -1    3.16    0.07   1
 -13  -1   1    3.25    0.06   1
 -13   1  -1    3.33    0.06   1
 -13   1   1    3.31    0.05   1
  -1 -13  -1    3.45    0.10   1
  -1 -13   1    3.37    0.09   1
  -1  -1 -13    3.44    0.09   1
  -1  -1  13    3.13    0.09   1
  -1   1 -13    3.21    0.09   1
  -1   1  13    3.33    0.09   1
  -1  13  -1    3.42    0.09   1
  -1  13   1    3.35    0.09   1
   1 -13  -1    3.38    0.09   1
   1 -13   1    3.48    0.09   1
   1  -1 -13    3.17    0.09   1
   1  -1  13    3.36    0.09   1
   1   1 -13    3.34    0.09   1
   1   1  13    3.49    0.09   1
   1  13  -1    3.53    0.10   1
   1  13   1    3.36    0.09   1
  13  -1  -1    3.26    0.05   1
  13  -1   1    3.21    0.07   1
  13   1  -1    3.27    0.06   1
  13   1   1    3.38    0.07   1
 -13  -1  -3    0.03    0.02   1
 -13  -1   3    0.00    0.01   1
 -13   1  -3    0.02    0.02   1
 -13   1   3   -0.01    0.01   1
  -3 -13  -1   -0.01    0.03   1
  -3 -13   1    0.00    0.03   1
  -3  13  -1    0.01    0.03   1
  -3  13   1    0.00    0.02   1
  -1  -3 -13    0.02    0.03   1
  -1  -3  13   -0.03    0.02   1
  -1  -3  13    0.02    0.02   1
  -1   3  13   -0.03    0.02   1
   1  -3 -13   -0.03    0.02   1
   1  -3  13    0.00    0.02   1
   1   3  13    0.00    0.03   1
   3 -13  -1    0.00    0.03   1
   3 -13   1    0.00    0.03   1
   3  13  -1   -0.04    0.03   1
   3  13   1    0.00    0.03   1
  13  -1  -3    0.00    0.01   1
  13  -1   3    0.00    0.02   1
  13   1  -3    0.01    0.01   1
  13   1   3    0.01    0.02   1
 -13  -1  -5    0.07    0.03   1
 -13  -1   5    0.12    0.02   1
  -5 -13  -1    0.16    0.04   1
  -5 -13   1    0.14    0.04   1
  -5  13  -1    0.12    0.03   1
  -5  13   1    0.11    0.03   1
  -1  -5 -13    0.07    0.03   1
  -1  -5  13    0.17    0.03   1
  -1  -5  13    0.11    0.03   1
  -1   5  13    0.08    0.03   1
   1  -5 -13    0.12    0.03   1
   1  -5  13    0.02    0.03   1
   1  -5  13    0.04    0.03   1
   1   5  13    0.04    0.03   1
   5 -13  -1    0.08    0.03   1
   5 -13   1    0.13    0.03   1
   5  13  -1    0.07    0.03   1
   5  13   1    0.13    0.03   1
  13  -1   5    0.09    0.02   1
  13   1  -5    0.10    0.01   1
  13   1   5    0.11    0.03   1
 -13  -1  -7    0.40    0.05   1
 -13  -1   7    0.50    0.02   1
 -13   1  -7    0.53    0.05   1
  -7 -13  -1    0.53    0.06   1
  -7 -13   1    0.54    0.06   1
  -7  13  -1    0.59    0.05   1
  -7  13   1    0.57    0.05   1
  -1  -7 -13    0.50    0.05   1
  -1  -7  13    0.47    0.06   1
  -1  -7  13    0.51    0.05   1
  -1   7  13    0.53    0.06   1
   1  -7 -13    0.45    0.05   1
   1  -7  13    0.49    0.06   1
   1  -7  13    0.42    0.05   1
   1   7  13    0.47    0.05   1
   7 -13  -1    0.54    0.05   1
   7 -13   1    0.47    0.05   1
   7  13  -1    0.48    0.05   1
   7  13   1    0.54    0.05   1
  13  -1   7    0.48    0.05   1
  13   1  -7    0.42    0.02   1
  13   1   7    0.53    0.05   1
 -13  -1  -9    1.68    0.08   1
 -13  -1   9    1.73    0.04   1
 -13  -1   9    1.69    0.04   1
 -13   1  -9    1.72    0.08   1
  -9 -13  -1    1.81    0.09   1
  -9 -13   1    1.88    0.09   1
  -9  13  -1    1.63    0.07   1
  -9  13   1    1.67    0.07   1
  -1  -9 -13    2.00    0.09   1
  -1  -9  13    1.72    0.08   1
  -1   9  13    1.86    0.08   1
   1  -9 -13    1.89    0.08   1
   1  -9  13    1.63    0.08   1
   1  -9  13    1.62    0.08   1
   1   9  13    1.75    0.08   1
   9 -13  -1    1.72    0.07   1
   9 -13   1    1.71    0.07   1
   9  13  -1    1.73    0.07   1
   9  13   1    1.72    0.07   1
  13  -1   9    1.67    0.07   1
  13   1   9    1.81    0.07   1
 -13  -1 -11    1.95    0.09   1
 -13  -1  11    1.95    0.05   1
 -13  -1  11    1.91    0.05   1
 -13   1 -11    2.05    0.09   1
 -13   1  11    1.99    0.04   1
 -13   1  11    1.96    0.04   1
 -11 -13  -1    1.72    0.09   1
 -11 -13   1    1.99    0.09   1
 -11  13  -1    2.06    0.07   1
 -11  13   1    2.08    0.07   1
  -1 -11 -13    2.12    0.09   1
  -1 -11  13    2.00    0.10   1
  -1  11 -13    1.97    0.09   1
  -1  11  13    2.06    0.08   1
   1 -11 -13    2.19    0.09   1
   1 -11  13    2.03    0.10   1
   1  11 -13    1.94    0.09   1
   1  11  13    1.95    0.08   1
  11 -13  -1    1.95    0.07   1
  11 -13   1    2.05    0.08   1
  11  13  -1    1.93    0.08   1
  11  13   1    2.11    0.08   1
  13  -1  11    1.94    0.08   1
  13   1  11    1.92    0.08   1
 -13  -3  -1   -0.02    0.02   1
 -13  -3   1    0.00    0.02   1
 -13   3  -1    0.00    0.02   1
  -3  -1 -13   -0.01    0.03   1
  -3  -1  13   -0.02    0.02   1
  -3   1 -13   -0.01    0.03   1
  -3   1  13   -0.04    0.02   1
  -1 -13  -3    0.03    0.03   1
  -1 -13   3    0.03    0.03   1
  -1  13  -3   -0.02    0.03   1
  -1  13   3    0.01    0.02   1
   1 -13  -3   -0.02    0.03   1
   1 -13   3   -0.01    0.02   1
   1  13  -3   -0.04    0.03   1
   1  13   3   -0.03    0.03   1
   3  -1 -13    0.01    0.02   1
   3  -1  13   -0.04    0.02   1
   3   1 -13    0.00    0.02   1
   3   1  13   -0.04    0.02   1
  13  -3  -1   -0.01    0.01   1
  13  -3   1    0.00    0.02   1
  13   3  -1    0.01    0.02   1
  13   3   1    0.00    0.02   1
 -13  -3  -3    0.46    0.05   1
 -13  -3   3    0.61    0.04   1
 -13   3  -3    0.53    0.04   1
  -3 -13  -3    0.52    0.06   1
  -3 -13   3    0.49    0.06   1
  -3  -3 -13    0.46    0.06   1
  -3  -3  13    0.56    0.05   1
  -3  -3  13    0.45    0.05   1
  -3   3 -13    0.47    0.06   1
  -3   3  13    0.49    0.05   1
  -3  13  -3    0.53    0.05   1
  -3  13   3    0.55    0.05   1
   3 -13  -3    0.47    0.05   1
   3 -13   3    0.53    0.06   1
   3  -3 -13    0.45    0.05   1
   3  -3  13    0.51    0.05   1
   3   3  13    0.49    0.05   1
   3  13  -3    0.56    0.05   1
   3  13   3    0.42    0.05   1
  13  -3   3    0.49    0.04   1
  13   3  -3    0.56    0.04   1
  13   3   3    0.60    0.05   1
 -13  -3  -5    0.71    0.05   1
 -13  -3   5    0.65    0.03   1
  -5 -13  -3    0.72    0.07   1
  -5 -13   3    0.64    0.06   1
  -5  13  -3    0.59    0.05   1
  -5  13   3    0.70    0.05   1
  -3  -5 -13    0.69    0.06   1
  -3  -5  13    0.58    0.05   1
  -3  -5  13    0.61    0.05   1
  -3   5  13    0.54    0.05   1
   3  -5 -13    0.49    0.05   1
   3  -5  13    0.66    0.06   1
   3  -5  13    0.55    0.06   1
   3   5  13    0.75    0.06   1
   5 -13  -3    0.72    0.05   1
   5 -13   3    0.68    0.06   1
   5  13  -3    0.60    0.05   1
   5  13   3    0.58    0.06   1
  13  -3   5    0.61    0.04   1
  13   3  -5    0.64    0.04   1
  13   3   5    0.64    0.05   1
 -13  -3  -7    0.11    0.03   1
 -13  -3   7    0.11    0.02   1
 -13   3  -7    0.10    0.03   1
  -7 -13  -3    0.10    0.04   1
  -7 -13   3    0.07    0.03   1
  -7  13  -3    0.17    0.04   1
  -7  13   3    0.12    0.03   1
  -3  -7 -13    0.20    0.04   1
  -3  -7  13    0.08    0.04   1
  -3  -7  13    0.15    0.03   1
  -3   7  13    0.12    0.03   1
   3  -7 -13    0.16    0.04   1
   3  -7  13    0.14    0.04   1
   3  -7  13    0.11    0.03   1
   3   7  13    0.14    0.04   1
   7 -13  -3    0.14    0.03   1
   7 -13   3    0.17    0.04   1
   7  13  -3    0.15    0.03   1
   7  13   3    0.14    0.03   1
  13  -3   7    0.15    0.03   1
  13   3  -7    0.12    0.02   1
  13   3   7    0.13    0.03   1
 -13  -3  -9    0.17    0.04   1
 -13  -3   9    0.21    0.03   1
 -13   3  -9    0.21    0.04   1
  -9 -13  -3    0.14    0.04   1
  -9 -13   3    0.14    0.04   1
  -9  13  -3    0.14    0.03   1
  -9  13   3    0.22    0.03   1
  -3  -9 -13    0.21    0.04   1
  -3  -9  13    0.19    0.05   1
  -3   9  13    0.14    0.03   1
   3  -9 -13    0.12    0.03   1
   3  -9  13    0.12    0.04   1
   3  -9  13    0.12    0.03   1
   3   9 -13    0.24    0.04   1
   3   9  13    0.22    0.04   1
   9 -13  -3    0.15    0.03   1
   9 -13   3    0.18    0.04   1
   9  13  -3    0.21    0.03   1
   9  13   3    0.17    0.03   1
  13  -3   9    0.18    0.03   1
  13   3   9    0.20    0.03   1
 -13  -3 -11    0.34    0.05   1
 -13  -3  11    0.35    0.04   1
 -13   3 -11    0.38    0.05   1
 -11 -13  -3    0.38    0.05   1
 -11 -13   3    0.43    0.05   1
 -11  13  -3    0.40    0.04   1
 -11  13   3    0.43    0.04   1
  -3 -11 -13    0.37    0.05   1
  -3 -11  13    0.45    0.06   1
  -3  11  13    0.47    0.05   1
   3 -11 -13    0.32    0.05   1
   3 -11  13    0.42    0.06   1
   3 -11  13    0.43    0.05   1
   3  11 -13    0.47    0.05   1
   3  11  13    0.43    0.05   1
  11 -13   3    0.53    0.05   1
  11  13  -3    0.38    0.04   1
  11  13   3    0.38    0.05   1
  13  -3  11    0.46    0.05   1
  13   3  11    0.50    0.05   1
 -13  -5  -1    0.08    0.03   1
 -13  -5   1    0.14    0.03   1
  -5  -1 -13    0.03    0.03   1
  -5  -1  13    0.12    0.03   1
  -5   1 -13    0.06    0.03   1
  -5   1  13    0.06    0.02   1
  -1 -13  -5    0.04    0.03   1
  -1 -13   5    0.06    0.03   1
  -1  13  -5    0.08    0.03   1
  -1  13   5    0.08    0.03   1
   1 -13  -5    0.10    0.04   1
   1 -13   5    0.11    0.04   1
   1  13  -5    0.09    0.03   1
   1  13   5    0.04    0.03   1
   5  -1 -13    0.10    0.03   1
   5  -1  13    0.10    0.03   1
   5   1  13    0.06    0.03   1
  13  -5  -1    0.08    0.02   1
  13  -5  -1    0.09    0.02   1
  13  -5   1    0.09    0.02   1
  13  -5   1    0.09    0.02   1
  13   5  -1    0.10    0.02   1
  13   5   1    0.05    0.02   1
 -13  -5  -3    0.76    0.06   1
 -13  -5   3    0.66    0.04   1
  -5  -3 -13    0.61    0.06   1
  -5  -3  13    0.60    0.05   1
  -5  -3  13    0.67    0.05   1
  -5   3 -13    0.55    0.06   1
  -5   3  13    0.53    0.04   1
  -3 -13  -5    0.63    0.06   1
  -3 -13   5    0.68    0.06   1
  -3  13  -5    0.58    0.05   1
  -3  13   5    0.70    0.05   1
   3 -13  -5    0.70    0.06   1
   3 -13   5    0.62    0.06   1
   3  13  -5    0.70    0.06   1
   3  13   5    0.71    0.06   1
   5  -3 -13    0.59    0.05   1
   5  -3  13    0.52    0.06   1
   5   3  13    0.70    0.06   1
  13  -5   3    0.58    0.04   1
  13  -5   3    0.64    0.04   1
  13   5  -3    0.58    0.04   1
  13   5   3    0.63    0.05   1
 -13  -5  -5    0.40    0.04   1
 -13  -5   5    0.40    0.04   1
  -5 -13  -5    0.29    0.04   1
  -5 -13   5    0.28    0.04   1
  -5  -5 -13    0.33    0.04   1
  -5  -5  13    0.41    0.04   1
  -5  -5  13    0.32    0.04   1
  -5   5  13    0.35    0.04   1
  -5  13  -5    0.33    0.04   1
  -5  13   5    0.41    0.04   1
   5 -13  -5    0.35    0.04   1
   5 -13   5    0.60    0.06   1
   5  -5  13    0.35    0.05   1
   5  -5  13    0.45    0.05   1
   5   5  13    0.31    0.04   1
   5  13  -5    0.46    0.05   1
   5  13   5    0.43    0.05   1
  13  -5   5    0.34    0.04   1
  13   5  -5    0.39    0.04   1
  13   5   5    0.42    0.05   1
 -13  -5  -7    0.37    0.05   1
 -13  -5   7    0.35    0.04   1
  -7 -13  -5    0.43    0.06   1
  -7 -13   5    0.29    0.04   1
  -7  13  -5    0.34    0.04   1
  -7  13   5    0.37    0.04   1
  -5  -7 -13    0.41    0.05   1
  -5  -7  13    0.35    0.04   1
  -5   7  13    0.41    0.05   1
   5  -7 -13    0.33    0.04   1
   5  -7  13    0.39    0.05   1
   5  -7  13    0.36    0.05   1
   5   7  13    0.25    0.04   1
   7 -13  -5    0.41    0.04   1
   7 -13   5    0.35    0.04   1
   7  13  -5    0.39    0.05   1
   7  13   5    0.32    0.04   1
  13  -5   7    0.28    0.04   1
  13   5  -7    0.29    0.03   1
  13   5   7    0.29    0.04   1
 -13  -5  -9    0.01    0.03   1
 -13  -5   9    0.01    0.02   1
 -13   5  -9    0.09    0.04   1
  -9 -13  -5   -0.04    0.04   1
  -9 -13   5    0.01    0.04   1
  -9  13  -5   -0.05    0.03   1
  -9  13   5    0.04    0.02   1
  -5  -9 -13   -0.02    0.04   1
  -5  -9  13   -0.01    0.03   1
  -5   9  13    0.03    0.02   1
   5  -9 -13    0.03    0.03   1
   5  -9  13    0.02    0.03   1
   5  -9  13   -0.04    0.02   1
   5   9 -13    0.02    0.03   1
   5   9  13    0.08    0.03   1
   9 -13   5    0.00    0.03   1
   9  13  -5   -0.05    0.02   1
   9  13   5    0.04    0.03   1
  13  -5   9   -0.02    0.03   1
  13   5  -9   -0.01    0.02   1
  13   5   9    0.05    0.03   1
 -13  -5 -11    0.02    0.04   1
 -13  -5  11    0.12    0.03   1
 -13   5 -11    0.07    0.04   1
 -11 -13  -5    0.07    0.04   1
 -11 -13   5    0.16    0.04   1
 -11  13  -5    0.08    0.03   1
 -11  13   5    0.10    0.02   1
  -5 -11 -13    0.05    0.04   1
  -5 -11  13    0.05    0.04   1
  -5  11  13    0.06    0.03   1
   5 -11 -13    0.07    0.03   1
   5 -11  13    0.01    0.04   1
   5 -11  13    0.07    0.03   1
   5  11 -13    0.11    0.04   1
   5  11  13    0.12    0.04   1
  11 -13  -5    0.11    0.03   1
  11 -13   5    0.05    0.04   1
  11  13  -5    0.12    0.03   1
  11  13   5    0.17    0.04   1
  13  -5  11    0.07    0.03   1
  13   5 -11    0.15    0.03   1
  13   5  11    0.16    0.04   1
 -13  -7  -1    0.62    0.06   1
 -13  -7   1    0.62    0.05   1
  -7  -1 -13    0.58    0.06   1
  -7  -1  13    0.43    0.04   1
  -7  -1  13    0.56    0.04   1
  -7   1 -13    0.53    0.06   1
  -7   1  13    0.50    0.04   1
  -1 -13  -7    0.53    0.06   1
  -1 -13   7    0.50    0.06   1
  -1  13  -7    0.43    0.05   1
  -1  13   7    0.54    0.05   1
   1 -13  -7    0.58    0.06   1
   1 -13   7    0.51    0.06   1
   1  13  -7    0.49    0.05   1
   1  13   7    0.50    0.05   1
   7  -1  13    0.61    0.05   1
   7   1  13    0.50    0.05   1
  13  -7  -1    0.58    0.03   1
  13  -7  -1    0.52    0.03   1
  13  -7   1    0.51    0.04   1
  13  -7   1    0.49    0.04   1
  13   7  -1    0.53    0.04   1
  13   7   1    0.47    0.04   1
 -13  -7  -3    0.11    0.03   1
 -13  -7   3    0.17    0.04   1
  -7  -3 -13    0.10    0.04   1
  -7  -3  13    0.15    0.03   1
  -7  -3  13    0.15    0.03   1
  -7   3 -13    0.12    0.04   1
  -7   3  13    0.09    0.02   1
  -3 -13  -7    0.17    0.04   1
  -3 -13   7    0.13    0.04   1
  -3  13  -7    0.10    0.03   1
  -3  13   7    0.18    0.03   1
   3 -13  -7    0.16    0.03   1
   3 -13   7    0.15    0.04   1
   3  13  -7    0.14    0.03   1
   3  13   7    0.18    0.04   1
   7  -3 -13    0.14    0.03   1
   7  -3  13    0.16    0.03   1
   7   3  13    0.12    0.03   1
  13  -7  -3    0.17    0.02   1
  13  -7  -3    0.13    0.02   1
  13  -7   3    0.18    0.03   1
  13  -7   3    0.11    0.02   1
  13   7  -3    0.10    0.02   1
  13   7   3    0.12    0.03   1
 -13  -7  -5    0.33    0.05   1
  -7  -5 -13    0.20    0.04   1
  -7  -5  13    0.31    0.04   1
  -7  -5  13    0.33    0.04   1
  -7   5  13    0.30    0.03   1
  -5 -13  -7    0.26    0.05   1
  -5 -13   7    0.23    0.04   1
  -5  13  -7    0.41    0.05   1
  -5  13   7    0.30    0.04   1
   5 -13  -7    0.36    0.04   1
   5 -13   7    0.39    0.05   1
   5  13  -7    0.42    0.05   1
   5  13   7    0.27    0.04   1
   7  -5 -13    0.35    0.04   1
   7  -5  13    0.50    0.05   1
   7   5  13    0.30    0.04   1
  13  -7   5    0.29    0.04   1
  13  -7   5    0.35    0.04   1
  13   7  -5    0.29    0.03   1
  13   7   5    0.46    0.05   1
 -13  -7  -7    0.69    0.07   1
 -13  -7   7    0.64    0.06   1
  -7 -13  -7    0.82    0.08   1
  -7 -13   7    0.67    0.07   1
  -7  -7 -13    0.69    0.07   1
  -7  -7  13    0.71    0.06   1
  -7   7  13    0.73    0.05   1
  -7  13  -7    0.76    0.06   1
  -7  13   7    0.78    0.05   1
   7 -13  -7    0.71    0.05   1
   7 -13   7    0.86    0.07   1
   7  -7 -13    0.72    0.05   1
   7  -7  13    0.63    0.07   1
   7  -7  13    0.77    0.06   1
   7   7 -13    0.75    0.05   1
   7   7  13    0.74    0.07   1
   7  13  -7    0.71    0.06   1
   7  13   7    0.76    0.06   1
  13  -7   7    0.71    0.06   1
  13  -7   7    0.69    0.05   1
  13   7  -7    0.77    0.05   1
  13   7   7    0.71    0.06   1
 -13  -7  -9    0.03    0.04   1
 -13  -7   9    0.01    0.03   1
  -9 -13  -7    0.03    0.04   1
  -9 -13   7    0.03    0.04   1
  -9  13  -7   -0.04    0.03   1
  -9  13   7    0.03    0.02   1
  -7  -9 -13    0.06    0.04   1
  -7  -9  13    0.11    0.04   1
  -7   9  13    0.04    0.02   1
   7  -9 -13    0.04    0.02   1
   7  -9  13    0.02    0.04   1
   7  -9  13    0.06    0.03   1
   7   9 -13    0.03    0.03   1
   7   9  13    0.07    0.03   1
   9 -13  -7    0.02    0.03   1
   9 -13   7    0.11    0.04   1
   9  13  -7    0.02    0.03   1
   9  13   7    0.02    0.03   1
  13  -7   9    0.04    0.03   1
  13  -7   9    0.04    0.03   1
  13   7  -9   -0.04    0.02   1
  13   7   9    0.06    0.03   1
 -13  -7 -11    0.28    0.05   1
 -13  -7  11    0.26    0.04   1
 -13   7  11    0.27    0.02   1
 -11 -13  -7    0.21    0.05   1
 -11 -13   7    0.28    0.05   1
 -11  13   7    0.34    0.03   1
  -7 -11 -13    0.34    0.06   1
  -7 -11  13    0.27    0.05   1
  -7  11  13    0.23    0.03   1
   7 -11 -13    0.27    0.04   1
   7 -11  13    0.35    0.06   1
   7 -11  13    0.22    0.04   1
   7  11 -13    0.24    0.04   1
   7  11  13    0.29    0.05   1
  11 -13  -7    0.39    0.04   1
  11 -13   7    0.26    0.05   1
  11  13   7    0.33    0.05   1
  13  -7 -11    0.26    0.02   1
  13  -7  11    0.31    0.05   1
  13  -7  11    0.31    0.04   1
  13   7 -11    0.25    0.03   1
  13   7  11    0.25    0.04   1
 -13  -9  -1    1.95    0.08   1
 -13  -9   1    1.82    0.08   1
  -9  -1 -13    1.67    0.09   1
  -9  -1  13    1.81    0.06   1
  -9  -1  13    1.73    0.06   1
  -9   1 -13    1.73    0.09   1
  -9   1  13    1.71    0.06   1
  -9   1  13    1.84    0.06   1
  -1 -13  -9    1.76    0.08   1
  -1 -13   9    1.71    0.08   1
  -1  13  -9    1.72    0.08   1
  -1  13   9    1.69    0.07   1
   1 -13  -9    1.78    0.08   1
   1 -13   9    1.87    0.09   1
   1  13  -9    1.61    0.08   1
   1  13   9    1.73    0.08   1
   9  -1  13    1.81    0.08   1
   9   1  13    1.90    0.08   1
  13  -9  -1    1.81    0.05   1
  13  -9  -1    1.71    0.05   1
  13  -9   1    1.77    0.06   1
  13  -9   1    1.65    0.05   1
  13   9  -1    1.84    0.07   1
  13   9   1    1.75    0.07   1
 -13  -9  -3    0.22    0.04   1
 -13  -9   3    0.21    0.04   1
  -9  -3 -13    0.13    0.04   1
  -9  -3  13    0.20    0.03   1
  -9   3 -13    0.22    0.04   1
  -9   3  13    0.24    0.03   1
  -3 -13  -9    0.10    0.04   1
  -3 -13   9    0.18    0.04   1
  -3  13  -9    0.17    0.04   1
  -3  13   9    0.17    0.03   1
   3 -13  -9    0.17    0.04   1
   3 -13   9    0.23    0.05   1
   3  13  -9    0.11    0.03   1
   3  13   9    0.15    0.03   1
   9  -3  13    0.30    0.04   1
   9   3  13    0.17    0.04   1
  13  -9  -3    0.17    0.02   1
  13  -9   3    0.16    0.04   1
  13  -9   3    0.18    0.03   1
  13   9  -3    0.18    0.03   1
  13   9   3    0.21    0.04   1
 -13  -9  -5    0.03    0.04   1
 -13  -9   5   -0.06    0.03   1
 -13   9   5   -0.01    0.01   1
  -9  -5 -13   -0.02    0.03   1
  -9  -5  13    0.03    0.03   1
  -9   5 -13    0.02    0.04   1
  -9   5  13    0.01    0.02   1
  -5 -13  -9    0.06    0.04   1
  -5 -13   9    0.00    0.04   1
  -5  13  -9    0.01    0.03   1
  -5  13   9    0.00    0.02   1
   5 -13  -9    0.01    0.03   1
   5 -13   9    0.02    0.03   1
   5  13  -9   -0.03    0.03   1
   5  13   9    0.08    0.03   1
   9  -5 -13    0.02    0.02   1
   9  -5  13    0.01    0.03   1
   9   5  13    0.01    0.03   1
  13  -9  -5    0.01    0.02   1
  13  -9   5   -0.03    0.03   1
  13  -9   5    0.01    0.02   1
  13   9  -5    0.02    0.02   1
  13   9   5   -0.01    0.02   1
 -13  -9  -7    0.06    0.04   1
 -13  -9   7    0.02    0.03   1
 -13   9   7    0.01    0.01   1
  -9  -7 -13    0.01    0.04   1
  -9  -7  13   -0.01    0.03   1
  -9   7  13    0.02    0.02   1
  -7 -13  -9    0.00    0.04   1
  -7 -13   9    0.06    0.04   1
  -7  13  -9    0.01    0.03   1
  -7  13   9    0.06    0.03   1
   7 -13  -9    0.04    0.03   1
   7 -13   9    0.01    0.04   1
   7  13  -9    0.01    0.03   1
   7  13   9    0.07    0.04   1
   9  -7 -13    0.02    0.02   1
   9  -7  13   -0.02    0.04   1
   9  -7  13    0.03    0.03   1
   9   7 -13    0.01    0.02   1
   9   7  13    0.00    0.03   1
  13  -9  -7    0.03    0.01   1
  13  -9   7    0.07    0.03   1
  13  -9   7    0.03    0.03   1
  13   9  -7    0.01    0.02   1
  13   9   7    0.00    0.03   1
 -13  -9  -9    0.50    0.07   1
 -13  -9   9    0.42    0.05   1
 -13   9   9    0.37    0.02   1
  -9 -13  -9    0.70    0.08   1
  -9 -13   9    0.34    0.06   1
  -9  -9 -13    0.41    0.06   1
  -9  -9  13    0.37    0.05   1
  -9   9  13    0.45    0.04   1
  -9  13   9    0.45    0.05   1
   9 -13  -9    0.46    0.05   1
   9 -13   9    0.51    0.06   1
   9  -9 -13    0.49    0.05   1
   9  -9  13    0.45    0.06   1
   9  -9  13    0.53    0.06   1
   9   9 -13    0.47    0.05   1
   9   9  13    0.32    0.05   1
   9  13  -9    0.46    0.05   1
   9  13   9    0.40    0.05   1
  13  -9  -9    0.50    0.03   1
  13  -9   9    0.47    0.05   1
  13  -9   9    0.51    0.05   1
  13   9  -9    0.38    0.05   1
  13   9   9    0.46    0.06   1
 -13  -9 -11    0.55    0.07   1
 -13  -9  11    0.55    0.06   1
 -13   9  11    0.61    0.03   1
 -11 -13  -9    0.65    0.08   1
 -11 -13   9    0.67    0.08   1
 -11  13   9    0.51    0.05   1
  -9 -11 -13    0.59    0.08   1
  -9 -11  13    0.67    0.08   1
  -9  11  13    0.59    0.05   1
   9 -11 -13    0.58    0.05   1
   9 -11  13    0.64    0.07   1
   9 -11  13    0.70    0.06   1
   9  11 -13    0.67    0.06   1
   9  11  13    0.56    0.07   1
  11 -13  -9    0.72    0.05   1
  11 -13   9    0.72    0.07   1
  11 -13   9    0.54    0.06   1
  11  13  -9    0.58    0.05   1
  11  13   9    0.60    0.06   1
  13  -9 -11    0.53    0.03   1
  13  -9  11    0.63    0.08   1
  13  -9  11    0.60    0.06   1
  13   9 -11    0.48    0.05   1
  13   9  11    0.74    0.07   1
 -13 -11  -1    1.94    0.09   1
 -13 -11   1    2.01    0.09   1
 -13  11   1    1.92    0.06   1
 -11  -1 -13    2.09    0.10   1
 -11  -1  13    1.99    0.06   1
 -11  -1  13    2.03    0.06   1
 -11   1 -13    1.96    0.09   1
 -11   1  13    2.10    0.06   1
 -11   1  13    1.94    0.06   1
  -1 -13 -11    2.01    0.09   1
  -1 -13  11    1.99    0.10   1
  -1  13 -11    2.00    0.09   1
  -1  13  11    2.13    0.08   1
   1 -13 -11    1.98    0.08   1
   1 -13  11    1.99    0.10   1
   1  13 -11    2.06    0.09   1
   1  13  11    2.17    0.09   1
  11  -1  13    1.95    0.08   1
  11   1  13    1.90    0.08   1
  13 -11  -1    2.03    0.06   1
  13  11  -1    2.20    0.08   1
  13  11   1    1.98    0.08   1
 -13 -11  -3    0.49    0.06   1
 -13 -11   3    0.55    0.07   1
 -13  11   3    0.44    0.04   1
 -11  -3 -13    0.24    0.05   1
 -11  -3  13    0.45    0.05   1
 -11  -3  13    0.38    0.04   1
 -11   3 -13    0.48    0.06   1
 -11   3  13    0.33    0.03   1
 -11   3  13    0.37    0.03   1
  -3 -13 -11    0.27    0.04   1
  -3 -13  11    0.28    0.05   1
  -3  13 -11    0.26    0.04   1
  -3  13  11    0.37    0.04   1
   3 -13 -11    0.54    0.06   1
   3 -13  11    0.33    0.05   1
   3  13 -11    0.45    0.05   1
   3  13  11    0.42    0.05   1
  11  -3  13    0.27    0.04   1
  11   3  13    0.49    0.05   1
  13 -11  -3    0.31    0.04   1
  13 -11   3    0.39    0.04   1
  13 -11   3    0.34    0.04   1
  13  11  -3    0.42    0.05   1
  13  11   3    0.37    0.04   1
 -13 -11  -5    0.03    0.04   1
 -13 -11   5    0.09    0.04   1
 -11  -5 -13    0.03    0.04   1
 -11  -5  13    0.07    0.03   1
 -11   5 -13    0.07    0.04   1
 -11   5  13    0.04    0.02   1
  -5 -13 -11   -0.05    0.04   1
  -5 -13  11    0.16    0.05   1
  -5  13 -11    0.13    0.03   1
  -5  13  11    0.14    0.03   1
   5 -13 -11    0.10    0.03   1
   5 -13  11    0.10    0.05   1
   5  13 -11    0.09    0.03   1
   5  13  11    0.05    0.03   1
  11  -5 -13    0.10    0.02   1
  11  -5  13    0.10    0.03   1
  11   5  13    0.09    0.04   1
  13 -11  -5    0.06    0.02   1
  13 -11   5    0.17    0.04   1
  13 -11   5    0.05    0.02   1
  13  11  -5    0.10    0.03   1
  13  11   5    0.07    0.03   1
 -13 -11  -7    0.35    0.06   1
 -13 -11   7    0.28    0.04   1
 -13  11   7    0.27    0.03   1
 -11  -7 -13    0.29    0.06   1
 -11  -7  13    0.26    0.04   1
 -11   7  13    0.26    0.03   1
  -7 -13 -11    0.26    0.06   1
  -7 -13  11    0.24    0.05   1
  -7  13  11    0.27    0.04   1
   7 -13 -11    0.27    0.04   1
   7 -13  11    0.17    0.05   1
   7  13 -11    0.37    0.05   1
   7  13  11    0.22    0.04   1
  11  -7 -13    0.29    0.04   1
  11  -7  13    0.22    0.05   1
  11  -7  13    0.34    0.05   1
  11   7 -13    0.27    0.04   1
  11   7  13    0.29    0.05   1
  13 -11  -7    0.31    0.03   1
  13 -11   7    0.42    0.05   1
  13 -11   7    0.22    0.03   1
  13  11  -7    0.26    0.04   1
  13  11   7    0.30    0.04   1
 -13 -11  -9    0.77    0.09   1
 -13 -11   9    0.61    0.07   1
 -13  11   9    0.57    0.04   1
 -11  -9 -13    0.48    0.06   1
 -11  -9  13    0.71    0.07   1
 -11   9  13    0.58    0.04   1
  -9 -13 -11    0.49    0.06   1
  -9 -13  11    0.54    0.06   1
  -9  13  11    0.60    0.05   1
   9 -13 -11    0.62    0.05   1
   9 -13  11    0.68    0.08   1
   9 -13  11    0.67    0.06   1
   9  13 -11    0.54    0.06   1
   9  13  11    0.63    0.06   1
  11  -9 -13    0.58    0.04   1
  11  -9  13    0.80    0.08   1
  11  -9  13    0.64    0.06   1
  11   9 -13    0.49    0.05   1
  11   9  13    0.59    0.07   1
  13 -11  -9    0.57    0.04   1
  13 -11   9    0.62    0.08   1
  13 -11   9    0.49    0.06   1
  13  11  -9    0.67    0.05   1
  13  11   9    0.56    0.06   1
 -13 -11 -11    0.71    0.08   1
 -13 -11  11    0.72    0.08   1
 -11 -13 -11    0.62    0.07   1
 -11 -13  11    0.57    0.06   1
 -11 -11 -13    0.51    0.07   1
 -11 -11  13    0.52    0.06   1
 -11  11  13    0.59    0.05   1
 -11  13  11    0.66    0.05   1
  11 -13  11    0.91    0.09   1
  11 -13  11    0.61    0.06   1
  11 -11 -13    0.58    0.05   1
  11 -11  13    0.60    0.07   1
  11 -11  13    0.68    0.07   1
  11  11 -13    0.78    0.06   1
  11  11  13    0.72    0.07   1
  11  13 -11    0.75    0.06   1
  11  13  11    0.61    0.07   1
  13 -11 -11    0.50    0.04   1
  13 -11  11    0.67    0.08   1
  13 -11  11    0.76    0.06   1
  13  11 -11    0.69    0.06   1
  13  11  11    0.66    0.07   1
 -13 -13  -1    1.59    0.09   1
 -13 -13   1    1.71    0.09   1
 -13  -1 -13    1.84    0.10   1
 -13  -1  13    1.87    0.06   1
 -13  -1  13    1.78    0.05   1
 -13   1 -13    1.72    0.09   1
 -13   1  13    1.82    0.05   1
 -13   1  13    1.82    0.05   1
 -13  13  -1    1.76    0.07   1
 -13  13   1    1.70    0.07   1
  -1 -13 -13    1.88    0.10   1
  -1 -13  13    1.76    0.10   1
  -1  13 -13    1.85    0.09   1
  -1  13  13    1.96    0.09   1
   1 -13 -13    1.81    0.09   1
   1 -13  13    1.97    0.11   1
   1  13 -13    1.76    0.09   1
   1  13  13    1.88    0.09   1
  13 -13  -1    1.85    0.07   1
  13 -13   1    1.80    0.07   1
  13  -1  13    1.67    0.08   1
  13   1  13    1.81    0.09   1
  13  13  -1    1.82    0.08   1
  13  13   1    1.88    0.08   1
 -13 -13  -3    0.05    0.04   1
 -13 -13   3    0.00    0.04   1
 -13  -3 -13    0.05    0.04   1
 -13  -3  13    0.02    0.03   1
 -13  -3  13    0.02    0.02   1
 -13   3 -13    0.05    0.04   1
 -13   3  13    0.07    0.02   1
 -13   3  13    0.01    0.01   1
 -13  13   3   -0.01    0.02   1
  -3 -13 -13    0.04    0.04   1
  -3 -13  13   -0.01    0.04   1
  -3  13 -13    0.06    0.04   1
  -3  13  13    0.07    0.03   1
   3 -13 -13    0.06    0.04   1
   3 -13  13   -0.01    0.05   1
   3  13 -13    0.03    0.04   1
   3  13  13   -0.01    0.03   1
  13 -13  -3   -0.02    0.02   1
  13 -13   3    0.02    0.03   1
  13  -3  13    0.05    0.03   1
  13   3  13   -0.02    0.03   1
  13  13  -3    0.04    0.03   1
  13  13   3    0.00    0.03   1
 -13 -13  -5    0.09    0.05   1
 -13 -13   5    0.04    0.04   1
 -13  -5 -13    0.00    0.04   1
 -13  -5  13   -0.02    0.03   1
 -13   5 -13    0.01    0.04   1
 -13   5  13    0.02    0.02   1
 -13   5  13   -0.01    0.01   1
 -13  13   5    0.00    0.02   1
  -5 -13 -13    0.00    0.05   1
  -5 -13  13    0.04    0.04   1
  -5  13  13   -0.02    0.03   1
   5 -13 -13    0.01    0.04   1
   5 -13  13    0.06    0.05   1
   5 -13  13   -0.01    0.03   1
   5  13 -13   -0.01    0.03   1
   5  13  13    0.00    0.04   1
  13 -13  -5    0.02    0.03   1
  13 -13   5    0.06    0.03   1
  13 -13   5    0.04    0.03   1
  13  -5  13    0.02    0.03   1
  13   5  13   -0.01    0.03   1
  13  13  -5    0.03    0.03   1
  13  13   5    0.01    0.03   1
 -13 -13  -7    0.04    0.05   1
 -13 -13   7    0.02    0.04   1
 -13  -7 -13    0.06    0.05   1
 -13  -7  13    0.03    0.03   1
 -13   7  13    0.01    0.01   1
 -13  13   7    0.04    0.02   1
  -7 -13 -13    0.03    0.05   1
  -7 -13  13    0.02    0.05   1
  -7  13  13    0.01    0.03   1
   7 -13 -13   -0.02    0.03   1
   7 -13  13   -0.05    0.04   1
   7 -13  13    0.05    0.03   1
   7  13 -13    0.01    0.03   1
   7  13  13    0.08    0.04   1
  13 -13  -7    0.05    0.03   1
  13 -13   7    0.00    0.04   1
  13 -13   7    0.00    0.03   1
  13  -7 -13    0.01    0.02   1
  13  -7  13   -0.02    0.04   1
  13  -7  13    0.05    0.03   1
  13   7 -13    0.03    0.03   1
  13   7  13   -0.04    0.03   1
  13  13  -7    0.06    0.03   1
  13  13   7    0.02    0.03   1
 -13 -13  -9    0.15    0.05   1
 -13 -13   9    0.20    0.05   1
 -13  -9 -13    0.26    0.06   1
 -13  -9  13    0.30    0.05   1
 -13   9  13    0.35    0.03   1
 -13  13   9    0.30    0.03   1
  -9 -13 -13    0.23    0.06   1
  -9 -13  13    0.40    0.06   1
  -9  13  13    0.30    0.04   1
   9 -13 -13    0.23    0.04   1
   9 -13  13    0.19    0.06   1
   9 -13  13    0.27    0.04   1
   9  13 -13    0.33    0.05   1
   9  13  13    0.25    0.05   1
  13 -13  -9    0.27    0.03   1
  13 -13   9    0.37    0.06   1
  13 -13   9    0.17    0.04   1
  13  -9 -13    0.25    0.03   1
  13  -9  13    0.21    0.05   1
  13  -9  13    0.30    0.04   1
  13   9 -13    0.34    0.04   1
  13   9  13    0.20    0.05   1
  13  13  -9    0.21    0.04   1
  13  13   9    0.25    0.04   1
 -13 -13 -11    0.18    0.06   1
 -13 -13  11    0.26    0.06   1
 -13 -11 -13    0.32    0.09   1
 -13 -11  13    0.29    0.05   1
 -13  11  13    0.28    0.03   1
 -13  13  11    0.33    0.03   1
 -11 -13  13    0.36    0.06   1
 -11  13  13    0.28    0.04   1
  11 -13 -13    0.18    0.04   1
  11 -13  13    0.19    0.06   1
  11 -13  13    0.23    0.04   1
  11  13 -13    0.28    0.04   1
  11  13  13    0.16    0.04   1
  13 -13 -11    0.30    0.03   1
  13 -13  11    0.28    0.06   1
  13 -13  11    0.22    0.04   1
  13 -11 -13    0.23    0.03   1
  13 -11  13    0.21    0.06   1
  13 -11  13    0.24    0.05   1
  13  11 -13    0.28    0.04   1
  13  11  13    0.23    0.04   1
  13  13 -11    0.19    0.04   1
  13  13  11    0.25    0.04   1
 -13 -13  13    0.36    0.06   1
 -13  13  13    0.33    0.04   1
  13 -13 -13    0.42    0.04   1
  13 -13  13    0.40    0.07   1
  13 -13  13    0.33    0.05   1
  13  13 -13    0.32    0.05   1
  13  13  13    0.47    0.06   1
 -14   0   0    7.03    0.09   1
   0 -14   0    6.90    0.13   1
   0   0 -14    7.00    0.13   1
   0   0  14    7.09    0.13   1
   0  14   0    7.34    0.13   1
  14   0   0    6.78    0.09   1
 -14   0  -2    0.86    0.05   1
 -14   0   2    0.82    0.03   1
  -2 -14   0    0.88    0.07   1
  -2  14   0    0.86    0.06   1
   0  -2 -14    0.89    0.06   1
   0  -2  14    0.79    0.06   1
   0   2 -14    0.82    0.06   1
   0   2  14    0.76    0.06   1
   2 -14   0    0.96    0.06   1
   2  14   0    0.91    0.06   1
  14   0  -2    0.85    0.03   1
  14   0   2    0.79    0.04   1
 -14   0  -4    0.12    0.03   1
 -14   0   4    0.12    0.02   1
  -4 -14   0    0.09    0.04   1
  -4  14   0    0.16    0.03   1
   0  -4 -14    0.10    0.03   1
   0  -4  14    0.04    0.03   1
   0  -4  14    0.12    0.03   1
   0   4  14    0.13    0.03   1
   4 -14   0    0.10    0.03   1
   4  14   0    0.10    0.03   1
  14   0  -4    0.14    0.02   1
  14   0   4    0.11    0.03   1
 -14   0  -6    0.06    0.03   1
  -6 -14   0    0.11    0.04   1
  -6  14   0    0.02    0.03   1
   0  -6 -14    0.11    0.03   1
   0  -6  14    0.04    0.04   1
   0  -6  14    0.10    0.03   1
   0   6  14    0.09    0.03   1
   6 -14   0    0.09    0.03   1
   6  14   0    0.09    0.03   1
  14   0   6    0.11    0.03   1
 -14   0  -8    0.81    0.06   1
  -8 -14   0    0.91    0.07   1
  -8  14   0    0.83    0.05   1
   0  -8 -14    0.79    0.07   1
   0  -8  14    0.70    0.07   1
   0  -8  14    0.84    0.06   1
   0   8  14    0.91    0.07   1
   8 -14   0    0.83    0.06   1
   8  14   0    0.98    0.06   1
  14   0   8    0.83    0.06   1
 -14   0 -10    1.31    0.08   1
 -14   0  10    1.24    0.03   1
 -14   0  10    1.27    0.03   1
 -10 -14   0    1.21    0.08   1
 -10  14   0    1.26    0.06   1
   0 -10 -14    1.40    0.08   1
   0 -10  14    1.36    0.09   1
   0 -10  14    1.22    0.08   1
   0  10  14    1.34    0.07   1
  10 -14   0    1.38    0.07   1
  10  14   0    1.24    0.07   1
  14   0  10    1.15    0.06   1
 -14   0 -12    1.43    0.09   1
 -14   0  12    1.41    0.04   1
 -14   0  12    1.43    0.04   1
 -12 -14   0    1.41    0.09   1
 -12  14   0    1.41    0.07   1
   0 -12 -14    1.53    0.09   1
   0 -12  14    1.40    0.09   1
   0  12 -14    1.34    0.08   1
   0  12  14    1.31    0.08   1
  12 -14   0    1.45    0.07   1
  12  14   0    1.47    0.08   1
  14   0  12    1.30    0.07   1
 -14  -2   0    0.83    0.04   1
 -14   2   0    0.86    0.04   1
  -2   0 -14    0.81    0.06   1
  -2   0  14    0.82    0.06   1
   0 -14  -2    0.92    0.06   1
   0 -14   2    0.82    0.06   1
   0  14  -2    0.83    0.06   1
   0  14   2    0.98    0.06   1
   2   0 -14    0.84    0.06   1
   2   0  14    0.81    0.06   1
  14  -2   0    0.83    0.04   1
  14   2   0    0.89    0.04   1
 -14  -2  -2    0.26    0.03   1
 -14  -2   2    0.26    0.03   1
 -14   2  -2    0.23    0.03   1
 -14   2   2    0.26    0.02   1
  -2 -14  -2    0.24    0.04   1
  -2 -14   2    0.18    0.03   1
  -2  -2 -14    0.51    0.06   1
  -2  -2  14    0.25    0.04   1
  -2   2 -14    0.23    0.04   1
  -2   2  14    0.27    0.04   1
  -2  14  -2    0.23    0.04   1
  -2  14   2    0.24    0.04   1
   2 -14  -2    0.34    0.04   1
   2 -14   2    0.23    0.04   1
   2  -2 -14    0.23    0.04   1
   2  -2  14    0.20    0.04   1
   2   2  14    0.22    0.04   1
   2  14  -2    0.23    0.04   1
   2  14   2    0.23    0.04   1
  14  -2  -2    0.22    0.02   1
  14  -2   2    0.22    0.03   1
  14   2  -2    0.26    0.03   1
  14   2   2    0.31    0.04   1
 -14  -2  -4    0.88    0.05   1
 -14  -2   4    0.93    0.04   1
 -14   2  -4    0.84    0.05   1
  -4 -14  -2    0.97    0.07   1
  -4 -14   2    0.87    0.07   1
  -4  14  -2    0.86    0.06   1
  -4  14   2    0.98    0.06   1
  -2  -4 -14    0.97    0.07   1
  -2  -4  14    0.84    0.06   1
  -2  -4  14    0.85    0.06   1
  -2   4  14    0.93    0.06   1
   2  -4 -14    0.95    0.06   1
   2  -4  14    1.08    0.07   1
   2  -4  14    0.82    0.06   1
   2   4  14    0.91    0.06   1
   4 -14  -2    0.95    0.06   1
   4 -14   2    0.96    0.07   1
   4  14  -2    0.93    0.06   1
   4  14   2    0.93    0.06   1
  14  -2   4    0.92    0.05   1
  14   2  -4    0.92    0.04   1
  14   2   4    0.97    0.05   1
 -14  -2  -6    0.11    0.03   1
 -14  -2   6    0.23    0.03   1
 -14   2  -6    0.20    0.04   1
  -6 -14  -2    0.23    0.05   1
  -6 -14   2    0.17    0.05   1
  -6  14  -2    0.11    0.03   1
  -6  14   2    0.17    0.03   1
  -2  -6 -14    0.20    0.04   1
  -2  -6  14    0.17    0.04   1
  -2  -6  14    0.11    0.03   1
  -2   6  14    0.13    0.04   1
   2  -6 -14    0.18    0.04   1
   2  -6  14    0.16    0.04   1
   2  -6  14    0.18    0.04   1
   2   6  14    0.18    0.04   1
   6 -14  -2    0.19    0.04   1
   6 -14   2    0.20    0.04   1
   6  14  -2    0.24    0.04   1
   6  14   2    0.16    0.03   1
  14  -2   6    0.15    0.03   1
  14   2  -6    0.17    0.02   1
  14   2   6    0.14    0.03   1
 -14  -2  -8    0.07    0.03   1
 -14  -2   8    0.06    0.02   1
 -14   2  -8    0.08    0.03   1
  -8 -14  -2    0.07    0.04   1
  -8 -14   2    0.06    0.04   1
  -8  14  -2    0.04    0.03   1
  -8  14   2    0.10    0.03   1
  -2  -8 -14    0.01    0.03   1
  -2  -8  14    0.10    0.04   1
  -2  -8  14    0.07    0.03   1
  -2   8  14    0.06    0.03   1
   2  -8 -14    0.01    0.03   1
   2  -8  14    0.07    0.04   1
   2  -8  14    0.06    0.03   1
   2   8  14    0.08    0.03   1
   8 -14  -2    0.02    0.03   1
   8 -14   2    0.07    0.03   1
   8  14  -2    0.04    0.03   1
   8  14   2    0.06    0.03   1
  14  -2   8    0.04    0.02   1
  14   2  -8    0.06    0.02   1
  14   2   8    0.03    0.03   1
 -14  -2 -10    0.70    0.07   1
 -14  -2  10    0.67    0.04   1
 -14  -2  10    0.55    0.03   1
 -14   2 -10    0.55    0.06   1
 -10 -14  -2    0.44    0.06   1
 -10 -14   2    0.69    0.08   1
 -10  14  -2    0.57    0.06   1
 -10  14   2    0.53    0.05   1
  -2 -10 -14    0.63    0.07   1
  -2 -10  14    0.64    0.07   1
  -2  10  14    0.60    0.06   1
   2 -10 -14    0.68    0.06   1
   2 -10  14    0.62    0.07   1
   2 -10  14    0.63    0.06   1
   2  10  14    0.67    0.07   1
  10 -14  -2    0.60    0.05   1
  10 -14   2    0.56    0.06   1
  10  14  -2    0.55    0.05   1
  10  14   2    0.50    0.05   1
  14  -2  10    0.63    0.05   1
  14   2  10    0.59    0.05   1
 -14  -2 -12    0.26    0.05   1
 -14  -2  12    0.21    0.03   1
 -14  -2  12    0.18    0.02   1
 -14   2 -12    0.20    0.05   1
 -14   2  12    0.21    0.02   1
 -14   2  12    0.27    0.02   1
 -12 -14  -2    0.15    0.05   1
 -12 -14   2    0.14    0.05   1
 -12  14  -2    0.17    0.03   1
 -12  14   2    0.22    0.03   1
  -2 -12 -14    0.25    0.05   1
  -2 -12  14    0.25    0.05   1
  -2  12  14    0.11    0.04   1
   2 -12 -14    0.19    0.04   1
   2 -12  14    0.22    0.06   1
   2  12 -14    0.18    0.03   1
   2  12  14    0.22    0.05   1
  12 -14  -2    0.23    0.04   1
  12 -14   2    0.24    0.04   1
  12  14  -2    0.16    0.03   1
  12  14   2    0.16    0.04   1
  14  -2  12    0.22    0.04   1
  14   2  12    0.19    0.04   1
 -14  -4   0    0.15    0.03   1
  -4   0 -14    0.15    0.03   1
  -4   0  14    0.12    0.03   1
   0 -14  -4    0.14    0.03   1
   0 -14   4    0.17    0.04   1
   0  14  -4    0.16    0.04   1
   0  14   4    0.09    0.03   1
   4   0 -14    0.15    0.03   1
   4   0  14    0.15    0.03   1
  14  -4   0    0.12    0.02   1
  14  -4   0    0.11    0.02   1
  14   4   0    0.11    0.02   1
 -14  -4   2    0.90    0.05   1
  -4  -2 -14    0.81    0.07   1
  -4  -2  14    0.87    0.06   1
  -4  -2  14    0.84    0.05   1
  -4   2 -14    0.86    0.07   1
  -4   2  14    0.84    0.05   1
  -2 -14  -4    0.99    0.07   1
  -2 -14   4    0.90    0.07   1
  -2  14  -4    0.97    0.06   1
  -2  14   4    0.87    0.06   1
   2 -14  -4    0.86    0.06   1
   2 -14   4    0.95    0.07   1
   2  14  -4    0.85    0.06   1
   2  14   4    1.00    0.06   1
   4  -2 -14    0.90    0.06   1
   4  -2  14    0.87    0.06   1
   4   2  14    0.87    0.06   1
  14  -4  -2    0.89    0.03   1
  14  -4  -2    0.84    0.03   1
  14  -4   2    0.95    0.04   1
  14   4  -2    0.97    0.05   1
  14   4   2    0.95    0.05   1
 -14  -4  -4    3.10    0.09   1
 -14  -4   4    3.20    0.07   1
 -14   4  -4    2.98    0.08   1
  -4 -14  -4    3.08    0.10   1
  -4 -14   4    3.06    0.10   1
  -4  -4 -14    2.90    0.10   1
  -4  -4  14    3.12    0.09   1
  -4  -4  14    2.80    0.09   1
  -4   4  14    3.10    0.08   1
  -4  14  -4    3.20    0.10   1
  -4  14   4    3.28    0.09   1
   4 -14  -4    3.06    0.09   1
   4 -14   4    3.33    0.10   1
   4  -4 -14    3.14    0.09   1
   4  -4  14    2.84    0.09   1
   4   4  14    3.18    0.10   1
   4  14  -4    2.97    0.09   1
   4  14   4    3.06    0.10   1
  14  -4   4    3.03    0.07   1
  14   4  -4    3.22    0.07   1
  14   4   4    3.24    0.09   1
 -14  -4  -6    2.00    0.08   1
 -14  -4   6    2.15    0.06   1
 -14   4  -6    1.95    0.07   1
  -6 -14  -4    1.85    0.09   1
  -6 -14   4    2.06    0.09   1
  -6  14  -4    2.05    0.08   1
  -6  14   4    2.15    0.07   1
  -4  -6 -14    2.04    0.09   1
  -4  -6  14    2.05    0.08   1
  -4  -6  14    1.91    0.07   1
  -4   6  14    1.94    0.07   1
   4  -6 -14    1.90    0.07   1
   4  -6  14    1.92    0.09   1
   4  -6  14    1.97    0.09   1
   4   6  14    2.09    0.08   1
   6 -14  -4    2.09    0.08   1
   6 -14   4    2.16    0.08   1
   6  14  -4    2.11    0.08   1
   6  14   4    1.86    0.08   1
  14  -4   6    1.92    0.07   1
  14   4  -6    2.03    0.06   1
  14   4   6    2.07    0.08   1
 -14  -4  -8    0.50    0.06   1
 -14  -4   8    0.49    0.04   1
 -14   4  -8    0.55    0.06   1
  -8 -14  -4    0.40    0.05   1
  -8 -14   4    0.43    0.05   1
  -8  14  -4    0.46    0.05   1
  -8  14   4    0.45    0.05   1
  -4  -8 -14    0.44    0.05   1
  -4  -8  14    0.63    0.06   1
  -4  -8  14    0.44    0.05   1
  -4   8  14    0.50    0.05   1
   4  -8 -14    0.45    0.06   1
   4  -8  14    0.58    0.06   1
   4  -8  14    0.51    0.06   1
   4   8  14    0.57    0.06   1
   8 -14  -4    0.49    0.05   1
   8 -14   4    0.54    0.06   1
   8  14  -4    0.49    0.05   1
   8  14   4    0.56    0.06   1
  14  -4   8    0.54    0.05   1
  14   4  -8    0.52    0.04   1
  14   4   8    0.59    0.05   1
 -14  -4 -10    0.04    0.04   1
 -14  -4  10    0.06    0.02   1
 -14   4 -10    0.07    0.04   1
 -10 -14  -4    0.08    0.04   1
 -10 -14   4    0.01    0.04   1
 -10  14  -4    0.03    0.03   1
 -10  14   4    0.02    0.02   1
  -4 -10 -14    0.02    0.04   1
  -4 -10  14    0.11    0.04   1
  -4  10  14    0.02    0.03   1
   4 -10 -14    0.06    0.03   1
   4 -10  14    0.09    0.04   1
   4 -10  14    0.04    0.03   1
   4  10 -14    0.11    0.03   1
   4  10  14    0.09    0.03   1
  10 -14  -4    0.05    0.03   1
  10 -14   4    0.03    0.03   1
  10  14  -4    0.07    0.03   1
  10  14   4    0.08    0.04   1
  14  -4  10    0.03    0.03   1
  14   4 -10    0.04    0.02   1
  14   4  10    0.04    0.03   1
 -14  -4 -12    0.26    0.05   1
 -14  -4  12    0.14    0.03   1
 -14   4 -12    0.12    0.05   1
 -12 -14  -4    0.06    0.05   1
 -12 -14   4    0.15    0.05   1
 -12  14  -4    0.17    0.04   1
 -12  14   4    0.14    0.03   1
  -4 -12 -14    0.11    0.05   1
  -4 -12  14    0.14    0.05   1
  -4  12  14    0.06    0.03   1
   4 -12 -14    0.09    0.04   1
   4 -12  14    0.10    0.05   1
   4 -12  14    0.16    0.04   1
   4  12 -14    0.15    0.04   1
   4  12  14    0.13    0.04   1
  12 -14  -4    0.12    0.03   1
  12 -14   4    0.14    0.04   1
  12  14  -4    0.11    0.03   1
  12  14   4    0.11    0.04   1
  14  -4  12    0.12    0.03   1
  14   4  12    0.06    0.03   1
 -14  -6   0    0.09    0.03   1
  -6   0 -14    0.08    0.04   1
  -6   0  14    0.12    0.03   1
  -6   0  14    0.12    0.02   1
   0 -14  -6    0.10    0.04   1
   0 -14   6    0.12    0.04   1
   0  14  -6    0.09    0.03   1
   0  14   6    0.15    0.03   1
   6   0  14    0.10    0.03   1
  14  -6   0    0.07    0.02   1
  14  -6   0    0.07    0.02   1
  14   6   0    0.08    0.03   1
 -14  -6  -2    0.13    0.03   1
 -14  -6   2    0.16    0.04   1
  -6  -2 -14    0.25    0.04   1
  -6  -2  14    0.18    0.03   1
  -6  -2  14    0.21    0.03   1
  -6   2 -14    0.14    0.04   1
  -6   2  14    0.12    0.03   1
  -2 -14  -6    0.20    0.04   1
  -2 -14   6    0.21    0.04   1
  -2  14  -6    0.11    0.03   1
  -2  14   6    0.21    0.04   1
   2 -14  -6    0.16    0.04   1
   2 -14   6    0.14    0.04   1
   2  14  -6    0.26    0.04   1
   2  14   6    0.19    0.04   1
   6  -2  14    0.14    0.04   1
   6   2  14    0.10    0.03   1
  14  -6  -2    0.18    0.02   1
  14  -6  -2    0.15    0.02   1
  14  -6   2    0.20    0.03   1
  14  -6   2    0.20    0.03   1
  14   6  -2    0.17    0.03   1
  14   6   2    0.22    0.03   1
 -14  -6  -4    2.05    0.08   1
 -14  -6   4    2.05    0.07   1
  -6  -4 -14    2.03    0.09   1
  -6  -4  14    2.00    0.08   1
  -6  -4  14    1.87    0.07   1
  -6   4 -14    1.98    0.09   1
  -6   4  14    1.83    0.07   1
  -4 -14  -6    1.96    0.09   1
  -4 -14   6    1.97    0.09   1
  -4  14  -6    1.99    0.08   1
  -4  14   6    2.16    0.08   1
   4 -14  -6    2.03    0.08   1
   4 -14   6    1.95    0.09   1
   4  14  -6    1.84    0.08   1
   4  14   6    1.99    0.08   1
   6  -4  14    1.88    0.08   1
   6   4  14    1.84    0.08   1
  14  -6   4    2.11    0.07   1
  14   6  -4    2.09    0.06   1
  14   6   4    1.99    0.07   1
 -14  -6  -6    1.69    0.08   1
 -14  -6   6    1.82    0.06   1
  -6 -14  -6    1.73    0.09   1
  -6 -14   6    1.72    0.09   1
  -6  -6 -14    1.65    0.09   1
  -6  -6  14    1.74    0.08   1
  -6  -6  14    1.75    0.07   1
  -6   6  14    1.71    0.06   1
  -6  14  -6    1.86    0.08   1
  -6  14   6    1.66    0.07   1
   6 -14  -6    1.82    0.08   1
   6 -14   6    1.80    0.09   1
   6  -6 -14    1.74    0.07   1
   6  -6  14    1.75    0.09   1
   6  -6  14    1.82    0.08   1
   6   6  14    1.76    0.08   1
   6  14  -6    1.92    0.08   1
   6  14   6    1.68    0.08   1
  14  -6   6    1.83    0.07   1
  14  -6   6    1.72    0.07   1
  14   6  -6    1.79    0.06   1
  14   6   6    1.76    0.08   1
 -14  -6  -8    1.00    0.08   1
 -14  -6   8    1.01    0.05   1
  -8 -14  -6    0.95    0.08   1
  -8 -14   6    1.18    0.08   1
  -8  14  -6    1.04    0.07   1
  -8  14   6    1.01    0.06   1
  -6  -8 -14    1.06    0.08   1
  -6  -8  14    1.05    0.07   1
  -6   8  14    1.10    0.06   1
   6  -8 -14    0.94    0.06   1
   6  -8  14    1.00    0.08   1
   6  -8  14    1.06    0.07   1
   6   8  14    1.12    0.07   1
   8 -14  -6    1.03    0.06   1
   8 -14   6    1.05    0.07   1
   8  14  -6    1.02    0.07   1
   8  14   6    1.11    0.07   1
  14  -6   8    1.02    0.07   1
  14  -6   8    1.03    0.06   1
  14   6  -8    1.02    0.05   1
  14   6   8    1.11    0.07   1
 -14  -6 -10    0.11    0.04   1
 -10 -14  -6    0.14    0.05   1
 -10 -14   6    0.07    0.04   1
 -10  14  -6    0.06    0.03   1
 -10  14   6    0.17    0.03   1
  -6 -10 -14    0.06    0.05   1
  -6 -10  14    0.11    0.05   1
  -6  10  14    0.14    0.03   1
   6 -10 -14    0.00    0.03   1
   6 -10  14    0.03    0.05   1
   6 -10  14    0.04    0.03   1
   6  10 -14    0.13    0.03   1
   6  10  14    0.12    0.04   1
  10 -14  -6    0.08    0.03   1
  10 -14   6    0.14    0.04   1
  10  14  -6    0.09    0.03   1
  10  14   6    0.12    0.04   1
  14  -6  10    0.08    0.04   1
  14   6 -10    0.09    0.02   1
  14   6  10    0.07    0.03   1
 -14  -6 -12    0.03    0.05   1
 -14  -6  12    0.01    0.03   1
 -12 -14  -6   -0.03    0.05   1
 -12 -14   6    0.09    0.05   1
 -12  14   6    0.04    0.03   1
  -6 -12 -14    0.04    0.05   1
  -6 -12  14    0.14    0.05   1
  -6  12  14    0.01    0.03   1
   6 -12 -14    0.00    0.04   1
   6 -12  14   -0.03    0.05   1
   6 -12  14    0.06    0.04   1
   6  12 -14    0.10    0.03   1
   6  12  14    0.03    0.04   1
  12 -14   6    0.04    0.04   1
  12  14  -6    0.03    0.03   1
  12  14   6    0.08    0.04   1
  14  -6  12    0.06    0.03   1
  14   6 -12    0.02    0.02   1
  14   6  12    0.04    0.03   1
 -14  -8   0    0.88    0.06   1
  -8   0 -14    0.91    0.08   1
  -8   0  14    0.93    0.05   1
  -8   0  14    0.92    0.05   1
   0 -14  -8    0.73    0.07   1
   0 -14   8    0.84    0.07   1
   0  14  -8    0.76    0.06   1
   0  14   8    0.82    0.06   1
   8   0  14    0.81    0.06   1
  14  -8   0    0.77    0.04   1
  14  -8   0    0.76    0.04   1
  14   8   0    0.82    0.05   1
 -14  -8  -2    0.12    0.04   1
 -14  -8   2    0.10    0.03   1
  -8  -2 -14    0.02    0.04   1
  -8  -2  14    0.07    0.03   1
  -8  -2  14    0.06    0.03   1
  -8   2 -14    0.02    0.04   1
  -8   2  14    0.09    0.02   1
  -2 -14  -8    0.05    0.04   1
  -2 -14   8    0.09    0.04   1
  -2  14  -8    0.10    0.03   1
  -2  14   8    0.02    0.03   1
   2 -14  -8    0.09    0.04   1
   2 -14   8    0.04    0.04   1
   2  14  -8    0.06    0.03   1
   2  14   8    0.07    0.03   1
   8  -2  14    0.03    0.03   1
   8   2  14    0.05    0.03   1
  14  -8  -2    0.09    0.02   1
  14  -8  -2    0.09    0.02   1
  14  -8   2    0.05    0.02   1
  14  -8   2    0.10    0.02   1
  14   8  -2    0.08    0.03   1
  14   8   2    0.05    0.03   1
 -14  -8  -4    0.57    0.07   1
 -14  -8   4    0.69    0.06   1
  -8  -4 -14    0.45    0.05   1
  -8  -4  14    0.46    0.05   1
  -8  -4  14    0.44    0.05   1
  -8   4 -14    0.46    0.06   1
  -8   4  14    0.43    0.04   1
  -4 -14  -8    0.46    0.06   1
  -4 -14   8    0.38    0.05   1
  -4  14  -8    0.38    0.05   1
  -4  14   8    0.52    0.05   1
   4 -14  -8    0.52    0.06   1
   4 -14   8    0.39    0.05   1
   4  14  -8    0.44    0.05   1
   4  14   8    0.46    0.05   1
   8  -4 -14    0.46    0.04   1
   8  -4  14    0.47    0.06   1
   8   4  14    0.44    0.05   1
  14  -8  -4    0.53    0.03   1
  14  -8  -4    0.45    0.02   1
  14  -8   4    0.45    0.05   1
  14  -8   4    0.42    0.04   1
  14   8  -4    0.56    0.04   1
  14   8   4    0.62    0.05   1
 -14  -8  -6    0.98    0.08   1
 -14  -8   6    1.04    0.06   1
  -8  -6 -14    0.93    0.08   1
  -8  -6  14    0.98    0.07   1
  -8  -6  14    0.92    0.06   1
  -8   6  14    0.96    0.05   1
  -6 -14  -8    0.92    0.08   1
  -6 -14   8    0.96    0.07   1
  -6  14  -8    0.91    0.07   1
  -6  14   8    1.03    0.06   1
   6 -14  -8    0.96    0.06   1
   6 -14   8    0.96    0.08   1
   6  14  -8    1.06    0.06   1
   6  14   8    1.09    0.07   1
   8  -6 -14    0.92    0.05   1
   8  -6  14    0.98    0.08   1
   8  -6  14    1.06    0.07   1
   8   6  14    0.91    0.07   1
  14  -8   6    1.01    0.06   1
  14  -8   6    0.89    0.05   1
  14   8  -6    1.01    0.05   1
  14   8   6    0.91    0.06   1
 -14  -8  -8    0.45    0.06   1
 -14  -8   8    0.33    0.04   1
  -8 -14  -8    0.34    0.06   1
  -8 -14   8    0.38    0.05   1
  -8  -8 -14    0.38    0.05   1
  -8  -8  14    0.37    0.05   1
  -8   8  14    0.38    0.05   1
  -8  14  -8    0.32    0.05   1
  -8  14   8    0.39    0.05   1
   8 -14  -8    0.44    0.05   1
   8 -14   8    0.37    0.05   1
   8  -8 -14    0.35    0.05   1
   8  -8  14    0.38    0.06   1
   8  -8  14    0.39    0.05   1
   8   8 -14    0.35    0.04   1
   8   8  14    0.39    0.05   1
   8  14  -8    0.46    0.06   1
   8  14   8    0.46    0.06   1
  14  -8   8    0.44    0.05   1
  14  -8   8    0.38    0.04   1
  14   8  -8    0.38    0.04   1
  14   8   8    0.39    0.05   1
 -14  -8 -10    0.06    0.05   1
 -14  -8  10    0.10    0.03   1
 -10 -14  -8    0.07    0.05   1
 -10 -14   8    0.12    0.05   1
 -10  14   8    0.08    0.03   1
  -8 -10 -14    0.10    0.05   1
  -8 -10  14    0.09    0.04   1
  -8  10  14    0.08    0.03   1
   8 -10 -14    0.06    0.03   1
   8 -10  14   -0.03    0.04   1
   8 -10  14   -0.02    0.03   1
   8  10 -14    0.06    0.03   1
   8  10  14    0.05    0.04   1
  10 -14  -8    0.06    0.03   1
  10 -14   8    0.00    0.04   1
  10  14  -8    0.09    0.03   1
  10  14   8    0.00    0.03   1
  14  -8  10    0.02    0.04   1
  14  -8  10    0.04    0.03   1
  14   8 -10    0.09    0.02   1
  14   8  10    0.10    0.03   1
 -14  -8 -12   -0.02    0.05   1
 -14  -8  12   -0.03    0.03   1
 -12 -14  -8    0.04    0.05   1
 -12 -14   8    0.03    0.05   1
 -12  14   8    0.04    0.03   1
  -8 -12 -14   -0.11    0.05   1
  -8 -12  14   -0.05    0.05   1
  -8  12  14    0.03    0.03   1
   8 -12 -14    0.02    0.03   1
   8 -12  14    0.06    0.05   1
   8 -12  14    0.04    0.03   1
   8  12 -14    0.04    0.03   1
   8  12  14    0.07    0.04   1
  12 -14   8    0.00    0.04   1
  12 -14   8   -0.01    0.03   1
  12  14  -8    0.02    0.03   1
  12  14   8   -0.02    0.03   1
  14  -8  12    0.03    0.04   1
  14  -8  12    0.01    0.03   1
  14   8 -12   -0.02    0.03   1
  14   8  12   -0.03    0.03   1
 -14 -10   0    1.20    0.08   1
 -10   0 -14    1.29    0.08   1
 -10   0  14    1.23    0.05   1
 -10   0  14    1.25    0.05   1
   0 -14 -10    1.23    0.08   1
   0 -14  10    1.26    0.08   1
   0  14 -10    1.18    0.07   1
   0  14  10    1.37    0.07   1
  10   0  14    1.64    0.08   1
  14 -10   0    1.25    0.05   1
  14 -10   0    1.26    0.05   1
  14  10   0    1.49    0.07   1
 -14 -10  -2    0.59    0.07   1
 -14 -10   2    0.60    0.07   1
 -10  -2 -14    0.60    0.07   1
 -10  -2  14    0.61    0.06   1
 -10  -2  14    0.69    0.05   1
 -10   2 -14    0.74    0.07   1
 -10   2  14    0.55    0.04   1
 -10   2  14    0.66    0.04   1
  -2 -14 -10    0.61    0.07   1
  -2 -14  10    0.70    0.08   1
  -2  14 -10    0.58    0.07   1
  -2  14  10    0.62    0.06   1
   2 -14 -10    0.57    0.07   1
   2 -14  10    0.70    0.07   1
   2  14 -10    0.57    0.06   1
   2  14  10    0.63    0.06   1
  10  -2  14    0.62    0.06   1
  10   2  14    0.54    0.06   1
  14 -10  -2    0.61    0.04   1
  14 -10  -2    0.62    0.04   1
  14 -10   2    0.58    0.06   1
  14 -10   2    0.64    0.04   1
  14  10  -2    0.58    0.05   1
  14  10   2    0.68    0.05   1
 -14 -10  -4    0.00    0.04   1
 -14 -10   4    0.00    0.03   1
 -10  -4 -14    0.02    0.05   1
 -10  -4  14    0.06    0.03   1
 -10  -4  14    0.04    0.02   1
 -10   4 -14    0.00    0.04   1
 -10   4  14    0.04    0.02   1
  -4 -14 -10    0.02    0.04   1
  -4 -14  10    0.03    0.04   1
  -4  14 -10    0.01    0.03   1
  -4  14  10    0.06    0.03   1
   4 -14 -10    0.02    0.03   1
   4 -14  10    0.04    0.04   1
   4  14 -10    0.03    0.03   1
   4  14  10    0.05    0.03   1
  10  -4 -14    0.00    0.02   1
  10  -4  14    0.03    0.03   1
  10   4  14    0.05    0.03   1
  14 -10  -4    0.05    0.02   1
  14 -10   4    0.02    0.03   1
  14 -10   4    0.06    0.02   1
  14  10  -4    0.00    0.03   1
  14  10   4   -0.01    0.02   1
 -14 -10  -6    0.03    0.04   1
 -14 -10   6    0.08    0.04   1
 -14  10   6    0.07    0.01   1
 -10  -6 -14    0.06    0.05   1
 -10  -6  14    0.15    0.04   1
 -10  -6  14    0.14    0.03   1
 -10   6  14    0.07    0.02   1
  -6 -14 -10    0.12    0.05   1
  -6 -14  10    0.05    0.05   1
  -6  14 -10    0.09    0.04   1
  -6  14  10    0.12    0.03   1
   6 -14 -10    0.11    0.04   1
   6 -14  10    0.06    0.05   1
   6  14 -10    0.09    0.03   1
   6  14  10    0.09    0.04   1
  10  -6 -14    0.12    0.03   1
  10  -6  14    0.03    0.04   1
  10  -6  14    0.19    0.04   1
  10   6  14    0.07    0.04   1
  14 -10   6    0.13    0.04   1
  14 -10   6    0.10    0.03   1
  14  10  -6    0.12    0.03   1
  14  10   6    0.15    0.04   1
 -14 -10  -8    0.13    0.05   1
 -14 -10   8    0.04    0.04   1
 -14  10   8    0.08    0.01   1
 -10  -8 -14    0.08    0.05   1
 -10  -8  14    0.03    0.04   1
 -10   8  14    0.07    0.02   1
  -8 -14 -10    0.07    0.05   1
  -8 -14  10    0.11    0.05   1
  -8  14  10    0.12    0.03   1
   8 -14 -10    0.00    0.03   1
   8 -14  10    0.00    0.04   1
   8  14 -10    0.07    0.04   1
   8  14  10    0.04    0.03   1
  10  -8 -14    0.06    0.03   1
  10  -8  14    0.00    0.04   1
  10  -8  14    0.11    0.03   1
  10   8 -14    0.03    0.03   1
  10   8  14    0.07    0.03   1
  14 -10  -8    0.03    0.02   1
  14 -10   8    0.05    0.04   1
  14 -10   8    0.05    0.03   1
  14  10  -8    0.05    0.03   1
  14  10   8    0.08    0.03   1
 -14 -10 -10    0.27    0.06   1
 -14 -10  10    0.34    0.05   1
 -14  10  10    0.29    0.02   1
 -10 -14 -10    0.26    0.06   1
 -10 -14  10    0.34    0.06   1
 -10 -10 -14    0.29    0.06   1
 -10 -10  14    0.36    0.06   1
 -10  10  14    0.30    0.03   1
 -10  14  10    0.31    0.04   1
  10 -14 -10    0.31    0.04   1
  10 -14  10    0.46    0.06   1
  10 -14  10    0.30    0.05   1
  10 -10  14    0.31    0.06   1
  10 -10  14    0.24    0.04   1
  10  10 -14    0.26    0.04   1
  10  10  14    0.30    0.05   1
  10  14 -10    0.25    0.04   1
  10  14  10    0.32    0.05   1
  14 -10 -10    0.41    0.03   1
  14 -10  10    0.34    0.06   1
  14 -10  10    0.25    0.04   1
  14  10 -10    0.30    0.04   1
  14  10  10    0.31    0.05   1
 -14 -10 -12    0.10    0.06   1
 -14 -10  12    0.18    0.05   1
 -14  10  12    0.16    0.02   1
 -12 -14 -10    0.11    0.05   1
 -12 -14  10    0.12    0.05   1
 -12  14  10    0.14    0.03   1
 -10 -12 -14    0.08    0.05   1
 -10 -12  14    0.11    0.05   1
 -10  12  14    0.15    0.03   1
  10 -12 -14    0.12    0.03   1
  10 -12  14    0.11    0.05   1
  10 -12  14    0.12    0.04   1
  10  12 -14    0.05    0.03   1
  10  12  14    0.00    0.03   1
  12 -14 -10    0.10    0.04   1
  12 -14  10    0.15    0.05   1
  12 -14  10    0.07    0.03   1
  12  14 -10    0.13    0.04   1
  12  14  10    0.22    0.04   1
  14 -10 -12    0.16    0.02   1
  14 -10  12    0.12    0.05   1
  14 -10  12    0.20    0.04   1
  14  10 -12    0.08    0.03   1
  14  10  12    0.10    0.04   1
 -14 -12   0    1.26    0.09   1
 -12   0 -14    1.45    0.09   1
 -12   0  14    1.29    0.05   1
 -12   0  14    1.38    0.05   1
   0 -14 -12    1.42    0.09   1
   0 -14  12    1.57    0.10   1
   0  14 -12    1.41    0.08   1
   0  14  12    1.31    0.08   1
  12   0  14    1.39    0.08   1
  14 -12   0    1.27    0.06   1
 -14 -12  -2    0.22    0.05   1
 -14 -12   2    0.30    0.05   1
 -14  12   2    0.21    0.03   1
 -12  -2 -14    0.11    0.05   1
 -12  -2  14    0.21    0.03   1
 -12  -2  14    0.18    0.03   1
 -12   2 -14    0.24    0.05   1
 -12   2  14    0.23    0.03   1
 -12   2  14    0.33    0.04   1
  -2 -14 -12    0.16    0.05   1
  -2 -14  12    0.25    0.05   1
  -2  14 -12    0.23    0.04   1
  -2  14  12    0.21    0.04   1
   2 -14 -12    0.20    0.05   1
   2 -14  12    0.22    0.05   1
   2  14 -12    0.24    0.04   1
   2  14  12    0.27    0.05   1
  12  -2  14    0.19    0.04   1
  12   2  14    0.18    0.04   1
  14 -12  -2    0.26    0.03   1
  14 -12   2    0.25    0.04   1
  14 -12   2    0.24    0.03   1
  14  12  -2    0.12    0.03   1
  14  12   2    0.16    0.03   1
 -14 -12  -4    0.12    0.05   1
 -14 -12   4    0.11    0.04   1
 -14  12   4    0.12    0.02   1
 -12  -4 -14    0.21    0.05   1
 -12  -4  14    0.13    0.03   1
 -12  -4  14    0.05    0.03   1
 -12   4 -14    0.09    0.05   1
 -12   4  14    0.11    0.02   1
  -4 -14 -12    0.12    0.05   1
  -4 -14  12    0.17    0.05   1
  -4  14 -12    0.13    0.04   1
  -4  14  12    0.08    0.03   1
   4 -14 -12    0.11    0.04   1
   4 -14  12    0.11    0.05   1
   4  14 -12    0.13    0.04   1
   4  14  12    0.07    0.04   1
  12  -4  14    0.09    0.03   1
  12   4  14    0.05    0.03   1
  14 -12  -4    0.12    0.03   1
  14 -12   4    0.14    0.04   1
  14 -12   4    0.09    0.03   1
  14  12  -4    0.05    0.03   1
  14  12   4    0.13    0.04   1
 -14 -12  -6    0.01    0.05   1
 -14 -12   6    0.06    0.04   1
 -14  12   6    0.08    0.02   1
 -12  -6 -14   -0.06    0.05   1
 -12  -6  14    0.07    0.04   1
  -6 -14 -12    0.02    0.04   1
  -6 -14  12    0.00    0.05   1
  -6  14  12    0.04    0.03   1
   6 -14 -12    0.05    0.04   1
   6 -14  12    0.11    0.05   1
   6  14 -12    0.03    0.03   1
   6  14  12    0.04    0.04   1
  12  -6 -14    0.06    0.02   1
  12  -6  14    0.04    0.03   1
  12   6  14    0.33    0.04   1
  14 -12  -6    0.04    0.02   1
  14 -12   6   -0.05    0.03   1
  14 -12   6    0.07    0.02   1
  14  12  -6    0.05    0.03   1
  14  12   6    0.05    0.03   1
 -14 -12  -8    0.07    0.06   1
 -14 -12   8    0.06    0.04   1
 -12  -8 -14    0.07    0.05   1
 -12  -8  14    0.06    0.04   1
 -12   8  14    0.01    0.02   1
  -8 -14 -12    0.14    0.06   1
  -8 -14  12    0.04    0.05   1
  -8  14  12    0.01    0.03   1
   8 -14 -12    0.04    0.03   1
   8 -14  12    0.06    0.05   1
   8 -14  12    0.02    0.03   1
   8  14  12    0.05    0.03   1
  12  -8 -14    0.08    0.02   1
  12  -8  14    0.07    0.05   1
  12  -8  14    0.03    0.03   1
  12   8 -14   -0.01    0.03   1
  12   8  14   -0.01    0.03   1
  14 -12  -8    0.03    0.02   1
  14 -12   8    0.08    0.04   1
  14 -12   8    0.08    0.03   1
  14  12  -8    0.05    0.03   1
  14  12   8    0.02    0.03   1
 -14 -12 -10    0.19    0.06   1
 -14 -12  10    0.16    0.05   1
 -12 -10 -14    0.09    0.05   1
 -12 -10  14    0.07    0.05   1
 -12  10  14    0.18    0.03   1
 -10 -14 -12    0.15    0.06   1
 -10 -14  12    0.14    0.06   1
 -10  14  12    0.16    0.03   1
  10 -14 -12    0.14    0.04   1
  10 -14  12    0.17    0.05   1
  10 -14  12    0.15    0.04   1
  10  14 -12    0.10    0.04   1
  10  14  12    0.04    0.03   1
  12 -10 -14    0.08    0.03   1
  12 -10  14    0.14    0.06   1
  12 -10  14    0.15    0.04   1
  12  10 -14    0.07    0.04   1
  12  10  14    0.14    0.04   1
  14 -12 -10    0.20    0.03   1
  14 -12  10    0.17    0.05   1
  14 -12  10    0.08    0.03   1
  14  12 -10    0.14    0.04   1
  14  12  10    0.13    0.03   1
 -14 -12  12    0.17    0.06   1
 -14  12  12    0.18    0.03   1
 -12 -14  12    0.18    0.06   1
 -12 -12  14    0.15    0.05   1
 -12  12  14    0.12    0.03   1
 -12  14  12    0.20    0.03   1
  12 -14 -12    0.27    0.04   1
  12 -14  12    0.22    0.06   1
  12 -14  12    0.28    0.04   1
  12 -12  14    0.07    0.05   1
  12 -12  14    0.20    0.04   1
  12  12 -14    0.18    0.04   1
  12  12  14    0.08    0.03   1
  12  14 -12    0.15    0.04   1
  12  14  12    0.16    0.05   1
  14 -12 -12    0.16    0.03   1
  14 -12  12    0.17    0.06   1
  14 -12  12    0.22    0.04   1
  14  12 -12    0.13    0.04   1
  14  12  12    0.12    0.04   1
 -14 -14   0    1.73    0.10   1
 -14   0 -14    1.79    0.10   1
 -14   0  14    1.73    0.05   1
 -14   0  14    1.46    0.08   1
 -14  14   0    1.61    0.07   1
   0 -14 -14    1.91    0.10   1
   0 -14  14    1.69    0.10   1
   0  14 -14    2.03    0.10   1
   0  14  14    2.04    0.09   1
  14 -14   0    1.76    0.07   1
  14   0  14    1.89    0.09   1
  14  14   0    1.81    0.09   1
 -14 -14  -2    0.24    0.06   1
 -14 -14   2    0.12    0.05   1
 -14  -2 -14    0.34    0.06   1
 -14  -2  14    0.24    0.03   1
 -14  -2  14    0.52    0.04   1
 -14   2 -14    0.34    0.06   1
 -14   2  14    0.25    0.03   1
 -14   2  14    0.28    0.03   1
 -14  14   2    0.26    0.03   1
  -2 -14 -14    0.34    0.06   1
  -2 -14  14    0.18    0.06   1
  -2  14 -14    0.29    0.05   1
  -2  14  14    0.27    0.05   1
   2 -14 -14    0.24    0.05   1
   2 -14  14    0.23    0.06   1
   2  14 -14    0.43    0.05   1
   2  14  14    0.22    0.05   1
  14 -14  -2    0.23    0.04   1
  14 -14   2    0.34    0.04   1
  14  -2  14    0.27    0.04   1
  14   2  14    0.28    0.04   1
  14  14  -2    0.23    0.04   1
  14  14   2    0.24    0.04   1
 -14 -14  -4    0.39    0.07   1
 -14 -14   4    0.19    0.06   1
 -14  -4 -14    0.30    0.07   1
 -14  -4  14    0.27    0.04   1
 -14  -4  14    0.24    0.03   1
 -14   4 -14    0.32    0.07   1
 -14   4  14    0.34    0.03   1
 -14   4  14    0.20    0.02   1
 -14  14   4    0.30    0.04   1
  -4 -14 -14    0.19    0.05   1
  -4 -14  14    0.18    0.06   1
  -4  14  14    0.26    0.04   1
   4 -14 -14    0.24    0.05   1
   4 -14  14    0.21    0.05   1
   4  14 -14    0.26    0.05   1
   4  14  14    0.19    0.05   1
  14 -14   4    0.29    0.05   1
  14 -14   4    0.31    0.04   1
  14  -4  14    0.26    0.05   1
  14   4  14    0.27    0.05   1
  14  14  -4    0.35    0.04   1
  14  14   4    0.27    0.04   1
 -14 -14  -6    0.18    0.06   1
 -14 -14   6    0.25    0.06   1
 -14  -6 -14    0.29    0.06   1
 -14  -6  14    0.30    0.05   1
 -14   6  14    0.19    0.02   1
 -14   6  14    0.23    0.02   1
 -14  14   6    0.23    0.03   1
  -6 -14 -14    0.28    0.06   1
  -6 -14  14    0.23    0.06   1
  -6  14  14    0.32    0.04   1
   6 -14 -14    0.24    0.05   1
   6 -14  14    0.12    0.05   1
   6 -14  14    0.25    0.04   1
   6  14 -14    0.22    0.04   1
   6  14  14    0.29    0.05   1
  14 -14  -6    0.24    0.04   1
  14 -14   6    0.32    0.05   1
  14 -14   6    0.26    0.04   1
  14  -6  14    0.24    0.05   1
  14   6  14    0.38    0.06   1
  14  14  -6    0.28    0.04   1
  14  14   6    0.25    0.04   1
 -14 -14  -8    0.06    0.06   1
 -14 -14   8    0.03    0.05   1
 -14  -8 -14    0.04    0.05   1
 -14  -8  14    0.02    0.04   1
 -14   8  14    0.01    0.02   1
 -14  14   8    0.05    0.02   1
  -8 -14  14    0.14    0.06   1
  -8  14  14    0.00    0.03   1
   8 -14 -14   -0.03    0.04   1
   8 -14  14    0.02    0.05   1
   8 -14  14    0.01    0.03   1
   8  14 -14   -0.02    0.04   1
   8  14  14   -0.02    0.04   1
  14 -14  -8    0.01    0.03   1
  14 -14   8   -0.02    0.04   1
  14 -14   8    0.01    0.03   1
  14  -8  14   -0.02    0.05   1
  14  -8  14   -0.01    0.03   1
  14   8 -14    0.00    0.03   1
  14   8  14    0.00    0.03   1
  14  14  -8    0.05    0.03   1
  14  14   8    0.11    0.03   1
 -14 -14  10    0.01    0.05   1
 -14 -10  14    0.00    0.05   1
 -14  10  14    0.03    0.03   1
 -14  14  10    0.02    0.02   1
 -10 -14  14    0.01    0.06   1
 -10  14  14   -0.01    0.03   1
  10 -14 -14    0.06    0.04   1
  10 -14  14    0.02    0.04   1
  10  14 -14    0.05    0.04   1
  10  14  14    0.08    0.04   1
  14 -14 -10    0.02    0.03   1
  14 -14  10    0.11    0.06   1
  14 -14  10    0.07    0.03   1
  14 -10 -14    0.06    0.02   1
  14 -10  14    0.08    0.05   1
  14 -10  14    0.00    0.03   1
  14  10 -14    0.01    0.03   1
  14  10  14    0.02    0.04   1
  14  14 -10    0.03    0.03   1
  14  14  10    0.03    0.04   1
 -14 -14  12    0.03    0.06   1
 -14 -12  14    0.04    0.06   1
 -14  12  14    0.02    0.03   1
 -14  14  12    0.02    0.03   1
 -12 -14  14    0.00    0.06   1
 -12  14  14    0.06    0.03   1
  12 -14 -14    0.06    0.04   1
  12 -14  14    0.15    0.04   1
  12  14 -14    0.04    0.04   1
  12  14  14   -0.02    0.04   1
  14 -14 -12    0.03    0.03   1
  14 -14  12    0.04    0.06   1
  14 -14  12   -0.04    0.03   1
  14 -12 -14    0.03    0.03   1
  14 -12  14   -0.01    0.03   1
  14  12 -14    0.05    0.04   1
  14  14 -12   -0.03    0.04   1
  14  14  12   -0.04    0.04   1
 -14 -14  14    0.24    0.07   1
 -14  14  14    0.01    0.03   1
  14 -14  14    0.11    0.04   1
  14  14 -14    0.04    0.04   1
  14  14  14   -0.08    0.04   1
 -15  -1  -1    2.11    0.06   1
 -15  -1   1    2.03    0.05   1
 -15   1  -1    2.03    0.06   1
 -15   1   1    2.00    0.05   1
  -1 -15  -1    2.00    0.09   1
  -1 -15   1    2.02    0.09   1
  -1  -1 -15    1.86    0.08   1
  -1  -1  15    2.09    0.08   1
  -1   1 -15    1.97    0.08   1
  -1   1  15    2.09    0.08   1
  -1  15  -1    2.09    0.08   1
  -1  15   1    2.20    0.08   1
   1 -15  -1    2.04    0.08   1
   1 -15   1    1.98    0.08   1
   1  -1 -15    1.99    0.08   1
   1  -1  15    2.05    0.08   1
   1   1 -15    1.89    0.08   1
   1   1  15    1.83    0.08   1
   1  15  -1    1.95    0.08   1
   1  15   1    2.17    0.08   1
  15  -1  -1    2.03    0.05   1
  15  -1   1    2.06    0.06   1
  15   1  -1    1.71    0.08   1
  15   1   1    2.07    0.06   1
 -15  -1  -3    0.03    0.03   1
 -15  -1   3    0.04    0.02   1
 -15   1  -3    0.06    0.03   1
 -15   1   3    0.04    0.01   1
  -3 -15  -1   -0.02    0.03   1
  -3 -15   1    0.03    0.03   1
  -3  15  -1    0.03    0.03   1
  -3  15   1    0.03    0.03   1
  -1  -3 -15    0.01    0.03   1
  -1  -3  15    0.02    0.04   1
  -1  -3  15    0.00    0.03   1
  -1   3  15    0.00    0.02   1
   1  -3 -15   -0.01    0.03   1
   1  -3  15    0.00    0.03   1
   1   3  15   -0.02    0.03   1
   3 -15  -1    0.08    0.03   1
   3 -15   1    0.08    0.04   1
   3  15  -1    0.04    0.03   1
   3  15   1    0.04    0.03   1
  15  -1  -3    0.03    0.01   1
  15  -1   3    0.06    0.02   1
  15   1  -3    0.04    0.02   1
  15   1   3    0.07    0.02   1
 -15  -1  -5    0.71    0.06   1
 -15  -1   5    0.78    0.03   1
 -15   1  -5    0.86    0.06   1
  -5 -15  -1    0.89    0.07   1
  -5 -15   1    0.77    0.07   1
  -5  15  -1    0.75    0.06   1
  -5  15   1    0.80    0.06   1
  -1  -5 -15    0.77    0.07   1
  -1  -5  15    0.66    0.06   1
  -1  -5  15    0.73    0.06   1
  -1   5  15    0.72    0.06   1
   1  -5 -15    0.90    0.07   1
   1  -5  15    0.80    0.07   1
   1  -5  15    0.85    0.06   1
   1   5  15    0.71    0.06   1
   5 -15  -1    0.85    0.06   1
   5 -15   1    0.85    0.06   1
   5  15  -1    0.77    0.06   1
   5  15   1    0.88    0.06   1
  15  -1   5    0.78    0.05   1
  15   1  -5    0.80    0.03   1
  15   1   5    0.81    0.05   1
 -15  -1  -7    0.04    0.03   1
 -15  -1   7    0.02    0.01   1
 -15   1  -7    0.00    0.03   1
  -7 -15  -1    0.03    0.04   1
  -7 -15   1    0.02    0.04   1
  -7  15  -1   -0.01    0.02   1
  -7  15   1    0.09    0.03   1
  -1  -7 -15    0.01    0.03   1
  -1  -7  15    0.02    0.04   1
  -1  -7  15   -0.02    0.03   1
  -1   7  15    0.04    0.03   1
   1  -7 -15    0.03    0.03   1
   1  -7  15    0.03    0.03   1
   1  -7  15   -0.03    0.03   1
   1   7  15    0.03    0.03   1
   7 -15  -1   -0.01    0.03   1
   7 -15   1   -0.02    0.03   1
   7  15  -1    0.02    0.03   1
   7  15   1   -0.04    0.03   1
  15  -1   7   -0.04    0.02   1
  15   1  -7    0.03    0.01   1
  15   1   7    0.00    0.03   1
 -15  -1  -9    0.27    0.05   1
 -15  -1   9    0.31    0.03   1
 -15  -1   9    0.38    0.02   1
 -15   1  -9    0.30    0.05   1
  -9 -15  -1    0.27    0.06   1
  -9 -15   1    0.31    0.05   1
  -9  15  -1    0.37    0.04   1
  -9  15   1    0.35    0.04   1
  -1  -9 -15    0.36    0.05   1
  -1  -9  15    0.32    0.05   1
  -1  -9  15    0.29    0.04   1
  -1   9  15    0.33    0.05   1
   1  -9 -15    0.38    0.05   1
   1  -9  15    0.47    0.06   1
   1  -9  15    0.33    0.05   1
   1   9  15    0.29    0.04   1
   9 -15  -1    0.56    0.06   1
   9 -15   1    0.49    0.06   1
   9  15  -1    0.27    0.04   1
   9  15   1    0.44    0.05   1
  15  -1   9    0.41    0.05   1
  15   1   9    0.39    0.04   1
 -15  -1 -11    0.53    0.06   1
 -15  -1  11    0.57    0.03   1
 -15  -1  11    0.57    0.03   1
 -15   1 -11    0.55    0.06   1
 -11 -15  -1    0.50    0.07   1
 -11 -15   1    0.55    0.07   1
 -11  15  -1    0.46    0.05   1
 -11  15   1    0.52    0.05   1
  -1 -11 -15    0.43    0.05   1
  -1 -11  15    0.39    0.06   1
  -1  11  15    0.49    0.05   1
   1 -11 -15    0.43    0.05   1
   1 -11  15    0.44    0.06   1
   1 -11  15    0.41    0.05   1
   1  11  15    0.54    0.06   1
  11 -15  -1    0.47    0.06   1
  11 -15   1    0.58    0.06   1
  11  15  -1    0.64    0.06   1
  11  15   1    0.60    0.06   1
  15  -1  11    0.52    0.06   1
  15   1  11    0.52    0.06   1
 -15  -1 -13    0.35    0.06   1
 -15  -1  13    0.42    0.04   1
 -15  -1  13    0.59    0.04   1
 -15   1 -13    0.54    0.07   1
 -15   1  13    0.48    0.03   1
 -15   1  13    0.54    0.03   1
 -13 -15  -1    0.37    0.06   1
 -13 -15   1    0.44    0.07   1
 -13  15  -1    0.47    0.06   1
 -13  15   1    0.44    0.05   1
  -1 -13 -15    0.46    0.06   1
  -1 -13  15    0.46    0.06   1
  -1  13  15    0.48    0.05   1
   1 -13 -15    0.45    0.06   1
   1 -13  15    0.49    0.07   1
   1  13 -15    0.54    0.06   1
   1  13  15    0.44    0.05   1
  13 -15  -1    0.53    0.06   1
  13 -15   1    0.57    0.05   1
  13  15  -1    0.50    0.06   1
  13  15   1    0.71    0.06   1
  15  -1  13    0.55    0.06   1
  15   1  13    0.51    0.06   1
 -15  -3  -1    0.01    0.02   1
 -15  -3   1    0.05    0.02   1
 -15   3  -1    0.09    0.02   1
  -3  -1 -15    0.00    0.03   1
  -3  -1  15    0.01    0.02   1
  -3   1 -15    0.00    0.03   1
  -3   1  15    0.00    0.03   1
  -1 -15  -3    0.08    0.04   1
  -1 -15   3    0.01    0.03   1
  -1  15  -3    0.05    0.03   1
  -1  15   3    0.03    0.02   1
   1 -15  -3    0.04    0.04   1
   1 -15   3    0.02    0.03   1
   1  15  -3    0.01    0.03   1
   1  15   3    0.00    0.02   1
   3  -1 -15    0.00    0.03   1
   3  -1  15    0.01    0.02   1
   3   1  15    0.05    0.03   1
  15  -3  -1    0.03    0.02   1
  15  -3   1    0.02    0.02   1
  15   3  -1    0.04    0.02   1
  15   3   1    0.03    0.02   1
 -15  -3  -3    0.83    0.06   1
 -15  -3   3    0.83    0.04   1
 -15   3  -3    0.89    0.05   1
  -3 -15  -3    0.81    0.07   1
  -3 -15   3    0.82    0.07   1
  -3  -3 -15    0.83    0.07   1
  -3  -3  15    0.71    0.06   1
  -3  -3  15    0.85    0.06   1
  -3   3 -15    0.87    0.07   1
  -3   3  15    0.79    0.06   1
  -3  15  -3    0.92    0.06   1
  -3  15   3    0.85    0.06   1
   3 -15  -3    0.88    0.07   1
   3 -15   3    0.83    0.07   1
   3  -3 -15    0.86    0.06   1
   3  -3  15    0.71    0.06   1
   3   3  15    0.91    0.06   1
   3  15  -3    0.87    0.06   1
   3  15   3    0.93    0.06   1
  15  -3   3    0.89    0.04   1
  15   3  -3    0.87    0.04   1
  15   3   3    1.00    0.05   1
 -15  -3  -5    2.91    0.09   1
 -15  -3   5    3.09    0.06   1
 -15   3  -5    2.93    0.08   1
  -5 -15  -3    2.92    0.11   1
  -5 -15   3    2.79    0.10   1
  -5  15  -3    2.98    0.09   1
  -5  15   3    3.18    0.09   1
  -3  -5 -15    2.94    0.10   1
  -3  -5  15    3.01    0.10   1
  -3  -5  15    2.93    0.09   1
  -3   5  15    2.90    0.09   1
   3  -5 -15    2.94    0.09   1
   3  -5  15    2.83    0.10   1
   3  -5  15    2.90    0.10   1
   3   5  15    2.98    0.10   1
   5 -15  -3    3.12    0.10   1
   5 -15   3    3.18    0.10   1
   5  15  -3    3.07    0.10   1
   5  15   3    2.86    0.10   1
  15  -3   5    2.83    0.08   1
  15   3  -5    2.93    0.06   1
  15   3   5    3.07    0.08   1
 -15  -3  -7    0.81    0.07   1
 -15  -3   7    0.85    0.04   1
 -15   3  -7    0.72    0.06   1
  -7 -15  -3    0.86    0.08   1
  -7 -15   3    0.83    0.07   1
  -7  15  -3    0.67    0.06   1
  -7  15   3    0.85    0.06   1
  -3  -7 -15    0.85    0.08   1
  -3  -7  15    0.78    0.07   1
  -3  -7  15    0.77    0.06   1
  -3   7  15    0.74    0.06   1
   3  -7 -15    0.81    0.06   1
   3  -7  15    0.81    0.07   1
   3  -7  15    0.79    0.07   1
   3   7  15    0.80    0.07   1
   7 -15  -3    0.79    0.06   1
   7 -15   3    0.79    0.06   1
   7  15  -3    0.68    0.06   1
   7  15   3    0.86    0.07   1
  15  -3   7    0.92    0.06   1
  15   3  -7    0.74    0.04   1
  15   3   7    0.79    0.06   1
 -15  -3  -9    0.00    0.04   1
 -15  -3   9    0.04    0.02   1
 -15   3  -9    0.07    0.04   1
  -9 -15  -3    0.02    0.05   1
  -9 -15   3    0.05    0.04   1
  -9  15  -3    0.05    0.03   1
  -9  15   3    0.11    0.03   1
  -3  -9 -15    0.03    0.04   1
  -3  -9  15   -0.01    0.04   1
  -3  -9  15    0.01    0.03   1
  -3   9  15    0.06    0.03   1
   3  -9 -15    0.01    0.04   1
   3  -9  15    0.05    0.04   1
   3  -9  15    0.00    0.03   1
   3   9  15    0.00    0.03   1
   9 -15  -3    0.02    0.03   1
   9 -15   3    0.08    0.04   1
   9  15  -3    0.10    0.03   1
   9  15   3    0.07    0.03   1
  15  -3   9    0.07    0.02   1
  15   3  -9    0.04    0.02   1
  15   3   9    0.05    0.03   1
 -15  -3 -11   -0.07    0.04   1
 -15  -3  11   -0.03    0.02   1
 -15   3 -11   -0.02    0.04   1
 -11 -15  -3    0.05    0.05   1
 -11 -15   3    0.09    0.05   1
 -11  15   3   -0.01    0.02   1
  -3 -11 -15    0.09    0.04   1
  -3 -11  15    0.06    0.05   1
  -3  11  15    0.01    0.03   1
   3 -11 -15   -0.02    0.03   1
   3 -11  15    0.05    0.05   1
   3 -11  15    0.08    0.03   1
   3  11 -15    0.06    0.04   1
   3  11  15   -0.03    0.03   1
  11 -15  -3    0.03    0.03   1
  11 -15   3    0.05    0.04   1
  11  15   3    0.03    0.03   1
  15  -3  11    0.05    0.03   1
 -15  -3 -13    0.19    0.05   1
 -15  -3  13    0.14    0.03   1
 -15  -3  13    0.08    0.02   1
 -15   3 -13    0.13    0.05   1
 -13 -15  -3    0.29    0.06   1
 -13 -15   3    0.11    0.05   1
 -13  15  -3    0.12    0.03   1
 -13  15   3    0.18    0.03   1
  -3 -13 -15    0.09    0.05   1
  -3 -13  15    0.20    0.06   1
  -3  13  15    0.14    0.04   1
   3 -13 -15    0.12    0.04   1
   3 -13  15    0.09    0.06   1
   3 -13  15    0.19    0.05   1
   3  13 -15    0.14    0.04   1
   3  13  15    0.19    0.04   1
  13 -15  -3    0.17    0.04   1
  13 -15   3    0.17    0.04   1
  13  15  -3    0.23    0.04   1
  13  15   3    0.12    0.04   1
  15  -3  13    0.12    0.03   1
  15   3  13    0.13    0.04   1
 -15  -5  -1    0.82    0.06   1
 -15  -5   1    0.84    0.05   1
  -5  -1 -15    0.62    0.07   1
  -5  -1  15    0.88    0.06   1
  -5  -1  15    0.82    0.05   1
  -5   1 -15    0.70    0.07   1
  -5   1  15    0.83    0.05   1
  -1 -15  -5    0.87    0.07   1
  -1 -15   5    0.74    0.07   1
  -1  15  -5    0.77    0.06   1
  -1  15   5    0.85    0.06   1
   1 -15  -5    0.87    0.07   1
   1 -15   5    0.77    0.07   1
   1  15  -5    0.86    0.07   1
   1  15   5    1.06    0.07   1
   5  -1 -15    0.87    0.06   1
   5  -1  15    0.72    0.06   1
   5   1  15    0.72    0.06   1
  15  -5  -1    0.73    0.03   1
  15  -5  -1    0.77    0.03   1
  15  -5   1    0.74    0.04   1
  15  -5   1    0.75    0.04   1
  15   5  -1    0.80    0.05   1
  15   5   1    0.88    0.05   1
 -15  -5  -3    2.91    0.09   1
 -15  -5   3    3.05    0.08   1
  -5  -3 -15    2.89    0.10   1
  -5  -3  15    3.02    0.09   1
  -5  -3  15    3.01    0.09   1
  -5   3 -15    2.98    0.10   1
  -5   3  15    3.04    0.08   1
  -3 -15  -5    2.84    0.10   1
  -3 -15   5    3.05    0.11   1
  -3  15  -5    3.04    0.10   1
  -3  15   5    3.01    0.09   1
   3 -15  -5    3.06    0.10   1
   3 -15   5    2.95    0.10   1
   3  15  -5    3.08    0.10   1
   3  15   5    3.13    0.10   1
   5  -3 -15    2.90    0.08   1
   5  -3  15    2.94    0.10   1
   5   3  15    2.80    0.10   1
  15  -5   3    3.01    0.07   1
  15  -5   3    3.02    0.07   1
  15   5  -3    2.94    0.07   1
  15   5   3    3.10    0.08   1
 -15  -5  -5    5.06    0.12   1
 -15  -5   5    5.01    0.09   1
  -5 -15  -5    5.05    0.13   1
  -5 -15   5    5.00    0.13   1
  -5  -5 -15    4.73    0.13   1
  -5  -5  15    4.95    0.12   1
  -5  -5  15    5.07    0.11   1
  -5   5  15    5.01    0.10   1
  -5  15  -5    5.30    0.12   1
  -5  15   5    5.18    0.11   1
   5 -15  -5    5.05    0.11   1
   5 -15   5    4.95    0.12   1
   5  -5 -15    4.74    0.10   1
   5  -5  15    4.86    0.13   1
   5  -5  15    4.88    0.13   1
   5   5  15    5.10    0.13   1
   5  15  -5    5.05    0.12   1
   5  15   5    5.25    0.13   1
  15  -5   5    4.98    0.10   1
  15   5  -5    5.04    0.09   1
  15   5   5    5.21    0.11   1
 -15  -5  -7    2.88    0.10   1
 -15  -5   7    2.92    0.07   1
  -7 -15  -5    2.96    0.11   1
  -7 -15   5    2.90    0.11   1
  -7  15  -5    2.85    0.10   1
  -7  15   5    3.10    0.09   1
  -5  -7 -15    2.71    0.10   1
  -5  -7  15    3.00    0.10   1
  -5  -7  15    2.95    0.09   1
  -5   7  15    3.03    0.09   1
   5  -7 -15    3.04    0.09   1
   5  -7  15    2.83    0.11   1
   5  -7  15    3.06    0.11   1
   5   7  15    3.09    0.11   1
   7 -15  -5    3.14    0.09   1
   7 -15   5    2.99    0.10   1
   7  15  -5    3.05    0.10   1
   7  15   5    3.25    0.11   1
  15  -5   7    3.14    0.09   1
  15   5  -7    3.09    0.07   1
  15   5   7    3.07    0.09   1
 -15  -5  -9    0.96    0.08   1
 -15  -5   9    1.00    0.05   1
 -15   5  -9    1.00    0.08   1
  -9 -15  -5    1.19    0.09   1
  -9 -15   5    1.19    0.09   1
  -9  15  -5    1.04    0.07   1
  -9  15   5    1.08    0.06   1
  -5  -9 -15    1.04    0.08   1
  -5  -9  15    1.15    0.08   1
  -5   9  15    1.10    0.07   1
   5  -9 -15    1.02    0.07   1
   5  -9  15    1.08    0.08   1
   5  -9  15    1.07    0.07   1
   5   9  15    1.26    0.08   1
   9 -15  -5    1.07    0.07   1
   9 -15   5    1.21    0.08   1
   9  15  -5    1.17    0.07   1
   9  15   5    1.18    0.07   1
  15  -5   9    1.10    0.06   1
  15   5  -9    1.19    0.05   1
  15   5   9    0.97    0.07   1
 -15  -5 -11    0.33    0.05   1
 -15  -5  11    0.44    0.05   1
 -15   5 -11    0.50    0.06   1
 -11 -15  -5    0.60    0.07   1
 -11 -15   5    0.45    0.06   1
 -11  15  -5    0.44    0.05   1
 -11  15   5    0.41    0.05   1
  -5 -11 -15    0.35    0.06   1
  -5 -11  15    0.36    0.06   1
  -5  11  15    0.41    0.05   1
   5 -11 -15    0.48    0.05   1
   5 -11  15    0.40    0.06   1
   5 -11  15    0.40    0.05   1
   5  11 -15    0.50    0.05   1
   5  11  15    0.42    0.06   1
  11 -15  -5    0.43    0.04   1
  11 -15   5    0.51    0.06   1
  11  15  -5    0.46    0.06   1
  11  15   5    0.54    0.06   1
  15  -5  11    0.49    0.05   1
  15   5 -11    0.43    0.04   1
  15   5  11    0.52    0.06   1
 -15  -5 -13    0.70    0.08   1
 -15  -5  13    0.72    0.06   1
 -15   5 -13    0.71    0.08   1
 -13 -15  -5    0.70    0.08   1
 -13 -15   5    0.72    0.09   1
 -13  15   5    0.64    0.05   1
  -5 -13 -15    0.63    0.08   1
  -5 -13  15    0.58    0.07   1
  -5  13  15    0.65    0.06   1
   5 -13 -15    0.62    0.08   1
   5 -13  15    0.60    0.07   1
   5 -13  15    0.63    0.07   1
   5  13 -15    0.75    0.07   1
   5  13  15    0.88    0.08   1
  13 -15  -5    0.64    0.06   1
  13 -15   5    0.74    0.08   1
  13  15  -5    0.78    0.07   1
  13  15   5    0.63    0.07   1
  15  -5  13    0.61    0.07   1
  15   5  13    0.64    0.07   1
 -15  -7  -1   -0.04    0.03   1
 -15  -7   1    0.03    0.03   1
  -7  -1 -15    0.03    0.04   1
  -7  -1  15    0.05    0.03   1
  -7  -1  15    0.03    0.02   1
  -7   1 -15    0.01    0.03   1
  -7   1  15    0.01    0.02   1
  -1 -15  -7    0.01    0.04   1
  -1 -15   7    0.07    0.04   1
  -1  15  -7    0.00    0.03   1
  -1  15   7   -0.04    0.03   1
   1 -15  -7    0.04    0.03   1
   1 -15   7   -0.02    0.03   1
   1  15  -7   -0.06    0.03   1
   1  15   7   -0.02    0.03   1
   7  -1  15    0.00    0.03   1
   7   1  15   -0.01    0.03   1
  15  -7  -1    0.01    0.02   1
  15  -7  -1   -0.02    0.02   1
  15  -7   1   -0.01    0.02   1
  15  -7   1    0.02    0.02   1
  15   7  -1   -0.03    0.02   1
  15   7   1    0.00    0.02   1
 -15  -7  -3    0.84    0.07   1
 -15  -7   3    0.81    0.06   1
  -7  -3 -15    0.76    0.07   1
  -7  -3  15    0.78    0.06   1
  -7  -3  15    0.85    0.06   1
  -7   3 -15    0.71    0.07   1
  -7   3  15    0.80    0.05   1
  -3 -15  -7    0.81    0.08   1
  -3 -15   7    0.73    0.07   1
  -3  15  -7    0.78    0.07   1
  -3  15   7    0.81    0.06   1
   3 -15  -7    0.78    0.06   1
   3 -15   7    0.73    0.07   1
   3  15  -7    0.70    0.06   1
   3  15   7    0.85    0.06   1
   7  -3 -15    0.75    0.05   1
   7  -3  15    0.82    0.06   1
   7   3  15    0.72    0.07   1
  15  -7  -3    0.89    0.03   1
  15  -7  -3    0.76    0.03   1
  15  -7   3    0.72    0.05   1
  15  -7   3    0.76    0.05   1
  15   7  -3    0.74    0.05   1
  15   7   3    0.75    0.05   1
 -15  -7  -5    2.99    0.10   1
 -15  -7   5    3.21    0.09   1
  -7  -5 -15    2.94    0.11   1
  -7  -5  15    3.16    0.10   1
  -7  -5  15    2.96    0.09   1
  -7   5  15    3.07    0.08   1
  -5 -15  -7    2.98    0.11   1
  -5 -15   7    3.07    0.11   1
  -5  15  -7    3.08    0.10   1
  -5  15   7    3.10    0.09   1
   5 -15  -7    3.05    0.10   1
   5 -15   7    3.12    0.11   1
   5  15  -7    3.06    0.10   1
   5  15   7    2.95    0.10   1
   7  -5 -15    2.82    0.08   1
   7  -5  15    2.81    0.10   1
   7   5  15    3.07    0.11   1
  15  -7   5    2.81    0.08   1
  15  -7   5    3.11    0.08   1
  15   7  -5    3.16    0.08   1
  15   7   5    3.19    0.09   1
 -15  -7  -7    1.89    0.09   1
 -15  -7   7    2.06    0.07   1
  -7 -15  -7    2.01    0.10   1
  -7 -15   7    2.08    0.10   1
  -7  -7 -15    1.83    0.10   1
  -7  -7  15    2.00    0.09   1
  -7  -7  15    2.05    0.08   1
  -7   7  15    2.25    0.07   1
  -7  15  -7    1.97    0.09   1
  -7  15   7    2.21    0.08   1
   7 -15  -7    1.96    0.08   1
   7 -15   7    1.97    0.09   1
   7  -7 -15    1.97    0.07   1
   7  -7  15    1.71    0.10   1
   7  -7  15    1.97    0.09   1
   7   7  15    2.15    0.09   1
   7  15  -7    2.00    0.09   1
   7  15   7    1.87    0.09   1
  15  -7   7    1.94    0.08   1
  15  -7   7    2.06    0.08   1
  15   7  -7    2.18    0.07   1
  15   7   7    1.98    0.08   1
 -15  -7  -9    0.73    0.08   1
 -15  -7   9    0.48    0.05   1
  -9 -15  -7    0.57    0.07   1
  -9 -15   7    0.49    0.06   1
  -9  15  -7    0.59    0.07   1
  -9  15   7    0.63    0.05   1
  -7  -9 -15    0.60    0.07   1
  -7  -9  15    0.52    0.06   1
  -7   9  15    0.55    0.05   1
   7  -9 -15    0.50    0.06   1
   7  -9  15    0.46    0.07   1
   7  -9  15    0.69    0.07   1
   7   9  15    0.38    0.05   1
   9 -15  -7    0.51    0.05   1
   9 -15   7    0.54    0.06   1
   9  15  -7    0.46    0.05   1
   9  15   7    0.52    0.06   1
  15  -7   9    0.53    0.06   1
  15  -7   9    0.57    0.05   1
  15   7  -9    0.53    0.04   1
  15   7   9    0.58    0.06   1
 -15  -7 -11    0.03    0.05   1
 -15  -7  11    0.02    0.04   1
 -11 -15  -7    0.04    0.05   1
 -11 -15   7    0.04    0.05   1
 -11  15  -7    0.07    0.04   1
 -11  15   7   -0.02    0.02   1
  -7 -11 -15    0.12    0.05   1
  -7 -11  15    0.00    0.05   1
  -7  11  15    0.07    0.03   1
   7 -11 -15    0.03    0.03   1
   7 -11  15    0.08    0.06   1
   7  11 -15   -0.02    0.03   1
   7  11  15    0.04    0.04   1
  11 -15  -7   -0.01    0.03   1
  11 -15   7    0.00    0.04   1
  11  15  -7    0.04    0.03   1
  11  15   7    0.01    0.03   1
  15  -7  11   -0.04    0.04   1
  15  -7  11    0.04    0.03   1
  15   7 -11   -0.04    0.02   1
  15   7  11    0.01    0.03   1
 -15  -7 -13    0.19    0.06   1
 -15  -7  13    0.28    0.05   1
 -13 -15  -7    0.05    0.05   1
 -13 -15   7    0.16    0.06   1
 -13  15   7    0.22    0.03   1
  -7 -13 -15    0.19    0.06   1
  -7 -13  15    0.28    0.06   1
  -7  13  15    0.21    0.04   1
   7 -13 -15    0.23    0.05   1
   7 -13  15    0.15    0.06   1
   7 -13  15    0.16    0.04   1
   7  13 -15    0.25    0.05   1
   7  13  15    0.17    0.04   1
  13 -15  -7    0.20    0.03   1
  13 -15   7    0.20    0.05   1
  13 -15   7    0.11    0.03   1
  13  15  -7    0.10    0.04   1
  13  15   7    0.31    0.04   1
  15  -7  13    0.15    0.05   1
  15  -7  13    0.16    0.04   1
  15   7 -13    0.29    0.03   1
  15   7  13    0.11    0.04   1
 -15  -9  -1    0.40    0.05   1
 -15  -9   1    0.56    0.07   1
  -9  -1 -15    0.25    0.05   1
  -9  -1  15    0.36    0.04   1
  -9  -1  15    0.45    0.04   1
  -9   1 -15    0.44    0.06   1
  -9   1  15    0.32    0.04   1
  -9   1  15    0.39    0.04   1
  -1 -15  -9    0.28    0.05   1
  -1 -15   9    0.33    0.06   1
  -1  15  -9    0.38    0.05   1
  -1  15   9    0.28    0.04   1
   1 -15  -9    0.35    0.05   1
   1 -15   9    0.43    0.05   1
   1  15  -9    0.46    0.06   1
   1  15   9    0.37    0.05   1
   9  -1  15    0.43    0.05   1
   9   1  15    0.37    0.05   1
  15  -9  -1    0.33    0.04   1
  15  -9  -1    0.40    0.03   1
  15  -9   1    0.35    0.04   1
  15  -9   1    0.41    0.04   1
  15   9  -1    0.33    0.04   1
  15   9   1    0.35    0.04   1
 -15  -9  -3    0.02    0.04   1
 -15  -9   3    0.08    0.03   1
  -9  -3 -15    0.06    0.05   1
  -9  -3  15    0.04    0.03   1
  -9  -3  15    0.06    0.03   1
  -9   3 -15    0.03    0.04   1
  -9   3  15    0.09    0.02   1
  -3 -15  -9    0.07    0.04   1
  -3 -15   9    0.03    0.04   1
  -3  15  -9    0.08    0.04   1
  -3  15   9    0.06    0.03   1
   3 -15  -9    0.03    0.04   1
   3 -15   9    0.05    0.04   1
   3  15  -9    0.03    0.03   1
   3  15   9    0.01    0.03   1
   9  -3  15    0.11    0.04   1
   9   3  15    0.08    0.03   1
  15  -9  -3    0.06    0.02   1
  15  -9  -3    0.04    0.02   1
  15  -9   3    0.06    0.03   1
  15  -9   3    0.04    0.02   1
  15   9  -3    0.04    0.02   1
 -15  -9  -5    1.04    0.08   1
 -15  -9   5    1.09    0.07   1
  -9  -5 -15    1.23    0.09   1
  -9  -5  15    1.11    0.07   1
  -9  -5  15    0.94    0.06   1
  -9   5 -15    1.11    0.08   1
  -9   5  15    1.00    0.05   1
  -5 -15  -9    0.97    0.09   1
  -5 -15   9    1.06    0.08   1
  -5  15  -9    1.16    0.08   1
  -5  15   9    1.04    0.07   1
   5 -15  -9    0.99    0.07   1
   5 -15   9    1.10    0.08   1
   5  15  -9    1.23    0.07   1
   5  15   9    1.01    0.07   1
   9  -5 -15    1.06    0.06   1
   9  -5  15    1.13    0.07   1
   9   5  15    1.06    0.07   1
  15  -9  -5    1.11    0.03   1
  15  -9  -5    1.04    0.03   1
  15  -9   5    1.14    0.07   1
  15  -9   5    1.06    0.06   1
  15   9  -5    1.13    0.06   1
  15   9   5    1.01    0.07   1
 -15  -9  -7    0.42    0.06   1
 -15  -9   7    0.59    0.06   1
  -9  -7 -15    0.48    0.06   1
  -9  -7  15    0.45    0.05   1
  -9  -7  15    0.51    0.06   1
  -9   7  15    0.43    0.05   1
  -7 -15  -9    0.58    0.07   1
  -7 -15   9    0.68    0.08   1
  -7  15  -9    0.54    0.06   1
  -7  15   9    0.50    0.05   1
   7 -15  -9    0.49    0.05   1
   7 -15   9    0.52    0.06   1
   7  15  -9    0.56    0.06   1
   7  15   9    0.56    0.06   1
   9  -7  15    0.64    0.08   1
   9  -7  15    0.69    0.06   1
   9   7  15    0.71    0.06   1
  15  -9   7    0.59    0.06   1
  15  -9   7    0.46    0.05   1
  15   9  -7    0.44    0.05   1
  15   9   7    0.59    0.06   1
 -15  -9  -9    0.00    0.05   1
 -15  -9   9    0.02    0.03   1
  -9 -15  -9   -0.01    0.05   1
  -9 -15   9    0.03    0.05   1
  -9  -9 -15    0.07    0.05   1
  -9  -9  15    0.00    0.04   1
  -9   9  15   -0.01    0.02   1
  -9  15  -9    0.02    0.03   1
  -9  15   9    0.00    0.03   1
   9 -15  -9    0.04    0.03   1
   9 -15   9    0.10    0.04   1
   9  -9 -15   -0.01    0.03   1
   9  -9  15    0.04    0.05   1
   9  -9  15    0.00    0.03   1
   9   9 -15    0.02    0.03   1
   9   9  15   -0.04    0.03   1
   9  15  -9    0.01    0.03   1
   9  15   9    0.00    0.03   1
  15  -9   9    0.09    0.04   1
  15  -9   9    0.01    0.03   1
  15   9  -9    0.01    0.02   1
  15   9   9    0.08    0.03   1
 -15  -9 -11    0.07    0.06   1
 -15  -9  11    0.07    0.04   1
 -11 -15  -9    0.21    0.06   1
 -11 -15   9    0.02    0.05   1
 -11  15   9    0.11    0.03   1
  -9 -11 -15    0.15    0.05   1
  -9 -11  15    0.15    0.05   1
  -9  11  15    0.11    0.03   1
   9 -11 -15    0.12    0.03   1
   9 -11  15    0.09    0.06   1
   9 -11  15    0.10    0.04   1
   9  11 -15    0.10    0.03   1
   9  11  15   -0.03    0.03   1
  11 -15  -9    0.10    0.04   1
  11 -15   9    0.12    0.03   1
  11  15  -9    0.07    0.03   1
  11  15   9    0.12    0.04   1
  15  -9  11    0.08    0.05   1
  15  -9  11    0.13    0.04   1
  15   9 -11    0.10    0.03   1
  15   9  11    0.05    0.04   1
 -15  -9 -13   -0.04    0.06   1
 -15  -9  13    0.02    0.04   1
 -13 -15   9    0.08    0.06   1
 -13  15   9   -0.03    0.03   1
  -9 -13  15    0.14    0.06   1
  -9  13  15    0.01    0.03   1
   9 -13 -15    0.09    0.04   1
   9 -13  15   -0.01    0.04   1
   9  13 -15   -0.02    0.04   1
   9  13  15   -0.01    0.04   1
  13 -15  -9    0.01    0.03   1
  13 -15   9    0.00    0.05   1
  13 -15   9    0.01    0.03   1
  13  15  -9   -0.05    0.03   1
  13  15   9   -0.08    0.03   1
  15  -9  13   -0.03    0.05   1
  15  -9  13   -0.06    0.03   1
  15   9 -13    0.09    0.03   1
  15   9  13    0.06    0.03   1
 -15 -11  -1    0.44    0.06   1
 -15 -11   1    0.48    0.06   1
 -11  -1 -15    0.60    0.07   1
 -11  -1  15    0.50    0.06   1
 -11  -1  15    0.48    0.05   1
 -11   1 -15    0.40    0.06   1
 -11   1  15    0.46    0.05   1
 -11   1  15    0.58    0.04   1
  -1 -15 -11    0.63    0.07   1
  -1 -15  11    0.47    0.06   1
  -1  15 -11    0.62    0.07   1
  -1  15  11    0.62    0.06   1
   1 -15 -11    0.42    0.06   1
   1 -15  11    0.46    0.06   1
   1  15 -11    0.52    0.06   1
   1  15  11    0.46    0.06   1
  11  -1  15    0.50    0.06   1
  11   1  15    0.42    0.05   1
  15 -11  -1    0.51    0.04   1
  15 -11  -1    0.44    0.03   1
  15 -11   1    0.43    0.04   1
  15 -11   1    0.47    0.04   1
  15  11  -1    0.54    0.05   1
  15  11   1    0.47    0.05   1
 -15 -11  -3   -0.03    0.04   1
 -15 -11   3    0.01    0.04   1
 -11  -3 -15    0.01    0.04   1
 -11  -3  15    0.04    0.03   1
 -11  -3  15    0.01    0.03   1
 -11   3 -15    0.01    0.05   1
 -11   3  15   -0.06    0.02   1
 -11   3  15   -0.01    0.02   1
  -3 -15 -11   -0.01    0.04   1
  -3 -15  11   -0.04    0.05   1
  -3  15 -11   -0.05    0.03   1
  -3  15  11   -0.02    0.03   1
   3 -15 -11   -0.02    0.04   1
   3 -15  11    0.08    0.05   1
   3  15 -11   -0.06    0.03   1
   3  15  11   -0.02    0.03   1
  11  -3  15    0.04    0.03   1
  11   3  15    0.02    0.03   1
  15 -11  -3   -0.02    0.02   1
  15 -11  -3   -0.04    0.02   1
  15 -11   3    0.01    0.03   1
  15 -11   3   -0.01    0.02   1
  15  11  -3    0.00    0.02   1
  15  11   3    0.01    0.03   1
 -15 -11  -5    0.49    0.06   1
 -15 -11   5    0.48    0.06   1
 -11  -5 -15    0.31    0.05   1
 -11  -5  15    0.43    0.05   1
 -11  -5  15    0.44    0.05   1
 -11   5 -15    0.44    0.06   1
 -11   5  15    0.45    0.04   1
  -5 -15 -11    0.49    0.07   1
  -5 -15  11    0.44    0.07   1
  -5  15 -11    0.53    0.06   1
  -5  15  11    0.48    0.06   1
   5 -15 -11    0.37    0.05   1
   5 -15  11    0.47    0.06   1
   5  15 -11    0.43    0.05   1
   5  15  11    0.68    0.07   1
  11  -5 -15    0.43    0.05   1
  11  -5  15    0.47    0.05   1
  11   5  15    0.42    0.05   1
  15 -11  -5    0.44    0.04   1
  15 -11   5    0.49    0.05   1
  15 -11   5    0.38    0.05   1
  15  11  -5    0.42    0.05   1
  15  11   5    0.37    0.04   1
 -15 -11  -7   -0.06    0.05   1
 -15 -11   7    0.04    0.04   1
 -15  11   7    0.03    0.01   1
 -11  -7 -15    0.05    0.05   1
 -11  -7  15    0.05    0.04   1
 -11  -7  15    0.01    0.03   1
 -11   7  15    0.10    0.02   1
  -7 -15 -11    0.02    0.05   1
  -7 -15  11    0.11    0.06   1
  -7  15 -11    0.06    0.04   1
  -7  15  11    0.01    0.03   1
   7 -15 -11   -0.04    0.04   1
   7 -15  11    0.10    0.05   1
   7  15 -11   -0.09    0.03   1
   7  15  11    0.03    0.03   1
  11  -7 -15   -0.03    0.02   1
  11  -7  15    0.06    0.05   1
  11  -7  15    0.03    0.03   1
  11   7  15    0.03    0.04   1
  15 -11  -7    0.06    0.02   1
  15 -11   7    0.02    0.04   1
  15 -11   7    0.02    0.03   1
  15  11  -7   -0.03    0.02   1
  15  11   7   -0.01    0.03   1
 -15 -11  -9    0.08    0.05   1
 -15 -11   9    0.05    0.04   1
 -15  11   9    0.07    0.01   1
 -11  -9 -15    0.10    0.05   1
 -11  -9  15    0.11    0.04   1
 -11   9  15    0.13    0.03   1
  -9 -15 -11    0.09    0.06   1
  -9 -15  11    0.08    0.05   1
  -9  15  11    0.08    0.03   1
   9 -15 -11    0.09    0.04   1
   9 -15  11    0.22    0.06   1
   9 -15  11    0.12    0.04   1
   9  15 -11    0.11    0.03   1
   9  15  11    0.02    0.03   1
  11  -9 -15    0.11    0.03   1
  11  -9  15   -0.02    0.05   1
  11  -9  15    0.05    0.04   1
  11   9 -15    0.07    0.03   1
  11   9  15    0.09    0.03   1
  15 -11  -9    0.10    0.02   1
  15 -11   9    0.10    0.05   1
  15 -11   9    0.14    0.04   1
  15  11  -9    0.09    0.03   1
  15  11   9    0.09    0.04   1
 -15 -11 -11    0.29    0.07   1
 -15 -11  11    0.28    0.05   1
 -15  11  11    0.27    0.03   1
 -11 -15  11    0.33    0.07   1
 -11 -11  15    0.24    0.06   1
 -11  11  15    0.29    0.04   1
 -11  15  11    0.25    0.04   1
  11 -15 -11    0.28    0.04   1
  11 -15  11    0.31    0.07   1
  11 -15  11    0.16    0.04   1
  11 -11 -15    0.24    0.04   1
  11 -11  15    0.24    0.06   1
  11 -11  15    0.31    0.04   1
  11  11 -15    0.22    0.04   1
  11  11  15    0.19    0.04   1
  11  15 -11    0.19    0.04   1
  11  15  11    0.27    0.04   1
  15 -11 -11    0.30    0.03   1
  15 -11  11    0.31    0.06   1
  15 -11  11    0.26    0.04   1
  15  11 -11    0.17    0.04   1
  15  11  11    0.26    0.04   1
 -15 -11  13    0.09    0.06   1
 -15  11  13    0.02    0.02   1
 -13 -15  11   -0.01    0.06   1
 -13  15  11    0.02    0.03   1
 -11 -13  15   -0.04    0.06   1
 -11  13  15    0.01    0.03   1
  11 -13 -15    0.02    0.04   1
  11 -13  15    0.04    0.04   1
  11  13 -15   -0.01    0.04   1
  11  13  15   -0.07    0.03   1
  13 -15 -11    0.10    0.03   1
  13 -15  11    0.00    0.05   1
  13 -15  11   -0.02    0.03   1
  13  15 -11   -0.03    0.04   1
  13  15  11   -0.05    0.04   1
  15 -11 -13    0.04    0.02   1
  15 -11  13   -0.01    0.05   1
  15 -11  13    0.02    0.04   1
  15  11 -13    0.03    0.04   1
  15  11  13    0.08    0.04   1
 -15 -13  -1    0.45    0.07   1
 -15 -13   1    0.43    0.06   1
 -13  -1 -15    0.45    0.06   1
 -13  -1  15    0.54    0.05   1
 -13  -1  15    0.59    0.04   1
 -13   1 -15    0.37    0.06   1
 -13   1  15    0.51    0.05   1
 -13   1  15    0.48    0.04   1
  -1 -15 -13    0.56    0.07   1
  -1 -15  13    0.56    0.07   1
  -1  15 -13    0.56    0.06   1
  -1  15  13    0.64    0.07   1
   1 -15 -13    0.45    0.06   1
   1 -15  13    0.46    0.07   1
   1  15 -13    0.48    0.06   1
   1  15  13    0.59    0.06   1
  13  -1  15    0.55    0.06   1
  13   1  15    0.44    0.05   1
  15 -13  -1    0.56    0.05   1
  15 -13   1    0.47    0.06   1
  15 -13   1    0.51    0.04   1
  15  13  -1    0.48    0.06   1
  15  13   1    0.51    0.06   1
 -15 -13  -3    0.16    0.06   1
 -15 -13   3    0.19    0.05   1
 -15  13   3    0.16    0.03   1
 -13  -3 -15    0.12    0.05   1
 -13  -3  15    0.17    0.03   1
 -13  -3  15    0.19    0.03   1
 -13   3 -15    0.06    0.05   1
 -13   3  15    0.12    0.03   1
 -13   3  15    0.13    0.03   1
  -3 -15 -13    0.07    0.05   1
  -3 -15  13    0.17    0.05   1
  -3  15 -13    0.11    0.04   1
  -3  15  13    0.09    0.04   1
   3 -15 -13    0.23    0.05   1
   3 -15  13    0.12    0.06   1
   3  15 -13    0.17    0.04   1
   3  15  13    0.24    0.05   1
  13  -3  15    0.13    0.04   1
  13   3  15    0.20    0.04   1
  15 -13  -3    0.15    0.03   1
  15 -13   3    0.17    0.04   1
  15 -13   3    0.13    0.03   1
  15  13  -3    0.22    0.04   1
  15  13   3    0.53    0.06   1
 -15 -13  -5    0.49    0.07   1
 -15 -13   5    0.70    0.08   1
 -15  13   5    0.68    0.04   1
 -13  -5 -15    0.82    0.10   1
 -13  -5  15    0.56    0.05   1
 -13  -5  15    0.57    0.06   1
 -13   5 -15    0.69    0.08   1
 -13   5  15    0.65    0.04   1
  -5 -15 -13    0.71    0.08   1
  -5 -15  13    0.58    0.07   1
  -5  15 -13    0.73    0.08   1
  -5  15  13    0.74    0.07   1
   5 -15 -13    0.70    0.08   1
   5 -15  13    0.61    0.07   1
   5  15 -13    0.60    0.07   1
   5  15  13    0.82    0.08   1
  13  -5  15    0.68    0.07   1
  13   5  15    0.60    0.07   1
  15 -13  -5    0.75    0.05   1
  15 -13   5    0.64    0.07   1
  15 -13   5    0.62    0.05   1
  15  13  -5    0.65    0.06   1
  15  13   5    0.72    0.06   1
 -15 -13  -7    0.26    0.07   1
 -15 -13   7    0.18    0.05   1
 -15  13   7    0.23    0.03   1
 -13  -7 -15    0.10    0.05   1
 -13  -7  15    0.22    0.05   1
 -13   7  15    0.22    0.05   1
  -7 -15 -13    0.30    0.07   1
  -7 -15  13    0.18    0.06   1
  -7  15  13    0.14    0.04   1
   7 -15 -13    0.34    0.05   1
   7 -15  13    0.18    0.06   1
   7 -15  13    0.19    0.04   1
   7  15 -13    0.17    0.04   1
   7  15  13    0.15    0.03   1
  13  -7  15    0.22    0.06   1
  13  -7  15    0.24    0.05   1
  13   7  15    0.16    0.04   1
  15 -13  -7    0.21    0.03   1
  15 -13   7    0.19    0.05   1
  15 -13   7    0.23    0.04   1
  15  13  -7    0.22    0.04   1
  15  13   7    0.22    0.04   1
 -15 -13  -9   -0.01    0.06   1
 -15 -13   9   -0.03    0.05   1
 -13  -9  15   -0.04    0.04   1
 -13   9  15    0.00    0.02   1
  -9 -15  13   -0.05    0.06   1
  -9  15  13   -0.03    0.03   1
   9 -15 -13   -0.01    0.04   1
   9 -15  13    0.07    0.06   1
   9 -15  13    0.03    0.03   1
   9  15 -13   -0.02    0.03   1
   9  15  13    0.04    0.04   1
  13  -9 -15    0.01    0.02   1
  13  -9  15   -0.11    0.05   1
  13  -9  15   -0.03    0.03   1
  13   9 -15   -0.06    0.03   1
  13   9  15   -0.07    0.04   1
  15 -13  -9    0.02    0.02   1
  15 -13   9    0.04    0.05   1
  15 -13   9    0.04    0.03   1
  15  13  -9   -0.02    0.03   1
  15  13   9   -0.01    0.03   1
 -15 -13  11    0.13    0.06   1
 -15  13  11    0.02    0.03   1
 -13 -11  15   -0.05    0.05   1
 -13  11  15    0.03    0.03   1
 -11 -15  13   -0.10    0.06   1
 -11  15  13   -0.02    0.03   1
  11 -15 -13    0.03    0.04   1
  11 -15  13    0.01    0.03   1
  11  15 -13   -0.04    0.04   1
  11  15  13    0.03    0.04   1
  13 -11 -15    0.00    0.03   1
  13 -11  15   -0.01    0.03   1
  13  11 -15   -0.05    0.03   1
  13  11  15   -0.08    0.04   1
  15 -13 -11    0.00    0.02   1
  15 -13  11    0.05    0.06   1
  15 -13  11    0.04    0.03   1
  15  13 -11    0.00    0.03   1
  15  13  11   -0.03    0.04   1
 -15 -13  13   -0.11    0.06   1
 -15  13  13    0.03    0.03   1
 -13 -15  13   -0.07    0.06   1
 -13 -13  15    0.07    0.06   1
 -13  13  15    0.01    0.03   1
 -13  15  13    0.04    0.03   1
  13 -15 -13    0.00    0.03   1
  13 -15  13    0.06    0.04   1
  13 -13 -15   -0.04    0.03   1
  13 -13  15    0.00    0.04   1
  13  13 -15   -0.07    0.04   1
  13  13  15    0.04    0.05   1
  13  15 -13   -0.09    0.04   1
  13  15  13    0.02    0.06   1
  15 -13 -13    0.05    0.03   1
  15 -13  13    0.05    0.04   1
  15  13 -13   -0.02    0.04   1
  15  13  13    0.07    0.04   1
 -15 -15  -1    0.17    0.06   1
 -15 -15   1    0.06    0.06   1
 -15  -1 -15    0.14    0.05   1
 -15  -1  15    0.22    0.03   1
 -15  -1  15    0.17    0.03   1
 -15   1 -15    0.27    0.07   1
 -15   1  15    0.23    0.03   1
 -15   1  15    0.30    0.04   1
 -15  15  -1    0.21    0.04   1
 -15  15   1    0.20    0.03   1
  -1 -15 -15    0.05    0.05   1
  -1 -15  15    0.31    0.06   1
  -1  15 -15    0.16    0.04   1
  -1  15  15    0.08    0.04   1
   1 -15 -15    0.07    0.05   1
   1 -15  15    0.25    0.10   1
   1  15 -15    0.21    0.04   1
   1  15  15    0.31    0.05   1
  15 -15  -1    0.12    0.04   1
  15 -15   1    0.20    0.04   1
  15  -1  15    0.22    0.04   1
  15   1  15    0.14    0.04   1
  15  15  -1    0.21    0.04   1
  15  15   1    0.21    0.05   1
 -15 -15  -3    0.32    0.07   1
 -15 -15   3    0.31    0.06   1
 -15  -3 -15    0.37    0.06   1
 -15  -3  15    0.32    0.04   1
 -15  -3  15    0.42    0.05   1
 -15   3 -15    0.35    0.07   1
 -15   3  15    0.28    0.03   1
 -15   3  15    0.27    0.03   1
 -15  15   3    0.41    0.05   1
  -3 -15 -15    0.31    0.06   1
  -3 -15  15    0.31    0.07   1
  -3  15  15    0.42    0.06   1
   3 -15 -15    0.36    0.06   1
   3  15 -15    0.44    0.05   1
   3  15  15    0.31    0.06   1
  15 -15  -3    0.32    0.04   1
  15 -15   3    0.39    0.05   1
  15 -15   3    0.26    0.04   1
  15  -3  15    0.38    0.05   1
  15   3  15    0.24    0.04   1
  15  15  -3    0.29    0.05   1
  15  15   3    0.40    0.05   1
 -15 -15  -5    1.53    0.11   1
 -15 -15   5    1.78    0.11   1
 -15  -5 -15    1.47    0.12   1
 -15  -5  15    1.78    0.08   1
 -15  -5  15    1.60    0.07   1
 -15   5 -15    1.33    0.11   1
 -15   5  15    1.57    0.04   1
 -15   5  15    1.66    0.04   1
 -15  15   5    1.63    0.07   1
  -5 -15  15    1.58    0.11   1
  -5  15  15    1.66    0.09   1
   5 -15 -15    1.69    0.10   1
   5 -15  15    1.65    0.09   1
   5  15 -15    1.82    0.09   1
   5  15  15    1.58    0.09   1
  15 -15  -5    1.60    0.07   1
  15 -15   5    1.64    0.09   1
  15 -15   5    1.72    0.08   1
  15  -5  15    1.60    0.09   1
  15   5  15    1.57    0.08   1
  15  15  -5    1.88    0.09   1
  15  15   5    1.93    0.09   1
 -15 -15   7    0.52    0.07   1
 -15  -7  15    0.62    0.07   1
 -15   7  15    0.63    0.03   1
 -15   7  15    0.69    0.03   1
 -15  15   7    0.56    0.05   1
  -7 -15  15    0.64    0.08   1
  -7  15  15    0.81    0.07   1
   7 -15 -15    0.72    0.08   1
   7 -15  15    0.60    0.07   1
   7  15 -15    0.63    0.07   1
   7  15  15    0.71    0.08   1
  15 -15  -7    0.64    0.06   1
  15 -15   7    0.59    0.07   1
  15 -15   7    0.69    0.06   1
  15  -7  15    0.45    0.07   1
  15  -7  15    0.64    0.07   1
  15   7  15    0.53    0.06   1
  15  15  -7    0.59    0.07   1
  15  15   7    0.87    0.07   1
 -15 -15   9    0.08    0.06   1
 -15  -9  15    0.17    0.05   1
 -15   9  15    0.10    0.02   1
 -15  15   9    0.10    0.03   1
  -9 -15  15    0.08    0.06   1
  -9  15  15    0.07    0.03   1
   9 -15 -15    0.16    0.05   1
   9 -15  15    0.04    0.04   1
   9  15 -15    0.18    0.04   1
   9  15  15    0.05    0.04   1
  15 -15  -9    0.15    0.04   1
  15 -15   9    0.14    0.06   1
  15 -15   9    0.10    0.04   1
  15  -9  15    0.14    0.04   1
  15   9 -15    0.13    0.04   1
  15   9  15    0.25    0.04   1
  15  15  -9    0.07    0.04   1
  15  15   9    0.20    0.04   1
 -15 -15  11   -0.01    0.06   1
 -15 -11  15    0.06    0.06   1
 -15  15  11    0.03    0.03   1
 -11 -15  15    0.01    0.06   1
 -11  15  15    0.01    0.03   1
  11 -15 -15    0.03    0.04   1
  11 -15  15   -0.05    0.03   1
  11  15 -15    0.00    0.04   1
  15 -15 -11   -0.03    0.03   1
  15 -15  11    0.02    0.06   1
  15 -15  11    0.05    0.03   1
  15 -11 -15    0.04    0.03   1
  15 -11  15    0.07    0.04   1
  15  11 -15   -0.01    0.04   1
  15  11  15    0.04    0.04   1
  15  15 -11    0.00    0.04   1
  15  15  11   -0.02    0.04   1
 -15 -15  13    0.26    0.07   1
 -15 -13  15    0.19    0.07   1
 -15  13  15    0.19    0.03   1
 -15  15  13    0.17    0.03   1
 -13 -15  15    0.24    0.09   1
 -13  15  15    0.24    0.04   1
  13 -15 -15    0.19    0.04   1
  13 -15  15    0.18    0.05   1
  13  15 -15    0.21    0.04   1
  13  15  15    0.13    0.05   1
  15 -15 -13    0.17    0.05   1
  15 -15  13    0.21    0.04   1
  15 -13 -15    0.17    0.03   1
  15 -13  15    0.19    0.04   1
  15  13 -15    0.11    0.04   1
  15  13  15    0.12    0.05   1
  15  15 -13    0.30    0.05   1
  15  15  13    0.13    0.05   1
 -15  15  15    0.21    0.04   1
  15 -15 -15    0.19    0.05   1
  15 -15  15    0.32    0.05   1
  15  15 -15    0.33    0.05   1
  15  15  15    0.28    0.05   1
 -16   0   0    3.64    0.07   1
   0 -16   0    3.63    0.11   1
   0   0 -16    3.69    0.11   1
   0   0  16    3.74    0.10   1
   0  16   0    3.95    0.11   1
  16   0   0    3.79    0.07   1
 -16   0  -2    0.30    0.03   1
 -16   0   2    0.25    0.03   1
  -2 -16   0    0.24    0.05   1
  -2  16   0    0.26    0.04   1
   0  -2 -16    0.24    0.04   1
   0  -2  16    0.42    0.05   1
   0   2 -16    0.22    0.05   1
   0   2  16    0.23    0.04   1
   2 -16   0    0.23    0.04   1
   2  16   0    0.28    0.04   1
  16   0  -2    0.28    0.03   1
  16   0   2    0.36    0.04   1
 -16   0  -4    0.50    0.05   1
 -16   0   4    0.50    0.02   1
  -4 -16   0    0.43    0.05   1
  -4  16   0    0.56    0.06   1
   0  -4 -16    0.56    0.06   1
   0  -4  16    0.57    0.06   1
   0  -4  16    0.53    0.06   1
   0   4  16    0.51    0.06   1
   4 -16   0    0.52    0.06   1
   4  16   0    0.64    0.06   1
  16   0  -4    0.51    0.02   1
  16   0   4    0.52    0.04   1
 -16   0  -6    0.56    0.06   1
  -6 -16   0    0.70    0.08   1
  -6  16   0    0.58    0.06   1
   0  -6 -16    0.82    0.07   1
   0  -6  16    0.57    0.07   1
   0  -6  16    0.69    0.06   1
   0   6  16    0.56    0.06   1
   6 -16   0    0.68    0.06   1
   6  16   0    0.68    0.06   1
  16   0   6    0.64    0.05   1
 -16   0  -8    0.10    0.04   1
  -8 -16   0    0.11    0.05   1
  -8  16   0    0.12    0.03   1
   0  -8 -16    0.11    0.04   1
   0  -8  16    0.11    0.04   1
   0  -8  16    0.12    0.04   1
   0   8  16    0.06    0.03   1
   8 -16   0    0.04    0.04   1
   8  16   0   -0.01    0.03   1
  16   0   8    0.04    0.03   1
 -16   0 -10    0.35    0.05   1
 -10 -16   0    0.21    0.05   1
 -10  16   0    0.28    0.04   1
   0 -10 -16    0.37    0.06   1
   0 -10  16    0.29    0.06   1
   0 -10  16    0.33    0.05   1
   0  10  16    0.28    0.05   1
  10 -16   0    0.23    0.04   1
  10  16   0    0.45    0.06   1
  16   0  10    0.22    0.04   1
 -16   0 -12    0.36    0.06   1
 -16   0  12    0.36    0.03   1
 -16   0  12    0.44    0.02   1
 -12 -16   0    0.35    0.06   1
 -12  16   0    0.43    0.05   1
   0 -12 -16    0.47    0.07   1
   0 -12  16    0.38    0.07   1
   0 -12  16    0.39    0.06   1
   0  12  16    0.47    0.06   1
  12 -16   0    0.51    0.06   1
  12  16   0    0.41    0.05   1
  16   0  12    0.60    0.06   1
 -16   0 -14    0.07    0.06   1
 -16   0  14    0.04    0.02   1
 -16   0  14    0.08    0.02   1
 -14 -16   0    0.05    0.06   1
 -14  16   0    0.11    0.03   1
   0 -14 -16    0.06    0.05   1
   0 -14  16    0.03    0.05   1
   0  14  16    0.10    0.04   1
  14 -16   0    0.06    0.04   1
  14  16   0    0.00    0.04   1
  16   0  14    0.05    0.03   1
 -16  -2   0    0.29    0.03   1
 -16   2   0    0.24    0.03   1
  -2   0 -16    0.25    0.05   1
  -2   0  16    0.17    0.03   1
   0 -16  -2    0.21    0.04   1
   0 -16   2    0.25    0.05   1
   0  16  -2    0.35    0.05   1
   0  16   2    0.25    0.04   1
   2   0 -16    0.30    0.04   1
   2   0  16    0.30    0.04   1
  16  -2   0    0.31    0.03   1
  16   2   0    0.32    0.03   1
 -16  -2   2    0.01    0.02   1
 -16   2  -2    0.03    0.02   1
 -16   2   2   -0.01    0.01   1
  -2 -16  -2   -0.01    0.04   1
  -2 -16   2    0.01    0.03   1
  -2  -2 -16   -0.07    0.04   1
  -2  -2  16    0.00    0.03   1
  -2   2 -16   -0.01    0.03   1
  -2   2  16    0.01    0.03   1
  -2  16  -2    0.01    0.03   1
  -2  16   2   -0.03    0.02   1
   2 -16  -2   -0.02    0.03   1
   2 -16   2    0.02    0.03   1
   2  -2 -16   -0.02    0.03   1
   2  -2  16    0.01    0.03   1
   2   2  16    0.03    0.02   1
   2  16  -2    0.01    0.03   1
   2  16   2    0.01    0.03   1
  16  -2  -2    0.00    0.01   1
  16  -2   2    0.00    0.02   1
  16   2  -2    0.02    0.02   1
  16   2   2    0.03    0.02   1
 -16  -2  -4    1.16    0.06   1
 -16  -2   4    1.27    0.04   1
 -16   2  -4    1.14    0.06   1
  -4 -16  -2    1.33    0.09   1
  -4 -16   2    1.20    0.08   1
  -4  16  -2    1.21    0.07   1
  -4  16   2    1.10    0.06   1
  -2  -4 -16    1.08    0.08   1
  -2  -4  16    1.34    0.07   1
  -2  -4  16    1.12    0.07   1
  -2   4  16    1.16    0.07   1
   2  -4 -16    1.22    0.07   1
   2  -4  16    1.23    0.08   1
   2  -4  16    1.20    0.07   1
   2   4  16    1.32    0.07   1
   4 -16  -2    1.33    0.07   1
   4 -16   2    1.16    0.08   1
   4  16  -2    1.25    0.07   1
   4  16   2    1.15    0.07   1
  16  -2   4    1.11    0.05   1
  16   2  -4    1.22    0.04   1
  16   2   4    1.29    0.06   1
 -16  -2  -6    1.31    0.07   1
 -16  -2   6    1.40    0.04   1
 -16   2  -6    1.30    0.07   1
  -6 -16  -2    1.20    0.09   1
  -6 -16   2    1.47    0.09   1
  -6  16  -2    1.21    0.07   1
  -6  16   2    1.38    0.07   1
  -2  -6 -16    1.40    0.08   1
  -2  -6  16    1.40    0.08   1
  -2  -6  16    1.15    0.07   1
  -2   6  16    1.31    0.07   1
   2  -6 -16    1.36    0.08   1
   2  -6  16    1.46    0.09   1
   2  -6  16    1.42    0.08   1
   2   6  16    1.25    0.07   1
   6 -16  -2    1.42    0.07   1
   6 -16   2    1.30    0.07   1
   6  16  -2    1.42    0.08   1
   6  16   2    1.34    0.08   1
  16  -2   6    1.36    0.06   1
  16   2  -6    1.28    0.04   1
  16   2   6    1.26    0.06   1
 -16  -2  -8    0.14    0.04   1
 -16  -2   8    0.04    0.02   1
 -16   2  -8    0.05    0.03   1
  -8 -16  -2    0.06    0.05   1
  -8 -16   2   -0.01    0.04   1
  -8  16  -2    0.07    0.03   1
  -8  16   2    0.08    0.03   1
  -2  -8 -16    0.12    0.04   1
  -2  -8  16    0.09    0.04   1
  -2  -8  16    0.05    0.03   1
  -2   8  16    0.05    0.03   1
   2  -8 -16    0.10    0.04   1
   2  -8  16    0.10    0.04   1
   2  -8  16    0.10    0.04   1
   2   8  16    0.09    0.04   1
   8 -16  -2    0.08    0.03   1
   8 -16   2    0.06    0.04   1
   8  16  -2    0.07    0.03   1
   8  16   2    0.08    0.03   1
  16  -2   8    0.04    0.03   1
  16   2  -8    0.03    0.02   1
  16   2   8    0.03    0.03   1
 -16  -2 -10    0.11    0.04   1
 -16  -2  10    0.03    0.02   1
 -16  -2  10    0.05    0.02   1
 -16   2 -10    0.10    0.04   1
 -10 -16  -2   -0.02    0.04   1
 -10 -16   2    0.09    0.05   1
 -10  16  -2    0.04    0.03   1
 -10  16   2    0.10    0.03   1
  -2 -10 -16    0.04    0.04   1
  -2 -10  16    0.14    0.05   1
  -2 -10  16    0.12    0.04   1
  -2  10  16    0.11    0.04   1
   2 -10 -16    0.11    0.04   1
   2 -10  16    0.10    0.05   1
   2 -10  16    0.10    0.04   1
   2  10  16    0.12    0.04   1
  10 -16  -2    0.05    0.03   1
  10 -16   2    0.01    0.04   1
  10  16  -2    0.07    0.03   1
  10  16   2    0.04    0.03   1
  16  -2  10    0.05    0.03   1
  16   2  10    0.06    0.03   1
 -16  -2 -12    0.07    0.05   1
 -16  -2  12   -0.02    0.02   1
 -16   2 -12   -0.01    0.04   1
 -12 -16  -2   -0.06    0.05   1
 -12 -16   2    0.09    0.05   1
 -12  16  -2    0.06    0.03   1
 -12  16   2    0.08    0.03   1
  -2 -12 -16    0.04    0.05   1
  -2 -12  16    0.04    0.05   1
  -2  12  16    0.02    0.04   1
   2 -12 -16    0.06    0.04   1
   2 -12  16   -0.05    0.05   1
   2 -12  16    0.00    0.03   1
   2  12  16    0.07    0.04   1
  12 -16  -2   -0.01    0.03   1
  12 -16   2    0.01    0.04   1
  12  16  -2    0.02    0.03   1
  12  16   2   -0.06    0.03   1
  16  -2  12    0.01    0.03   1
  16   2  12    0.06    0.03   1
 -16  -2 -14    0.15    0.06   1
 -16  -2  14    0.09    0.03   1
 -16  -2  14    0.12    0.03   1
 -16   2 -14    0.12    0.06   1
 -14 -16  -2    0.07    0.06   1
 -14 -16   2    0.17    0.06   1
 -14  16  -2    0.11    0.03   1
 -14  16   2    0.11    0.03   1
  -2 -14 -16    0.11    0.06   1
  -2 -14  16    0.09    0.06   1
  -2  14  16    0.14    0.04   1
   2 -14 -16    0.14    0.05   1
   2 -14  16    0.16    0.04   1
   2  14 -16    0.16    0.04   1
   2  14  16    0.10    0.04   1
  14 -16  -2    0.10    0.04   1
  14 -16   2    0.16    0.05   1
  14  16  -2    0.08    0.04   1
  14  16   2    0.12    0.04   1
  16  -2  14    0.07    0.03   1
  16   2  14    0.11    0.04   1
 -16  -4   0    0.50    0.06   1
  -4   0 -16    0.39    0.05   1
  -4   0  16    0.49    0.05   1
   0 -16  -4    0.56    0.06   1
   0 -16   4    0.59    0.07   1
   0  16  -4    0.52    0.06   1
   0  16   4    0.54    0.06   1
   4   0 -16    0.56    0.06   1
   4   0  16    0.51    0.06   1
  16  -4   0    0.59    0.04   1
  16  -4   0    0.49    0.04   1
  16   4   0    0.54    0.04   1
 -16  -4  -2    1.30    0.06   1
 -16  -4   2    1.15    0.05   1
  -4  -2 -16    1.14    0.08   1
  -4  -2  16    1.12    0.07   1
  -4  -2  16    1.20    0.06   1
  -4   2 -16    1.11    0.08   1
  -4   2  16    1.12    0.06   1
  -2 -16  -4    1.15    0.08   1
  -2 -16   4    1.28    0.08   1
  -2  16  -4    1.19    0.07   1
  -2  16   4    1.34    0.07   1
   2 -16  -4    1.26    0.08   1
   2 -16   4    1.27    0.08   1
   2  16  -4    1.21    0.07   1
   2  16   4    1.27    0.07   1
   4  -2 -16    1.14    0.07   1
   4  -2  16    1.21    0.08   1
   4   2  16    1.30    0.07   1
  16  -4  -2    1.22    0.03   1
  16  -4  -2    1.23    0.03   1
  16  -4   2    1.21    0.05   1
  16   4  -2    1.24    0.05   1
  16   4   2    1.12    0.05   1
 -16  -4  -4    2.45    0.09   1
 -16  -4   4    2.51    0.07   1
 -16   4  -4    2.38    0.08   1
  -4 -16  -4    2.51    0.10   1
  -4 -16   4    2.23    0.10   1
  -4  -4 -16    2.29    0.10   1
  -4  -4  16    2.41    0.09   1
  -4  -4  16    2.33    0.08   1
  -4   4  16    2.21    0.08   1
  -4  16  -4    2.55    0.09   1
  -4  16   4    2.65    0.09   1
   4 -16  -4    2.51    0.09   1
   4 -16   4    2.41    0.10   1
   4  -4 -16    2.37    0.08   1
   4  -4  16    2.39    0.10   1
   4   4  16    2.44    0.09   1
   4  16  -4    2.52    0.10   1
   4  16   4    2.45    0.10   1
  16  -4   4    2.51    0.07   1
  16   4  -4    2.46    0.06   1
  16   4   4    2.57    0.08   1
 -16  -4  -6    3.58    0.11   1
 -16  -4   6    3.58    0.07   1
 -16   4  -6    3.46    0.10   1
  -6 -16  -4    3.12    0.12   1
  -6 -16   4    3.36    0.11   1
  -6  16  -4    3.61    0.11   1
  -6  16   4    3.67    0.10   1
  -4  -6 -16    3.36    0.11   1
  -4  -6  16    3.46    0.11   1
  -4  -6  16    3.28    0.10   1
  -4   6  16    3.69    0.10   1
   4  -6 -16    3.76    0.10   1
   4  -6  16    3.50    0.12   1
   4  -6  16    3.56    0.11   1
   4   6  16    3.37    0.11   1
   6 -16  -4    3.65    0.11   1
   6 -16   4    3.58    0.11   1
   6  16  -4    3.69    0.11   1
   6  16   4    3.75    0.12   1
  16  -4   6    3.65    0.09   1
  16   4  -6    3.50    0.07   1
  16   4   6    3.57    0.10   1
 -16  -4  -8    1.26    0.08   1
 -16  -4   8    1.25    0.05   1
 -16   4  -8    1.20    0.07   1
  -8 -16  -4    1.33    0.09   1
  -8 -16   4    1.25    0.09   1
  -8  16  -4    1.23    0.07   1
  -8  16   4    1.14    0.07   1
  -4  -8 -16    1.23    0.09   1
  -4  -8  16    1.18    0.09   1
  -4  -8  16    1.08    0.07   1
  -4   8  16    1.19    0.07   1
   4  -8 -16    1.26    0.08   1
   4  -8  16    1.25    0.09   1
   4  -8  16    1.31    0.08   1
   4   8  16    1.22    0.08   1
   8 -16  -4    1.27    0.07   1
   8 -16   4    1.15    0.08   1
   8  16  -4    1.15    0.07   1
   8  16   4    1.36    0.08   1
  16  -4   8    1.21    0.06   1
  16   4  -8    1.21    0.05   1
  16   4   8    1.49    0.07   1
 -16  -4 -10    0.21    0.05   1
 -16  -4  10    0.21    0.03   1
 -16   4 -10    0.34    0.06   1
 -10 -16  -4    0.12    0.05   1
 -10 -16   4    0.40    0.06   1
 -10  16  -4    0.27    0.04   1
 -10  16   4    0.29    0.04   1
  -4 -10 -16    0.21    0.05   1
  -4 -10  16    0.28    0.06   1
  -4 -10  16    0.26    0.04   1
  -4  10  16    0.40    0.05   1
   4 -10 -16    0.18    0.04   1
   4 -10  16    0.21    0.06   1
   4 -10  16    0.18    0.04   1
   4  10  16    0.27    0.05   1
  10 -16  -4    0.30    0.04   1
  10 -16   4    0.29    0.05   1
  10  16  -4    0.21    0.04   1
  10  16   4    0.38    0.05   1
  16  -4  10    0.33    0.04   1
  16   4 -10    0.26    0.03   1
  16   4  10    0.23    0.04   1
 -16  -4 -12    0.30    0.06   1
 -16  -4  12    0.34    0.03   1
 -16   4 -12    0.30    0.05   1
 -12 -16  -4    0.39    0.07   1
 -12 -16   4    0.51    0.07   1
 -12  16  -4    0.34    0.05   1
 -12  16   4    0.39    0.04   1
  -4 -12 -16    0.35    0.06   1
  -4 -12  16    0.33    0.06   1
  -4  12  16    0.30    0.05   1
   4 -12 -16    0.35    0.05   1
   4 -12  16    0.25    0.06   1
   4 -12  16    0.30    0.05   1
   4  12 -16    0.42    0.05   1
   4  12  16    0.27    0.05   1
  12 -16  -4    0.30    0.04   1
  12 -16   4    0.27    0.05   1
  12  16  -4    0.40    0.05   1
  12  16   4    0.27    0.04   1
  16  -4  12    0.34    0.05   1
  16   4  12    0.30    0.05   1
 -16  -4 -14    1.51    0.10   1
 -16  -4  14    1.53    0.07   1
 -16  -4  14    1.46    0.06   1
 -16   4 -14    1.47    0.11   1
 -14 -16  -4    1.44    0.11   1
 -14 -16   4    1.29    0.11   1
 -14  16   4    1.50    0.07   1
  -4 -14 -16    1.42    0.11   1
  -4 -14  16    1.48    0.11   1
  -4  14  16    1.70    0.09   1
   4 -14 -16    1.62    0.10   1
   4 -14  16    1.66    0.09   1
   4  14 -16    1.59    0.08   1
   4  14  16    1.54    0.09   1
  14 -16  -4    1.56    0.07   1
  14 -16   4    1.57    0.09   1
  14  16  -4    1.53    0.09   1
  14  16   4    1.45    0.08   1
  16  -4  14    1.68    0.09   1
  16   4  14    1.60    0.09   1
 -16  -6   0    0.66    0.06   1
  -6   0 -16    0.55    0.06   1
  -6   0  16    0.52    0.05   1
  -6   0  16    0.49    0.05   1
   0 -16  -6    0.46    0.05   1
   0 -16   6    0.70    0.07   1
   0  16  -6    0.63    0.06   1
   0  16   6    0.51    0.06   1
   6   0  16    0.72    0.07   1
  16  -6   0    0.62    0.04   1
  16  -6   0    0.61    0.05   1
  16   6   0    0.55    0.04   1
 -16  -6  -2    1.52    0.08   1
 -16  -6   2    1.27    0.07   1
  -6  -2 -16    1.24    0.09   1
  -6  -2  16    1.38    0.07   1
  -6  -2  16    1.35    0.07   1
  -6   2 -16    1.34    0.08   1
  -6   2  16    1.39    0.06   1
  -2 -16  -6    1.29    0.08   1
  -2 -16   6    1.37    0.09   1
  -2  16  -6    1.45    0.08   1
  -2  16   6    1.43    0.07   1
   2 -16  -6    1.40    0.08   1
   2 -16   6    1.36    0.09   1
   2  16  -6    1.34    0.08   1
   2  16   6    1.40    0.08   1
   6  -2 -16    1.27    0.07   1
   6  -2  16    1.37    0.08   1
   6   2  16    1.32    0.08   1
  16  -6  -2    1.38    0.04   1
  16  -6  -2    1.31    0.04   1
  16  -6   2    1.29    0.05   1
  16  -6   2    1.30    0.05   1
  16   6  -2    1.33    0.06   1
  16   6   2    1.33    0.06   1
 -16  -6  -4    3.65    0.11   1
  -6  -4 -16    3.38    0.12   1
  -6  -4  16    3.63    0.10   1
  -6  -4  16    3.61    0.10   1
  -6   4 -16    3.32    0.12   1
  -6   4  16    3.46    0.09   1
  -4 -16  -6    3.36    0.12   1
  -4 -16   6    3.72    0.12   1
  -4  16  -6    3.72    0.11   1
  -4  16   6    3.59    0.10   1
   4 -16  -6    3.62    0.11   1
   4 -16   6    3.53    0.12   1
   4  16  -6    3.54    0.11   1
   4  16   6    3.71    0.11   1
   6  -4 -16    3.48    0.09   1
   6  -4  16    3.24    0.11   1
   6   4  16    3.44    0.11   1
  16  -6   4    3.46    0.09   1
  16  -6   4    3.49    0.08   1
  16   6  -4    3.70    0.08   1
  16   6   4    3.58    0.10   1
 -16  -6  -6    4.82    0.12   1
 -16  -6   6    4.52    0.10   1
  -6 -16  -6    4.51    0.13   1
  -6 -16   6    4.79    0.13   1
  -6  -6 -16    4.53    0.13   1
  -6  -6  16    4.70    0.12   1
  -6  -6  16    4.63    0.11   1
  -6   6  16    4.62    0.10   1
  -6  16  -6    4.60    0.12   1
  -6  16   6    4.76    0.11   1
   6 -16  -6    4.74    0.12   1
   6 -16   6    4.51    0.13   1
   6  -6 -16    4.67    0.11   1
   6  -6  16    4.42    0.13   1
   6  -6  16    4.76    0.13   1
   6   6  16    4.71    0.13   1
   6  16  -6    5.06    0.13   1
   6  16   6    4.82    0.13   1
  16  -6   6    4.61    0.11   1
  16  -6   6    4.71    0.10   1
  16   6  -6    4.77    0.09   1
  16   6   6    4.52    0.11   1
 -16  -6  -8    2.12    0.10   1
 -16  -6   8    2.13    0.08   1
  -8 -16  -6    2.11    0.11   1
  -8 -16   6    2.31    0.11   1
  -8  16  -6    2.10    0.09   1
  -8  16   6    2.38    0.08   1
  -6  -8 -16    2.03    0.11   1
  -6  -8  16    2.27    0.10   1
  -6  -8  16    1.99    0.09   1
  -6   8  16    2.25    0.08   1
   6  -8 -16    2.23    0.08   1
   6  -8  16    2.24    0.11   1
   6  -8  16    2.20    0.09   1
   6   8  16    2.31    0.10   1
   8 -16  -6    2.35    0.09   1
   8 -16   6    2.35    0.10   1
   8  16  -6    2.33    0.09   1
   8  16   6    2.42    0.10   1
  16  -6   8    2.14    0.09   1
  16  -6   8    2.19    0.08   1
  16   6  -8    2.26    0.07   1
  16   6   8    2.46    0.10   1
 -16  -6 -10    0.55    0.07   1
 -10 -16  -6    0.50    0.07   1
 -10 -16   6    0.61    0.07   1
 -10  16  -6    0.60    0.07   1
 -10  16   6    0.62    0.06   1
  -6 -10 -16    0.46    0.06   1
  -6 -10  16    0.42    0.06   1
  -6  10  16    0.49    0.06   1
   6 -10 -16    0.56    0.07   1
   6 -10  16    0.55    0.07   1
   6 -10  16    0.61    0.07   1
   6  10  16    0.40    0.05   1
  10 -16  -6    0.61    0.06   1
  10 -16   6    0.73    0.08   1
  10  16  -6    0.53    0.06   1
  10  16   6    0.77    0.07   1
  16  -6  10    0.52    0.06   1
  16   6 -10    0.53    0.04   1
  16   6  10    0.51    0.06   1
 -16  -6 -12    0.41    0.07   1
 -16  -6  12    0.32    0.04   1
 -12 -16  -6    0.22    0.06   1
 -12 -16   6    0.29    0.06   1
 -12  16  -6    0.41    0.05   1
 -12  16   6    0.44    0.05   1
  -6 -12 -16    0.29    0.06   1
  -6 -12  16    0.28    0.06   1
  -6  12  16    0.39    0.05   1
   6 -12 -16    0.37    0.05   1
   6 -12  16    0.24    0.06   1
   6 -12  16    0.32    0.04   1
   6  12 -16    0.38    0.05   1
   6  12  16    0.47    0.06   1
  12 -16  -6    0.36    0.05   1
  12 -16   6    0.38    0.06   1
  12  16  -6    0.34    0.04   1
  12  16   6    0.35    0.05   1
  16  -6  12    0.41    0.05   1
  16   6 -12    0.35    0.03   1
  16   6  12    0.40    0.05   1
 -16  -6 -14    1.87    0.18   1
 -16  -6  14    1.61    0.08   1
 -14 -16   6    1.69    0.11   1
 -14  16   6    1.65    0.07   1
  -6 -14  16    1.48    0.11   1
  -6  14  16    1.74    0.09   1
   6 -14 -16    1.62    0.09   1
   6 -14  16    1.68    0.09   1
   6  14 -16    1.71    0.09   1
   6  14  16    1.71    0.10   1
  14 -16  -6    1.56    0.08   1
  14 -16   6    1.38    0.10   1
  14 -16   6    1.59    0.08   1
  14  16  -6    1.71    0.09   1
  14  16   6    1.80    0.09   1
  16  -6  14    1.79    0.09   1
  16   6  14    1.60    0.09   1
 -16  -8   0    0.10    0.04   1
  -8   0 -16    0.12    0.05   1
  -8   0  16    0.07    0.03   1
  -8   0  16    0.05    0.02   1
   0 -16  -8    0.12    0.05   1
   0 -16   8    0.09    0.05   1
   0  16  -8    0.10    0.04   1
   0  16   8    0.12    0.04   1
   8   0  16    0.14    0.04   1
  16  -8   0    0.09    0.02   1
  16  -8   0    0.12    0.02   1
  16   8   0    0.11    0.03   1
 -16  -8  -2    0.06    0.04   1
 -16  -8   2    0.01    0.04   1
  -8  -2 -16    0.10    0.05   1
  -8  -2  16    0.06    0.03   1
  -8  -2  16    0.08    0.03   1
  -8   2 -16    0.04    0.04   1
  -8   2  16    0.22    0.03   1
  -2 -16  -8    0.09    0.04   1
  -2 -16   8    0.08    0.04   1
  -2  16  -8    0.02    0.03   1
  -2  16   8    0.04    0.03   1
   2 -16  -8    0.10    0.04   1
   2 -16   8   -0.01    0.04   1
   2  16  -8    0.12    0.04   1
   2  16   8    0.07    0.03   1
   8  -2  16    0.05    0.03   1
   8   2  16    0.07    0.03   1
  16  -8  -2    0.06    0.02   1
  16  -8  -2    0.07    0.02   1
  16  -8   2    0.06    0.03   1
  16  -8   2    0.12    0.02   1
  16   8  -2    0.07    0.03   1
  16   8   2    0.09    0.03   1
 -16  -8  -4    1.32    0.08   1
 -16  -8   4    1.24    0.07   1
  -8  -4 -16    1.02    0.08   1
  -8  -4  16    1.25    0.07   1
  -8  -4  16    1.25    0.07   1
  -8   4 -16    1.26    0.10   1
  -8   4  16    1.23    0.06   1
  -4 -16  -8    1.19    0.09   1
  -4 -16   8    1.15    0.09   1
  -4  16  -8    1.30    0.08   1
  -4  16   8    1.15    0.07   1
   4 -16  -8    1.06    0.08   1
   4 -16   8    1.26    0.09   1
   4  16  -8    1.27    0.07   1
   4  16   8    1.35    0.08   1
   8  -4 -16    1.20    0.06   1
   8  -4  16    1.40    0.08   1
   8   4  16    1.36    0.08   1
  16  -8   4    1.34    0.07   1
  16  -8   4    1.22    0.06   1
  16   8  -4    1.20    0.06   1
  16   8   4    1.12    0.06   1
 -16  -8  -6    2.16    0.10   1
 -16  -8   6    2.35    0.09   1
  -8  -6 -16    2.15    0.11   1
  -8  -6  16    2.23    0.09   1
  -8  -6  16    2.25    0.08   1
  -8   6  16    2.20    0.07   1
  -6 -16  -8    2.07    0.11   1
  -6 -16   8    2.33    0.11   1
  -6  16  -8    2.29    0.10   1
  -6  16   8    2.48    0.09   1
   6 -16  -8    2.18    0.09   1
   6 -16   8    2.07    0.10   1
   6  16  -8    2.22    0.09   1
   6  16   8    2.34    0.10   1
   8  -6 -16    2.22    0.08   1
   8  -6  16    2.06    0.11   1
   8  -6  16    2.40    0.10   1
   8   6  16    2.35    0.10   1
  16  -8   6    2.25    0.08   1
  16  -8   6    2.21    0.08   1
  16   8  -6    2.16    0.07   1
  16   8   6    2.15    0.09   1
 -16  -8  -8    0.51    0.07   1
 -16  -8   8    0.47    0.05   1
  -8 -16  -8    0.48    0.07   1
  -8 -16   8    0.49    0.07   1
  -8  -8 -16    0.57    0.07   1
  -8  -8  16    0.46    0.06   1
  -8  -8  16    0.44    0.05   1
  -8   8  16    0.52    0.05   1
  -8  16  -8    0.44    0.05   1
  -8  16   8    0.54    0.05   1
   8 -16  -8    0.40    0.05   1
   8 -16   8    0.65    0.07   1
   8  -8 -16    0.48    0.06   1
   8  -8  16    0.48    0.07   1
   8  -8  16    0.89    0.08   1
   8   8  16    0.40    0.05   1
   8  16  -8    0.59    0.07   1
   8  16   8    0.57    0.06   1
  16  -8   8    0.45    0.05   1
  16  -8   8    0.48    0.05   1
  16   8  -8    0.46    0.04   1
  16   8   8    0.56    0.06   1
 -16  -8 -10    0.03    0.05   1
 -16  -8  10    0.02    0.04   1
 -10 -16  -8    0.14    0.05   1
 -10 -16   8   -0.02    0.05   1
 -10  16  -8    0.01    0.04   1
 -10  16   8    0.05    0.03   1
  -8 -10 -16    0.06    0.05   1
  -8 -10  16    0.00    0.04   1
  -8  10  16    0.05    0.03   1
   8 -10 -16   -0.03    0.03   1
   8 -10  16   -0.03    0.04   1
   8 -10  16    0.04    0.04   1
   8  10  16    0.01    0.04   1
  10 -16  -8   -0.03    0.03   1
  10 -16   8    0.66    0.08   1
  10  16  -8    0.01    0.03   1
  10  16   8    0.04    0.03   1
  16  -8  10    0.05    0.04   1
  16  -8  10    0.00    0.03   1
  16   8 -10    0.02    0.02   1
  16   8  10    0.10    0.04   1
 -16  -8 -12   -0.08    0.05   1
 -16  -8  12   -0.01    0.04   1
 -12 -16   8    0.00    0.05   1
 -12  16   8   -0.06    0.03   1
  -8 -12  16    0.00    0.05   1
  -8  12  16   -0.05    0.03   1
   8 -12 -16    0.09    0.04   1
   8 -12  16   -0.01    0.03   1
   8  12 -16   -0.01    0.04   1
   8  12  16   -0.02    0.04   1
  12 -16  -8   -0.02    0.03   1
  12 -16   8   -0.04    0.05   1
  12  16  -8   -0.05    0.03   1
  12  16   8    0.14    0.04   1
  16  -8  12    0.00    0.05   1
  16  -8  12   -0.06    0.03   1
  16   8 -12    0.01    0.03   1
  16   8  12    0.13    0.04   1
 -16  -8  14    0.44    0.06   1
 -14 -16   8    0.56    0.08   1
 -14  16   8    0.50    0.05   1
  -8 -14  16    0.39    0.07   1
  -8  14  16    0.47    0.05   1
   8 -14 -16    0.35    0.06   1
   8 -14  16    0.54    0.06   1
   8  14 -16    0.52    0.06   1
   8  14  16    0.65    0.08   1
  14 -16  -8    0.49    0.05   1
  14 -16   8    0.47    0.07   1
  14 -16   8    0.45    0.05   1
  14  16  -8    0.58    0.07   1
  14  16   8    0.29    0.04   1
  16  -8  14    0.24    0.06   1
  16  -8  14    0.50    0.06   1
  16   8 -14    0.48    0.05   1
  16   8  14    0.62    0.07   1
 -16 -10   0    0.27    0.05   1
 -10   0 -16    0.24    0.05   1
 -10   0  16    0.28    0.03   1
 -10   0  16    0.29    0.03   1
   0 -16 -10    0.24    0.05   1
   0 -16  10    0.28    0.06   1
   0  16 -10    0.32    0.05   1
   0  16  10    0.41    0.05   1
  10   0  16    0.29    0.05   1
  16 -10   0    0.31    0.03   1
  16 -10   0    0.29    0.03   1
  16  10   0    0.32    0.04   1
 -16 -10  -2    0.04    0.04   1
 -16 -10   2    0.01    0.04   1
 -10  -2 -16    0.00    0.04   1
 -10  -2  16    0.10    0.04   1
 -10  -2  16    0.07    0.03   1
 -10   2 -16    0.00    0.04   1
 -10   2  16    0.08    0.03   1
  -2 -16 -10    0.10    0.05   1
  -2 -16  10    0.11    0.05   1
  -2  16 -10    0.09    0.04   1
  -2  16  10    0.02    0.03   1
   2 -16 -10    0.09    0.04   1
   2 -16  10    0.03    0.04   1
   2  16 -10    0.04    0.03   1
   2  16  10    0.12    0.04   1
  10  -2  16    0.05    0.03   1
  10   2  16    0.00    0.03   1
  16 -10  -2    0.10    0.02   1
  16 -10   2    0.07    0.03   1
  16 -10   2    0.06    0.02   1
  16  10  -2    0.10    0.03   1
  16  10   2    0.06    0.03   1
 -16 -10  -4    0.18    0.05   1
 -16 -10   4    0.26    0.05   1
 -10  -4 -16    0.21    0.05   1
 -10  -4  16    0.30    0.05   1
 -10  -4  16    0.28    0.04   1
 -10   4 -16    0.29    0.06   1
 -10   4  16    0.27    0.03   1
  -4 -16 -10    0.15    0.05   1
  -4 -16  10    0.33    0.06   1
  -4  16 -10    0.24    0.05   1
  -4  16  10    0.25    0.04   1
   4 -16 -10    0.31    0.05   1
   4 -16  10    0.17    0.05   1
   4  16 -10    0.21    0.04   1
   4  16  10    0.27    0.05   1
  10  -4  16    0.21    0.04   1
  10   4  16    0.25    0.04   1
  16 -10  -4    0.30    0.03   1
  16 -10  -4    0.23    0.03   1
  16 -10   4    0.24    0.04   1
  16 -10   4    0.34    0.04   1
  16  10  -4    0.30    0.04   1
  16  10   4    0.27    0.04   1
 -16 -10  -6    0.45    0.06   1
 -16 -10   6    0.71    0.07   1
 -10  -6 -16    0.46    0.06   1
 -10  -6  16    0.57    0.07   1
 -10  -6  16    0.57    0.06   1
 -10   6  16    0.55    0.05   1
  -6 -16 -10    0.72    0.09   1
  -6 -16  10    0.54    0.07   1
  -6  16 -10    0.50    0.06   1
  -6  16  10    0.60    0.06   1
   6 -16 -10    0.59    0.07   1
   6 -16  10    0.49    0.06   1
   6  16 -10    0.56    0.06   1
   6  16  10    0.53    0.07   1
  10  -6  16    0.48    0.07   1
  10  -6  16    0.74    0.07   1
  10   6  16    0.49    0.06   1
  16 -10   6    0.58    0.06   1
  16 -10   6    0.47    0.05   1
  16  10  -6    0.43    0.05   1
  16  10   6    0.52    0.06   1
 -16 -10  -8   -0.01    0.05   1
 -16 -10   8    0.02    0.04   1
 -10  -8 -16   -0.06    0.05   1
 -10  -8  16    0.04    0.05   1
 -10  -8  16    0.11    0.03   1
 -10   8  16    0.06    0.03   1
  -8 -16 -10    0.00    0.05   1
  -8 -16  10   -0.08    0.05   1
  -8  16 -10    0.05    0.04   1
  -8  16  10    0.04    0.03   1
   8 -16 -10    0.00    0.03   1
   8 -16  10   -0.04    0.05   1
   8  16 -10    0.01    0.03   1
   8  16  10    0.04    0.04   1
  10  -8 -16    0.00    0.03   1
  10  -8  16   -0.02    0.05   1
  10  -8  16    0.03    0.03   1
  10   8  16   -0.06    0.04   1
  16 -10   8   -0.04    0.04   1
  16 -10   8    0.03    0.03   1
  16  10  -8    0.00    0.03   1
  16  10   8   -0.02    0.03   1
 -16 -10 -10    0.33    0.07   1
 -16 -10  10    0.30    0.05   1
 -10 -16  10    0.34    0.07   1
 -10 -10  16    0.32    0.06   1
 -10  10  16    0.38    0.04   1
 -10  16  10    0.48    0.06   1
  10 -16 -10    0.35    0.05   1
  10 -16  10    0.38    0.07   1
  10 -10 -16    0.32    0.04   1
  10 -10  16    0.25    0.06   1
  10 -10  16    0.36    0.04   1
  10  10 -16    0.54    0.06   1
  10  10  16    0.26    0.05   1
  10  16 -10    0.34    0.05   1
  10  16  10    0.22    0.04   1
  16 -10  10    0.35    0.05   1
  16 -10  10    0.38    0.05   1
  16  10 -10    0.31    0.04   1
  16  10  10    0.52    0.06   1
 -16 -10  12    0.10    0.05   1
 -12 -16  10   -0.03    0.05   1
 -12  16  10    0.10    0.03   1
 -10 -12  16    0.01    0.06   1
 -10  12  16    0.16    0.04   1
  10 -12 -16    0.09    0.04   1
  10 -12  16    0.12    0.04   1
  10  12 -16    0.22    0.04   1
  10  12  16    0.07    0.04   1
  12 -16 -10    0.10    0.04   1
  12 -16  10    0.13    0.05   1
  12 -16  10    0.06    0.03   1
  12  16 -10    0.16    0.03   1
  12  16  10    0.05    0.04   1
  16 -10  12    0.02    0.05   1
  16 -10  12    0.06    0.04   1
  16  10 -12    0.04    0.03   1
  16  10  12    0.08    0.04   1
 -16 -10  14    0.05    0.05   1
 -14 -16  10    0.15    0.06   1
 -14  16  10    0.12    0.03   1
 -10 -14  16    0.17    0.06   1
 -10  14  16    0.07    0.04   1
  10 -14 -16    0.01    0.04   1
  10 -14  16    0.11    0.04   1
  10  14 -16    0.10    0.04   1
  10  14  16    0.08    0.04   1
  14 -16 -10    0.08    0.04   1
  14 -16  10    0.02    0.06   1
  14 -16  10    0.01    0.03   1
  14  16 -10    0.19    0.04   1
  14  16  10    0.10    0.04   1
  16 -10  14    0.19    0.04   1
  16  10 -14    0.07    0.03   1
  16  10  14    0.08    0.04   1
 -16 -12   0    0.40    0.06   1
 -12   0 -16    0.41    0.07   1
 -12   0  16    0.38    0.05   1
 -12   0  16    0.43    0.05   1
   0 -16 -12    0.51    0.07   1
   0 -16  12    0.36    0.06   1
   0  16 -12    0.52    0.06   1
   0  16  12    0.43    0.05   1
  12   0  16    0.59    0.06   1
  16 -12   0    0.43    0.05   1
  16 -12   0    0.37    0.04   1
  16  12   0    0.46    0.05   1
 -16 -12  -2   -0.01    0.05   1
 -16 -12   2    0.03    0.04   1
 -12  -2 -16   -0.05    0.05   1
 -12  -2  16    0.04    0.04   1
 -12  -2  16    0.08    0.03   1
 -12   2 -16    0.01    0.05   1
 -12   2  16   -0.03    0.03   1
 -12   2  16    0.03    0.02   1
  -2 -16 -12   -0.04    0.05   1
  -2 -16  12   -0.01    0.05   1
  -2  16 -12    0.04    0.04   1
  -2  16  12    0.00    0.03   1
   2 -16 -12   -0.05    0.04   1
   2 -16  12    0.07    0.06   1
   2  16 -12    0.09    0.04   1
   2  16  12   -0.01    0.04   1
  12  -2  16    0.10    0.04   1
  12   2  16    0.01    0.04   1
  16 -12  -2   -0.01    0.02   1
  16 -12  -2    0.04    0.02   1
  16 -12   2    0.01    0.03   1
  16 -12   2    0.05    0.02   1
  16  12  -2    0.04    0.03   1
  16  12   2   -0.01    0.03   1
 -16 -12  -4    0.24    0.06   1
 -16 -12   4    0.85    0.08   1
 -12  -4 -16    0.30    0.06   1
 -12  -4  16    0.31    0.04   1
 -12  -4  16    0.34    0.04   1
 -12   4 -16    0.37    0.06   1
 -12   4  16    0.31    0.03   1
 -12   4  16    0.35    0.03   1
  -4 -16 -12    0.41    0.07   1
  -4 -16  12    0.24    0.06   1
  -4  16 -12    0.48    0.06   1
  -4  16  12    0.37    0.05   1
   4 -16 -12    0.24    0.05   1
   4 -16  12    0.30    0.06   1
   4  16 -12    0.37    0.05   1
   4  16  12    0.39    0.06   1
  12  -4  16    0.34    0.05   1
  12   4  16    0.31    0.05   1
  16 -12  -4    0.30    0.03   1
  16 -12  -4    0.31    0.03   1
  16 -12   4    0.26    0.04   1
  16 -12   4    0.30    0.04   1
  16  12  -4    0.30    0.04   1
  16  12   4    0.23    0.04   1
 -16 -12  -6    0.25    0.06   1
 -16 -12   6    0.42    0.06   1
 -12  -6 -16    0.20    0.05   1
 -12  -6  16    0.43    0.05   1
 -12  -6  16    0.30    0.04   1
 -12   6  16    0.31    0.03   1
  -6 -16 -12    0.28    0.06   1
  -6 -16  12    0.26    0.06   1
  -6  16 -12    0.37    0.05   1
  -6  16  12    0.36    0.05   1
   6 -16 -12    0.35    0.05   1
   6 -16  12    0.31    0.06   1
   6  16 -12    0.30    0.05   1
   6  16  12    0.37    0.05   1
  12  -6  16    0.43    0.06   1
  12   6  16    0.31    0.05   1
  16 -12  -6    0.31    0.03   1
  16 -12   6    0.45    0.05   1
  16 -12   6    0.35    0.04   1
  16  12  -6    0.27    0.04   1
  16  12   6    0.29    0.05   1
 -16 -12  -8    0.02    0.06   1
 -16 -12   8    0.06    0.05   1
 -16  12   8    0.01    0.02   1
 -12  -8  16    0.00    0.05   1
 -12  -8  16    0.02    0.03   1
 -12   8  16    0.01    0.02   1
  -8 -16  12    0.06    0.05   1
  -8  16  12    0.03    0.03   1
   8 -16 -12    0.02    0.04   1
   8 -16  12    0.14    0.06   1
   8  16 -12   -0.03    0.03   1
  12  -8 -16    0.01    0.03   1
  12  -8  16    0.07    0.05   1
  12   8  16    0.05    0.04   1
  16 -12  -8    0.01    0.02   1
  16 -12   8   -0.04    0.05   1
  16 -12   8   -0.07    0.03   1
  16  12  -8    0.05    0.03   1
  16  12   8   -0.07    0.03   1
 -16 -12  10    0.11    0.05   1
 -16  12  10    0.10    0.02   1
 -12 -10  16   -0.02    0.05   1
 -12  10  16    0.10    0.03   1
 -10 -16  12    0.10    0.06   1
 -10  16  12    0.12    0.04   1
  10 -16 -12    0.06    0.04   1
  10 -16  12    0.12    0.03   1
  10  16 -12    0.03    0.04   1
  10  16  12    0.15    0.04   1
  12 -10  16    0.06    0.03   1
  12  10 -16    0.19    0.04   1
  12  10  16    0.02    0.04   1
  16 -12 -10    0.09    0.02   1
  16 -12  10    0.06    0.06   1
  16 -12  10    0.09    0.04   1
  16  12 -10    0.12    0.03   1
  16  12  10    0.12    0.04   1
 -16 -12  12   -0.06    0.05   1
 -16  12  12    0.02    0.02   1
 -12 -16  12    0.14    0.06   1
 -12 -12  16   -0.01    0.06   1
 -12  12  16    0.05    0.03   1
 -12  16  12    0.02    0.03   1
  12 -16 -12    0.05    0.04   1
  12 -16  12    0.06    0.04   1
  12 -12 -16    0.06    0.04   1
  12 -12  16    0.10    0.04   1
  12  12 -16    0.13    0.04   1
  12  12  16    0.05    0.04   1
  12  16 -12   -0.02    0.04   1
  12  16  12    0.01    0.04   1
  16 -12 -12    0.03    0.02   1
  16 -12  12    0.09    0.06   1
  16 -12  12    0.03    0.04   1
  16  12 -12    0.01    0.04   1
  16  12  12   -0.06    0.03   1
 -16 -12  14    0.26    0.06   1
 -16  12  14    0.16    0.02   1
 -14 -16  12    0.27    0.07   1
 -14  16  12    0.12    0.03   1
 -12 -14  16    0.10    0.06   1
 -12  14  16    0.18    0.04   1
  12 -14 -16    0.15    0.04   1
  12 -14  16    0.03    0.04   1
  12  14 -16    0.16    0.05   1
  12  14  16    0.10    0.05   1
  14 -16 -12    0.16    0.04   1
  14 -16  12    0.26    0.04   1
  14  16 -12    0.13    0.04   1
  14  16  12    0.03    0.04   1
  16 -12 -14    0.16    0.02   1
  16 -12  14    0.22    0.04   1
  16  12 -14    0.26    0.04   1
  16  12  14    0.40    0.09   1
 -16 -14   0    0.09    0.06   1
 -14   0 -16    0.07    0.05   1
 -14   0  16    0.05    0.03   1
 -14   0  16    0.14    0.03   1
   0 -16 -14    0.03    0.05   1
   0  16 -14   -0.04    0.04   1
   0  16  14    0.10    0.04   1
  14   0  16    0.04    0.03   1
  16 -14   0    0.04    0.04   1
  16 -14   0    0.08    0.03   1
  16  14   0    0.03    0.03   1
 -16 -14  -2    0.07    0.06   1
 -16 -14   2    0.12    0.06   1
 -14  -2 -16    0.10    0.06   1
 -14  -2  16    0.08    0.03   1
 -14   2 -16    0.10    0.05   1
 -14   2  16    0.11    0.03   1
 -14   2  16    0.13    0.03   1
  -2 -16 -14    0.07    0.05   1
  -2 -16  14    0.19    0.06   1
  -2  16 -14    0.16    0.04   1
  -2  16  14    0.08    0.04   1
   2 -16 -14    0.11    0.05   1
   2  16 -14    0.15    0.04   1
   2  16  14    0.13    0.04   1
  14  -2  16   -0.01    0.04   1
  14   2  16    0.09    0.03   1
  16 -14  -2    0.19    0.04   1
  16 -14   2    0.13    0.04   1
  16 -14   2    0.15    0.03   1
  16  14  -2    0.08    0.03   1
  16  14   2    0.11    0.04   1
 -16 -14  -4    1.48    0.12   1
 -16 -14   4    1.49    0.11   1
 -16  14   4    1.48    0.06   1
 -14  -4 -16    1.48    0.17   1
 -14  -4  16    1.55    0.08   1
 -14  -4  16    1.40    0.07   1
 -14   4 -16    1.19    0.10   1
 -14   4  16    1.51    0.05   1
  -4 -16 -14    1.54    0.11   1
  -4 -16  14    1.58    0.12   1
  -4  16 -14    1.76    0.10   1
  -4  16  14    1.69    0.09   1
   4 -16 -14    1.47    0.10   1
   4  16 -14    1.57    0.08   1
   4  16  14    1.69    0.09   1
  14  -4  16    1.57    0.08   1
  14   4  16    1.46    0.08   1
  16 -14  -4    1.52    0.06   1
  16 -14   4    1.36    0.08   1
  16 -14   4    1.52    0.07   1
  16  14  -4    1.54    0.08   1
  16  14   4    1.88    0.09   1
 -16 -14  -6    1.20    0.11   1
 -16 -14   6    1.65    0.11   1
 -16  14   6    1.55    0.06   1
 -14  -6  16    1.56    0.09   1
 -14  -6  16    1.62    0.08   1
 -14   6  16    1.53    0.05   1
  -6 -16  14    1.63    0.13   1
  -6  16  14    1.75    0.09   1
   6 -16 -14    1.63    0.10   1
   6  16 -14    1.53    0.08   1
   6  16  14    1.72    0.10   1
  14  -6  16    1.79    0.08   1
  14   6  16    1.86    0.09   1
  16 -14  -6    1.67    0.06   1
  16 -14   6    1.69    0.10   1
  16 -14   6    1.59    0.08   1
  16  14  -6    1.68    0.09   1
  16  14   6    1.59    0.08   1
 -16 -14   8    0.45    0.06   1
 -16  14   8    0.40    0.04   1
 -14  -8  16    0.45    0.06   1
 -14   8  16    0.43    0.04   1
  -8 -16  14    0.50    0.09   1
  -8  16  14    0.51    0.06   1
   8 -16 -14    0.53    0.06   1
   8 -16  14    0.38    0.05   1
   8  16 -14    0.55    0.06   1
   8  16  14    0.51    0.06   1
  14  -8  16    0.37    0.05   1
  14   8  16    0.35    0.05   1
  16 -14  -8    0.52    0.05   1
  16 -14   8    0.40    0.06   1
  16 -14   8    0.50    0.06   1
  16  14  -8    0.53    0.06   1
  16  14   8    0.34    0.05   1
 -16 -14  10    0.08    0.06   1
 -16  14  10    0.08    0.03   1
 -14 -10  16    0.14    0.06   1
 -14  10  16    0.07    0.03   1
 -10  16  14    0.14    0.04   1
  10 -16 -14    0.11    0.04   1
  10 -16  14    0.08    0.04   1
  10  16 -14    0.21    0.04   1
  10  16  14    0.13    0.05   1
  14 -10 -16    0.13    0.03   1
  14 -10  16    0.06    0.04   1
  14  10 -16    0.12    0.04   1
  14  10  16    0.18    0.04   1
  16 -14 -10    0.09    0.03   1
  16 -14  10    0.14    0.06   1
  16 -14  10    0.10    0.04   1
  16  14 -10    0.06    0.04   1
  16  14  10    0.14    0.04   1
 -16 -14  12    0.07    0.06   1
 -16  14  12    0.17    0.03   1
 -14 -12  16    0.24    0.07   1
 -14  12  16    0.11    0.03   1
 -12  16  14    0.12    0.04   1
  12 -16 -14    0.15    0.04   1
  12 -16  14    0.19    0.04   1
  12  16 -14    0.09    0.04   1
  12  16  14    0.19    0.05   1
  14 -12 -16    0.19    0.04   1
  14 -12  16    0.12    0.04   1
  14  12 -16    0.16    0.05   1
  14  12  16    0.12    0.05   1
  16 -14 -12    0.15    0.03   1
  16 -14  12    0.15    0.04   1
  16  14 -12    0.10    0.04   1
 -16 -14  14    0.38    0.07   1
 -16  14  14    0.35    0.04   1
 -14 -14  16    0.36    0.07   1
 -14  14  16    0.39    0.04   1
 -14  16  14    0.37    0.04   1
  14 -16 -14    0.41    0.05   1
  14 -16  14    0.14    0.08   1
  14 -14 -16    0.28    0.04   1
  14 -14  16    0.27    0.05   1
  14  14 -16    0.21    0.05   1
  14  14  16    0.35    0.06   1
  14  16 -14    0.33    0.06   1
  14  16  14    0.32    0.05   1
  16 -14 -14    0.32    0.04   1
  16 -14  14    0.25    0.05   1
  16  14 -14    0.28    0.05   1
  16  14  14    0.20    0.05   1
 -16 -16   0   -0.05    0.05   1
 -16   0  16    0.00    0.03   1
 -16   0  16   -0.04    0.03   1
   0 -16 -16   -0.10    0.05   1
   0  16 -16    0.04    0.04   1
   0  16  16   -0.01    0.04   1
  16 -16   0    0.05    0.04   1
  16   0  16   -0.01    0.03   1
  16  16   0    0.01    0.04   1
 -16 -16  -2    0.17    0.07   1
 -16 -16   2    0.15    0.07   1
 -16  -2  16    0.22    0.04   1
 -16  -2  16    0.21    0.03   1
 -16   2  16    0.14    0.02   1
 -16   2  16    0.13    0.02   1
 -16  16   2    0.22    0.04   1
  -2  16  16    0.23    0.05   1
   2 -16 -16    0.22    0.06   1
   2  16 -16    0.25    0.05   1
   2  16  16    0.25    0.05   1
  16 -16  -2    0.18    0.04   1
  16 -16   2    0.25    0.05   1
  16 -16   2    0.15    0.03   1
  16  -2  16    0.14    0.04   1
  16   2  16    0.14    0.04   1
  16  16  -2    0.13    0.04   1
  16  16   2    0.05    0.04   1
 -16 -16   4    1.63    0.12   1
 -16  -4  16    1.61    0.08   1
 -16  -4  16    1.55    0.07   1
 -16   4  16    1.60    0.04   1
 -16   4  16    1.56    0.04   1
 -16  16   4    1.53    0.07   1
  -4  16  16    1.83    0.10   1
   4 -16 -16    1.68    0.11   1
   4 -16  16    1.64    0.09   1
   4  16 -16    1.82    0.10   1
   4  16  16    1.67    0.10   1
  16 -16  -4    1.58    0.08   1
  16 -16   4    1.59    0.10   1
  16 -16   4    1.69    0.08   1
  16  -4  16    1.56    0.09   1
  16   4  16    1.64    0.09   1
  16  16  -4    1.80    0.09   1
  16  16   4    1.59    0.09   1
 -16 -16   6    2.27    0.13   1
 -16  -6  16    1.99    0.09   1
 -16  -6  16    1.97    0.08   1
 -16  16   6    2.12    0.07   1
  -6  16  16    2.20    0.10   1
   6 -16 -16    2.08    0.11   1
   6 -16  16    2.26    0.10   1
   6  16 -16    2.06    0.10   1
   6  16  16    2.06    0.10   1
  16 -16  -6    2.13    0.08   1
  16 -16   6    2.23    0.11   1
  16 -16   6    2.07    0.09   1
  16  -6  16    2.30    0.10   1
  16   6  16    2.19    0.10   1
  16  16  -6    2.13    0.10   1
  16  16   6    2.11    0.10   1
 -16 -16   8    0.67    0.08   1
 -16  -8  16    0.68    0.07   1
 -16  16   8    0.77    0.05   1
   8 -16 -16    0.65    0.07   1
   8  16 -16    0.65    0.06   1
  16 -16   8    0.63    0.08   1
  16 -16   8    0.78    0.07   1
  16  -8  16    1.21    0.08   1
  16   8  16    0.69    0.07   1
  16  16  -8    0.76    0.08   1
  16  16   8    0.69    0.07   1
 -16 -16  10    0.43    0.08   1
 -16 -10  16    0.16    0.06   1
 -16  10  16    0.13    0.02   1
 -16  10  16    0.16    0.02   1
 -16  16  10    0.10    0.03   1
 -10  16  16    0.12    0.04   1
  10 -16 -16    0.22    0.05   1
  10 -16  16    0.13    0.05   1
  10  16 -16    0.07    0.05   1
  10  16  16    0.25    0.05   1
  16 -16 -10    0.11    0.04   1
  16 -16  10    0.17    0.09   1
  16 -16  10    0.21    0.04   1
  16 -10  16    0.13    0.04   1
  16  10 -16    0.16    0.04   1
  16  10  16    0.13    0.05   1
  16  16 -10    0.07    0.04   1
  16  16  10    0.25    0.05   1
 -16 -12  16    0.34    0.07   1
 -16  16  12    0.33    0.04   1
 -12  16  16    0.39    0.05   1
  12 -16 -16    0.33    0.05   1
  12 -16  16    0.32    0.05   1
  12  16 -16    0.27    0.05   1
  12  16  16    0.12    0.05   1
  16 -16 -12    0.24    0.04   1
  16 -16  12    0.39    0.05   1
  16 -12 -16    0.44    0.05   1
  16  12 -16    0.34    0.06   1
  16  12  16    0.34    0.06   1
  16  16 -12    0.38    0.05   1
  16  16  12    0.24    0.05   1
 -16 -14  16    0.58    0.08   1
 -16  14  16    0.63    0.05   1
 -16  16  14    0.72    0.06   1
 -14  16  16    0.82    0.07   1
  14 -16 -16    0.81    0.09   1
  14 -16  16    0.86    0.09   1
  14  16 -16    0.85    0.09   1
  14  16  16    0.61    0.07   1
  16 -16  14    0.72    0.08   1
  16 -14 -16    0.62    0.06   1
  16 -14  16    0.64    0.08   1
  16  14 -16    0.74    0.06   1
  16  14  16    0.64    0.07   1
  16  16 -14    0.76    0.09   1
  16  16  14    0.80    0.09   1
 -16  16  16    0.86    0.06   1
  16 -16  16    0.86    0.10   1
  16  16 -16    0.85    0.07   1
  16  16  16    0.74    0.08   1
 -17  -1  -1    0.85    0.05   1
 -17  -1   1    0.89    0.04   1
 -17   1  -1    0.92    0.05   1
 -17   1   1    0.82    0.04   1
  -1 -17  -1    0.81    0.07   1
  -1 -17   1    0.78    0.07   1
  -1  -1 -17    0.69    0.07   1
  -1  -1  17    0.92    0.06   1
  -1   1 -17    0.79    0.07   1
  -1   1  17    0.87    0.06   1
  -1  17  -1    0.89    0.07   1
  -1  17   1    0.96    0.07   1
   1 -17  -1    0.81    0.07   1
   1 -17   1    0.83    0.07   1
   1  -1 -17    0.86    0.07   1
   1  -1  17    0.77    0.06   1
   1   1 -17    0.82    0.07   1
   1   1  17    0.70    0.06   1
   1  17  -1    0.93    0.07   1
   1  17   1    0.79    0.07   1
  17  -1  -1    0.81    0.04   1
  17  -1   1    0.84    0.04   1
  17   1  -1    0.82    0.04   1
  17   1   1    0.79    0.04   1
 -17  -1  -3    0.18    0.03   1
 -17  -1   3    0.17    0.02   1
 -17   1   3    0.16    0.02   1
  -3 -17  -1    0.19    0.05   1
  -3 -17   1    0.16    0.04   1
  -3  17  -1    0.11    0.04   1
  -3  17   1    0.13    0.04   1
  -1  -3 -17    0.11    0.04   1
  -1  -3  17    0.11    0.04   1
  -1  -3  17    0.09    0.04   1
  -1   3  17    0.20    0.04   1
   1  -3 -17    0.19    0.04   1
   1  -3  17    0.16    0.04   1
   1   3  17    0.17    0.04   1
   3 -17  -1    0.14    0.04   1
   3 -17   1    0.15    0.05   1
   3  17  -1    0.11    0.04   1
   3  17   1    0.09    0.03   1
  17  -1  -3    0.14    0.02   1
  17  -1   3    0.19    0.03   1
  17   1  -3    0.12    0.02   1
  17   1   3    0.17    0.03   1
 -17  -1  -5    1.06    0.07   1
 -17  -1   5    1.03    0.04   1
 -17   1  -5    0.98    0.06   1
  -5 -17  -1    0.94    0.09   1
  -5 -17   1    1.01    0.09   1
  -5  17  -1    0.95    0.07   1
  -5  17   1    0.98    0.07   1
  -1  -5 -17    1.05    0.08   1
  -1  -5  17    0.92    0.08   1
  -1  -5  17    0.92    0.07   1
  -1   5  17    0.94    0.07   1
   1  -5 -17    0.97    0.07   1
   1  -5  17    0.88    0.08   1
   1  -5  17    1.03    0.07   1
   1   5  17    0.92    0.07   1
   5 -17  -1    1.03    0.07   1
   5 -17   1    0.98    0.07   1
   5  17  -1    1.01    0.07   1
   5  17   1    1.13    0.07   1
  17  -1   5    1.06    0.06   1
  17   1  -5    1.01    0.03   1
  17   1   5    1.04    0.06   1
 -17  -1  -7    0.19    0.04   1
 -17  -1   7    0.18    0.02   1
 -17   1  -7    0.18    0.04   1
  -7 -17  -1    0.18    0.05   1
  -7 -17   1    0.20    0.06   1
  -7  17  -1    0.13    0.04   1
  -7  17   1    0.30    0.04   1
  -1  -7 -17    0.20    0.05   1
  -1  -7  17    0.15    0.05   1
  -1  -7  17    0.17    0.04   1
  -1   7  17    0.16    0.04   1
   1  -7 -17    0.16    0.04   1
   1  -7  17    0.17    0.05   1
   1  -7  17    0.12    0.03   1
   1   7  17    0.20    0.05   1
   7 -17  -1    0.22    0.04   1
   7 -17   1    0.26    0.05   1
   7  17  -1    0.25    0.04   1
   7  17   1    0.21    0.04   1
  17  -1   7    0.22    0.03   1
  17   1  -7    0.18    0.02   1
  17   1   7    0.20    0.03   1
 -17  -1  -9    0.13    0.05   1
 -17  -1   9    0.20    0.02   1
 -17   1  -9    0.18    0.04   1
  -9 -17  -1    0.19    0.06   1
  -9 -17   1    0.25    0.06   1
  -9  17  -1    0.16    0.04   1
  -9  17   1    0.17    0.04   1
  -1  -9 -17    0.27    0.06   1
  -1  -9  17    0.15    0.05   1
  -1  -9  17    0.13    0.04   1
  -1   9  17    0.13    0.04   1
   1  -9 -17    0.11    0.04   1
   1  -9  17    0.14    0.05   1
   1  -9  17    0.21    0.05   1
   1   9  17    0.16    0.04   1
   9 -17  -1    0.20    0.04   1
   9 -17   1    0.16    0.04   1
   9  17  -1    0.25    0.04   1
  17  -1   9    0.22    0.04   1
  17   1   9    0.15    0.03   1
 -17  -1 -11    0.04    0.05   1
 -17  -1  11    0.10    0.02   1
 -17  -1  11    0.14    0.01   1
 -17   1 -11    0.10    0.05   1
 -11 -17  -1    0.10    0.05   1
 -11 -17   1    0.06    0.05   1
 -11  17  -1    0.25    0.04   1
 -11  17   1    0.17    0.04   1
  -1 -11 -17    0.13    0.05   1
  -1 -11  17    0.18    0.06   1
  -1 -11  17    0.17    0.04   1
  -1  11  17    0.25    0.05   1
   1 -11 -17    0.09    0.05   1
   1 -11  17    0.24    0.06   1
   1 -11  17    0.12    0.04   1
   1  11  17    0.23    0.05   1
  11 -17  -1    0.13    0.04   1
  11 -17   1    0.18    0.04   1
  11  17  -1    0.17    0.04   1
  11  17   1    0.22    0.04   1
  17  -1  11    0.19    0.04   1
  17   1  11    0.20    0.04   1
 -17  -1 -13    0.03    0.05   1
 -17  -1  13    0.01    0.02   1
 -17  -1  13   -0.01    0.02   1
 -17   1 -13    0.01    0.05   1
 -13 -17  -1    0.03    0.06   1
 -13 -17   1    0.02    0.06   1
 -13  17  -1    0.04    0.03   1
 -13  17   1    0.01    0.03   1
  -1 -13 -17    0.05    0.05   1
  -1 -13  17    0.05    0.06   1
  -1 -13  17    0.00    0.03   1
  -1  13  17    0.03    0.04   1
   1 -13 -17    0.05    0.05   1
   1 -13  17    0.05    0.04   1
   1  13  17   -0.03    0.04   1
  13 -17  -1    0.06    0.04   1
  13 -17   1   -0.03    0.04   1
  13  17  -1    0.04    0.03   1
  13  17   1   -0.04    0.03   1
  17  -1  13    0.03    0.03   1
  17   1  13    0.06    0.04   1
 -17  -1  15    0.16    0.03   1
 -17   1 -15    0.16    0.07   1
 -17   1  15    0.15    0.02   1
 -15 -17   1    0.12    0.06   1
 -15  17  -1    0.12    0.04   1
 -15  17   1    0.24    0.04   1
  -1 -15 -17    0.19    0.06   1
  -1  15  17    0.27    0.05   1
   1 -15 -17    0.10    0.06   1
   1 -15  17    0.02    0.04   1
   1  15  17    0.17    0.04   1
  15 -17  -1    0.14    0.05   1
  15 -17   1    0.15    0.05   1
  15  17  -1    0.10    0.03   1
  15  17   1    0.14    0.04   1
  17  -1  15    0.08    0.03   1
  17   1  15    0.17    0.04   1
 -17  -3  -1    0.13    0.04   1
 -17  -3   1    0.16    0.03   1
 -17   3  -1    0.14    0.02   1
  -3  -1 -17    0.15    0.04   1
  -3  -1  17    0.19    0.03   1
  -3   1 -17    0.11    0.04   1
  -3   1  17    0.16    0.04   1
  -1 -17  -3    0.14    0.04   1
  -1 -17   3    0.14    0.04   1
  -1  17  -3    0.13    0.04   1
  -1  17   3    0.20    0.04   1
   1 -17  -3    0.12    0.05   1
   1 -17   3    0.13    0.05   1
   1  17  -3    0.11    0.03   1
   1  17   3    0.10    0.03   1
   3  -1 -17    0.17    0.04   1
   3  -1  17    0.15    0.04   1
   3   1  17    0.06    0.03   1
  17  -3  -1    0.20    0.02   1
  17  -3   1    0.13    0.02   1
  17   3  -1    0.17    0.02   1
  17   3   1    0.19    0.03   1
 -17  -3  -3    0.62    0.06   1
 -17  -3   3    0.67    0.04   1
 -17   3  -3    0.56    0.05   1
  -3 -17  -3    0.42    0.06   1
  -3 -17   3    0.58    0.06   1
  -3  -3 -17    0.60    0.06   1
  -3  -3  17    0.53    0.06   1
  -3  -3  17    0.53    0.06   1
  -3   3 -17    0.51    0.06   1
  -3   3  17    0.66    0.06   1
  -3  17  -3    0.60    0.06   1
  -3  17   3    0.63    0.06   1
   3 -17  -3    0.65    0.07   1
   3 -17   3    0.60    0.07   1
   3  -3 -17    0.58    0.06   1
   3  -3  17    0.62    0.06   1
   3   3  17    0.45    0.05   1
   3  17  -3    0.64    0.06   1
   3  17   3    0.67    0.06   1
  17  -3   3    0.60    0.04   1
  17   3  -3    0.55    0.04   1
  17   3   3    0.58    0.05   1
 -17  -3  -5    1.54    0.08   1
 -17  -3   5    1.59    0.05   1
 -17   3  -5    1.68    0.07   1
  -5 -17  -3    1.69    0.10   1
  -5 -17   3    1.40    0.09   1
  -5  17  -3    1.55    0.08   1
  -5  17   3    1.69    0.08   1
  -3  -5 -17    1.71    0.09   1
  -3  -5  17    1.66    0.09   1
  -3  -5  17    1.46    0.08   1
  -3   5  17    1.54    0.07   1
   3  -5 -17    1.58    0.08   1
   3  -5  17    1.63    0.09   1
   3  -5  17    1.66    0.08   1
   3   5  17    1.64    0.08   1
   5 -17  -3    1.58    0.09   1
   5 -17   3    1.35    0.09   1
   5  17  -3    1.75    0.09   1
   5  17   3    1.64    0.08   1
  17  -3   5    1.48    0.06   1
  17   3   5    1.70    0.07   1
 -17  -3  -7    1.19    0.08   1
 -17  -3   7    1.22    0.05   1
 -17   3  -7    1.01    0.07   1
  -7 -17  -3    1.20    0.09   1
  -7 -17   3    1.29    0.09   1
  -7  17  -3    1.15    0.07   1
  -7  17   3    1.14    0.07   1
  -3  -7 -17    1.17    0.08   1
  -3  -7  17    1.11    0.08   1
  -3  -7  17    1.14    0.08   1
  -3   7  17    1.14    0.07   1
   3  -7 -17    1.17    0.08   1
   3  -7  17    1.17    0.09   1
   3  -7  17    1.30    0.08   1
   3   7  17    1.01    0.07   1
   7 -17  -3    1.11    0.08   1
   7 -17   3    1.31    0.09   1
   7  17  -3    1.26    0.08   1
   7  17   3    1.22    0.07   1
  17  -3   7    1.16    0.06   1
  17   3  -7    1.13    0.04   1
  17   3   7    1.15    0.06   1
 -17  -3  -9    0.02    0.04   1
 -17  -3   9    0.05    0.02   1
 -17   3  -9    0.00    0.04   1
  -9 -17  -3    0.03    0.05   1
  -9 -17   3    0.17    0.05   1
  -9  17  -3    0.07    0.04   1
  -9  17   3    0.08    0.03   1
  -3  -9 -17    0.15    0.05   1
  -3  -9  17    0.17    0.05   1
  -3  -9  17    0.03    0.03   1
  -3   9  17    0.05    0.03   1
   3  -9 -17    0.06    0.04   1
   3  -9  17    0.01    0.04   1
   3  -9  17    0.03    0.04   1
   3   9  17    0.03    0.04   1
   9 -17  -3    0.10    0.04   1
   9 -17   3    0.07    0.04   1
   9  17  -3    0.10    0.04   1
   9  17   3    0.05    0.03   1
  17  -3   9   -0.01    0.03   1
  17   3  -9    0.02    0.02   1
  17   3   9    0.05    0.03   1
 -17  -3 -11   -0.02    0.05   1
 -17  -3  11   -0.02    0.02   1
 -17   3 -11   -0.02    0.04   1
 -11 -17  -3    0.02    0.05   1
 -11 -17   3    0.01    0.05   1
 -11  17  -3    0.02    0.04   1
 -11  17   3   -0.04    0.03   1
  -3 -11 -17   -0.04    0.05   1
  -3 -11  17    0.00    0.05   1
  -3 -11  17    0.00    0.04   1
  -3  11  17    0.02    0.04   1
   3 -11 -17    0.06    0.04   1
   3 -11  17    0.01    0.05   1
   3 -11  17    0.03    0.03   1
   3  11  17   -0.04    0.04   1
  11 -17  -3   -0.02    0.03   1
  11 -17   3    0.02    0.04   1
  11  17  -3    0.01    0.03   1
  11  17   3    0.00    0.03   1
  17  -3  11   -0.09    0.03   1
  17   3  11   -0.06    0.03   1
 -17  -3 -13    0.40    0.08   1
 -17  -3  13    0.35    0.04   1
 -17  -3  13    0.31    0.03   1
 -17   3 -13    0.38    0.07   1
 -13 -17  -3    0.24    0.07   1
 -13 -17   3    0.40    0.08   1
 -13  17  -3    0.23    0.04   1
 -13  17   3    0.33    0.05   1
  -3 -13 -17    0.29    0.06   1
  -3 -13  17    0.26    0.06   1
  -3  13  17    0.28    0.05   1
   3 -13 -17    0.46    0.06   1
   3 -13  17    0.37    0.05   1
   3  13  17    0.27    0.05   1
  13 -17  -3    0.36    0.05   1
  13 -17   3    0.44    0.06   1
  13  17  -3    0.39    0.05   1
  13  17   3    0.40    0.05   1
  17  -3  13    0.22    0.04   1
  17   3  13    0.20    0.04   1
 -17  -3  15    1.24    0.06   1
 -17  -3  15    1.18    0.06   1
 -17   3 -15    1.05    0.12   1
 -15 -17   3    1.21    0.11   1
 -15  17  -3    1.07    0.08   1
 -15  17   3    1.13    0.07   1
  -3  15  17    1.35    0.09   1
   3 -15 -17    1.22    0.10   1
   3 -15  17    1.27    0.09   1
   3  15 -17    1.07    0.09   1
   3  15  17    1.13    0.09   1
  15 -17  -3    1.26    0.08   1
  15 -17   3    1.17    0.09   1
  15  17  -3    1.06    0.08   1
  15  17   3    1.24    0.08   1
  17  -3  15    1.04    0.07   1
  17   3  15    1.16    0.08   1
 -17  -5  -1    1.03    0.07   1
 -17  -5   1    1.03    0.06   1
  -5  -1 -17    0.95    0.08   1
  -5  -1  17    0.94    0.07   1
  -5  -1  17    1.05    0.06   1
  -5   1 -17    0.78    0.08   1
  -5   1  17    1.01    0.06   1
  -1 -17  -5    0.97    0.08   1
  -1 -17   5    1.12    0.08   1
  -1  17  -5    1.00    0.07   1
  -1  17   5    0.97    0.07   1
   1 -17  -5    0.99    0.08   1
   1 -17   5    0.99    0.08   1
   1  17  -5    1.11    0.07   1
   1  17   5    1.29    0.07   1
   5  -1 -17    1.04    0.07   1
   5  -1  17    0.99    0.07   1
   5   1  17    1.12    0.08   1
  17  -5  -1    1.02    0.04   1
  17  -5  -1    0.98    0.04   1
  17  -5   1    1.02    0.05   1
  17  -5   1    1.00    0.04   1
  17   5  -1    0.99    0.05   1
  17   5   1    1.08    0.05   1
 -17  -5  -3    1.56    0.08   1
 -17  -5   3    1.68    0.07   1
  -5  -3 -17    1.46    0.09   1
  -5  -3  17    1.49    0.08   1
  -5  -3  17    1.54    0.07   1
  -5   3 -17    1.50    0.09   1
  -5   3  17    1.57    0.07   1
  -3 -17  -5    1.60    0.09   1
  -3 -17   5    1.85    0.10   1
  -3  17  -5    1.62    0.08   1
  -3  17   5    1.41    0.07   1
   3 -17  -5    1.58    0.09   1
   3 -17   5    1.58    0.09   1
   3  17  -5    1.75    0.08   1
   3  17   5    1.66    0.08   1
   5  -3 -17    1.52    0.08   1
   5  -3  17    1.70    0.09   1
   5   3  17    1.57    0.08   1
  17  -5   3    1.49    0.07   1
  17  -5   3    1.55    0.06   1
  17   5  -3    1.62    0.06   1
  17   5   3    1.51    0.07   1
 -17  -5  -5    2.85    0.10   1
 -17  -5   5    2.82    0.08   1
  -5 -17  -5    2.75    0.11   1
  -5 -17   5    2.82    0.11   1
  -5  -5 -17    2.78    0.11   1
  -5  -5  17    2.91    0.11   1
  -5  -5  17    2.61    0.09   1
  -5   5  17    2.80    0.09   1
  -5  17  -5    2.88    0.10   1
  -5  17   5    2.85    0.10   1
   5 -17  -5    2.83    0.10   1
   5 -17   5    2.75    0.11   1
   5  -5 -17    2.67    0.09   1
   5  -5  17    2.77    0.11   1
   5  -5  17    2.74    0.10   1
   5   5  17    2.67    0.10   1
   5  17  -5    2.91    0.10   1
   5  17   5    3.03    0.11   1
  17  -5   5    2.83    0.08   1
  17   5  -5    2.99    0.07   1
  17   5   5    2.83    0.09   1
 -17  -5  -7    2.90    0.11   1
 -17  -5   7    2.88    0.07   1
  -7 -17  -5    2.78    0.12   1
  -7 -17   5    2.75    0.11   1
  -7  17  -5    2.73    0.10   1
  -7  17   5    2.85    0.09   1
  -5  -7 -17    2.98    0.12   1
  -5  -7  17    2.77    0.11   1
  -5  -7  17    2.65    0.10   1
  -5   7  17    2.91    0.09   1
   5  -7 -17    2.80    0.09   1
   5  -7  17    2.81    0.12   1
   5  -7  17    2.96    0.11   1
   5   7  17    2.60    0.11   1
   7 -17  -5    2.87    0.10   1
   7 -17   5    2.79    0.11   1
   7  17  -5    2.85    0.10   1
   7  17   5    2.83    0.11   1
  17  -5   7    2.84    0.09   1
  17   5  -7    2.72    0.06   1
  17   5   7    2.80    0.10   1
 -17  -5  -9    0.50    0.06   1
 -17  -5   9    0.49    0.05   1
 -17   5  -9    0.62    0.08   1
  -9 -17  -5    0.61    0.08   1
  -9 -17   5    0.65    0.07   1
  -9  17  -5    0.57    0.07   1
  -9  17   5    0.62    0.06   1
  -5  -9 -17    0.53    0.07   1
  -5  -9  17    0.59    0.07   1
  -5  -9  17    0.57    0.07   1
  -5   9  17    0.50    0.06   1
   5  -9 -17    0.56    0.07   1
   5  -9  17    0.53    0.07   1
   5  -9  17    0.55    0.07   1
   5   9  17    0.65    0.07   1
   9 -17  -5    0.70    0.07   1
   9 -17   5    0.55    0.07   1
   9  17  -5    0.59    0.06   1
   9  17   5    0.47    0.05   1
  17  -5   9    0.62    0.05   1
  17   5  -9    0.52    0.04   1
  17   5   9    0.63    0.06   1
 -17  -5 -11    0.32    0.06   1
 -17  -5  11    0.18    0.04   1
 -17   5 -11    0.30    0.06   1
 -11 -17  -5    0.22    0.06   1
 -11 -17   5    0.22    0.06   1
 -11  17  -5    0.30    0.05   1
 -11  17   5    0.29    0.05   1
  -5 -11 -17    0.28    0.06   1
  -5 -11  17    0.20    0.06   1
  -5 -11  17    0.26    0.05   1
  -5  11  17    0.22    0.04   1
   5 -11 -17    0.27    0.05   1
   5 -11  17    0.16    0.06   1
   5 -11  17    0.26    0.04   1
   5  11  17    0.22    0.05   1
  11 -17  -5    0.32    0.05   1
  11 -17   5    0.40    0.06   1
  11  17  -5    0.21    0.04   1
  11  17   5    0.32    0.05   1
  17  -5  11    0.28    0.04   1
  17   5 -11    0.28    0.03   1
  17   5  11    0.16    0.04   1
 -17  -5 -13    0.58    0.07   1
 -17   5 -13    0.62    0.07   1
 -13 -17   5    0.73    0.08   1
 -13  17  -5    0.79    0.08   1
 -13  17   5    0.77    0.06   1
  -5 -13  17    0.71    0.08   1
  -5  13  17    0.76    0.08   1
   5 -13 -17    0.62    0.07   1
   5 -13  17    0.56    0.06   1
   5  13 -17    0.90    0.07   1
   5  13  17    0.79    0.08   1
  13 -17  -5    0.74    0.07   1
  13 -17   5    0.82    0.09   1
  13  17  -5    0.61    0.07   1
  13  17   5    0.80    0.07   1
  17  -5  13    0.56    0.07   1
  17   5  13    0.80    0.07   1
 -17  -5  15    2.51    0.09   1
 -17  -5  15    2.35    0.08   1
 -15 -17   5    2.40    0.13   1
 -15  17   5    2.66    0.09   1
  -5  15  17    2.69    0.11   1
   5 -15 -17    2.70    0.12   1
   5 -15  17    2.61    0.11   1
   5  15 -17    2.85    0.11   1
   5  15  17    2.79    0.12   1
  15 -17  -5    2.54    0.09   1
  15 -17   5    2.69    0.11   1
  15 -17   5    2.49    0.10   1
  15  17  -5    2.41    0.10   1
  15  17   5    2.71    0.11   1
  17  -5  15    2.62    0.10   1
  17   5  15    2.45    0.11   1
 -17  -7  -1    0.20    0.04   1
 -17  -7   1    0.24    0.04   1
  -7  -1 -17    0.10    0.05   1
  -7  -1  17    0.28    0.04   1
  -7  -1  17    0.17    0.04   1
  -7   1 -17    0.29    0.06   1
  -7   1  17    0.16    0.04   1
  -7   1  17    0.18    0.03   1
  -1 -17  -7    0.20    0.05   1
  -1 -17   7    0.18    0.05   1
  -1  17  -7    0.15    0.04   1
  -1  17   7    0.21    0.04   1
   1 -17  -7    0.28    0.05   1
   1 -17   7    0.21    0.05   1
   1  17  -7    0.20    0.04   1
   1  17   7    0.19    0.04   1
   7  -1  17    0.21    0.04   1
   7   1  17    0.14    0.04   1
  17  -7  -1    0.23    0.03   1
  17  -7  -1    0.20    0.02   1
  17  -7   1    0.23    0.03   1
  17  -7   1    0.21    0.03   1
  17   7  -1    0.22    0.03   1
  17   7   1    0.18    0.03   1
 -17  -7  -3    1.29    0.08   1
 -17  -7   3    1.18    0.07   1
  -7  -3 -17    1.04    0.09   1
  -7  -3  17    1.18    0.07   1
  -7  -3  17    1.16    0.07   1
  -7   3 -17    1.03    0.09   1
  -7   3  17    1.21    0.06   1
  -3 -17  -7    1.06    0.09   1
  -3 -17   7    1.33    0.09   1
  -3  17  -7    1.24    0.08   1
  -3  17   7    1.28    0.07   1
   3 -17  -7    1.04    0.08   1
   3 -17   7    1.20    0.09   1
   3  17  -7    1.25    0.07   1
   3  17   7    1.10    0.08   1
   7  -3 -17    1.07    0.07   1
   7  -3  17    1.12    0.08   1
   7   3  17    1.20    0.08   1
  17  -7   3    1.15    0.06   1
  17  -7   3    1.17    0.05   1
  17   7  -3    1.21    0.06   1
  17   7   3    1.09    0.06   1
 -17  -7  -5    2.87    0.11   1
 -17  -7   5    2.92    0.09   1
  -7  -5 -17    2.54    0.12   1
  -7  -5  17    2.60    0.10   1
  -7  -5  17    2.62    0.09   1
  -7   5  17    2.74    0.09   1
  -5 -17  -7    2.88    0.12   1
  -5 -17   7    2.81    0.12   1
  -5  17  -7    2.78    0.11   1
  -5  17   7    2.82    0.10   1
   5 -17  -7    2.66    0.10   1
   5 -17   7    2.91    0.12   1
   5  17  -7    2.88    0.10   1
   5  17   7    2.93    0.11   1
   7  -5 -17    2.75    0.09   1
   7  -5  17    2.53    0.10   1
   7   5  17    2.61    0.10   1
  17  -7   5    2.61    0.09   1
  17  -7   5    2.85    0.08   1
  17   7  -5    2.81    0.08   1
  17   7   5    2.93    0.09   1
 -17  -7  -7    2.12    0.11   1
 -17  -7   7    2.20    0.08   1
  -7 -17  -7    2.26    0.12   1
  -7 -17   7    2.05    0.10   1
  -7  -7 -17    1.79    0.11   1
  -7  -7  17    2.04    0.10   1
  -7  -7  17    2.13    0.09   1
  -7   7  17    2.08    0.08   1
  -7  17  -7    2.17    0.10   1
  -7  17   7    2.27    0.09   1
   7 -17  -7    2.16    0.09   1
   7 -17   7    2.40    0.11   1
   7  -7 -17    2.08    0.08   1
   7  -7  17    1.92    0.11   1
   7  -7  17    2.19    0.10   1
   7   7  17    2.31    0.10   1
   7  17  -7    2.15    0.09   1
   7  17   7    2.21    0.10   1
  17  -7   7    2.08    0.09   1
  17  -7   7    2.24    0.08   1
  17   7  -7    2.11    0.07   1
  17   7   7    2.31    0.09   1
 -17  -7  -9    0.20    0.06   1
 -17  -7   9    0.26    0.04   1
  -9 -17  -7    0.20    0.06   1
  -9 -17   7    0.27    0.06   1
  -9  17  -7    0.40    0.05   1
  -9  17   7    0.25    0.04   1
  -7  -9 -17    0.22    0.06   1
  -7  -9  17    0.32    0.05   1
  -7  -9  17    0.20    0.05   1
  -7   9  17    0.33    0.05   1
   7  -9 -17    0.20    0.04   1
   7  -9  17    0.24    0.06   1
   7  -9  17    0.27    0.05   1
   7   9  17    0.29    0.05   1
   9 -17  -7    0.27    0.04   1
   9  17  -7    0.21    0.04   1
   9  17   7    0.27    0.04   1
  17  -7   9    0.24    0.05   1
  17  -7   9    0.29    0.04   1
  17   7  -9    0.33    0.04   1
  17   7   9    0.34    0.05   1
 -17  -7 -11   -0.02    0.06   1
 -17  -7  11   -0.05    0.03   1
 -11 -17   7    0.07    0.06   1
 -11  17  -7    0.04    0.04   1
 -11  17   7   -0.02    0.03   1
  -7 -11 -17   -0.03    0.09   1
  -7 -11  17   -0.07    0.05   1
  -7  11  17    0.04    0.03   1
   7 -11 -17    0.02    0.04   1
   7 -11  17   -0.01    0.04   1
   7  11  17    0.02    0.03   1
  11 -17  -7    0.04    0.04   1
  11 -17   7    0.01    0.05   1
  11  17  -7   -0.02    0.04   1
  11  17   7   -0.04    0.03   1
  17  -7  11   -0.01    0.04   1
  17  -7  11    0.00    0.03   1
  17   7 -11    0.02    0.02   1
  17   7  11    0.05    0.04   1
 -17  -7  13    0.23    0.04   1
 -13 -17   7    0.40    0.07   1
 -13  17   7    0.41    0.05   1
  -7 -13  17    0.27    0.06   1
  -7  13  17    0.36    0.05   1
   7 -13 -17    0.31    0.05   1
   7 -13  17    0.33    0.05   1
   7  13 -17    0.70    0.07   1
   7  13  17    0.39    0.06   1
  13 -17  -7    0.29    0.05   1
  13 -17   7    0.38    0.06   1
  13  17  -7    0.39    0.05   1
  13  17   7    0.35    0.05   1
  17  -7  13    0.35    0.06   1
  17  -7  13    0.32    0.05   1
  17   7 -13    0.34    0.04   1
  17   7  13    0.38    0.05   1
 -17  -7  15    1.72    0.09   1
 -15 -17   7    1.40    0.12   1
 -15  17   7    1.57    0.07   1
  -7  15  17    1.58    0.09   1
   7 -15 -17    1.43    0.10   1
   7 -15  17    1.57    0.11   1
   7  15 -17    1.71    0.10   1
   7  15  17    1.53    0.10   1
  15 -17  -7    1.56    0.08   1
  15 -17   7    1.61    0.11   1
  15 -17   7    1.57    0.08   1
  15  17  -7    1.74    0.09   1
  15  17   7    1.57    0.09   1
  17  -7  15    1.68    0.09   1
  17   7  15    1.39    0.09   1
 -17  -9  -1    0.21    0.05   1
 -17  -9   1    0.17    0.05   1
  -9  -1 -17    0.25    0.06   1
  -9  -1  17    0.17    0.04   1
  -9  -1  17    0.15    0.03   1
  -9   1 -17    0.16    0.04   1
  -9   1  17    0.17    0.04   1
  -9   1  17    0.16    0.03   1
  -1 -17  -9    0.29    0.06   1
  -1 -17   9    0.16    0.05   1
  -1  17  -9    0.16    0.04   1
  -1  17   9    0.25    0.04   1
   1 -17  -9    0.18    0.05   1
   1 -17   9    0.13    0.05   1
   1  17  -9    0.18    0.04   1
   1  17   9    0.18    0.04   1
   9  -1  17    0.18    0.04   1
   9   1  17    0.20    0.04   1
  17  -9  -1    0.16    0.02   1
  17  -9  -1    0.21    0.02   1
  17  -9   1    0.15    0.03   1
  17  -9   1    0.19    0.02   1
  17   9  -1    0.14    0.03   1
  17   9   1    0.11    0.03   1
 -17  -9  -3    0.11    0.04   1
 -17  -9   3    0.03    0.04   1
  -9  -3 -17    0.03    0.05   1
  -9  -3  17    0.04    0.04   1
  -9  -3  17    0.07    0.03   1
  -9   3 -17    0.08    0.05   1
  -9   3  17   -0.01    0.02   1
  -3 -17  -9    0.11    0.05   1
  -3 -17   9    0.00    0.05   1
  -3  17  -9    0.05    0.04   1
  -3  17   9    0.04    0.03   1
   3 -17  -9    0.09    0.04   1
   3 -17   9   -0.05    0.05   1
   3  17  -9    0.17    0.04   1
   3  17   9    0.07    0.03   1
   9  -3  17   -0.01    0.03   1
   9   3  17    0.08    0.04   1
  17  -9  -3    0.08    0.02   1
  17  -9  -3    0.06    0.02   1
  17  -9   3    0.08    0.03   1
  17  -9   3    0.07    0.02   1
  17   9  -3    0.06    0.03   1
  17   9   3    0.03    0.03   1
 -17  -9  -5    0.55    0.07   1
 -17  -9   5    0.61    0.07   1
  -9  -5 -17    0.40    0.06   1
  -9  -5  17    0.58    0.06   1
  -9  -5  17    0.56    0.06   1
  -9   5  17    0.59    0.05   1
  -5 -17  -9    0.40    0.06   1
  -5 -17   9    0.44    0.06   1
  -5  17  -9    0.47    0.06   1
  -5  17   9    0.49    0.05   1
   5 -17  -9    0.64    0.07   1
   5 -17   9    0.45    0.06   1
   5  17  -9    0.57    0.06   1
   5  17   9    0.59    0.07   1
   9  -5 -17    0.51    0.06   1
   9  -5  17    0.73    0.07   1
   9   5  17    0.61    0.07   1
  17  -9   5    0.58    0.06   1
  17  -9   5    0.62    0.05   1
  17   9  -5    0.44    0.04   1
  17   9   5    0.50    0.06   1
 -17  -9  -7    0.34    0.06   1
 -17  -9   7    0.24    0.05   1
  -9  -7 -17    0.25    0.05   1
  -9  -7  17    0.22    0.05   1
  -9  -7  17    0.28    0.04   1
  -9   7  17    0.24    0.04   1
  -7 -17  -9    0.22    0.06   1
  -7 -17   9    0.18    0.06   1
  -7  17  -9    0.40    0.06   1
  -7  17   9    0.25    0.04   1
   7 -17  -9    0.32    0.05   1
   7 -17   9    0.22    0.06   1
   7  17  -9    0.29    0.05   1
   7  17   9    0.29    0.05   1
   9  -7 -17    0.26    0.04   1
   9  -7  17    0.25    0.06   1
   9  -7  17    0.17    0.04   1
   9   7  17    0.28    0.05   1
  17  -9   7    0.30    0.05   1
  17  -9   7    0.33    0.04   1
  17   9  -7    0.25    0.04   1
  17   9   7    0.15    0.04   1
 -17  -9  -9    0.34    0.07   1
 -17  -9   9    0.23    0.05   1
  -9 -17   9    0.31    0.07   1
  -9  -9  17    0.27    0.05   1
  -9  -9  17    0.24    0.05   1
  -9   9  17    0.28    0.04   1
  -9  17  -9    0.29    0.05   1
  -9  17   9    0.40    0.05   1
   9 -17  -9    0.29    0.05   1
   9 -17   9    0.24    0.06   1
   9  -9 -17    0.27    0.04   1
   9  -9  17    0.28    0.07   1
   9  -9  17    0.38    0.05   1
   9   9  17    0.23    0.04   1
   9  17  -9    0.31    0.05   1
   9  17   9    0.29    0.05   1
  17  -9   9    0.31    0.06   1
  17  -9   9    0.29    0.04   1
  17   9  -9    0.40    0.05   1
  17   9   9    0.26    0.05   1
 -17  -9 -11    0.18    0.06   1
 -17  -9  11    0.28    0.05   1
 -11 -17   9    0.29    0.06   1
 -11  17   9    0.29    0.04   1
  -9 -11  17    0.35    0.07   1
  -9  11  17    0.39    0.05   1
   9 -11 -17    0.28    0.05   1
   9 -11  17    0.24    0.04   1
   9  11  17    0.36    0.06   1
  11 -17  -9    0.23    0.05   1
  11 -17   9    0.33    0.07   1
  11  17  -9    0.31    0.04   1
  11  17   9    0.28    0.05   1
  17  -9  11    0.30    0.06   1
  17  -9  11    0.33    0.05   1
  17   9 -11    0.29    0.04   1
  17   9  11    0.25    0.04   1
 -17  -9  13   -0.03    0.05   1
 -13 -17   9   -0.05    0.05   1
 -13  17   9    0.00    0.03   1
  -9 -13  17    0.03    0.06   1
  -9  13  17    0.02    0.03   1
   9 -13 -17    0.01    0.04   1
   9 -13  17    0.07    0.04   1
   9  13 -17    0.01    0.04   1
   9  13  17    0.10    0.04   1
  13 -17  -9   -0.05    0.04   1
  13 -17   9    0.11    0.06   1
  13 -17   9    0.01    0.03   1
  13  17  -9    0.03    0.03   1
  13  17   9    0.02    0.04   1
  17  -9  13   -0.08    0.05   1
  17  -9  13    0.03    0.04   1
  17   9 -13   -0.01    0.03   1
  17   9  13    0.03    0.04   1
 -17  -9  15    0.49    0.06   1
 -15  17   9    0.52    0.06   1
  -9  15  17    0.50    0.06   1
   9 -15 -17    0.44    0.06   1
   9 -15  17    0.46    0.05   1
   9  15 -17    0.48    0.06   1
   9  15  17    0.45    0.07   1
  15 -17  -9    0.45    0.05   1
  15 -17   9    0.41    0.07   1
  15 -17   9    0.54    0.06   1
  15  17  -9    0.29    0.05   1
  17  -9  15    0.53    0.06   1
  17   9 -15    0.53    0.06   1
 -17 -11  -1    0.17    0.05   1
 -17 -11   1    0.39    0.06   1
 -11  -1 -17    0.15    0.05   1
 -11  -1  17    0.17    0.04   1
 -11  -1  17    0.14    0.03   1
 -11   1 -17    0.24    0.06   1
 -11   1  17    0.16    0.04   1
 -11   1  17    0.22    0.03   1
  -1 -17 -11    0.15    0.05   1
  -1 -17  11    0.12    0.06   1
  -1  17 -11    0.12    0.04   1
  -1  17  11    0.25    0.05   1
   1 -17 -11    0.29    0.06   1
   1 -17  11    0.12    0.07   1
   1  17 -11    0.15    0.04   1
   1  17  11    0.19    0.04   1
  11  -1  17    0.14    0.04   1
  11   1  17    0.09    0.04   1
  17 -11  -1    0.16    0.03   1
  17 -11  -1    0.17    0.02   1
  17 -11   1    0.24    0.04   1
  17 -11   1    0.15    0.03   1
  17  11  -1    0.19    0.04   1
  17  11   1    0.13    0.04   1
 -17 -11  -3    0.00    0.04   1
 -17 -11   3    0.01    0.04   1
 -11  -3 -17   -0.02    0.06   1
 -11  -3  17    0.00    0.04   1
 -11  -3  17    0.00    0.03   1
 -11   3 -17    0.04    0.05   1
 -11   3  17   -0.04    0.03   1
 -11   3  17    0.02    0.03   1
  -3 -17 -11   -0.03    0.05   1
  -3 -17  11    0.07    0.06   1
  -3  17 -11    0.10    0.04   1
  -3  17  11    0.03    0.04   1
   3 -17 -11    0.05    0.05   1
   3 -17  11    0.09    0.05   1
   3  17 -11   -0.04    0.03   1
   3  17  11    0.00    0.03   1
  11  -3  17    0.02    0.03   1
  11   3  17    0.00    0.03   1
  17 -11  -3    0.00    0.02   1
  17 -11   3   -0.01    0.03   1
  17 -11   3    0.03    0.02   1
  17  11  -3    0.00    0.03   1
  17  11   3   -0.01    0.03   1
 -17 -11  -5    0.23    0.06   1
 -17 -11   5    0.34    0.05   1
 -11  -5 -17    0.29    0.06   1
 -11  -5  17    0.26    0.05   1
 -11  -5  17    0.26    0.04   1
 -11   5 -17    0.28    0.06   1
 -11   5  17    0.22    0.03   1
  -5 -17 -11    0.30    0.06   1
  -5 -17  11    0.38    0.07   1
  -5  17 -11    0.15    0.04   1
  -5  17  11    0.28    0.05   1
   5 -17 -11    0.15    0.05   1
   5 -17  11    0.25    0.06   1
   5  17 -11    0.23    0.04   1
   5  17  11    0.20    0.05   1
  11  -5  17    0.18    0.04   1
  11   5  17    0.22    0.04   1
  17 -11  -5    0.24    0.02   1
  17 -11  -5    0.28    0.03   1
  17 -11   5    0.26    0.05   1
  17 -11   5    0.23    0.04   1
  17  11  -5    0.19    0.04   1
  17  11   5    0.29    0.04   1
 -17 -11  -7   -0.10    0.06   1
 -17 -11   7   -0.01    0.05   1
 -11  -7  17    0.01    0.05   1
 -11  -7  17   -0.01    0.03   1
 -11   7  17   -0.01    0.03   1
  -7 -17  11   -0.04    0.05   1
  -7  17 -11    0.25    0.05   1
  -7  17  11    0.04    0.03   1
   7 -17 -11    0.11    0.04   1
   7 -17  11    0.16    0.05   1
   7  17 -11    0.00    0.03   1
   7  17  11    0.01    0.03   1
  11  -7 -17   -0.03    0.03   1
  11  -7  17    0.08    0.06   1
  11  -7  17    0.05    0.03   1
  11   7  17   -0.02    0.03   1
  17 -11   7    0.03    0.04   1
  17 -11   7   -0.01    0.03   1
  17  11  -7    0.00    0.03   1
  17  11   7    0.03    0.04   1
 -17 -11  -9    0.26    0.07   1
 -17 -11   9    0.29    0.05   1
 -11  -9  17    0.30    0.06   1
 -11  -9  17    0.32    0.05   1
 -11   9  17    0.31    0.04   1
  -9 -17  11    0.22    0.06   1
  -9  17  11    0.33    0.05   1
   9 -17 -11    0.21    0.05   1
   9 -17  11    0.27    0.07   1
   9  17 -11    0.23    0.04   1
   9  17  11    0.38    0.05   1
  11  -9 -17    0.26    0.04   1
  11  -9  17    0.16    0.05   1
  11   9  17    0.41    0.06   1
  17 -11   9    0.27    0.06   1
  17 -11   9    0.36    0.05   1
  17  11  -9    0.30    0.04   1
  17  11   9    0.32    0.05   1
 -17 -11  11    0.24    0.06   1
 -11 -17  11    0.19    0.06   1
 -11 -11  17    0.24    0.07   1
 -11  11  17    0.35    0.04   1
 -11  17  11    0.37    0.05   1
  11 -17 -11    0.25    0.05   1
  11 -17  11    0.23    0.04   1
  11 -11 -17    0.30    0.04   1
  11 -11  17    0.37    0.06   1
  11  11 -17    0.29    0.05   1
  11  11  17    0.27    0.05   1
  11  17 -11    0.32    0.04   1
  11  17  11    0.21    0.04   1
  17 -11  11    0.26    0.06   1
  17 -11  11    0.30    0.05   1
  17  11 -11    0.19    0.04   1
  17  11  11    0.26    0.04   1
 -17 -11  13   -0.01    0.05   1
 -13  17  11    0.01    0.03   1
 -11 -13  17    0.04    0.07   1
 -11  13  17   -0.03    0.03   1
  11 -13 -17   -0.07    0.04   1
  11 -13  17    0.03    0.04   1
  11  13 -17    0.06    0.04   1
  11  13  17   -0.03    0.04   1
  13 -17 -11   -0.10    0.04   1
  13 -17  11   -0.10    0.03   1
  13  17 -11   -0.02    0.04   1
  17 -11  13   -0.05    0.03   1
  17  11 -13    0.01    0.04   1
  17  11  13   -0.04    0.04   1
 -17 -11  15    0.29    0.06   1
 -15  17  11    0.30    0.04   1
 -11  15  17    0.24    0.04   1
  11 -15 -17    0.28    0.06   1
  11 -15  17    0.22    0.05   1
  11  15 -17    0.41    0.05   1
  11  15  17    0.45    0.07   1
  15 -17 -11    0.28    0.05   1
  15 -17  11    0.22    0.05   1
  15  17 -11    0.36    0.05   1
  15  17  11    0.28    0.05   1
  17 -11  15    0.46    0.05   1
  17  11 -15    0.25    0.05   1
  17  11  15    0.10    0.05   1
 -17 -13  -1    0.04    0.06   1
 -17 -13   1    0.01    0.05   1
 -13  -1 -17    0.07    0.06   1
 -13  -1  17    0.07    0.03   1
 -13  -1  17    0.04    0.03   1
 -13   1 -17    0.01    0.05   1
 -13   1  17   -0.02    0.03   1
 -13   1  17    0.04    0.03   1
  -1 -17 -13    0.09    0.06   1
  -1  17 -13   -0.07    0.04   1
  -1  17  13    0.05    0.04   1
   1 -17 -13   -0.03    0.05   1
   1  17 -13    0.01    0.04   1
   1  17  13   -0.01    0.04   1
  13  -1  17    0.00    0.03   1
  13   1  17    0.00    0.03   1
  17 -13  -1    0.02    0.03   1
  17 -13  -1    0.06    0.02   1
  17 -13   1   -0.03    0.03   1
  17 -13   1    0.02    0.02   1
  17  13  -1    0.01    0.03   1
  17  13   1    0.04    0.03   1
 -17 -13  -3    0.32    0.07   1
 -17 -13   3    0.33    0.06   1
 -13  -3  17    0.37    0.05   1
 -13  -3  17    0.41    0.04   1
 -13   3 -17    0.28    0.08   1
 -13   3  17    0.31    0.04   1
 -13   3  17    0.31    0.03   1
  -3 -17 -13    0.33    0.06   1
  -3  17 -13    0.38    0.05   1
  -3  17  13    0.31    0.05   1
   3 -17 -13    0.36    0.06   1
   3  17 -13    0.29    0.05   1
   3  17  13    0.33    0.05   1
  13  -3  17    0.44    0.05   1
  13   3  17    0.35    0.05   1
  17 -13  -3    0.45    0.04   1
  17 -13  -3    0.36    0.04   1
  17 -13   3    0.27    0.05   1
  17 -13   3    0.35    0.04   1
  17  13  -3    0.32    0.05   1
  17  13   3    0.30    0.04   1
 -17 -13  -5    0.63    0.08   1
 -17 -13   5    0.72    0.07   1
 -13  -5  17    0.89    0.08   1
 -13  -5  17    0.84    0.07   1
 -13   5  17    0.73    0.05   1
 -13   5  17    0.55    0.04   1
  -5  17 -13    0.85    0.08   1
  -5  17  13    0.67    0.08   1
   5 -17 -13    0.74    0.09   1
   5  17 -13    0.68    0.07   1
   5  17  13    0.66    0.08   1
  13  -5  17    0.62    0.07   1
  13   5  17    0.79    0.07   1
  17 -13  -5    0.80    0.05   1
  17 -13  -5    0.68    0.04   1
  17 -13   5    0.73    0.08   1
  17 -13   5    0.48    0.05   1
  17  13  -5    0.84    0.07   1
  17  13   5    0.70    0.07   1
 -17 -13  -7    0.35    0.07   1
 -17 -13   7    0.29    0.06   1
 -13  -7  17    0.35    0.06   1
 -13  -7  17    0.33    0.05   1
 -13   7  17    0.37    0.04   1
  -7  17  13    0.32    0.05   1
   7 -17 -13    0.35    0.06   1
   7  17 -13    0.28    0.05   1
   7  17  13    0.48    0.07   1
  13  -7  17    0.47    0.06   1
  13   7  17    0.31    0.06   1
  17 -13  -7    0.35    0.04   1
  17 -13   7    0.38    0.06   1
  17 -13   7    0.35    0.04   1
  17  13  -7    0.32    0.05   1
  17  13   7    0.33    0.04   1
 -17 -13   9   -0.04    0.05   1
 -17  13   9    0.00    0.02   1
 -13  -9  17    0.05    0.06   1
 -13  -9  17    0.01    0.04   1
 -13   9  17    0.00    0.02   1
  -9  17  13    0.01    0.03   1
   9 -17 -13   -0.04    0.05   1
   9 -17  13    0.01    0.04   1
   9  17 -13   -0.06    0.04   1
   9  17  13   -0.02    0.04   1
  13  -9 -17    0.02    0.03   1
  13  -9  17    0.03    0.04   1
  13   9  17    0.03    0.04   1
  17 -13  -9    0.01    0.02   1
  17 -13   9   -0.05    0.05   1
  17 -13   9   -0.01    0.03   1
  17  13  -9    0.01    0.03   1
  17  13   9    0.03    0.04   1
 -17 -13  11    0.03    0.06   1
 -13 -11  17    0.08    0.06   1
 -13  11  17    0.01    0.03   1
 -11  17  13   -0.01    0.03   1
  11 -17 -13   -0.03    0.04   1
  11 -17  13    0.08    0.04   1
  11  17 -13   -0.02    0.04   1
  11  17  13   -0.03    0.04   1
  13 -11 -17   -0.01    0.04   1
  13 -11  17   -0.05    0.03   1
  13  11 -17   -0.03    0.04   1
  13  11  17   -0.09    0.05   1
  17 -13  11    0.03    0.06   1
  17 -13  11    0.03    0.04   1
  17  13 -11    0.05    0.04   1
  17  13  11   -0.05    0.04   1
 -17 -13  13   -0.02    0.06   1
 -13 -13  17    0.02    0.07   1
 -13  13  17   -0.02    0.03   1
 -13  17  13    0.06    0.04   1
  13 -17 -13    0.06    0.04   1
  13 -17  13   -0.06    0.04   1
  13 -13 -17    0.01    0.04   1
  13 -13  17    0.00    0.04   1
  13  13 -17    0.14    0.05   1
  13  13  17    0.00    0.05   1
  13  17 -13    0.15    0.04   1
  13  17  13   -0.01    0.04   1
  17 -13  13    0.02    0.04   1
  17  13 -13    0.04    0.04   1
  17  13  13    0.00    0.05   1
 -17 -13  15    0.34    0.07   1
 -17  13  15    0.47    0.04   1
 -15  17  13    0.54    0.06   1
 -13  15  17    0.55    0.07   1
  13 -15 -17    0.45    0.06   1
  13 -15  17    0.54    0.07   1
  13  15 -17    0.63    0.07   1
  13  15  17    0.42    0.06   1
  15 -17 -13    0.64    0.07   1
  15  17 -13    0.39    0.06   1
  15  17  13    0.42    0.06   1
  17  13 -15    0.55    0.06   1
  17  13  15    0.43    0.07   1
 -17 -15  -1   -0.06    0.06   1
 -17 -15   1    0.02    0.06   1
 -15  -1  17    0.15    0.04   1
 -15  -1  17    0.09    0.03   1
 -15   1  17    0.18    0.03   1
 -15   1  17    0.16    0.03   1
  -1 -17 -15    0.09    0.06   1
  -1  17 -15    0.17    0.04   1
  -1  17  15    0.15    0.04   1
   1 -17 -15    0.28    0.06   1
   1  17 -15    0.22    0.04   1
   1  17  15    0.22    0.04   1
  15  -1  17    0.09    0.04   1
  15   1  17    0.14    0.04   1
  17 -15  -1    0.12    0.04   1
  17 -15  -1    0.08    0.03   1
  17 -15   1    0.12    0.04   1
  17 -15   1    0.14    0.03   1
  17  15  -1    0.16    0.04   1
  17  15   1    0.09    0.03   1
 -17 -15  -3    1.06    0.11   1
 -17 -15   3    1.04    0.11   1
 -15  -3  17    1.13    0.08   1
 -15  -3  17    1.19    0.06   1
 -15   3  17    1.19    0.05   1
 -15   3  17    1.11    0.05   1
  -3  17 -15    1.26    0.09   1
  -3  17  15    1.29    0.09   1
   3 -17 -15    1.18    0.11   1
   3  17 -15    1.22    0.09   1
   3  17  15    1.16    0.09   1
  15  -3  17    1.23    0.09   1
  15   3  17    1.24    0.09   1
  17 -15  -3    1.13    0.06   1
  17 -15   3    1.20    0.09   1
  17 -15   3    1.29    0.06   1
  17  15  -3    1.09    0.08   1
  17  15   3    1.18    0.07   1
 -17 -15   5    2.50    0.13   1
 -17  15   5    2.49    0.07   1
 -15  -5  17    2.57    0.10   1
 -15  -5  17    2.47    0.09   1
 -15   5  17    2.47    0.06   1
  -5  17  15    2.60    0.11   1
   5 -17 -15    2.51    0.12   1
   5  17 -15    2.65    0.11   1
   5  17  15    2.66    0.12   1
  15  -5  17    2.52    0.11   1
  15   5  17    2.40    0.10   1
  17 -15  -5    2.54    0.08   1
  17 -15   5    2.42    0.11   1
  17 -15   5    2.44    0.09   1
  17  15  -5    2.53    0.10   1
  17  15   5    2.63    0.10   1
 -17 -15   7    1.51    0.12   1
 -17  15   7    1.51    0.06   1
 -15  -7  17    1.53    0.10   1
 -15  -7  17    1.63    0.08   1
 -15   7  17    1.59    0.05   1
  -7  17  15    1.59    0.09   1
   7 -17 -15    1.67    0.10   1
   7 -17  15    1.66    0.09   1
   7  17 -15    1.93    0.09   1
   7  17  15    1.71    0.10   1
  15  -7  17    1.60    0.09   1
  15   7  17    1.68    0.09   1
  17 -15  -7    1.67    0.07   1
  17 -15   7    1.62    0.11   1
  17 -15   7    1.69    0.08   1
  17  15  -7    1.67    0.09   1
  17  15   7    1.76    0.09   1
 -17 -15   9    0.39    0.08   1
 -17  15   9    0.40    0.05   1
 -15  -9  17    0.37    0.07   1
 -15  -9  17    0.39    0.06   1
 -15   9  17    0.40    0.06   1
  -9  17  15    0.52    0.06   1
   9 -17 -15    0.43    0.06   1
   9  17 -15    0.36    0.05   1
   9  17  15    0.40    0.07   1
  15  -9  17    0.46    0.05   1
  15   9  17    0.46    0.05   1
  17 -15  -9    0.39    0.05   1
  17 -15   9    0.42    0.07   1
  17 -15   9    0.45    0.06   1
  17  15  -9    0.46    0.05   1
  17  15   9    0.51    0.06   1
 -17 -15  11    0.19    0.07   1
 -17  15  11    0.24    0.04   1
 -15 -11  17    0.20    0.07   1
 -15  11  17    0.23    0.03   1
 -11  17  15    0.31    0.05   1
  11 -17 -15    0.28    0.06   1
  11 -17  15    0.32    0.05   1
  11  17 -15    0.19    0.04   1
  11  17  15    0.28    0.06   1
  15 -11 -17    0.27    0.04   1
  15 -11  17    0.21    0.07   1
  15  11 -17    0.20    0.05   1
  15  11  17    0.15    0.05   1
  17 -15 -11    0.25    0.03   1
  17 -15  11    0.26    0.05   1
  17  15 -11    0.22    0.05   1
  17  15  11    0.32    0.05   1
 -17 -15  13    0.47    0.08   1
 -15 -13  17    0.41    0.07   1
 -15  13  17    0.51    0.05   1
 -13  17  15    0.54    0.05   1
  13 -17 -15    0.48    0.06   1
  13 -17  15    0.57    0.06   1
  13  17 -15    0.57    0.06   1
  13  17  15    0.47    0.06   1
  15 -13 -17    0.46    0.06   1
  15 -13  17    0.47    0.06   1
  15  13 -17    0.69    0.07   1
  15  13  17    0.29    0.05   1
  17 -15 -13    0.47    0.05   1
  17 -15  13    0.46    0.05   1
  17  15 -13    0.36    0.05   1
  17  15  13    0.56    0.07   1
 -17  15  15    0.90    0.06   1
 -15  15  17    0.97    0.07   1
 -15  17  15    0.88    0.07   1
  15 -17 -15    0.93    0.09   1
  15 -17  15    0.95    0.10   1
  15 -15 -17    0.72    0.09   1
  15 -15  17    0.85    0.08   1
  15  15 -17    0.92    0.10   1
  15  15  17    0.88    0.10   1
  15  17 -15    0.97    0.09   1
  15  17  15    1.18    0.10   1
  17 -15 -15    1.00    0.06   1
  17 -15  15    0.98    0.10   1
  17  15 -15    1.03    0.09   1
  17  15  15    0.87    0.10   1
 -17  -1  17    0.02    0.03   1
 -17  -1  17    0.07    0.03   1
 -17   1  17    0.04    0.02   1
 -17   1  17    0.06    0.03   1
  -1  17  17   -0.01    0.04   1
   1  17  17   -0.02    0.04   1
  17 -17  -1    0.14    0.05   1
  17 -17   1    0.01    0.05   1
  17 -17   1   -0.01    0.03   1
  17  -1  17    0.09    0.04   1
  17   1  17   -0.08    0.03   1
  17  17  -1   -0.05    0.04   1
  17  17   1    0.03    0.04   1
 -17  -3  17    0.58    0.06   1
 -17  -3  17    0.55    0.06   1
 -17   3  17    0.51    0.04   1
 -17   3  17    0.45    0.03   1
 -17  17   3    0.56    0.06   1
  -3  17  17    0.61    0.07   1
   3 -17 -17    0.62    0.08   1
   3 -17  17    0.59    0.07   1
   3  17 -17    0.77    0.12   1
   3  17  17    0.55    0.06   1
  17 -17  -3    0.58    0.07   1
  17 -17   3    0.49    0.06   1
  17 -17   3    0.60    0.06   1
  17  -3  17    0.65    0.06   1
  17   3  17    0.51    0.05   1
  17  17  -3    0.49    0.06   1
  17  17   3    0.68    0.07   1
 -17  -5  17    1.38    0.09   1
 -17  -5  17    1.52    0.08   1
 -17  17   5    1.39    0.07   1
  -5  17  17    1.50    0.10   1
   5 -17 -17    1.33    0.11   1
   5 -17  17    1.70    0.10   1
   5  17 -17    1.11    0.13   1
  17 -17  -5    1.45    0.08   1
  17 -17   5    1.66    0.11   1
  17 -17   5    1.51    0.08   1
  17  -5  17    1.38    0.09   1
  17  17  -5    1.60    0.09   1
  17  17   5    1.57    0.09   1
 -17  -7  17    0.89    0.08   1
 -17  -7  17    0.73    0.07   1
 -17  17   7    0.98    0.06   1
  -7  17  17    0.82    0.09   1
   7 -17 -17    0.98    0.10   1
   7 -17  17    0.90    0.09   1
   7  17 -17    0.93    0.11   1
   7  17  17    1.10    0.10   1
  17 -17  -7    0.81    0.07   1
  17 -17   7    0.83    0.09   1
  17 -17   7    1.00    0.08   1
  17  -7  17    1.04    0.09   1
  17   7  17    0.94    0.09   1
  17  17  -7    0.84    0.08   1
  17  17   7    0.80    0.10   1
 -17  -9  17   -0.03    0.06   1
 -17  -9  17    0.20    0.05   1
 -17  17   9    0.14    0.03   1
  -9  17  17    0.19    0.05   1
   9 -17 -17    0.12    0.05   1
   9 -17  17    0.16    0.05   1
   9  17 -17    0.18    0.09   1
   9  17  17    0.15    0.06   1
  17 -17   9    0.07    0.04   1
  17  -9  17    0.01    0.05   1
  17   9  17    0.10    0.05   1
  17  17  -9    0.09    0.04   1
 -17 -11  17    0.17    0.07   1
 -17  17  11    0.12    0.03   1
 -11  17  17    0.12    0.05   1
  11 -17 -17    0.11    0.05   1
  11 -17  17    0.18    0.05   1
  11  17  17    0.13    0.06   1
  17 -17  11    0.08    0.04   1
  17 -11  17    0.21    0.05   1
  17  11 -17    0.10    0.05   1
  17  11  17    0.09    0.05   1
  17  17 -11   -0.05    0.04   1
  17  17  11    0.14    0.05   1
 -17 -13  17    0.36    0.07   1
 -17  13  17    0.40    0.04   1
 -17  17  13    0.49    0.05   1
 -13  17  17    0.44    0.05   1
  13 -17  17    0.51    0.06   1
  13  17 -17    0.47    0.08   1
  13  17  17    0.37    0.07   1
  17 -17  13    0.40    0.06   1
  17 -13 -17    0.39    0.04   1
  17 -13  17    0.30    0.06   1
  17  13 -17    0.49    0.07   1
  17  13  17    0.34    0.07   1
  17  17 -13    0.34    0.05   1
  17  17  13    0.49    0.07   1
 -17  15  17    1.08    0.06   1
 -17  17  15    1.05    0.07   1
 -15  17  17    1.15    0.08   1
  15 -17  17    1.36    0.11   1
  15  17 -17    1.17    0.11   1
  15  17  17    0.97    0.10   1
  17 -17  15    1.03    0.10   1
  17 -15  17    0.98    0.11   1
  17  15 -17    1.20    0.10   1
  17  15  17    1.03    0.11   1
  17  17 -15    0.96    0.11   1
  17  17  15    1.04    0.10   1
  17 -17  17    0.76    0.08   1
  17  17 -17    0.86    0.09   1
  17  17  17    0.66    0.08   1
 -18   0   0    2.16    0.06   1
   0 -18   0    2.20    0.10   1
   0   0 -18    2.02    0.10   1
   0   0  18    2.17    0.09   1
   0  18   0    2.14    0.09   1
  18   0   0    2.03    0.06   1
 -18   0   2    0.28    0.03   1
  -2 -18   0    0.22    0.05   1
  -2  18   0    0.26    0.05   1
   0  -2 -18    0.20    0.04   1
   0  -2  18    0.18    0.04   1
   0   2 -18    0.16    0.05   1
   0   2  18    0.16    0.04   1
   2 -18   0    0.23    0.05   1
   2  18   0    0.26    0.04   1
  18   0  -2    0.19    0.02   1
  18   0   2    0.20    0.03   1
 -18   0  -4    0.39    0.04   1
 -18   0   4    0.33    0.03   1
  -4 -18   0    0.30    0.06   1
  -4  18   0    0.33    0.05   1
   0  -4 -18    0.30    0.05   1
   0  -4  18    0.33    0.06   1
   0  -4  18    0.30    0.05   1
   0   4  18    0.45    0.05   1
   4 -18   0    0.46    0.06   1
   4  18   0    0.37    0.05   1
  18   0  -4    0.30    0.02   1
  18   0   4    0.38    0.04   1
 -18   0  -6    0.36    0.05   1
  -6 -18   0    0.37    0.06   1
  -6  18   0    0.31    0.05   1
   0  -6 -18    0.42    0.05   1
   0  -6  18    0.28    0.05   1
   0  -6  18    0.33    0.05   1
   0   6  18    0.33    0.05   1
   6 -18   0    0.33    0.05   1
   6  18   0    0.40    0.05   1
  18   0   6    0.33    0.04   1
 -18   0  -8    0.15    0.05   1
  -8 -18   0    0.20    0.06   1
  -8  18   0    0.18    0.04   1
   0  -8 -18    0.19    0.05   1
   0  -8  18    0.16    0.06   1
   0  -8  18    0.15    0.04   1
   0   8  18    0.14    0.04   1
   8 -18   0    0.26    0.05   1
   8  18   0    0.19    0.04   1
  18   0   8    0.21    0.03   1
 -18   0 -10    0.28    0.05   1
 -10 -18   0    0.15    0.06   1
 -10  18   0    0.24    0.04   1
   0 -10 -18    0.33    0.06   1
   0 -10  18    0.19    0.06   1
   0 -10  18    0.12    0.04   1
   0  10  18    0.16    0.04   1
  10 -18   0    0.25    0.05   1
  10  18   0    0.27    0.04   1
  18   0  10    0.14    0.04   1
 -18   0 -12    0.18    0.06   1
 -12 -18   0    0.18    0.06   1
 -12  18   0    0.26    0.04   1
   0 -12 -18    0.22    0.05   1
   0 -12  18    0.20    0.04   1
   0  12  18    0.23    0.05   1
  12 -18   0    0.30    0.05   1
  12  18   0    0.31    0.04   1
  18   0  12    0.17    0.04   1
 -18   0 -14    0.05    0.06   1
 -14  18   0    0.03    0.04   1
   0 -14 -18    0.12    0.06   1
   0 -14  18   -0.02    0.04   1
   0  14  18    0.01    0.04   1
  14 -18   0   -0.07    0.04   1
  14  18   0    0.04    0.04   1
  18   0  14    0.03    0.03   1
 -18   0  16    0.02    0.02   1
 -18   0  16    0.07    0.02   1
 -16  18   0    0.03    0.04   1
   0  16  18    0.10    0.05   1
  16 -18   0    0.02    0.05   1
  16  18   0    0.11    0.04   1
  18   0  16    0.01    0.04   1
 -18  -2   0    0.22    0.03   1
 -18   2   0    0.27    0.03   1
  -2   0 -18    0.27    0.05   1
  -2   0  18    0.23    0.04   1
   0 -18  -2    0.23    0.05   1
   0 -18   2    0.28    0.05   1
   0  18  -2    0.12    0.04   1
   0  18   2    0.30    0.05   1
   2   0 -18    0.19    0.05   1
   2   0  18    0.19    0.04   1
  18  -2   0    0.22    0.03   1
  18   2   0    0.27    0.03   1
 -18  -2  -2   -0.02    0.03   1
 -18  -2   2    0.03    0.02   1
 -18   2  -2    0.04    0.02   1
 -18   2   2    0.02    0.01   1
  -2 -18  -2    0.05    0.04   1
  -2 -18   2    0.01    0.04   1
  -2  -2 -18    0.05    0.04   1
  -2  -2  18    0.00    0.04   1
  -2  -2  18    0.00    0.03   1
  -2   2 -18    0.01    0.04   1
  -2   2  18   -0.03    0.03   1
  -2  18  -2    0.00    0.03   1
  -2  18   2    0.00    0.03   1
   2 -18  -2    0.10    0.05   1
   2 -18   2    0.02    0.05   1
   2  -2 -18    0.04    0.04   1
   2  -2  18    0.02    0.03   1
   2   2  18    0.03    0.03   1
   2  18  -2    0.02    0.03   1
   2  18   2    0.11    0.03   1
  18  -2  -2    0.01    0.01   1
  18  -2   2    0.00    0.02   1
  18   2  -2    0.05    0.02   1
  18   2   2    0.01    0.02   1
 -18  -2  -4    0.44    0.05   1
 -18  -2   4    0.48    0.04   1
 -18   2  -4    0.51    0.05   1
  -4 -18  -2    0.48    0.07   1
  -4 -18   2    0.47    0.06   1
  -4  18  -2    0.61    0.07   1
  -4  18   2    0.40    0.05   1
  -2  -4 -18    0.35    0.06   1
  -2  -4  18    0.40    0.05   1
  -2  -4  18    0.47    0.05   1
  -2   4  18    0.54    0.06   1
   2  -4 -18    0.40    0.05   1
   2  -4  18    0.51    0.06   1
   2  -4  18    0.39    0.06   1
   2   4  18    0.54    0.06   1
   4 -18  -2    0.44    0.05   1
   4 -18   2    0.41    0.05   1
   4  18  -2    0.46    0.06   1
   4  18   2    0.43    0.05   1
  18  -2   4    0.56    0.04   1
  18   2  -4    0.38    0.04   1
  18   2   4    0.51    0.05   1
 -18  -2  -6    0.46    0.05   1
 -18  -2   6    0.48    0.03   1
 -18   2  -6    0.51    0.06   1
  -6 -18  -2    0.51    0.07   1
  -6 -18   2    0.45    0.06   1
  -6  18  -2    0.40    0.05   1
  -6  18   2    0.60    0.06   1
  -2  -6 -18    0.57    0.07   1
  -2  -6  18    0.47    0.06   1
  -2  -6  18    0.41    0.05   1
  -2   6  18    0.51    0.06   1
   2  -6 -18    0.48    0.06   1
   2  -6  18    0.53    0.06   1
   2  -6  18    0.59    0.07   1
   2   6  18    0.41    0.05   1
   6 -18  -2    0.50    0.06   1
   6 -18   2    0.45    0.06   1
   6  18  -2    0.47    0.05   1
   6  18   2    0.54    0.06   1
  18  -2   6    0.51    0.05   1
  18   2  -6    0.42    0.03   1
  18   2   6    0.44    0.05   1
 -18  -2  -8   -0.04    0.04   1
 -18  -2   8    0.02    0.02   1
 -18   2  -8   -0.01    0.04   1
  -8 -18  -2    0.00    0.05   1
  -8 -18   2   -0.06    0.05   1
  -8  18  -2   -0.08    0.03   1
  -8  18   2   -0.04    0.03   1
  -2  -8 -18    0.02    0.04   1
  -2  -8  18   -0.01    0.05   1
  -2  -8  18   -0.02    0.03   1
  -2   8  18   -0.01    0.04   1
   2  -8 -18   -0.06    0.04   1
   2  -8  18    0.06    0.05   1
   2  -8  18   -0.02    0.03   1
   2   8  18    0.09    0.04   1
   8 -18  -2   -0.09    0.03   1
   8 -18   2    0.07    0.04   1
   8  18   2    0.01    0.03   1
  18  -2   8    0.03    0.03   1
  18   2  -8    0.05    0.02   1
  18   2   8   -0.02    0.03   1
 -18  -2 -10    0.01    0.04   1
 -18  -2  10    0.04    0.02   1
 -18  -2  10    0.10    0.02   1
 -18   2 -10    0.06    0.04   1
 -10 -18  -2    0.05    0.05   1
 -10 -18   2    0.11    0.06   1
 -10  18  -2    0.12    0.04   1
 -10  18   2    0.04    0.03   1
  -2 -10 -18    0.08    0.05   1
  -2 -10  18   -0.01    0.06   1
  -2 -10  18    0.08    0.04   1
  -2  10  18    0.12    0.04   1
   2 -10 -18    0.07    0.05   1
   2 -10  18    0.02    0.05   1
   2 -10  18    0.09    0.04   1
   2  10  18    0.02    0.04   1
  10 -18  -2    0.06    0.04   1
  10 -18   2    0.05    0.04   1
  10  18  -2    0.10    0.03   1
  10  18   2    0.04    0.03   1
  18  -2  10   -0.02    0.03   1
  18   2  10    0.09    0.04   1
 -18  -2 -12    0.01    0.05   1
 -18  -2  12   -0.01    0.02   1
 -18  -2  12    0.02    0.02   1
 -18   2 -12    0.03    0.05   1
 -12 -18  -2    0.00    0.06   1
 -12 -18   2   -0.01    0.05   1
 -12  18  -2    0.02    0.04   1
 -12  18   2    0.00    0.03   1
  -2 -12 -18    0.13    0.06   1
  -2 -12  18   -0.06    0.05   1
  -2 -12  18    0.09    0.04   1
  -2  12  18    0.09    0.04   1
   2 -12 -18    0.08    0.05   1
   2 -12  18   -0.03    0.04   1
   2  12  18    0.08    0.04   1
  12 -18  -2    0.00    0.04   1
  12 -18   2   -0.02    0.04   1
  12  18  -2    0.02    0.04   1
  12  18   2   -0.01    0.03   1
  18  -2  12    0.01    0.03   1
  18   2  12    0.07    0.03   1
 -18  -2 -14    0.14    0.07   1
 -18  -2  14    0.12    0.03   1
 -18   2 -14    0.08    0.06   1
 -14  18  -2    0.21    0.05   1
 -14  18   2    0.22    0.04   1
  -2 -14  18    0.20    0.05   1
  -2  14  18    0.16    0.05   1
   2 -14 -18    0.21    0.06   1
   2 -14  18    0.13    0.04   1
   2  14  18    0.20    0.05   1
  14 -18  -2    0.23    0.05   1
  14 -18   2    0.17    0.05   1
  14  18  -2    0.16    0.04   1
  14  18   2    0.13    0.04   1
  18  -2  14    0.14    0.04   1
  18   2  14    0.10    0.03   1
 -18  -2  16    0.29    0.04   1
 -18  -2  16    0.29    0.04   1
 -16  18   2    0.30    0.05   1
  -2  16  18    0.37    0.06   1
   2 -16 -18    0.27    0.07   1
   2 -16  18    0.28    0.06   1
   2  16  18    0.26    0.05   1
  16 -18  -2    0.46    0.06   1
  16 -18   2    0.35    0.06   1
  16  18  -2    0.35    0.05   1
  16  18   2    0.38    0.05   1
  18  -2  16    0.36    0.05   1
  18   2  16    0.33    0.04   1
 -18  -4   0    0.37    0.04   1
  -4   0 -18    0.33    0.05   1
  -4   0  18    0.37    0.04   1
   0 -18  -4    0.29    0.05   1
   0 -18   4    0.41    0.06   1
   0  18  -4    0.38    0.05   1
   0  18   4    0.34    0.05   1
   4   0 -18    0.37    0.05   1
   4   0  18    0.33    0.05   1
  18  -4   0    0.31    0.04   1
  18   4   0    0.51    0.04   1
 -18  -4  -2    0.45    0.05   1
 -18  -4   2    0.54    0.05   1
  -4  -2 -18    0.36    0.05   1
  -4  -2  18    0.38    0.05   1
  -4  -2  18    0.46    0.05   1
  -4   2 -18    0.33    0.06   1
  -4   2  18    0.39    0.05   1
  -2 -18  -4    0.33    0.06   1
  -2 -18   4    0.40    0.06   1
  -2  18  -4    0.36    0.05   1
  -2  18   4    0.42    0.05   1
   2 -18  -4    0.41    0.06   1
   2 -18   4    0.46    0.06   1
   2  18  -4    0.37    0.05   1
   2  18   4    0.47    0.06   1
   4  -2 -18    0.37    0.05   1
   4  -2  18    0.75    0.07   1
   4   2  18    0.41    0.05   1
  18  -4  -2    0.42    0.03   1
  18  -4  -2    0.43    0.03   1
  18  -4   2    0.42    0.04   1
  18   4  -2    0.41    0.04   1
  18   4   2    0.50    0.04   1
 -18  -4  -4    0.64    0.07   1
 -18  -4   4    0.71    0.05   1
 -18   4  -4    0.76    0.06   1
  -4 -18  -4    0.56    0.07   1
  -4 -18   4    0.71    0.08   1
  -4  -4 -18    0.71    0.09   1
  -4  -4  18    0.63    0.07   1
  -4  -4  18    0.55    0.06   1
  -4   4  18    0.58    0.06   1
  -4  18  -4    0.56    0.06   1
  -4  18   4    0.73    0.07   1
   4 -18  -4    0.61    0.06   1
   4 -18   4    0.74    0.08   1
   4  -4 -18    0.71    0.07   1
   4  -4  18    0.71    0.07   1
   4   4  18    0.76    0.07   1
   4  18  -4    0.68    0.06   1
   4  18   4    0.72    0.07   1
  18  -4   4    0.76    0.05   1
  18   4  -4    0.62    0.04   1
  18   4   4    0.70    0.05   1
 -18  -4  -6    1.36    0.08   1
 -18  -4   6    1.38    0.06   1
 -18   4  -6    1.16    0.07   1
  -6 -18  -4    1.31    0.10   1
  -6 -18   4    1.40    0.10   1
  -6  18  -4    1.33    0.08   1
  -6  18   4    1.49    0.08   1
  -4  -6 -18    1.31    0.10   1
  -4  -6  18    1.21    0.09   1
  -4  -6  18    1.17    0.08   1
  -4   6  18    1.30    0.07   1
   4  -6 -18    1.31    0.08   1
   4  -6  18    1.26    0.09   1
   4  -6  18    1.29    0.08   1
   4   6  18    1.39    0.08   1
   6 -18  -4    1.34    0.08   1
   6 -18   4    1.40    0.09   1
   6  18  -4    1.36    0.08   1
   6  18   4    1.24    0.08   1
  18  -4   6    1.31    0.06   1
  18   4  -6    1.24    0.05   1
  18   4   6    1.37    0.07   1
 -18  -4  -8    0.26    0.05   1
 -18  -4   8    0.32    0.03   1
 -18   4  -8    0.44    0.06   1
  -8 -18  -4    0.27    0.06   1
  -8 -18   4    0.34    0.06   1
  -8  18  -4    0.33    0.05   1
  -8  18   4    0.36    0.05   1
  -4  -8 -18    0.30    0.06   1
  -4  -8  18    0.33    0.06   1
  -4  -8  18    0.58    0.07   1
  -4   8  18    0.24    0.04   1
   4  -8 -18    0.30    0.05   1
   4  -8  18    0.38    0.07   1
   4  -8  18    0.51    0.06   1
   4   8  18    0.27    0.05   1
   8 -18  -4    0.34    0.05   1
   8 -18   4    0.30    0.06   1
   8  18  -4    0.32    0.05   1
   8  18   4    0.28    0.04   1
  18  -4   8    0.28    0.04   1
  18   4  -8    0.35    0.03   1
  18   4   8    0.31    0.04   1
 -18  -4 -10    0.08    0.05   1
 -18  -4  10    0.05    0.03   1
 -18   4 -10    0.05    0.05   1
 -10 -18  -4    0.02    0.05   1
 -10 -18   4    0.08    0.06   1
 -10  18  -4    0.09    0.04   1
 -10  18   4    0.03    0.03   1
  -4 -10 -18    0.13    0.05   1
  -4 -10  18    0.13    0.06   1
  -4 -10  18    0.04    0.04   1
  -4  10  18    0.04    0.03   1
   4 -10 -18    0.10    0.05   1
   4 -10  18    0.08    0.05   1
   4 -10  18    0.02    0.03   1
   4  10  18   -0.01    0.03   1
  10 -18  -4    0.07    0.04   1
  10 -18   4    0.08    0.05   1
  10  18  -4    0.05    0.04   1
  10  18   4    0.04    0.03   1
  18  -4  10   -0.02    0.03   1
  18   4 -10    0.11    0.02   1
  18   4  10    0.05    0.04   1
 -18  -4 -12    0.14    0.06   1
 -18  -4  12    0.02    0.03   1
 -18   4 -12   -0.03    0.05   1
 -12 -18   4    0.11    0.06   1
 -12  18  -4   -0.04    0.04   1
 -12  18   4    0.03    0.03   1
  -4 -12 -18   -0.03    0.06   1
  -4 -12  18   -0.03    0.05   1
  -4 -12  18   -0.02    0.04   1
  -4  12  18    0.13    0.05   1
   4 -12 -18    0.06    0.05   1
   4 -12  18    0.09    0.04   1
   4  12  18    0.03    0.04   1
  12 -18  -4    0.02    0.04   1
  12 -18   4    0.05    0.05   1
  12  18  -4   -0.04    0.03   1
  12  18   4    0.05    0.04   1
  18  -4  12    0.12    0.04   1
  18   4  12   -0.01    0.03   1
 -18  -4  14    0.73    0.06   1
 -18  -4  14    0.71    0.05   1
 -18   4 -14    0.65    0.08   1
 -14  18  -4    0.80    0.08   1
 -14  18   4    0.85    0.07   1
  -4  14  18    1.03    0.09   1
   4 -14 -18    0.64    0.07   1
   4 -14  18    0.77    0.08   1
   4  14  18    0.83    0.09   1
  14 -18  -4    0.88    0.08   1
  14 -18   4    0.88    0.09   1
  14  18  -4    0.84    0.07   1
  14  18   4    0.72    0.08   1
  18  -4  14    0.94    0.07   1
  18   4  14    0.85    0.07   1
 -18  -4  16    1.43    0.07   1
 -16  18   4    1.47    0.08   1
  -4  16  18    1.50    0.10   1
   4 -16 -18    1.40    0.11   1
   4 -16  18    1.32    0.10   1
   4  16 -18    1.41    0.11   1
   4  16  18    1.54    0.10   1
  16 -18  -4    1.44    0.08   1
  16 -18   4    1.51    0.11   1
  16 -18   4    1.38    0.08   1
  16  18  -4    1.40    0.09   1
  16  18   4    1.65    0.09   1
  18  -4  16    1.52    0.09   1
  18   4  16    1.21    0.09   1
 -18  -6   0    0.31    0.05   1
  -6   0 -18    0.29    0.06   1
  -6   0  18    0.22    0.04   1
  -6   0  18    0.30    0.04   1
   0 -18  -6    0.34    0.06   1
   0 -18   6    0.31    0.06   1
   0  18  -6    0.30    0.04   1
   0  18   6    0.36    0.05   1
   6   0  18    0.33    0.05   1
  18  -6   0    0.41    0.04   1
  18  -6   0    0.31    0.04   1
  18   6   0    0.31    0.04   1
 -18  -6  -2    0.48    0.05   1
 -18  -6   2    0.54    0.06   1
  -6  -2 -18    0.37    0.06   1
  -6  -2  18    0.37    0.05   1
  -6  -2  18    0.49    0.05   1
  -6   2 -18    0.48    0.07   1
  -6   2  18    0.50    0.05   1
  -2 -18  -6    0.48    0.06   1
  -2 -18   6    0.46    0.07   1
  -2  18  -6    0.50    0.06   1
  -2  18   6    0.57    0.07   1
   2 -18  -6    0.48    0.06   1
   2 -18   6    0.61    0.07   1
   2  18  -6    0.50    0.06   1
   2  18   6    0.55    0.06   1
   6  -2 -18    0.56    0.06   1
   6  -2  18    0.55    0.06   1
   6   2  18    0.47    0.05   1
  18  -6  -2    0.49    0.03   1
  18  -6  -2    0.61    0.03   1
  18  -6   2    0.43    0.05   1
  18  -6   2    0.46    0.04   1
  18   6  -2    0.44    0.04   1
  18   6   2    0.51    0.05   1
 -18  -6  -4    1.32    0.08   1
 -18  -6   4    1.39    0.07   1
  -6  -4 -18    1.15    0.09   1
  -6  -4  18    1.27    0.08   1
  -6  -4  18    1.28    0.07   1
  -6   4 -18    1.02    0.09   1
  -6   4  18    1.36    0.07   1
  -4 -18  -6    1.29    0.09   1
  -4 -18   6    1.45    0.10   1
  -4  18  -6    1.35    0.08   1
  -4  18   6    1.46    0.08   1
   4 -18  -6    1.27    0.09   1
   4 -18   6    1.29    0.10   1
   4  18  -6    1.33    0.08   1
   4  18   6    1.37    0.08   1
   6  -4 -18    1.37    0.08   1
   6  -4  18    1.17    0.08   1
   6   4  18    1.39    0.08   1
  18  -6   4    1.38    0.07   1
  18  -6   4    1.40    0.06   1
  18   6  -4    1.37    0.06   1
  18   6   4    1.32    0.06   1
 -18  -6  -6    1.88    0.10   1
  -6 -18  -6    1.94    0.11   1
  -6 -18   6    1.64    0.11   1
  -6  -6 -18    1.73    0.11   1
  -6  -6  18    1.91    0.10   1
  -6  -6  18    1.72    0.09   1
  -6   6  18    1.90    0.08   1
  -6  18  -6    1.95    0.10   1
  -6  18   6    1.90    0.09   1
   6 -18  -6    1.87    0.10   1
   6 -18   6    1.95    0.11   1
   6  -6 -18    1.97    0.09   1
   6  -6  18    1.73    0.10   1
   6  -6  18    1.99    0.09   1
   6   6  18    2.01    0.10   1
   6  18  -6    2.14    0.10   1
   6  18   6    1.73    0.09   1
  18  -6   6    1.83    0.08   1
  18  -6   6    1.82    0.07   1
  18   6  -6    2.00    0.06   1
  18   6   6    1.73    0.08   1
 -18  -6  -8    0.60    0.06   1
  -8 -18  -6    0.71    0.08   1
  -8 -18   6    0.42    0.06   1
  -8  18  -6    0.63    0.07   1
  -8  18   6    0.56    0.06   1
  -6  -8 -18    0.54    0.07   1
  -6  -8  18    0.56    0.06   1
  -6  -8  18    0.54    0.07   1
  -6   8  18    0.57    0.06   1
   6  -8 -18    0.59    0.07   1
   6  -8  18    0.50    0.06   1
   6  -8  18    0.69    0.07   1
   6   8  18    0.60    0.07   1
   8 -18  -6    0.58    0.06   1
   8 -18   6    0.66    0.08   1
   8  18  -6    0.58    0.07   1
   8  18   6    0.55    0.06   1
  18  -6   8    0.62    0.07   1
  18  -6   8    0.60    0.05   1
  18   6  -8    0.53    0.04   1
  18   6   8    0.71    0.07   1
 -18  -6 -10    0.15    0.06   1
 -10 -18   6    0.14    0.06   1
 -10  18  -6    0.10    0.04   1
 -10  18   6    0.12    0.04   1
  -6 -10 -18    0.10    0.06   1
  -6 -10  18    0.09    0.05   1
  -6 -10  18    0.13    0.04   1
  -6  10  18    0.10    0.04   1
   6 -10 -18    0.14    0.04   1
   6 -10  18    0.08    0.04   1
   6  10  18    0.09    0.03   1
  10 -18  -6    0.16    0.05   1
  10 -18   6   -0.01    0.05   1
  10  18  -6    0.09    0.04   1
  10  18   6    0.09    0.04   1
  18  -6  10    0.04    0.04   1
  18  -6  10    0.00    0.03   1
  18   6 -10    0.08    0.02   1
  18   6  10    0.04    0.03   1
 -18  -6 -12   -0.01    0.05   1
 -18  -6  12    0.05    0.03   1
 -12 -18   6    0.01    0.06   1
 -12  18  -6   -0.03    0.04   1
 -12  18   6   -0.02    0.03   1
  -6 -12  18    0.01    0.05   1
  -6 -12  18    0.00    0.04   1
  -6  12  18    0.03    0.04   1
   6 -12 -18    0.03    0.05   1
   6 -12  18   -0.06    0.03   1
   6  12  18    0.06    0.04   1
  12 -18  -6   -0.02    0.04   1
  12 -18   6    0.01    0.05   1
  12  18  -6    0.00    0.03   1
  12  18   6    0.12    0.04   1
  18  -6  12    0.02    0.03   1
  18   6 -12    0.02    0.02   1
  18   6  12    0.02    0.03   1
 -18  -6  14    0.79    0.07   1
 -14  18   6    0.85    0.07   1
  -6  14  18    0.79    0.09   1
   6 -14 -18    0.89    0.09   1
   6 -14  18    0.68    0.08   1
   6  14  18    1.06    0.08   1
  14 -18  -6    0.84    0.08   1
  14 -18   6    0.79    0.10   1
  14  18  -6    0.93    0.08   1
  14  18   6    1.06    0.08   1
  18  -6  14    1.17    0.08   1
  18   6  14    0.91    0.08   1
 -18  -6  16    1.48    0.09   1
 -18  -6  16    1.56    0.07   1
 -16  18   6    1.60    0.08   1
  -6  16  18    1.70    0.10   1
   6 -16 -18    1.46    0.11   1
   6 -16  18    1.68    0.10   1
   6  16 -18    1.70    0.10   1
   6  16  18    1.66    0.11   1
  16 -18  -6    1.73    0.09   1
  16 -18   6    1.59    0.12   1
  16 -18   6    1.65    0.09   1
  16  18  -6    1.73    0.09   1
  16  18   6    1.57    0.13   1
  18  -6  16    1.76    0.10   1
 -18  -8   0    0.17    0.04   1
  -8   0 -18    0.17    0.05   1
  -8   0  18    0.23    0.04   1
  -8   0  18    0.18    0.04   1
   0 -18  -8    0.18    0.05   1
   0 -18   8    0.15    0.05   1
   0  18  -8    0.16    0.04   1
   0  18   8    0.16    0.04   1
   8   0  18    0.11    0.04   1
  18  -8   0    0.19    0.03   1
  18  -8   0    0.21    0.03   1
  18   8   0    0.20    0.03   1
 -18  -8  -2   -0.01    0.04   1
 -18  -8   2    0.03    0.04   1
  -8  -2 -18    0.01    0.05   1
  -8  -2  18   -0.03    0.03   1
  -8  -2  18    0.02    0.03   1
  -8   2 -18    0.05    0.05   1
  -8   2  18   -0.02    0.03   1
  -2 -18  -8   -0.01    0.05   1
  -2 -18   8   -0.01    0.05   1
  -2  18  -8    0.03    0.04   1
  -2  18   8   -0.04    0.03   1
   2 -18  -8   -0.02    0.05   1
   2 -18   8    0.08    0.05   1
   2  18  -8   -0.01    0.03   1
   2  18   8   -0.03    0.04   1
   8  -2  18    0.03    0.03   1
   8   2  18   -0.03    0.03   1
  18  -8  -2    0.00    0.02   1
  18  -8  -2    0.03    0.01   1
  18  -8   2    0.02    0.02   1
  18   8  -2    0.01    0.03   1
  18   8   2    0.03    0.03   1
 -18  -8  -4    0.37    0.06   1
 -18  -8   4    0.32    0.05   1
  -8  -4 -18    0.25    0.06   1
  -8  -4  18    0.38    0.05   1
  -8  -4  18    0.36    0.05   1
  -8   4 -18    0.27    0.06   1
  -8   4  18    0.34    0.04   1
  -4 -18  -8    0.39    0.07   1
  -4 -18   8    0.29    0.06   1
  -4  18  -8    0.35    0.05   1
  -4  18   8    0.28    0.05   1
   4 -18  -8    0.29    0.05   1
   4 -18   8    0.35    0.06   1
   4  18  -8    0.33    0.05   1
   4  18   8    0.32    0.05   1
   8  -4 -18    0.37    0.05   1
   8  -4  18    0.29    0.05   1
   8   4  18    0.26    0.04   1
  18  -8   4    0.36    0.04   1
  18  -8   4    0.29    0.03   1
  18   8  -4    0.34    0.04   1
  18   8   4    0.29    0.04   1
 -18  -8  -6    0.54    0.07   1
 -18  -8   6    0.70    0.07   1
  -8  -6 -18    0.49    0.07   1
  -8  -6  18    0.99    0.08   1
  -8  -6  18    0.65    0.07   1
  -8   6  18    0.57    0.06   1
  -6 -18  -8    0.37    0.06   1
  -6 -18   8    0.69    0.08   1
  -6  18  -8    0.61    0.07   1
  -6  18   8    0.54    0.06   1
   6 -18  -8    0.63    0.08   1
   6 -18   8    0.57    0.07   1
   6  18  -8    0.66    0.06   1
   6  18   8    0.71    0.07   1
   8  -6 -18    0.56    0.07   1
   8  -6  18    0.63    0.08   1
   8  -6  18    0.56    0.07   1
   8   6  18    0.54    0.06   1
  18  -8   6    0.59    0.06   1
  18  -8   6    0.59    0.05   1
  18   8  -6    0.57    0.05   1
  18   8   6    0.52    0.06   1
 -18  -8  -8    0.09    0.05   1
 -18  -8   8    0.06    0.04   1
  -8 -18   8   -0.06    0.05   1
  -8  -8 -18    0.00    0.06   1
  -8  -8  18   -0.03    0.05   1
  -8  -8  18   -0.06    0.04   1
  -8  18  -8   -0.06    0.04   1
  -8  18   8    0.00    0.04   1
   8 -18   8    0.07    0.05   1
   8  -8 -18   -0.05    0.04   1
   8  -8  18    0.05    0.03   1
   8  18  -8    0.03    0.04   1
   8  18   8   -0.01    0.04   1
  18  -8   8    0.00    0.04   1
  18  -8   8    0.03    0.03   1
  18   8  -8    0.06    0.02   1
  18   8   8    0.01    0.03   1
 -18  -8 -10    0.25    0.06   1
 -18  -8  10    0.21    0.05   1
 -10 -18   8    0.19    0.06   1
 -10  18  -8    0.28    0.06   1
 -10  18   8    0.29    0.05   1
  -8 -10  18    0.31    0.07   1
  -8 -10  18    0.27    0.05   1
  -8  10  18    0.32    0.04   1
   8 -10 -18    0.27    0.05   1
   8 -10  18    0.31    0.05   1
   8  10  18    0.26    0.06   1
  10 -18  -8    0.24    0.05   1
  10 -18   8    0.24    0.06   1
  10  18  -8    0.22    0.04   1
  10  18   8    0.25    0.05   1
  18  -8  10    0.21    0.05   1
  18  -8  10    0.34    0.05   1
  18   8 -10    0.29    0.03   1
  18   8  10    0.24    0.04   1
 -18  -8  12    0.12    0.05   1
 -12  18  -8    0.15    0.05   1
 -12  18   8    0.14    0.04   1
  -8 -12  18    0.05    0.06   1
  -8  12  18    0.22    0.04   1
   8 -12 -18    0.07    0.04   1
   8 -12  18    0.18    0.04   1
  12 -18  -8    0.11    0.04   1
  12 -18   8    0.06    0.06   1
  12  18  -8    0.09    0.04   1
  12  18   8    0.06    0.04   1
  18  -8  12   -0.02    0.05   1
  18  -8  12    0.13    0.04   1
  18   8 -12    0.17    0.03   1
  18   8  12    0.13    0.04   1
 -18  -8  14    0.20    0.05   1
 -14  18   8    0.22    0.04   1
   8 -14 -18    0.17    0.05   1
   8 -14  18    0.15    0.05   1
   8  14 -18    0.29    0.05   1
   8  14  18    0.17    0.06   1
  14 -18  -8    0.20    0.05   1
  14 -18   8    0.19    0.06   1
  14 -18   8    0.17    0.04   1
  14  18  -8    0.23    0.05   1
  18  -8  14    0.25    0.04   1
  18   8 -14    0.31    0.04   1
  18   8  14    0.56    0.07   1
 -18  -8  16    0.56    0.07   1
 -16  18   8    0.54    0.06   1
  -8  16  18    0.71    0.09   1
   8 -16 -18    0.47    0.07   1
   8 -16  18    0.34    0.06   1
   8  16 -18    0.53    0.06   1
   8  16  18    0.37    0.06   1
  16 -18  -8    0.57    0.05   1
  16 -18   8    0.56    0.09   1
  16 -18   8    0.55    0.06   1
  16  18  -8    0.64    0.07   1
  16  18   8    0.56    0.06   1
  18  -8  16    0.57    0.05   1
  18   8  16    0.63    0.07   1
 -18 -10   0    0.19    0.05   1
 -10   0 -18    0.30    0.06   1
 -10   0  18    0.20    0.04   1
 -10   0  18    0.24    0.04   1
   0 -18 -10    0.17    0.06   1
   0 -18  10    0.15    0.07   1
   0  18 -10    0.21    0.04   1
   0  18  10    0.18    0.05   1
  10   0  18    0.13    0.04   1
  18 -10   0    0.22    0.03   1
  18 -10   0    0.29    0.03   1
  18  10   0    0.23    0.04   1
 -18 -10  -2    0.03    0.05   1
 -18 -10   2    0.13    0.05   1
 -10  -2 -18    0.01    0.04   1
 -10  -2  18    0.07    0.04   1
 -10  -2  18    0.09    0.03   1
 -10   2 -18    0.11    0.05   1
 -10   2  18    0.06    0.04   1
 -10   2  18    0.06    0.03   1
  -2 -18 -10    0.03    0.05   1
  -2 -18  10    0.01    0.05   1
  -2  18 -10    0.13    0.04   1
  -2  18  10    0.00    0.04   1
   2 -18 -10    0.05    0.05   1
   2 -18  10   -0.03    0.05   1
   2  18 -10    0.07    0.03   1
   2  18  10    0.13    0.04   1
  10  -2  18    0.02    0.03   1
  10   2  18    0.13    0.03   1
  18 -10  -2    0.06    0.02   1
  18 -10   2    0.07    0.03   1
  18 -10   2    0.02    0.02   1
  18  10  -2    0.05    0.03   1
  18  10   2    0.04    0.03   1
 -18 -10  -4    0.13    0.05   1
 -18 -10   4    0.13    0.05   1
 -10  -4 -18    0.02    0.05   1
 -10  -4  18    0.11    0.05   1
 -10  -4  18    0.13    0.03   1
 -10   4 -18    0.07    0.05   1
 -10   4  18    0.10    0.03   1
  -4 -18 -10    0.02    0.06   1
  -4 -18  10    0.00    0.04   1
  -4  18 -10    0.08    0.04   1
  -4  18  10    0.12    0.04   1
   4 -18 -10    0.07    0.04   1
   4 -18  10    0.24    0.06   1
   4  18 -10    0.14    0.03   1
   4  18  10    0.02    0.04   1
  10  -4  18    0.05    0.03   1
  10   4  18   -0.01    0.03   1
  18 -10  -4    0.08    0.02   1
  18 -10  -4    0.07    0.02   1
  18 -10   4    0.14    0.04   1
  18 -10   4    0.07    0.03   1
  18  10  -4    0.14    0.03   1
  18  10   4    0.05    0.03   1
 -18 -10  -6    0.18    0.06   1
 -18 -10   6    0.09    0.05   1
 -10  -6  18    0.12    0.05   1
 -10  -6  18    0.09    0.04   1
 -10   6  18    0.08    0.03   1
  -6 -18  10    0.07    0.06   1
  -6  18 -10    0.17    0.04   1
  -6  18  10    0.08    0.04   1
   6 -18 -10    0.08    0.05   1
   6 -18  10    0.08    0.05   1
   6  18 -10    0.20    0.04   1
   6  18  10    0.12    0.04   1
  10  -6 -18    0.08    0.04   1
  10  -6  18    0.10    0.04   1
  10   6  18    0.14    0.04   1
  18 -10   6    0.09    0.04   1
  18 -10   6    0.07    0.03   1
  18  10  -6    0.07    0.03   1
  18  10   6    0.15    0.04   1
 -18 -10  -8    0.17    0.06   1
 -18 -10   8    0.28    0.05   1
 -10  -8  18    0.27    0.06   1
 -10  -8  18    0.26    0.05   1
 -10   8  18    0.24    0.04   1
  -8 -18  10    0.38    0.08   1
  -8  18 -10    0.34    0.05   1
  -8  18  10    0.25    0.05   1
   8 -18 -10    0.26    0.05   1
   8 -18  10    0.42    0.08   1
   8  18 -10    0.22    0.04   1
   8  18  10    0.28    0.05   1
  10  -8 -18    0.20    0.04   1
  10  -8  18    0.27    0.04   1
  10   8  18    0.24    0.05   1
  18 -10   8    0.21    0.05   1
  18 -10   8    0.25    0.04   1
  18  10  -8    0.24    0.03   1
  18  10   8    0.27    0.04   1
 -18 -10  10    0.71    0.08   1
 -10 -10  18    0.62    0.08   1
 -10 -10  18    0.55    0.06   1
 -10  10  18    0.55    0.06   1
 -10  18 -10    0.71    0.08   1
 -10  18  10    0.64    0.07   1
  10 -18 -10    0.50    0.06   1
  10 -10 -18    0.75    0.07   1
  10 -10  18    0.50    0.06   1
  10  10  18    0.61    0.07   1
  10  18 -10    0.53    0.06   1
  10  18  10    0.65    0.07   1
  18 -10  10    0.64    0.07   1
  18 -10  10    0.74    0.07   1
  18  10 -10    0.52    0.05   1
  18  10  10    0.68    0.06   1
 -18 -10  12    0.22    0.05   1
 -12  18  10    0.24    0.04   1
 -10 -12  18    0.22    0.07   1
 -10  12  18    0.17    0.04   1
  10 -12 -18    0.20    0.05   1
  10 -12  18    0.24    0.05   1
  12 -18 -10    0.20    0.05   1
  12 -18  10    0.22    0.04   1
  12  18 -10    0.19    0.04   1
  18 -10  12    0.20    0.06   1
  18 -10  12    0.25    0.04   1
  18  10 -12    0.25    0.04   1
  18  10  12    0.19    0.04   1
 -18 -10  14    0.08    0.05   1
 -14  18  10    0.09    0.04   1
 -10  14  18    0.03    0.03   1
  10 -14 -18    0.01    0.05   1
  10 -14  18    0.10    0.05   1
  10  14 -18    0.29    0.06   1
  10  14  18    0.00    0.04   1
  14 -18 -10    0.02    0.04   1
  14 -18  10    0.03    0.04   1
  14  18 -10    0.05    0.04   1
  14  18  10    0.09    0.05   1
  18 -10  14    0.15    0.04   1
  18  10 -14    0.02    0.04   1
 -18 -10  16    0.05    0.06   1
 -16  18  10    0.20    0.04   1
 -10  16  18    0.17    0.05   1
  10 -16 -18    0.26    0.06   1
  10 -16  18    0.24    0.06   1
  10  16 -18    0.22    0.06   1
  10  16  18    0.15    0.06   1
  16 -18 -10    0.07    0.04   1
  16 -18  10    0.20    0.04   1
  16  18 -10    0.20    0.05   1
  16  18  10    0.19    0.05   1
  18  10 -16    0.35    0.05   1
  18  10  16    0.15    0.05   1
 -18 -12   0    0.23    0.06   1
 -12   0  18    0.23    0.04   1
 -12   0  18    0.26    0.04   1
   0 -18 -12    0.18    0.06   1
   0  18 -12    0.22    0.05   1
   0  18  12    0.30    0.05   1
  12   0  18    0.19    0.04   1
  18 -12   0    0.26    0.04   1
  18 -12   0    0.27    0.03   1
  18  12   0    0.27    0.04   1
 -18 -12  -2   -0.01    0.05   1
 -18 -12   2   -0.05    0.05   1
 -12  -2  18    0.02    0.04   1
 -12  -2  18    0.07    0.03   1
 -12   2  18    0.08    0.03   1
 -12   2  18    0.01    0.03   1
  -2 -18 -12    0.08    0.05   1
  -2  18 -12    0.04    0.04   1
  -2  18  12    0.03    0.04   1
   2 -18 -12   -0.07    0.05   1
   2  18 -12    0.05    0.04   1
   2  18  12    0.03    0.04   1
  12  -2  18   -0.02    0.03   1
  12   2  18    0.09    0.04   1
  18 -12  -2    0.04    0.03   1
  18 -12  -2    0.03    0.02   1
  18 -12   2    0.02    0.03   1
  18 -12   2    0.07    0.03   1
  18  12  -2    0.08    0.03   1
  18  12   2    0.05    0.03   1
 -18 -12  -4    0.04    0.05   1
 -18 -12   4    0.05    0.05   1
 -12  -4  18    0.09    0.04   1
 -12  -4  18    0.09    0.04   1
 -12   4  18    0.01    0.03   1
 -12   4  18    0.02    0.03   1
  -4  18 -12    0.03    0.05   1
  -4  18  12    0.05    0.04   1
   4 -18 -12    0.05    0.05   1
   4  18 -12    0.04    0.04   1
   4  18  12    0.04    0.04   1
  12  -4  18    0.07    0.04   1
  12   4  18    0.11    0.04   1
  18 -12  -4    0.13    0.02   1
  18 -12  -4    0.10    0.02   1
  18 -12   4    0.02    0.04   1
  18 -12   4    0.11    0.03   1
  18  12  -4    0.06    0.03   1
  18  12   4    0.06    0.03   1
 -18 -12  -6    0.07    0.05   1
 -18 -12   6    0.00    0.05   1
 -12  -6  18    0.10    0.05   1
 -12  -6  18    0.01    0.03   1
 -12   6  18    0.02    0.03   1
  -6  18 -12    0.09    0.04   1
  -6  18  12   -0.01    0.04   1
   6 -18 -12   -0.01    0.05   1
   6  18 -12    0.09    0.04   1
   6  18  12   -0.04    0.04   1
  12  -6  18    0.07    0.04   1
  12   6  18    0.01    0.03   1
  18 -12  -6    0.01    0.02   1
  18 -12  -6    0.01    0.02   1
  18 -12   6    0.03    0.04   1
  18 -12   6   -0.02    0.03   1
  18  12  -6    0.07    0.04   1
  18  12   6    0.08    0.03   1
 -18 -12   8    0.12    0.06   1
 -12  -8  18    0.09    0.06   1
 -12  -8  18    0.16    0.04   1
 -12   8  18    0.14    0.03   1
  -8  18 -12    0.18    0.05   1
  -8  18  12    0.12    0.04   1
   8 -18 -12    0.07    0.05   1
   8  18 -12    0.07    0.04   1
   8  18  12    0.12    0.04   1
  12  -8 -18    0.17    0.04   1
  12  -8  18    0.21    0.05   1
  12   8  18    0.19    0.04   1
  18 -12   8    0.18    0.05   1
  18 -12   8    0.16    0.04   1
  18  12  -8    0.12    0.04   1
  18  12   8    0.16    0.04   1
 -18 -12  10    0.25    0.06   1
 -12 -10  18    0.16    0.06   1
 -12 -10  18    0.19    0.05   1
 -12  10  18    0.24    0.04   1
 -10  18  12    0.26    0.05   1
  10 -18 -12    0.20    0.05   1
  10 -18  12    0.20    0.04   1
  10  18 -12    0.26    0.05   1
  12 -10 -18    0.22    0.04   1
  12 -10  18    0.23    0.04   1
  18 -12  10    0.15    0.06   1
  18 -12  10    0.30    0.05   1
  18  12 -10    0.21    0.04   1
  18  12  10    0.25    0.04   1
 -18 -12  12    0.18    0.06   1
 -12 -12  18    0.18    0.07   1
 -12  12  18    0.17    0.04   1
 -12  18  12    0.23    0.04   1
  12 -18 -12    0.27    0.05   1
  12 -18  12    0.14    0.04   1
  12 -12 -18    0.16    0.05   1
  12 -12  18    0.08    0.05   1
  12  12  18    0.11    0.05   1
  12  18 -12    0.05    0.04   1
  12  18  12    0.17    0.05   1
  18 -12  12    0.25    0.12   1
  18 -12  12    0.22    0.04   1
  18  12 -12    0.16    0.04   1
  18  12  12    0.13    0.07   1
 -18 -12  14   -0.08    0.06   1
 -14  18  12    0.01    0.04   1
 -12  14  18   -0.01    0.04   1
  12 -14 -18    0.02    0.04   1
  12 -14  18   -0.02    0.05   1
  12  14 -18   -0.01    0.05   1
  12  14  18    0.05    0.05   1
  14 -18 -12    0.02    0.04   1
  14 -18  12   -0.04    0.04   1
  14  18 -12   -0.04    0.04   1
  14  18  12    0.05    0.05   1
  18 -12  14    0.06    0.04   1
  18  12 -14    0.06    0.04   1
  18  12  14    0.05    0.05   1
 -18 -12  16    0.32    0.07   1
 -16  18  12    0.30    0.04   1
 -12  16  18    0.23    0.04   1
  12 -16 -18    0.18    0.06   1
  12 -16  18    0.23    0.05   1
  12  16 -18    0.14    0.06   1
  12  16  18    0.29    0.07   1
  16 -18 -12    0.19    0.05   1
  16 -18  12    0.20    0.06   1
  16  18 -12    0.12    0.05   1
  16  18  12    0.17    0.05   1
  18 -12  16    0.25    0.05   1
  18  12 -16    0.56    0.06   1
  18  12  16    0.29    0.06   1
 -18 -14   0   -0.03    0.06   1
 -14   0  18   -0.04    0.03   1
 -14   0  18   -0.03    0.03   1
   0 -18 -14   -0.03    0.05   1
   0  18 -14    0.04    0.04   1
   0  18  14   -0.02    0.04   1
  14   0  18    0.08    0.04   1
  18 -14   0    0.01    0.03   1
  18 -14   0   -0.06    0.02   1
  18  14   0    0.02    0.04   1
 -18 -14  -2    0.05    0.06   1
 -18 -14   2    0.17    0.06   1
 -14  -2  18    0.22    0.04   1
 -14  -2  18    0.16    0.03   1
 -14   2  18    0.21    0.04   1
 -14   2  18    0.16    0.03   1
  -2  18 -14    0.16    0.04   1
  -2  18  14    0.17    0.05   1
   2 -18 -14    0.07    0.06   1
   2  18 -14    0.22    0.05   1
   2  18  14    0.16    0.05   1
  14  -2  18    0.17    0.05   1
  14   2  18    0.24    0.04   1
  18 -14  -2    0.12    0.04   1
  18 -14  -2    0.13    0.03   1
  18 -14   2    0.13    0.04   1
  18 -14   2    0.11    0.03   1
  18  14  -2    0.25    0.05   1
  18  14   2    0.15    0.04   1
 -18 -14  -4    0.84    0.09   1
 -18 -14   4    0.87    0.11   1
 -14  -4  18    0.90    0.08   1
 -14  -4  18    0.89    0.07   1
 -14   4  18    0.75    0.06   1
 -14   4  18    0.71    0.05   1
  -4  18 -14    0.88    0.08   1
  -4  18  14    0.93    0.09   1
   4 -18 -14    0.66    0.07   1
   4  18 -14    0.95    0.08   1
   4  18  14    0.70    0.09   1
  14  -4  18    0.71    0.08   1
  14   4  18    0.77    0.07   1
  18 -14  -4    0.79    0.05   1
  18 -14  -4    0.76    0.04   1
  18 -14   4    0.71    0.08   1
  18 -14   4    0.70    0.06   1
  18  14  -4    0.83    0.07   1
  18  14   4    0.87    0.07   1
 -18 -14   6    0.84    0.09   1
 -14  -6  18    0.86    0.09   1
 -14  -6  18    0.68    0.07   1
 -14   6  18    0.80    0.06   1
 -14   6  18    0.80    0.05   1
  -6  18 -14    0.99    0.08   1
  -6  18  14    0.97    0.09   1
   6 -18 -14    0.86    0.09   1
   6  18 -14    0.91    0.08   1
   6  18  14    0.75    0.08   1
  14  -6  18    0.72    0.08   1
  14   6  18    0.76    0.08   1
  18 -14  -6    0.79    0.05   1
  18 -14   6    0.77    0.09   1
  18 -14   6    0.66    0.07   1
  18  14  -6    0.66    0.07   1
  18  14   6    0.79    0.08   1
 -18 -14   8    0.26    0.07   1
 -14  -8  18    0.26    0.06   1
 -14   8  18    0.16    0.03   1
  -8  18  14    0.34    0.05   1
   8 -18 -14    0.25    0.06   1
   8  18 -14    0.19    0.04   1
   8  18  14    0.34    0.06   1
  14  -8  18    0.23    0.05   1
  14   8  18    0.13    0.05   1
  18 -14  -8    0.27    0.03   1
  18 -14   8    0.22    0.06   1
  18 -14   8    0.20    0.04   1
  18  14  -8    0.20    0.04   1
  18  14   8    0.13    0.04   1
 -18 -14  10   -0.04    0.06   1
 -14 -10  18    0.09    0.07   1
 -14 -10  18    0.07    0.05   1
 -14  10  18    0.08    0.03   1
 -10  18  14    0.09    0.04   1
  10 -18 -14    0.12    0.05   1
  10 -18  14    0.02    0.05   1
  10  18 -14    0.01    0.04   1
  10  18  14    0.03    0.04   1
  14 -10 -18    0.01    0.06   1
  14 -10  18    0.18    0.06   1
  14  10  18    0.04    0.05   1
  18 -14  10    0.03    0.06   1
  18 -14  10   -0.03    0.04   1
  18  14 -10    0.06    0.04   1
 -18 -14  12   -0.06    0.06   1
 -14 -12  18    0.06    0.07   1
 -14  12  18   -0.01    0.03   1
 -12  18  14   -0.01    0.04   1
  12 -18 -14    0.11    0.05   1
  12 -18  14    0.10    0.04   1
  12  18 -14   -0.13    0.05   1
  12  18  14   -0.11    0.04   1
  14 -12 -18   -0.01    0.04   1
  14 -12  18    0.02    0.04   1
  14  12 -18    0.07    0.05   1
  14  12  18    0.04    0.05   1
  18 -14  12   -0.05    0.04   1
  18  14 -12    0.07    0.04   1
  18  14  12   -0.06    0.04   1
 -18 -14  14    0.27    0.07   1
 -14  14  18    0.21    0.04   1
 -14  18  14    0.28    0.04   1
  14 -18 -14    0.27    0.06   1
  14 -18  14    0.25    0.05   1
  14 -14 -18    0.23    0.05   1
  14 -14  18    0.22    0.06   1
  14  14 -18    0.33    0.06   1
  14  14  18    0.07    0.05   1
  14  18 -14    0.14    0.06   1
  14  18  14    0.33    0.07   1
  18  14 -14    0.18    0.05   1
  18  14  14    0.24    0.05   1
 -18 -14  16    0.82    0.10   1
 -16  18  14    0.72    0.07   1
 -14  16  18    0.66    0.07   1
  14 -16 -18    0.69    0.07   1
  14 -16  18    0.78    0.08   1
  14  16 -18    0.99    0.13   1
  14  16  18    1.07    0.11   1
  16 -18  14    0.69    0.07   1
  16  18  14    0.73    0.08   1
  18 -14  16    0.79    0.10   1
  18  14 -16    1.12    0.09   1
  18  14  16    0.81    0.09   1
 -16   0  18    0.03    0.04   1
 -16   0  18    0.11    0.03   1
   0  18 -16    0.03    0.05   1
   0  18  16   -0.01    0.04   1
  16   0  18    0.05    0.04   1
  18 -16   0   -0.01    0.04   1
  18 -16   0   -0.03    0.03   1
  18  16   0    0.06    0.04   1
 -18 -16   2    0.19    0.07   1
 -16  -2  18    0.33    0.05   1
 -16  -2  18    0.37    0.04   1
 -16   2  18    0.45    0.05   1
 -16   2  18    0.36    0.04   1
  -2  18 -16    0.35    0.06   1
  -2  18  16    0.34    0.06   1
   2 -18 -16    0.34    0.08   1
   2  18  16    0.27    0.05   1
  16  -2  18    0.29    0.04   1
  16   2  18    0.35    0.06   1
  18 -16  -2    0.43    0.05   1
  18 -16  -2    0.38    0.04   1
  18 -16   2    0.33    0.06   1
  18 -16   2    0.41    0.05   1
  18  16  -2    0.22    0.04   1
  18  16   2    0.28    0.05   1
 -18 -16   4    1.09    0.12   1
 -16  -4  18    1.44    0.09   1
 -16  -4  18    1.45    0.08   1
 -16   4  18    1.44    0.05   1
  -4  18  16    1.58    0.10   1
   4 -18 -16    1.19    0.11   1
   4  18  16    1.58    0.11   1
  16  -4  18    1.29    0.09   1
  18 -16  -4    1.48    0.08   1
  18 -16   4    1.44    0.10   1
  18 -16   4    1.48    0.08   1
  18  16  -4    1.29    0.08   1
  18  16   4    1.60    0.09   1
 -18 -16   6    1.84    0.13   1
 -16  -6  18    1.78    0.10   1
 -16  -6  18    1.55    0.08   1
 -16   6  18    1.52    0.05   1
 -16   6  18    1.72    0.05   1
  -6  18  16    1.68    0.10   1
   6 -18 -16    1.71    0.12   1
   6 -18  16    1.59    0.10   1
   6  18  16    1.55    0.11   1
  16   6  18    1.80    0.10   1
  18 -16  -6    1.49    0.07   1
  18 -16   6    1.71    0.11   1
  18 -16   6    1.59    0.08   1
  18  16  -6    1.85    0.09   1
  18  16   6    1.80    0.09   1
 -18 -16   8    0.57    0.08   1
 -18  16   8    0.42    0.05   1
 -16  -8  18    0.41    0.07   1
 -16  -8  18    0.57    0.06   1
 -16   8  18    0.47    0.04   1
 -16   8  18    0.48    0.05   1
  -8  18  16    0.58    0.07   1
   8 -18 -16    0.54    0.07   1
   8 -18  16    0.54    0.06   1
   8  18  16    0.38    0.07   1
  16  -8  18    0.52    0.06   1
  16   8  18    0.56    0.07   1
  18 -16  -8    0.55    0.06   1
  18 -16   8    0.59    0.08   1
  18 -16   8    0.62    0.06   1
  18  16  -8    0.51    0.05   1
  18  16   8    0.54    0.06   1
 -18 -16  10    0.05    0.09   1
 -18  16  10    0.15    0.03   1
 -16 -10  18    0.25    0.07   1
 -16 -10  18    0.18    0.05   1
 -16  10  18    0.15    0.03   1
 -10  18  16    0.26    0.05   1
  10 -18 -16    0.13    0.06   1
  10 -18  16    0.19    0.05   1
  10  18 -16    0.12    0.06   1
  10  18  16    0.20    0.06   1
  16 -10  18    0.09    0.05   1
  16  10  18    0.07    0.06   1
  18 -16 -10    0.18    0.03   1
  18 -16  10    0.15    0.05   1
  18  16 -10    0.16    0.04   1
  18  16  10    0.14    0.05   1
 -16 -12  18    0.07    0.07   1
 -16  12  18    0.23    0.04   1
 -12  18  16    0.24    0.05   1
  12 -18 -16    0.29    0.06   1
  12 -18  16    0.26    0.05   1
  12  18 -16    0.19    0.06   1
  12  18  16    0.17    0.07   1
  16 -12 -18    0.30    0.04   1
  16 -12  18    0.17    0.05   1
  16  12 -18    0.34    0.06   1
  16  12  18    0.17    0.06   1
  18 -16 -12    0.28    0.03   1
  18 -16  12    0.12    0.05   1
  18  16 -12    0.18    0.05   1
  18  16  12    0.14    0.05   1
 -16  14  18    1.05    0.07   1
 -14  18  16    0.81    0.08   1
  14 -18 -16    0.85    0.09   1
  14 -18  16    0.86    0.09   1
  14  18 -16    1.07    0.10   1
  14  18  16    1.07    0.11   1
  16 -14  18    0.87    0.10   1
  16  14 -18    0.98    0.10   1
  16  14  18    0.68    0.08   1
  18 -16  14    1.00    0.10   1
  18  16 -14    0.77    0.07   1
  18  16  14    0.79    0.10   1
 -16  16  18    1.25    0.07   1
 -16  18  16    1.04    0.07   1
  16 -18  16    0.99    0.12   1
  16 -16  18    0.90    0.10   1
  16  16  18    1.16    0.11   1
  16  18 -16    1.00    0.11   1
  16  18  16    1.14    0.11   1
  18 -16  16    1.06    0.11   1
  18  16 -16    1.02    0.08   1
  18  16  16    1.17    0.11   1
 -18   0  18    0.02    0.03   1
 -18   0  18    0.10    0.03   1
   0  18  18    0.03    0.04   1
  18 -18   0    0.04    0.05   1
  18 -18   0   -0.01    0.03   1
  18   0  18   -0.02    0.04   1
  18  18   0    0.01    0.04   1
 -18  -2  18    0.04    0.04   1
 -18  -2  18    0.09    0.03   1
 -18   2  18    0.07    0.02   1
 -18   2  18    0.02    0.02   1
  -2  18  18    0.07    0.05   1
   2 -18  18   -0.07    0.05   1
   2  18 -18   -0.02    0.05   1
  18 -18  -2    0.08    0.04   1
  18 -18   2    0.19    0.06   1
  18 -18   2    0.03    0.04   1
  18  -2  18    0.07    0.04   1
  18   2  18   -0.01    0.04   1
  18  18  -2   -0.02    0.04   1
  18  18   2    0.03    0.07   1
 -18  -4  18    0.53    0.06   1
 -18  -4  18    0.80    0.06   1
 -18  18   4    0.61    0.06   1
  -4  18  18    0.57    0.07   1
   4 -18  18    0.46    0.06   1
   4  18  18    0.59    0.08   1
  18 -18  -4    0.60    0.06   1
  18 -18   4    0.54    0.07   1
  18 -18   4    0.60    0.07   1
  18  -4  18    0.81    0.08   1
  18   4  18    0.43    0.06   1
  18  18  -4    0.48    0.06   1
  18  18   4    0.55    0.06   1
 -18  -6  18    0.52    0.06   1
 -18  -6  18    0.61    0.07   1
 -18  18   6    0.62    0.06   1
  -6  18  18    1.36    0.10   1
   6 -18 -18    0.49    0.07   1
   6 -18  18    0.75    0.09   1
   6  18 -18    0.70    0.07   1
   6  18  18    0.54    0.07   1
  18 -18  -6    0.62    0.07   1
  18 -18   6    0.66    0.08   1
  18 -18   6    0.58    0.07   1
  18  -6  18    0.70    0.09   1
  18   6  18    0.63    0.07   1
  18  18  -6    0.76    0.08   1
  18  18   6    0.63    0.06   1
 -18  -8  18   -0.06    0.06   1
 -18  -8  18    0.08    0.04   1
 -18  18   8    0.03    0.03   1
  -8  18  18    0.05    0.05   1
   8 -18 -18    0.14    0.07   1
   8 -18  18   -0.04    0.05   1
   8  18 -18    0.14    0.06   1
   8  18  18   -0.10    0.06   1
  18 -18  -8    0.02    0.05   1
  18 -18   8    0.11    0.04   1
  18  -8  18   -0.03    0.05   1
  18   8  18    0.17    0.05   1
  18  18  -8    0.08    0.04   1
  18  18   8    0.05    0.05   1
 -18 -10  18    0.10    0.07   1
 -18 -10  18    0.02    0.05   1
 -18  18  10    0.04    0.03   1
 -10  18  18    0.24    0.06   1
  10 -18 -18    0.07    0.06   1
  10 -18  18    0.13    0.06   1
  10  18 -18    0.09    0.06   1
  10  18  18   -0.05    0.05   1
  18 -18 -10   -0.05    0.07   1
  18 -18  10    0.12    0.04   1
  18 -10  18   -0.15    0.05   1
  18  10  18   -0.01    0.05   1
  18  18 -10    0.02    0.05   1
  18  18  10    0.02    0.05   1
 -18 -12  18    0.12    0.08   1
 -18  18  12    0.18    0.04   1
 -12  18  18   -0.05    0.05   1
  12 -18 -18    0.01    0.06   1
  12 -18  18    0.22    0.06   1
  12  18 -18    0.16    0.07   1
  12  18  18    0.12    0.06   1
  18 -18  12    0.10    0.05   1
  18 -12  18    0.04    0.06   1
  18  12  18   -0.10    0.06   1
  18  18  12   -0.10    0.05   1
 -14  18  18    0.38    0.06   1
  14 -18  18    0.96    0.11   1
  14  18 -18    0.31    0.08   1
  14  18  18    0.40    0.08   1
  18 -18  14    0.53    0.07   1
  18 -14  18    0.81    0.09   1
  18  14 -18    0.54    0.07   1
  18  14  18    0.47    0.07   1
  18  18 -14    0.48    0.08   1
  18  18  14    0.59    0.08   1
  16 -18  18    0.59    0.07   1
  16  18 -18    0.55    0.08   1
  16  18  18    0.70    0.10   1
  18 -18  16    0.62    0.08   1
  18 -16  18    0.60    0.08   1
  18  16 -18    0.46    0.09   1
  18  16  18    0.60    0.09   1
  18  18 -16    0.74    0.09   1
  18  18  16    0.38    0.08   1
  18 -18  18    0.09    0.07   1
  18  18 -18    0.34    0.09   1
  18  18  18    0.06    0.07   1
 -19  -1   1    1.46    0.05   1
 -19   1  -1    1.44    0.06   1
 -19   1   1    1.36    0.05   1
  -1 -19  -1    1.50    0.10   1
  -1 -19   1    1.66    0.10   1
  -1  -1 -19    1.53    0.09   1
  -1  -1  19    1.44    0.08   1
  -1   1 -19    1.54    0.10   1
  -1   1  19    1.45    0.08   1
  -1  19  -1    1.36    0.08   1
  -1  19   1    1.51    0.08   1
   1 -19  -1    1.44    0.09   1
   1 -19   1    1.50    0.10   1
   1  -1 -19    1.38    0.09   1
   1  -1  19    1.42    0.08   1
   1   1 -19    1.43    0.09   1
   1   1  19    1.34    0.08   1
   1  19  -1    1.57    0.08   1
   1  19   1    1.59    0.09   1
  19  -1   1    1.45    0.05   1
  19   1  -1    1.53    0.05   1
  19   1   1    1.36    0.05   1
 -19  -1  -3    0.02    0.03   1
 -19  -1   3    0.02    0.02   1
 -19   1  -3    0.03    0.03   1
 -19   1   3    0.04    0.02   1
  -3 -19  -1    0.08    0.05   1
  -3 -19   1    0.06    0.05   1
  -3  19  -1   -0.02    0.03   1
  -3  19   1    0.03    0.03   1
  -1  -3 -19    0.03    0.04   1
  -1  -3  19   -0.03    0.04   1
  -1  -3  19    0.05    0.04   1
  -1   3  19    0.04    0.04   1
   1  -3 -19    0.06    0.05   1
   1  -3  19    0.04    0.04   1
   1   3  19    0.03    0.04   1
   3 -19  -1    0.08    0.04   1
   3 -19   1    0.08    0.05   1
   3  19  -1    0.01    0.03   1
   3  19   1   -0.05    0.03   1
  19  -1  -3    0.07    0.02   1
  19  -1   3    0.10    0.02   1
  19   1  -3    0.06    0.02   1
  19   1   3    0.05    0.03   1
 -19  -1  -5    0.18    0.04   1
 -19  -1   5    0.16    0.02   1
 -19   1  -5    0.09    0.04   1
  -5 -19  -1    0.14    0.05   1
  -5 -19   1    0.14    0.06   1
  -5  19  -1    0.22    0.05   1
  -5  19   1    0.09    0.04   1
  -1  -5 -19    0.08    0.05   1
  -1  -5  19    0.02    0.05   1
  -1  -5  19    0.09    0.04   1
  -1   5  19    0.16    0.04   1
   1  -5 -19    0.15    0.05   1
   1  -5  19    0.11    0.06   1
   1  -5  19    0.07    0.04   1
   1   5  19    0.08    0.03   1
   5 -19  -1    0.16    0.05   1
   5 -19   1    0.20    0.05   1
   5  19  -1    0.17    0.04   1
   5  19   1    0.03    0.04   1
  19  -1   5    0.12    0.03   1
  19   1  -5    0.14    0.02   1
  19   1   5    0.11    0.03   1
 -19  -1  -7    0.15    0.04   1
 -19   1  -7    0.10    0.04   1
  -7 -19  -1    0.13    0.05   1
  -7 -19   1    0.08    0.05   1
  -7  19  -1    0.12    0.04   1
  -7  19   1    0.09    0.04   1
  -1  -7 -19    0.07    0.05   1
  -1  -7  19    0.07    0.05   1
  -1  -7  19    0.15    0.05   1
  -1   7  19    0.09    0.04   1
   1  -7 -19    0.10    0.05   1
   1  -7  19    0.13    0.06   1
   1  -7  19    0.04    0.04   1
   1   7  19    0.02    0.04   1
   7 -19  -1    0.09    0.04   1
   7 -19   1    0.15    0.05   1
   7  19  -1    0.06    0.04   1
   7  19   1    0.12    0.04   1
  19  -1   7    0.13    0.03   1
  19   1   7    0.10    0.03   1
 -19  -1  -9    0.20    0.05   1
 -19   1  -9    0.19    0.05   1
  -9 -19  -1    0.09    0.06   1
  -9 -19   1    0.21    0.06   1
  -9  19  -1    0.24    0.05   1
  -9  19   1    0.38    0.05   1
  -1  -9 -19    0.23    0.06   1
  -1  -9  19    0.23    0.06   1
  -1  -9  19    0.24    0.05   1
  -1   9  19    0.21    0.05   1
   1  -9 -19    0.25    0.06   1
   1  -9  19    0.25    0.06   1
   1  -9  19    0.24    0.05   1
   1   9  19    0.18    0.05   1
   9 -19  -1    0.16    0.05   1
   9 -19   1    0.21    0.05   1
   9  19  -1    0.19    0.04   1
   9  19   1    0.21    0.04   1
  19  -1   9    0.18    0.04   1
  19   1   9    0.17    0.04   1
 -19  -1 -11    0.39    0.06   1
 -19   1 -11    0.57    0.07   1
 -11  19  -1    0.38    0.06   1
 -11  19   1    0.43    0.06   1
  -1 -11 -19    0.54    0.07   1
  -1 -11  19    0.60    0.07   1
  -1  11  19    0.49    0.06   1
   1 -11 -19    0.43    0.06   1
   1 -11  19    0.46    0.06   1
   1  11  19    0.45    0.06   1
  11 -19  -1    0.43    0.06   1
  11 -19   1    0.46    0.06   1
  11  19  -1    0.53    0.06   1
  11  19   1    0.39    0.05   1
  19  -1  11    0.34    0.05   1
  19   1  11    0.42    0.05   1
 -19  -1 -13    0.21    0.06   1
 -19   1 -13    0.07    0.06   1
 -13  19  -1    0.22    0.05   1
 -13  19   1    0.22    0.05   1
  -1 -13 -19    0.10    0.06   1
  -1 -13  19    0.10    0.05   1
  -1  13  19    0.13    0.05   1
   1 -13 -19    0.20    0.07   1
   1 -13  19    0.15    0.04   1
   1  13  19    0.10    0.04   1
  13 -19  -1    0.09    0.05   1
  13 -19   1    0.10    0.05   1
  13  19  -1    0.11    0.04   1
  13  19   1    0.20    0.04   1
  19  -1  13    0.10    0.04   1
  19   1  13    0.17    0.04   1
 -15  19  -1   -0.01    0.04   1
 -15  19   1   -0.02    0.04   1
  -1  15  19   -0.04    0.04   1
   1 -15  19   -0.02    0.05   1
   1  15  19    0.00    0.05   1
  15 -19  -1   -0.04    0.05   1
  15 -19   1    0.00    0.05   1
  15  19  -1   -0.09    0.04   1
  15  19   1    0.08    0.04   1
  19  -1  15    0.10    0.04   1
  19   1  15    0.12    0.04   1
 -19  -1  17   -0.01    0.03   1
 -19  -1  17    0.03    0.03   1
 -17  19   1    0.04    0.04   1
  -1 -17  19    0.02    0.05   1
  -1  17  19   -0.10    0.04   1
   1 -17  19    0.16    0.05   1
   1  17  19    0.06    0.05   1
  17 -19  -1    0.05    0.05   1
  17 -19   1    0.09    0.05   1
  17  19  -1   -0.02    0.05   1
  19   1  17   -0.06    0.04   1
 -19  -3  -1    0.03    0.03   1
 -19  -3   1    0.06    0.03   1
 -19   3  -1    0.02    0.02   1
  -3  -1 -19   -0.02    0.05   1
  -3  -1  19    0.00    0.03   1
  -3   1 -19    0.00    0.05   1
  -3   1  19    0.03    0.03   1
  -1 -19  -3   -0.01    0.05   1
  -1 -19   3    0.08    0.05   1
  -1  19  -3    0.02    0.04   1
  -1  19   3    0.03    0.03   1
   1 -19  -3    0.05    0.05   1
   1 -19   3   -0.03    0.04   1
   1  19  -3    0.05    0.04   1
   1  19   3    0.07    0.04   1
   3  -1 -19   -0.02    0.04   1
   3  -1  19    0.05    0.03   1
   3   1  19   -0.01    0.04   1
  19  -3  -1    0.01    0.02   1
  19  -3  -1    0.03    0.02   1
  19  -3   1    0.07    0.02   1
  19   3  -1    0.02    0.02   1
  19   3   1    0.06    0.02   1
 -19  -3  -3    0.02    0.03   1
 -19  -3   3    0.03    0.03   1
 -19   3  -3    0.02    0.03   1
  -3 -19  -3    0.03    0.05   1
  -3 -19   3    0.05    0.05   1
  -3  -3 -19    0.02    0.05   1
  -3  -3  19    0.03    0.04   1
  -3  -3  19   -0.03    0.03   1
  -3   3 -19   -0.01    0.05   1
  -3   3  19   -0.04    0.03   1
  -3  19  -3    0.01    0.04   1
  -3  19   3   -0.07    0.03   1
   3 -19  -3    0.05    0.05   1
   3 -19   3    0.05    0.05   1
   3  -3 -19   -0.07    0.04   1
   3  -3  19   -0.01    0.03   1
   3   3  19   -0.04    0.03   1
   3  19  -3    0.00    0.04   1
   3  19   3    0.03    0.04   1
  19  -3   3    0.02    0.02   1
  19   3  -3   -0.04    0.02   1
  19   3   3    0.03    0.02   1
 -19  -3  -5    0.32    0.05   1
 -19  -3   5    0.30    0.03   1
 -19   3  -5    0.23    0.04   1
  -5 -19  -3    0.21    0.06   1
  -5 -19   3    0.15    0.05   1
  -5  19  -3    0.18    0.04   1
  -5  19   3    0.26    0.05   1
  -3  -5 -19    0.28    0.06   1
  -3  -5  19    0.30    0.06   1
  -3  -5  19    0.26    0.05   1
  -3   5  19    0.24    0.04   1
   3  -5 -19    0.22    0.05   1
   3  -5  19    0.21    0.06   1
   3  -5  19    0.23    0.05   1
   3   5  19    0.24    0.05   1
   5 -19  -3    0.39    0.06   1
   5 -19   3    0.34    0.06   1
   5  19  -3    0.38    0.05   1
   5  19   3    0.33    0.05   1
  19  -3   5    0.32    0.04   1
  19   3  -5    0.27    0.03   1
  19   3   5    0.30    0.04   1
 -19  -3  -7    0.04    0.04   1
 -19  -3   7    0.05    0.02   1
 -19   3  -7    0.03    0.04   1
  -7 -19  -3    0.08    0.05   1
  -7 -19   3    0.05    0.06   1
  -7  19  -3    0.09    0.04   1
  -7  19   3    0.03    0.04   1
  -3  -7 -19   -0.01    0.04   1
  -3  -7  19    0.06    0.05   1
  -3  -7  19   -0.05    0.04   1
  -3   7  19    0.06    0.04   1
   3  -7 -19    0.01    0.04   1
   3  -7  19    0.09    0.05   1
   3  -7  19    0.06    0.03   1
   3   7  19    0.04    0.04   1
   7 -19  -3    0.04    0.04   1
   7  19  -3    0.00    0.03   1
   7  19   3    0.03    0.03   1
  19  -3   7    0.05    0.03   1
  19   3  -7   -0.01    0.02   1
  19   3   7    0.08    0.03   1
 -19  -3  -9   -0.05    0.05   1
 -19  -3   9    0.03    0.02   1
 -19   3  -9   -0.05    0.04   1
  -9 -19  -3   -0.01    0.06   1
  -9 -19   3    0.01    0.06   1
  -9  19  -3   -0.05    0.04   1
  -9  19   3    0.04    0.03   1
  -3  -9 -19    0.01    0.05   1
  -3  -9  19    0.00    0.05   1
  -3  -9  19   -0.10    0.03   1
  -3   9  19   -0.03    0.04   1
   3  -9 -19    0.06    0.04   1
   3  -9  19    0.00    0.05   1
   3  -9  19   -0.02    0.03   1
   3   9  19    0.03    0.04   1
   9 -19  -3    0.01    0.05   1
   9 -19   3   -0.06    0.05   1
   9  19  -3    0.06    0.03   1
   9  19   3   -0.05    0.03   1
  19  -3   9   -0.02    0.03   1
  19   3  -9   -0.02    0.02   1
  19   3   9   -0.03    0.03   1
 -19  -3 -11    0.17    0.06   1
 -19  -3  11    0.14    0.03   1
 -19  -3  11    0.13    0.02   1
 -19   3 -11    0.02    0.05   1
 -11  19  -3    0.08    0.04   1
 -11  19   3    0.13    0.04   1
  -3 -11 -19    0.06    0.06   1
  -3 -11  19    0.13    0.06   1
  -3 -11  19    0.02    0.04   1
  -3  11  19    0.08    0.04   1
   3 -11 -19    0.15    0.05   1
   3 -11  19    0.08    0.04   1
   3  11  19    0.18    0.04   1
  11 -19  -3    0.14    0.05   1
  11 -19   3    0.16    0.05   1
  11  19  -3    0.18    0.04   1
  11  19   3    0.14    0.04   1
  19  -3  11    0.12    0.04   1
  19   3  11    0.17    0.04   1
 -19  -3 -13    0.06    0.06   1
 -19  -3  13    0.00    0.03   1
 -19   3 -13    0.07    0.06   1
 -13  19  -3   -0.08    0.04   1
 -13  19   3    0.01    0.04   1
  -3 -13  19   -0.05    0.04   1
  -3  13  19    0.00    0.04   1
   3 -13 -19   -0.03    0.05   1
   3 -13  19    0.02    0.04   1
   3  13  19   -0.05    0.05   1
  13 -19  -3    0.03    0.04   1
  13 -19   3    0.03    0.05   1
  13  19  -3   -0.01    0.04   1
  13  19   3   -0.01    0.04   1
  19  -3  13    0.03    0.04   1
  19   3  13    0.03    0.03   1
 -19  -3  15    0.26    0.03   1
 -19  -3  15    0.27    0.03   1
 -15  19  -3    0.17    0.05   1
 -15  19   3    0.25    0.04   1
  -3 -15  19    0.36    0.08   1
  -3  15  19    0.28    0.05   1
   3 -15 -19    0.29    0.06   1
   3 -15  19    0.21    0.06   1
   3  15  19    0.26    0.05   1
  15 -19  -3    0.28    0.06   1
  15 -19   3    0.23    0.06   1
  15  19  -3    0.11    0.04   1
  15  19   3    0.33    0.04   1
  19  -3  15    0.23    0.04   1
  19   3  15    0.21    0.04   1
 -19  -3  17    0.36    0.04   1
 -19  -3  17    0.52    0.05   1
 -17  19   3    0.52    0.05   1
  -3  17  19    0.55    0.07   1
   3 -17  19    0.39    0.06   1
   3  17  19    0.44    0.07   1
  17 -19  -3    0.58    0.07   1
  17 -19   3    0.35    0.07   1
  17 -19   3    0.46    0.05   1
  17  19  -3    0.37    0.05   1
  17  19   3    0.43    0.06   1
  19   3  17    0.30    0.05   1
 -19  -5  -1    0.18    0.04   1
 -19  -5   1    0.13    0.04   1
  -5  -1 -19    0.07    0.05   1
  -5  -1  19    0.09    0.04   1
  -5  -1  19    0.12    0.04   1
  -5   1 -19    0.24    0.06   1
  -5   1  19    0.17    0.04   1
  -1 -19  -5    0.02    0.05   1
  -1 -19   5    0.10    0.05   1
  -1  19  -5    0.16    0.04   1
  -1  19   5    0.12    0.04   1
   1 -19  -5    0.23    0.06   1
   1 -19   5    0.06    0.05   1
   1  19  -5    0.17    0.04   1
   1  19   5    0.16    0.04   1
   5  -1 -19    0.19    0.04   1
   5  -1  19    0.11    0.04   1
   5   1  19    0.18    0.04   1
  19  -5  -1    0.14    0.02   1
  19  -5  -1    0.16    0.02   1
  19  -5   1    0.12    0.03   1
  19  -5   1    0.15    0.02   1
  19   5  -1    0.11    0.02   1
  19   5   1    0.16    0.03   1
 -19  -5  -3    0.30    0.05   1
 -19  -5   3    0.22    0.04   1
  -5  -3 -19    0.24    0.05   1
  -5  -3  19    0.41    0.06   1
  -5  -3  19    0.25    0.04   1
  -5   3 -19    0.16    0.06   1
  -5   3  19    0.20    0.04   1
  -3 -19  -5    0.21    0.06   1
  -3 -19   5    0.38    0.07   1
  -3  19  -5    0.28    0.04   1
  -3  19   5    0.26    0.05   1
   3 -19  -5    0.24    0.06   1
   3 -19   5    0.29    0.06   1
   3  19  -5    0.26    0.05   1
   3  19   5    0.33    0.05   1
   5  -3 -19    0.15    0.04   1
   5  -3  19    0.21    0.05   1
   5   3  19    0.34    0.05   1
  19  -5   3    0.30    0.04   1
  19  -5   3    0.23    0.03   1
  19   5  -3    0.32    0.03   1
  19   5   3    0.20    0.03   1
 -19  -5  -5    0.65    0.08   1
 -19  -5   5    0.63    0.06   1
  -5 -19  -5    0.72    0.08   1
  -5 -19   5    0.69    0.08   1
  -5  -5 -19    0.79    0.09   1
  -5  -5  19    0.55    0.06   1
  -5  -5  19    0.59    0.07   1
  -5   5  19    0.57    0.06   1
  -5  19  -5    0.61    0.07   1
  -5  19   5    0.59    0.07   1
   5 -19  -5    0.78    0.08   1
   5 -19   5    0.59    0.07   1
   5  -5 -19    0.62    0.07   1
   5  -5  19    0.73    0.09   1
   5  -5  19    0.67    0.08   1
   5   5  19    0.72    0.07   1
   5  19  -5    0.58    0.07   1
   5  19   5    0.69    0.07   1
  19  -5   5    0.70    0.06   1
  19  -5   5    0.58    0.05   1
  19   5  -5    0.66    0.04   1
  19   5   5    0.57    0.06   1
 -19  -5  -7    0.25    0.06   1
 -19  -5   7    0.42    0.04   1
  -7 -19  -5    0.36    0.06   1
  -7 -19   5    0.16    0.05   1
  -7  19  -5    0.29    0.05   1
  -7  19   5    0.39    0.05   1
  -5  -7 -19    0.35    0.06   1
  -5  -7  19    0.39    0.06   1
  -5  -7  19    0.28    0.05   1
  -5   7  19    0.31    0.05   1
   5  -7 -19    0.31    0.05   1
   5  -7  19    0.21    0.05   1
   5  -7  19    0.35    0.05   1
   5   7  19    0.41    0.06   1
   7 -19  -5    0.38    0.06   1
   7 -19   5    0.25    0.06   1
   7  19  -5    0.44    0.06   1
   7  19   5    0.49    0.06   1
  19  -5   7    0.39    0.05   1
  19   5  -7    0.35    0.03   1
  19   5   7    0.33    0.05   1
 -19  -5  -9    0.07    0.05   1
 -19  -5   9    0.14    0.03   1
  -9 -19   5    0.05    0.06   1
  -9  19  -5    0.09    0.04   1
  -9  19   5    0.16    0.05   1
  -5  -9 -19    0.18    0.06   1
  -5  -9  19    0.15    0.06   1
  -5  -9  19    0.05    0.04   1
  -5   9  19    0.12    0.04   1
   5  -9 -19    0.11    0.05   1
   5  -9  19    0.08    0.04   1
   9 -19  -5    0.14    0.05   1
   9 -19   5    0.13    0.06   1
   9  19  -5    0.15    0.03   1
   9  19   5    0.07    0.04   1
  19  -5   9    0.13    0.04   1
  19   5  -9    0.09    0.02   1
  19   5   9    0.08    0.04   1
 -19  -5 -11    0.09    0.05   1
 -19  -5  11   -0.04    0.03   1
 -19   5 -11    0.09    0.05   1
 -11  19  -5   -0.01    0.05   1
 -11  19   5    0.01    0.04   1
  -5 -11  19   -0.05    0.05   1
  -5 -11  19    0.00    0.04   1
  -5  11  19    0.00    0.04   1
   5 -11 -19   -0.03    0.04   1
   5 -11  19   -0.01    0.04   1
   5  11  19    0.05    0.04   1
  11 -19  -5    0.05    0.05   1
  11 -19   5    0.08    0.06   1
  11  19  -5    0.05    0.03   1
  11  19   5   -0.05    0.04   1
  19  -5  11    0.05    0.04   1
  19   5 -11    0.02    0.02   1
  19   5  11   -0.06    0.03   1
 -19  -5  13    0.00    0.03   1
 -19   5 -13    0.07    0.05   1
 -13  19  -5   -0.04    0.04   1
 -13  19   5    0.05    0.03   1
  -5 -13  19    0.08    0.05   1
  -5  13  19    0.03    0.05   1
   5 -13 -19    0.06    0.05   1
   5 -13  19    0.06    0.05   1
   5  13  19    0.07    0.04   1
  13 -19  -5   -0.06    0.05   1
  13 -19   5    0.04    0.05   1
  13  19  -5    0.07    0.04   1
  13  19   5   -0.05    0.04   1
  19  -5  13   -0.05    0.04   1
  19   5  13    0.01    0.04   1
 -19  -5  15    0.61    0.07   1
 -19  -5  15    0.68    0.06   1
 -15  19   5    0.80    0.07   1
  -5  15  19    0.74    0.08   1
   5 -15 -19    0.75    0.08   1
   5 -15  19    0.78    0.09   1
   5  15  19    0.68    0.11   1
  15 -19  -5    0.74    0.08   1
  15 -19   5    0.82    0.09   1
  15  19  -5    0.84    0.07   1
  15  19   5    0.72    0.09   1
  19  -5  15    0.66    0.08   1
  19   5  15    0.72    0.07   1
 -19  -5  17    0.82    0.08   1
 -19  -5  17    1.08    0.07   1
 -17  19   5    0.97    0.07   1
  -5  17  19    0.91    0.09   1
   5 -17 -19    0.95    0.11   1
   5 -17  19    0.87    0.10   1
   5  17 -19    1.14    0.11   1
   5  17  19    1.05    0.11   1
  17 -19  -5    1.16    0.09   1
  17 -19   5    0.82    0.09   1
  17 -19   5    1.18    0.08   1
  17  19  -5    0.91    0.08   1
  17  19   5    0.94    0.09   1
  19  -5  17    0.82    0.09   1
  19   5  17    1.05    0.09   1
 -19  -7  -1    0.17    0.04   1
 -19  -7   1    0.08    0.04   1
  -7  -1 -19    0.09    0.05   1
  -7  -1  19    0.01    0.04   1
  -7  -1  19    0.09    0.03   1
  -7   1 -19    0.02    0.04   1
  -7   1  19    0.10    0.04   1
  -7   1  19    0.06    0.03   1
  -1 -19  -7    0.10    0.05   1
  -1 -19   7    0.02    0.05   1
  -1  19  -7    0.06    0.03   1
  -1  19   7    0.11    0.04   1
   1 -19  -7    0.04    0.05   1
   1 -19   7    0.01    0.05   1
   1  19  -7    0.14    0.04   1
   1  19   7    0.09    0.04   1
   7  -1  19    0.11    0.05   1
   7   1  19    0.07    0.04   1
  19  -7  -1    0.11    0.02   1
  19  -7  -1    0.11    0.02   1
  19  -7   1    0.11    0.03   1
  19  -7   1    0.05    0.02   1
  19   7  -1    0.03    0.03   1
  19   7   1    0.07    0.03   1
 -19  -7  -3    0.01    0.04   1
 -19  -7   3   -0.05    0.04   1
  -7  -3 -19    0.03    0.05   1
  -7  -3  19    0.05    0.04   1
  -7  -3  19    0.01    0.03   1
  -7   3 -19    0.06    0.05   1
  -7   3  19   -0.07    0.03   1
  -3 -19  -7    0.05    0.05   1
  -3 -19   7    0.08    0.05   1
  -3  19  -7    0.04    0.04   1
  -3  19   7    0.02    0.04   1
   3 -19  -7    0.00    0.05   1
   3 -19   7   -0.01    0.05   1
   3  19  -7    0.03    0.03   1
   3  19   7    0.04    0.04   1
   7  -3 -19    0.02    0.04   1
   7  -3  19    0.03    0.03   1
   7   3  19    0.05    0.04   1
  19  -7   3    0.02    0.03   1
  19  -7   3    0.01    0.02   1
  19   7  -3   -0.01    0.02   1
  19   7   3    0.02    0.03   1
 -19  -7  -5    0.35    0.06   1
 -19  -7   5    0.34    0.05   1
  -7  -5 -19    0.31    0.07   1
  -7  -5  19    0.43    0.06   1
  -7  -5  19    0.32    0.05   1
  -7   5  19    0.31    0.04   1
  -5 -19  -7    0.39    0.07   1
  -5 -19   7    0.38    0.07   1
  -5  19  -7    0.30    0.05   1
  -5  19   7    0.36    0.05   1
   5 -19  -7    0.44    0.06   1
   5 -19   7    0.36    0.07   1
   5  19  -7    0.29    0.04   1
   5  19   7    0.44    0.05   1
   7  -5 -19    0.35    0.05   1
   7  -5  19    0.31    0.05   1
   7  -5  19    0.29    0.04   1
   7   5  19    0.45    0.06   1
  19  -7   5    0.32    0.04   1
  19  -7   5    0.38    0.05   1
  19   7  -5    0.32    0.03   1
  19   7   5    0.32    0.05   1
 -19  -7  -7    0.12    0.05   1
 -19  -7   7    0.01    0.04   1
  -7 -19   7    0.05    0.06   1
  -7  -7  19    0.13    0.05   1
  -7  -7  19    0.10    0.04   1
  -7   7  19    0.07    0.04   1
  -7  19  -7    0.09    0.04   1
  -7  19   7    0.12    0.04   1
   7 -19  -7    0.06    0.05   1
   7 -19   7    0.06    0.05   1
   7  -7 -19    0.10    0.04   1
   7  -7  19   -0.02    0.03   1
   7   7  19    0.08    0.04   1
   7  19  -7    0.12    0.03   1
   7  19   7    0.14    0.04   1
  19  -7   7    0.06    0.04   1
  19  -7   7    0.05    0.03   1
  19   7  -7    0.11    0.03   1
  19   7   7    0.03    0.03   1
 -19  -7  -9   -0.07    0.05   1
 -19  -7   9    0.07    0.04   1
  -9  19  -7   -0.02    0.04   1
  -9  19   7   -0.04    0.03   1
  -7  -9  19   -0.01    0.05   1
  -7  -9  19    0.02    0.04   1
  -7   9  19    0.00    0.03   1
   7  -9 -19   -0.01    0.04   1
   7  -9  19   -0.10    0.04   1
   7   9  19    0.03    0.04   1
   9 -19  -7    0.04    0.04   1
   9 -19   7   -0.06    0.05   1
   9  19  -7   -0.03    0.04   1
   9  19   7   -0.08    0.04   1
  19  -7   9   -0.01    0.04   1
  19  -7   9    0.08    0.03   1
  19   7  -9    0.02    0.02   1
  19   7   9    0.01    0.03   1
 -19  -7 -11    0.34    0.07   1
 -19  -7  11    0.33    0.05   1
 -11  19  -7    0.32    0.06   1
 -11  19   7    0.42    0.05   1
  -7 -11  19    0.52    0.08   1
  -7 -11  19    0.34    0.06   1
  -7  11  19    0.47    0.06   1
   7 -11 -19    0.36    0.06   1
   7 -11  19    0.41    0.05   1
   7  11  19    0.41    0.06   1
  11 -19  -7    0.41    0.06   1
  11 -19   7    0.34    0.07   1
  11  19  -7    0.41    0.05   1
  11  19   7    0.47    0.05   1
  19  -7  11    0.47    0.06   1
  19  -7  11    0.39    0.05   1
  19   7 -11    0.39    0.05   1
  19   7  11    0.54    0.06   1
 -19  -7  13    0.05    0.04   1
 -13  19  -7    0.08    0.04   1
 -13  19   7    0.03    0.03   1
  -7 -13  19    0.01    0.04   1
  -7  13  19    0.06    0.04   1
   7 -13 -19    0.01    0.06   1
   7 -13  19   -0.02    0.05   1
  13 -19  -7   -0.04    0.05   1
  13 -19   7   -0.07    0.05   1
  13  19  -7    0.01    0.04   1
  19  -7  13   -0.04    0.05   1
  19  -7  13   -0.06    0.03   1
  19   7 -13    0.03    0.03   1
  19   7  13   -0.03    0.04   1
 -19  -7  15    0.31    0.05   1
 -15  19   7    0.35    0.07   1
  -7  15  19    0.40    0.06   1
   7 -15 -19    0.36    0.07   1
   7 -15  19    0.36    0.06   1
   7  15  19    0.30    0.06   1
  15 -19  -7    0.29    0.06   1
  15 -19   7    0.42    0.07   1
  15 -19   7    0.25    0.04   1
  15  19  -7    0.29    0.04   1
  15  19   7    0.52    0.06   1
  19  -7  15    0.40    0.05   1
 -19  -7  17    0.50    0.06   1
 -19  -7  17    0.41    0.05   1
 -17  19   7    0.48    0.05   1
  -7  17  19    0.45    0.06   1
   7 -17 -19    0.52    0.08   1
   7 -17  19    0.56    0.08   1
   7  17 -19    0.79    0.09   1
   7  17  19    0.59    0.08   1
  17 -19  -7    0.49    0.06   1
  17 -19   7    0.55    0.06   1
  17  19  -7    0.44    0.06   1
  17  19   7    0.45    0.06   1
  19  -7  17    0.72    0.08   1
  19   7  17    0.38    0.06   1
 -19  -9  -1    0.29    0.05   1
 -19  -9   1    0.23    0.05   1
  -9  -1 -19    0.25    0.06   1
  -9  -1  19    0.17    0.05   1
  -9  -1  19    0.17    0.03   1
  -9   1 -19    0.18    0.06   1
  -9   1  19    0.23    0.05   1
  -9   1  19    0.20    0.04   1
  -1 -19  -9    0.11    0.06   1
  -1 -19   9    0.06    0.06   1
  -1  19  -9    0.14    0.03   1
  -1  19   9    0.29    0.05   1
   1 -19  -9    0.22    0.06   1
   1 -19   9    0.15    0.06   1
   1  19  -9    0.21    0.04   1
   1  19   9    0.19    0.05   1
   9  -1  19    0.27    0.04   1
   9   1  19    0.20    0.04   1
  19  -9  -1    0.25    0.03   1
  19  -9  -1    0.23    0.03   1
  19  -9   1    0.20    0.03   1
  19  -9   1    0.20    0.02   1
  19   9  -1    0.19    0.04   1
  19   9   1    0.27    0.04   1
 -19  -9  -3    0.14    0.05   1
 -19  -9   3    0.02    0.04   1
  -9  -3  19   -0.01    0.05   1
  -9  -3  19   -0.01    0.03   1
  -9   3  19   -0.01    0.03   1
  -3 -19  -9    0.02    0.05   1
  -3 -19   9    0.07    0.09   1
  -3  19  -9   -0.02    0.03   1
  -3  19   9   -0.02    0.03   1
   3 -19  -9   -0.02    0.05   1
   3 -19   9    0.01    0.06   1
   3  19  -9   -0.02    0.03   1
   3  19   9    0.09    0.04   1
   9  -3  19    0.05    0.03   1
   9   3  19   -0.08    0.03   1
  19  -9  -3    0.01    0.02   1
  19  -9  -3   -0.01    0.01   1
  19  -9   3   -0.03    0.03   1
  19  -9   3   -0.01    0.02   1
  19   9  -3   -0.03    0.02   1
  19   9   3   -0.01    0.03   1
 -19  -9  -5    0.12    0.06   1
 -19  -9   5    0.09    0.05   1
  -9  -5  19    0.10    0.05   1
  -9  -5  19    0.14    0.04   1
  -9   5  19    0.09    0.03   1
  -5  19  -9    0.11    0.04   1
  -5  19   9    0.19    0.05   1
   5 -19  -9    0.18    0.05   1
   5 -19   9    0.21    0.08   1
   5  19  -9    0.05    0.03   1
   5  19   9    0.15    0.04   1
   9  -5 -19    0.09    0.04   1
   9  -5  19    0.10    0.05   1
   9   5  19    0.17    0.04   1
  19  -9   5    0.14    0.04   1
  19  -9   5    0.19    0.03   1
  19   9  -5    0.07    0.03   1
  19   9   5    0.04    0.04   1
 -19  -9  -7    0.05    0.05   1
 -19  -9   7   -0.02    0.04   1
  -9  -7  19   -0.03    0.05   1
  -9  -7  19   -0.03    0.04   1
  -9   7  19    0.03    0.03   1
  -7  19  -9    0.07    0.04   1
  -7  19   9    0.02    0.04   1
   7 -19  -9   -0.04    0.04   1
   7  19  -9   -0.02    0.03   1
   7  19   9   -0.02    0.04   1
   9  -7 -19    0.00    0.04   1
   9  -7  19    0.03    0.04   1
   9   7  19    0.04    0.04   1
  19  -9   7    0.02    0.04   1
  19  -9   7   -0.01    0.03   1
  19   9  -7   -0.03    0.03   1
  19   9   7    0.02    0.03   1
 -19  -9  -9    0.41    0.07   1
 -19  -9   9    0.48    0.06   1
  -9  -9  19    0.38    0.07   1
  -9  -9  19    0.31    0.05   1
  -9   9  19    0.38    0.05   1
  -9  19  -9    0.52    0.07   1
  -9  19   9    0.48    0.06   1
   9 -19  -9    0.46    0.06   1
   9  -9 -19    0.48    0.06   1
   9  -9  19    0.50    0.06   1
   9   9  19    0.41    0.06   1
   9  19  -9    0.32    0.04   1
   9  19   9    0.41    0.05   1
  19  -9   9    0.41    0.06   1
  19  -9   9    0.41    0.05   1
  19   9  -9    0.38    0.04   1
  19   9   9    0.44    0.05   1
 -19  -9  11    0.67    0.08   1
 -11  19  -9    0.81    0.09   1
 -11  19   9    0.71    0.07   1
  -9 -11  19    0.60    0.08   1
  -9 -11  19    0.75    0.07   1
  -9  11  19    0.72    0.07   1
   9 -11 -19    0.81    0.08   1
   9 -11  19    0.62    0.08   1
   9  11  19    0.67    0.09   1
  11 -19  -9    0.81    0.09   1
  11  19  -9    0.76    0.08   1
  11  19   9    0.57    0.10   1
  19  -9  11    0.67    0.08   1
  19  -9  11    0.68    0.07   1
  19   9 -11    0.69    0.06   1
  19   9  11    0.75    0.07   1
 -19  -9  13    0.02    0.05   1
 -13  19   9    0.07    0.04   1
  -9  13  19    0.01    0.04   1
   9 -13 -19    0.04    0.05   1
   9 -13  19   -0.08    0.05   1
   9  13  19    0.08    0.05   1
  13 -19  -9    0.04    0.05   1
  13 -19   9    0.03    0.04   1
  13  19  -9    0.06    0.04   1
  13  19   9   -0.05    0.04   1
  19  -9  13    0.02    0.04   1
  19   9 -13    0.07    0.03   1
  19   9  13    0.08    0.04   1
 -19  -9  15    0.04    0.05   1
 -15  19   9    0.16    0.04   1
  -9  15  19    0.03    0.04   1
   9 -15 -19    0.11    0.06   1
   9 -15  19    0.21    0.06   1
   9  15 -19    0.35    0.05   1
   9  15  19    0.10    0.05   1
  15 -19  -9    0.06    0.05   1
  15 -19   9    0.02    0.04   1
  15  19  -9    0.07    0.04   1
  15  19   9    0.00    0.05   1
  19  -9  15    0.04    0.04   1
  19   9 -15    0.20    0.04   1
  19   9  15    0.14    0.05   1
 -19  -9  17    0.05    0.06   1
 -19  -9  17    0.07    0.05   1
 -17  19   9    0.22    0.04   1
  -9  17  19    0.16    0.05   1
   9 -17 -19    0.13    0.06   1
   9 -17  19    0.24    0.06   1
   9  17 -19    0.27    0.06   1
   9  17  19    0.11    0.06   1
  17 -19  -9   -0.03    0.05   1
  17 -19   9    0.21    0.04   1
  17  19   9   -0.07    0.05   1
  19  -9  17    0.05    0.05   1
  19   9  17    0.13    0.06   1
 -19 -11  -1    0.53    0.07   1
 -19 -11   1    0.38    0.06   1
 -11  -1  19    0.46    0.05   1
 -11  -1  19    0.43    0.05   1
 -11   1  19    0.43    0.05   1
 -11   1  19    0.36    0.04   1
  -1 -19 -11    0.41    0.07   1
  -1  19 -11    0.60    0.07   1
  -1  19  11    0.44    0.06   1
   1 -19 -11    0.38    0.07   1
   1  19 -11    0.57    0.07   1
   1  19  11    0.48    0.06   1
  11  -1  19    0.57    0.07   1
  11   1  19    0.47    0.06   1
  19 -11  -1    0.40    0.04   1
  19 -11  -1    0.51    0.04   1
  19 -11   1    0.50    0.05   1
  19 -11   1    0.33    0.04   1
  19  11  -1    0.50    0.06   1
  19  11   1    0.41    0.05   1
 -19 -11  -3    0.18    0.06   1
 -19 -11   3    0.11    0.06   1
 -11  -3  19    0.11    0.05   1
 -11  -3  19    0.06    0.04   1
 -11   3  19    0.07    0.04   1
 -11   3  19    0.15    0.03   1
  -3  19 -11    0.07    0.04   1
  -3  19  11    0.16    0.05   1
   3 -19 -11    0.16    0.06   1
   3  19 -11    0.03    0.04   1
   3  19  11    0.09    0.04   1
  11  -3  19    0.15    0.04   1
  11   3  19    0.08    0.04   1
  19 -11  -3    0.11    0.02   1
  19 -11  -3    0.17    0.02   1
  19 -11   3    0.12    0.04   1
  19 -11   3    0.13    0.03   1
  19  11  -3    0.22    0.04   1
  19  11   3    0.09    0.03   1
 -19 -11  -5    0.02    0.06   1
 -19 -11   5    0.07    0.06   1
 -11  -5  19    0.07    0.05   1
 -11  -5  19   -0.04    0.04   1
 -11   5  19   -0.02    0.03   1
  -5  19 -11   -0.06    0.04   1
  -5  19  11    0.04    0.04   1
   5 -19 -11    0.13    0.05   1
   5  19 -11    0.01    0.04   1
   5  19  11   -0.06    0.04   1
  11  -5  19   -0.08    0.04   1
  11   5  19   -0.07    0.03   1
  19 -11   5    0.05    0.04   1
  19 -11   5    0.10    0.03   1
  19  11  -5   -0.05    0.03   1
  19  11   5    0.05    0.04   1
 -19 -11  -7    0.42    0.07   1
 -19 -11   7    0.42    0.07   1
 -11  -7  19    0.44    0.07   1
 -11  -7  19    0.36    0.05   1
 -11   7  19    0.33    0.04   1
  -7  19 -11    0.45    0.06   1
  -7  19  11    0.41    0.06   1
   7 -19 -11    0.45    0.06   1
   7  19 -11    0.32    0.05   1
  11  -7 -19    0.36    0.05   1
  11  -7  19    0.34    0.05   1
  11   7  19    0.26    0.04   1
  19 -11   7    0.31    0.06   1
  19 -11   7    0.41    0.04   1
  19  11  -7    0.44    0.05   1
  19  11   7    0.32    0.05   1
 -19 -11   9    0.85    0.09   1
 -11  -9  19    0.64    0.08   1
 -11  -9  19    0.59    0.07   1
 -11   9  19    0.63    0.06   1
  -9  19 -11    0.89    0.08   1
  -9  19  11    0.72    0.08   1
   9 -19 -11    0.68    0.07   1
   9  19 -11    0.84    0.07   1
  11  -9 -19    0.65    0.07   1
  11  -9  19    0.70    0.07   1
  19 -11   9    0.73    0.08   1
  19 -11   9    0.77    0.07   1
  19  11  -9    0.76    0.06   1
  19  11   9    0.72    0.07   1
 -19 -11  11    0.85    0.10   1
 -11 -11  19    1.02    0.12   1
 -11 -11  19    1.10    0.09   1
 -11  11  19    1.18    0.08   1
 -11  19  11    1.17    0.08   1
  11 -19 -11    0.94    0.09   1
  11 -11 -19    1.11    0.09   1
  11 -11  19    1.12    0.09   1
  11  11  19    1.16    0.10   1
  11  19 -11    1.14    0.08   1
  11  19  11    1.08    0.09   1
  19 -11  11    0.94    0.11   1
  19 -11  11    1.05    0.08   1
  19  11 -11    1.02    0.07   1
  19  11  11    0.97    0.08   1
 -19 -11  13    0.30    0.06   1
 -13  19  11    0.30    0.05   1
 -11  13  19    0.34    0.05   1
  11 -13 -19    0.17    0.05   1
  11 -13  19    0.17    0.05   1
  11  13  19    0.36    0.07   1
  13 -19 -11    0.23    0.05   1
  13 -19  11    0.20    0.04   1
  13  19 -11    0.14    0.04   1
  13  19  11    0.18    0.06   1
  19 -11  13    0.21    0.04   1
  19  11 -13    0.23    0.05   1
  19  11  13    0.23    0.05   1
 -19 -11  15   -0.03    0.06   1
 -15  19  11   -0.02    0.04   1
 -11  15  19    0.02    0.04   1
  11 -15 -19    0.11    0.05   1
  11 -15  19   -0.07    0.05   1
  11  15 -19    0.02    0.05   1
  11  15  19   -0.04    0.06   1
  15 -19 -11   -0.05    0.05   1
  15  19  11    0.02    0.05   1
  19  11 -15    0.03    0.05   1
  19  11  15    0.03    0.05   1
 -19 -11  17   -0.03    0.07   1
 -17  19  11    0.04    0.04   1
 -11  17  19    0.02    0.05   1
  11 -17 -19   -0.05    0.06   1
  11 -17  19    0.04    0.06   1
  11  17 -19   -0.03    0.06   1
  11  17  19    0.10    0.06   1
  17 -19 -11    0.01    0.06   1
  17 -19  11    0.04    0.05   1
  17  19 -11   -0.09    0.05   1
  17  19  11   -0.09    0.06   1
  19 -11  17    0.09    0.06   1
  19  11 -17    0.10    0.05   1
  19  11  17   -0.10    0.05   1
 -19 -13  -1    0.14    0.07   1
 -19 -13   1    0.25    0.07   1
 -13  -1  19    0.18    0.05   1
 -13  -1  19    0.17    0.03   1
 -13   1  19    0.16    0.04   1
 -13   1  19    0.17    0.03   1
  -1  19 -13    0.20    0.04   1
  -1  19  13    0.13    0.04   1
   1 -19 -13    0.14    0.06   1
   1  19  13    0.21    0.05   1
  13  -1  19    0.14    0.04   1
  13   1  19    0.13    0.04   1
  19 -13  -1    0.10    0.02   1
  19 -13   1    0.20    0.04   1
  19 -13   1    0.18    0.03   1
  19  13  -1    0.20    0.04   1
  19  13   1    0.18    0.04   1
 -19 -13  -3    0.00    0.06   1
 -19 -13   3   -0.10    0.06   1
 -13  -3  19    0.03    0.05   1
 -13  -3  19    0.01    0.03   1
 -13   3  19    0.03    0.04   1
 -13   3  19   -0.04    0.03   1
  -3  19 -13   -0.06    0.04   1
  -3  19  13    0.02    0.04   1
   3 -19 -13    0.01    0.06   1
   3  19 -13    0.09    0.04   1
   3  19  13    0.01    0.05   1
  13   3  19   -0.06    0.03   1
  19 -13  -3    0.00    0.03   1
  19 -13  -3   -0.05    0.02   1
  19 -13   3   -0.05    0.04   1
  19 -13   3   -0.02    0.03   1
  19  13  -3   -0.06    0.03   1
  19  13   3    0.03    0.03   1
 -19 -13  -5    0.02    0.06   1
 -19 -13   5   -0.08    0.05   1
 -13  -5  19    0.07    0.05   1
 -13  -5  19   -0.03    0.03   1
 -13   5  19    0.01    0.04   1
 -13   5  19   -0.01    0.03   1
  -5  19 -13    0.08    0.04   1
  -5  19  13    0.03    0.05   1
   5 -19 -13    0.07    0.06   1
   5  19 -13    0.02    0.04   1
   5  19  13    0.03    0.04   1
  13  -5  19    0.00    0.04   1
  13   5  19    0.05    0.04   1
  19 -13  -5   -0.02    0.02   1
  19 -13  -5    0.05    0.02   1
  19 -13   5    0.06    0.05   1
  19 -13   5    0.01    0.03   1
  19  13  -5    0.04    0.03   1
  19  13   5    0.05    0.04   1
 -19 -13   7   -0.03    0.06   1
 -13  -7  19   -0.01    0.05   1
 -13   7  19   -0.01    0.03   1
  -7  19 -13    0.13    0.06   1
  -7  19  13   -0.02    0.04   1
   7 -19 -13    0.05    0.05   1
   7  19 -13   -0.07    0.04   1
  13  -7  19    0.02    0.05   1
  13   7  19    0.15    0.05   1
  19 -13   7    0.08    0.05   1
  19 -13   7    0.00    0.03   1
  19  13  -7   -0.01    0.04   1
  19  13   7    0.06    0.04   1
 -19 -13   9    0.00    0.06   1
 -13  -9  19    0.12    0.06   1
 -13  -9  19    0.08    0.04   1
 -13   9  19    0.09    0.04   1
  -9  19  13    0.05    0.04   1
   9 -19 -13    0.06    0.05   1
   9  19 -13   -0.04    0.04   1
   9  19  13    0.17    0.05   1
  13  -9 -19    0.04    0.04   1
  13  -9  19    0.09    0.05   1
  13   9  19    0.17    0.05   1
  19 -13   9    0.09    0.06   1
  19 -13   9    0.05    0.04   1
  19  13  -9    0.19    0.04   1
  19  13   9    0.18    0.04   1
 -19 -13  11    0.38    0.07   1
 -13 -11  19    0.20    0.08   1
 -13 -11  19    0.29    0.06   1
 -13  11  19    0.27    0.04   1
 -11  19  13    0.28    0.05   1
  11 -19 -13    0.31    0.06   1
  11 -19  13    0.19    0.05   1
  11  19 -13    0.15    0.09   1
  11  19  13    0.23    0.06   1
  13 -11 -19    0.27    0.05   1
  13 -11  19    0.32    0.06   1
  13  11  19    0.33    0.06   1
  19 -13  11    0.27    0.08   1
  19 -13  11    0.21    0.04   1
  19  13 -11    0.27    0.05   1
  19  13  11    0.22    0.05   1
 -19 -13  13    0.13    0.07   1
 -13  13  19    0.18    0.04   1
 -13  19  13    0.14    0.04   1
  13 -19 -13    0.08    0.05   1
  13 -19  13    0.06    0.05   1
  13 -13 -19    0.06    0.05   1
  13 -13  19    0.17    0.05   1
  13  13  19    0.27    0.07   1
  13  19 -13    0.04    0.06   1
  13  19  13    0.15    0.06   1
  19 -13  13    0.17    0.04   1
  19  13 -13    0.04    0.05   1
  19  13  13    0.08    0.05   1
 -19 -13  15    0.11    0.07   1
 -15  19  13    0.03    0.04   1
 -13  15  19    0.04    0.04   1
  13 -15 -19    0.06    0.05   1
  13 -15  19    0.09    0.06   1
  13  15 -19    0.28    0.06   1
  13  15  19    0.08    0.06   1
  15 -19 -13    0.09    0.05   1
  15 -19  13    0.07    0.05   1
  15  19 -13   -0.05    0.05   1
  15  19  13    0.25    0.07   1
  19 -13  15    0.10    0.05   1
  19  13 -15    0.06    0.05   1
  19  13  15   -0.03    0.05   1
 -19 -13  17    0.17    0.08   1
 -17  19  13    0.24    0.04   1
 -13  17  19    0.19    0.05   1
  13 -17  19    0.28    0.07   1
  13  17 -19    0.28    0.07   1
  13  17  19    0.20    0.06   1
  17 -19  13    0.02    0.06   1
  17  19 -13    0.29    0.06   1
  17  19  13    0.18    0.06   1
  19 -13  17    0.24    0.06   1
  19  13 -17    0.24    0.06   1
  19  13  17    0.21    0.06   1
 -19 -15  -1    0.08    0.08   1
 -19 -15   1   -0.13    0.06   1
 -15  -1  19    0.08    0.04   1
 -15  -1  19    0.07    0.03   1
 -15   1  19   -0.04    0.05   1
 -15   1  19   -0.01    0.03   1
  -1  19 -15    0.05    0.05   1
  -1  19  15    0.02    0.05   1
   1  19 -15   -0.04    0.05   1
   1  19  15   -0.02    0.04   1
  19 -15  -1    0.00    0.04   1
  19 -15  -1    0.05    0.02   1
  19 -15   1    0.02    0.04   1
  19 -15   1    0.03    0.03   1
  19  15  -1    0.06    0.04   1
  19  15   1   -0.02    0.03   1
 -19 -15   3    0.14    0.07   1
 -15  -3  19    0.23    0.05   1
 -15  -3  19    0.26    0.04   1
 -15   3  19    0.28    0.04   1
 -15   3  19    0.25    0.03   1
  -3  19 -15    0.29    0.06   1
  -3  19  15    0.27    0.05   1
   3 -19 -15    0.34    0.06   1
   3  19 -15    0.26    0.06   1
   3  19  15    0.25    0.05   1
  15   3  19    0.18    0.04   1
  19 -15  -3    0.29    0.03   1
  19 -15   3    0.33    0.05   1
  19 -15   3    0.28    0.04   1
  19  15  -3    0.26    0.05   1
  19  15   3    0.19    0.05   1
 -19 -15   5    0.61    0.08   1
 -15  -5  19    0.73    0.09   1
 -15  -5  19    0.92    0.07   1
 -15   5  19    0.76    0.06   1
 -15   5  19    0.64    0.05   1
  -5  19 -15    0.82    0.09   1
  -5  19  15    0.85    0.09   1
   5 -19 -15    0.85    0.11   1
   5  19 -15    0.73    0.08   1
   5  19  15    0.77    0.09   1
  15  -5  19    0.68    0.08   1
  15   5  19    0.70    0.08   1
  19 -15  -5    0.73    0.06   1
  19 -15  -5    0.80    0.04   1
  19 -15   5    0.70    0.07   1
  19 -15   5    0.76    0.07   1
  19  15  -5    0.59    0.07   1
  19  15   5    0.73    0.07   1
 -19 -15   7    0.36    0.08   1
 -15  -7  19    0.46    0.07   1
 -15  -7  19    0.28    0.06   1
 -15   7  19    0.39    0.04   1
 -15   7  19    0.34    0.04   1
  -7  19  15    0.33    0.06   1
   7 -19 -15    0.33    0.07   1
   7 -19  15    0.27    0.05   1
   7  19 -15    0.33    0.05   1
   7  19  15    0.32    0.05   1
  15  -7  19    0.51    0.07   1
  15   7  19    0.38    0.06   1
  19 -15  -7    0.36    0.03   1
  19 -15   7    0.45    0.07   1
  19 -15   7    0.34    0.05   1
  19  15  -7    0.34    0.05   1
  19  15   7    0.27    0.05   1
 -19 -15   9   -0.05    0.06   1
 -15  -9  19    0.12    0.06   1
 -15  -9  19    0.06    0.05   1
 -15   9  19    0.07    0.03   1
 -15   9  19    0.03    0.03   1
  -9  19  15    0.15    0.05   1
   9 -19 -15    0.12    0.06   1
   9 -19  15    0.03    0.05   1
   9  19 -15    0.20    0.05   1
   9  19  15    0.09    0.05   1
  15  -9  19    0.00    0.05   1
  15   9  19    0.05    0.05   1
  19 -15  -9    0.10    0.02   1
  19 -15   9    0.08    0.06   1
  19 -15   9    0.07    0.04   1
  19  15  -9    0.08    0.04   1
  19  15   9    0.08    0.05   1
 -19 -15  11    0.07    0.06   1
 -15 -11  19   -0.10    0.07   1
 -15 -11  19    0.05    0.05   1
 -15  11  19   -0.02    0.03   1
 -11  19  15    0.01    0.04   1
  11 -19 -15    0.16    0.06   1
  11 -19  15   -0.07    0.05   1
  11  19 -15   -0.01    0.05   1
  11  19  15   -0.01    0.05   1
  15 -11  19    0.15    0.05   1
  15  11  19   -0.04    0.05   1
  19 -15  11   -0.04    0.04   1
  19  15 -11   -0.07    0.04   1
  19  15  11    0.06    0.05   1
 -19 -15  13   -0.03    0.08   1
 -15  13  19    0.06    0.04   1
 -13  19  15    0.02    0.04   1
  13 -19 -15    0.07    0.06   1
  13 -19  15    0.06    0.05   1
  13  19 -15    0.15    0.06   1
  13  19  15    0.01    0.06   1
  15 -13 -19    0.06    0.05   1
  15 -13  19    0.20    0.06   1
  15  13  19    0.20    0.06   1
  19  15 -13    0.02    0.05   1
  19  15  13   -0.12    0.05   1
 -15  15  19    0.55    0.05   1
 -15  19  15    0.39    0.05   1
  15 -19  15    0.38    0.07   1
  15 -15  19    0.59    0.07   1
  15  15 -19    0.47    0.06   1
  15  15  19    0.27    0.07   1
  15  19 -15    0.52    0.07   1
  15  19  15    0.30    0.07   1
  19 -15  15    0.38    0.06   1
  19  15 -15    0.32    0.06   1
  19  15  15    0.47    0.06   1
 -17  19  15    0.67    0.07   1
 -15  17  19    0.64    0.08   1
  15 -17  19    0.69    0.08   1
  15  17 -19    0.83    0.09   1
  15  17  19    0.70    0.10   1
  17 -19  15    0.46    0.07   1
  17  19 -15    0.51    0.08   1
  17  19  15    0.54    0.08   1
  19 -15  17    0.59    0.08   1
  19  15 -17    0.71    0.08   1
  19  15  17    0.32    0.07   1
 -17  -1  19    0.06    0.03   1
 -17   1  19    0.01    0.03   1
 -17   1  19    0.03    0.03   1
  -1  19 -17   -0.05    0.05   1
  -1  19  17   -0.01    0.05   1
   1  19 -17    0.02    0.06   1
  17  -1  19   -0.04    0.05   1
  17   1  19    0.28    0.06   1
  19 -17  -1    0.07    0.04   1
  19 -17  -1   -0.03    0.03   1
  19 -17   1   -0.06    0.05   1
  19 -17   1    0.13    0.03   1
  19  17  -1    0.08    0.04   1
  19  17   1    0.14    0.04   1
 -17  -3  19    0.39    0.06   1
 -17  -3  19    0.62    0.06   1
 -17   3  19    0.53    0.05   1
  -3  19  17    0.48    0.07   1
   3  19 -17    0.46    0.07   1
   3  19  17    0.46    0.07   1
  17  -3  19    0.54    0.07   1
  17   3  19    0.32    0.05   1
  19 -17  -3    0.45    0.05   1
  19 -17  -3    0.42    0.05   1
  19 -17   3    0.49    0.07   1
  19 -17   3    0.46    0.05   1
  19  17  -3    0.56    0.06   1
  19  17   3    0.73    0.08   1
 -17  -5  19    1.06    0.09   1
 -17  -5  19    1.02    0.08   1
 -17   5  19    1.04    0.05   1
 -17   5  19    0.92    0.05   1
  -5  19  17    1.14    0.09   1
   5 -19  17    1.12    0.09   1
   5  19  17    0.92    0.10   1
  17  -5  19    0.95    0.09   1
  17   5  19    1.15    0.10   1
  19 -17  -5    0.96    0.08   1
  19 -17   5    1.00    0.10   1
  19 -17   5    1.01    0.07   1
  19  17  -5    1.02    0.09   1
  19  17   5    1.02    0.09   1
 -17  -7  19    0.49    0.07   1
 -17  -7  19    0.43    0.05   1
 -17   7  19    0.51    0.04   1
  -7  19  17    0.75    0.09   1
   7 -19 -17    0.47    0.07   1
   7 -19  17    0.63    0.07   1
   7  19 -17    0.56    0.07   1
   7  19  17    0.48    0.08   1
  17  -7  19    0.54    0.07   1
  17   7  19    0.50    0.06   1
  19 -17  -7    0.68    0.06   1
  19 -17   7    0.49    0.07   1
  19 -17   7    0.42    0.06   1
  19  17  -7    0.58    0.06   1
  19  17   7    0.56    0.07   1
 -19  17   9    0.05    0.03   1
 -17  -9  19    0.19    0.07   1
 -17  -9  19   -0.03    0.05   1
  -9  19  17    0.08    0.05   1
   9 -19 -17    0.11    0.07   1
   9 -19  17    0.11    0.05   1
   9  19 -17    0.11    0.06   1
   9  19  17    0.02    0.06   1
  17  -9  19    0.08    0.05   1
  17   9  19    0.07    0.06   1
  19 -17  -9    0.07    0.03   1
  19 -17   9    0.13    0.05   1
  19  17  -9    0.13    0.05   1
  19  17   9   -0.04    0.05   1
 -17 -11  19   -0.03    0.08   1
 -17 -11  19    0.15    0.05   1
 -17  11  19    0.05    0.04   1
 -11  19  17    0.12    0.05   1
  11 -19 -17    0.02    0.07   1
  11 -19  17    0.10    0.05   1
  11  19 -17    0.03    0.06   1
  11  19  17   -0.15    0.06   1
  17 -11  19    0.04    0.06   1
  17  11  19    0.05    0.06   1
  19 -17  11    0.01    0.04   1
  19  17  11   -0.09    0.05   1
 -13  19  17    0.22    0.05   1
  13 -19  17    0.27    0.06   1
  13  19 -17    0.27    0.07   1
  13  19  17    0.24    0.07   1
  17 -13  19    0.35    0.06   1
  17  13  19    0.02    0.06   1
  19 -17  13    0.18    0.06   1
  19  17 -13    0.00    0.05   1
  19  17  13    0.22    0.06   1
 -15  19  17    0.56    0.06   1
  15 -19  17    0.99    0.12   1
  15  19 -17    0.82    0.09   1
  15  19  17    0.51    0.09   1
  17 -15  19    0.74    0.08   1
  17  15 -19    0.81    0.09   1
  17  15  19    0.56    0.07   1
  19 -17  15    0.58    0.07   1
  19  17  15    0.71    0.08   1
  17 -19  17    0.28    0.07   1
  17 -17  19    0.41    0.08   1
  17  17 -19    0.61    0.09   1
  17  17  19    0.31    0.07   1
  17  19 -17    0.27    0.08   1
  17  19  17    0.15    0.08   1
  19 -17  17    0.23    0.07   1
  19  17 -17    0.54    0.08   1
  19  17  17    0.29    0.07   1
 -19  -1  19    0.47    0.06   1
 -19  -1  19    0.59    0.06   1
 -19   1  19    0.36    0.03   1
  -1  19  19    0.26    0.07   1
   1 -19  19    0.40    0.07   1
   1  19  19    0.31    0.06   1
  19 -19  -1    0.39    0.06   1
  19 -19  -1    0.37    0.04   1
  19 -19   1    0.54    0.07   1
  19 -19   1    0.40    0.05   1
  19  -1  19    0.29    0.06   1
  19   1  19    0.43    0.06   1
  19  19  -1    0.34    0.06   1
  19  19   1    0.48    0.06   1
 -19  -3  19    0.06    0.04   1
 -19  -3  19    0.12    0.04   1
  -3  19  19   -0.07    0.04   1
   3 -19  19    0.21    0.06   1
   3  19 -19    0.22    0.07   1
   3  19  19    0.22    0.06   1
  19 -19  -3   -0.04    0.05   1
  19 -19   3    0.07    0.06   1
  19 -19   3    0.09    0.04   1
  19  -3  19    0.00    0.05   1
  19   3  19    0.00    0.05   1
  19  19  -3    0.01    0.05   1
  19  19   3   -0.05    0.05   1
 -19  -5  19   -0.03    0.05   1
 -19  -5  19   -0.03    0.04   1
  -5  19  19    0.03    0.05   1
   5 -19  19    0.06    0.06   1
   5  19 -19    0.20    0.06   1
   5  19  19   -0.10    0.06   1
  19 -19  -5    0.00    0.05   1
  19 -19   5    0.03    0.07   1
  19 -19   5   -0.01    0.04   1
  19  -5  19    0.07    0.05   1
  19   5  19   -0.07    0.05   1
  19  19  -5   -0.06    0.06   1
  19  19   5    0.09    0.05   1
 -19  -7  19    0.07    0.06   1
 -19  -7  19    0.03    0.04   1
 -19  19   7    0.01    0.04   1
  -7  19  19   -0.04    0.05   1
   7 -19  19    0.05    0.06   1
   7  19 -19    0.02    0.06   1
   7  19  19    0.12    0.06   1
  19 -19  -7    0.11    0.07   1
  19 -19   7    0.02    0.04   1
  19  -7  19    0.01    0.05   1
  19   7  19   -0.03    0.05   1
  19  19  -7   -0.06    0.05   1
  19  19   7    0.07    0.06   1
 -19  -9  19    0.06    0.11   1
 -19  -9  19    0.05    0.05   1
 -19  19   9    0.10    0.04   1
  -9  19  19    0.15    0.05   1
   9 -19 -19    0.12    0.07   1
   9 -19  19    0.13    0.07   1
   9  19 -19    0.17    0.07   1
   9  19  19    0.06    0.07   1
  19 -19   9    0.06    0.05   1
  19  -9  19    0.18    0.06   1
  19   9  19   -0.06    0.06   1
  19  19  -9    0.32    0.06   1
  19  19   9    0.09    0.06   1
 -19 -11  19    0.27    0.06   1
 -19  19  11    0.33    0.05   1
 -11  19  19    0.20    0.06   1
  11 -19 -19    0.33    0.10   1
  11 -19  19    0.34    0.07   1
  11  19 -19    0.55    0.07   1
  11  19  19    0.29    0.07   1
  19 -19  11    0.27    0.06   1
  19 -11  19    0.43    0.08   1
  19  11  19    0.09    0.07   1
  19  19 -11    0.25    0.06   1
  19  19  11    0.10    0.06   1
 -13  19  19   -0.02    0.05   1
  13 -19  19   -0.01    0.06   1
  13  19 -19   -0.13    0.08   1
  13  19  19   -0.03    0.07   1
  19 -19  13    0.00    0.07   1
  19 -13  19    0.04    0.07   1
  19  13  19    0.06    0.07   1
  19  19 -13    0.06    0.06   1
  19  19  13   -0.06    0.07   1
  15 -19  19    0.20    0.07   1
  15  19 -19    0.22    0.09   1
  15  19  19    0.11    0.08   1
  19 -19  15    0.27    0.07   1
  19 -15  19    0.08    0.06   1
  19  15  19   -0.05    0.07   1
  19  19 -15    0.01    0.08   1
  19  19  15    0.02    0.07   1
  17 -19  19   -0.08    0.08   1
  17  19 -19    0.08    0.10   1
  17  19  19    0.09    0.08   1
  19 -19  17    0.25    0.08   1
  19 -17  19   -0.03    0.08   1
  19  17 -19    0.12    0.09   1
  19  17  19   -0.04    0.08   1
  19  19 -17    0.07    0.09   1
  19  19  17    0.16    0.08   1
  19 -19  19    0.36    0.09   1
  19  19 -19   -0.04    0.11   1
  19  19  19    0.05    0.09   1
 -20   0   0    3.33    0.08   1
   0 -20   0    3.34    0.13   1
   0   0 -20    3.47    0.13   1
   0   0  20    3.36    0.11   1
   0  20   0    3.50    0.12   1
  20   0   0    3.51    0.07   1
 -20   0  -2    1.27    0.07   1
 -20   0   2    1.25    0.05   1
  -2 -20   0    1.32    0.11   1
  -2  20   0    1.20    0.08   1
   0  -2 -20    1.21    0.09   1
   0  -2  20    1.18    0.08   1
   0   2  20    1.34    0.08   1
   2 -20   0    1.35    0.10   1
   2  20   0    1.33    0.08   1
  20   0   2    1.38    0.06   1
 -20   0  -4    0.04    0.04   1
 -20   0   4    0.06    0.02   1
  -4 -20   0    0.04    0.05   1
  -4  20   0   -0.02    0.04   1
   0  -4 -20    0.42    0.06   1
   0  -4  20    0.02    0.05   1
   0  -4  20    0.03    0.04   1
   0   4  20    0.09    0.04   1
   4 -20   0    0.02    0.05   1
   4  20   0    0.00    0.03   1
  20   0  -4    0.04    0.02   1
  20   0   4    0.04    0.03   1
 -20   0  -6    0.16    0.05   1
  -6 -20   0    0.11    0.05   1
  -6  20   0    0.16    0.04   1
   0  -6 -20    0.15    0.06   1
   0  -6  20    0.09    0.06   1
   0  -6  20    0.13    0.05   1
   0   6  20    0.17    0.04   1
   6 -20   0    0.12    0.05   1
   6  20   0    0.22    0.04   1
  20   0   6    0.14    0.03   1
 -20   0  -8    0.23    0.05   1
  -8  20   0    0.16    0.04   1
   0  -8 -20    0.25    0.06   1
   0  -8  20    0.19    0.06   1
   0  -8  20    0.17    0.04   1
   0   8  20    0.16    0.05   1
   8 -20   0    0.18    0.05   1
   8  20   0    0.22    0.05   1
  20   0   8    0.13    0.04   1
 -20   0 -10    0.76    0.09   1
 -10  20   0    0.99    0.08   1
   0 -10 -20    0.71    0.08   1
   0 -10  20    0.75    0.08   1
   0  10  20    0.87    0.08   1
  10 -20   0    0.90    0.09   1
  10  20   0    0.94    0.08   1
  20   0  10    0.87    0.07   1
 -20   0 -12    0.65    0.08   1
 -12  20   0    0.71    0.08   1
   0 -12 -20    0.62    0.07   1
   0 -12  20    0.93    0.08   1
   0  12  20    0.82    0.08   1
  12 -20   0    0.77    0.09   1
  12  20   0    0.57    0.06   1
  20   0  12    0.78    0.07   1
 -14  20   0    0.35    0.06   1
   0 -14  20    0.21    0.06   1
   0  14  20    0.44    0.07   1
  14 -20   0    0.51    0.06   1
  14  20   0    0.30    0.05   1
  20   0  14    0.60    0.07   1
 -16  20   0    0.01    0.05   1
   0 -16  20    0.02    0.05   1
   0  16  20   -0.05    0.05   1
  16 -20   0   -0.01    0.05   1
  16  20   0   -0.04    0.04   1
  20   0  16   -0.02    0.06   1
   0 -18  20    0.11    0.06   1
   0  18  20    0.13    0.06   1
  18 -20   0    0.19    0.06   1
  18  20   0    0.20    0.05   1
  20   0  18    0.18    0.05   1
 -20   2   0    1.29    0.05   1
  -2   0 -20    1.28    0.10   1
  -2   0  20    1.24    0.08   1
   0 -20  -2    1.30    0.10   1
   0 -20   2    1.27    0.10   1
   0  20  -2    1.47    0.09   1
   0  20   2    1.42    0.09   1
   2   0 -20    1.35    0.10   1
   2   0  20    1.43    0.09   1
  20  -2   0    1.30    0.05   1
  20   2   0    1.30    0.05   1
 -20  -2  -2    0.76    0.06   1
 -20  -2   2    0.73    0.05   1
  -2 -20  -2    0.56    0.07   1
  -2 -20   2    0.85    0.09   1
  -2  -2 -20    0.54    0.07   1
  -2  -2  20    0.69    0.08   1
  -2  -2  20    0.75    0.08   1
  -2   2 -20    0.82    0.09   1
  -2   2  20    0.66    0.07   1
  -2  20  -2    0.90    0.08   1
  -2  20   2    0.82    0.07   1
   2 -20  -2    0.75    0.09   1
   2 -20   2    0.91    0.09   1
   2  -2 -20    0.86    0.09   1
   2  -2  20    0.76    0.07   1
   2   2  20    0.75    0.07   1
   2  20  -2    0.81    0.08   1
   2  20   2    0.69    0.07   1
  20  -2  -2    0.75    0.03   1
  20  -2   2    0.69    0.04   1
  20   2  -2    0.77    0.04   1
  20   2   2    0.63    0.05   1
 -20  -2  -4    0.05    0.04   1
 -20  -2   4    0.03    0.02   1
 -20   2  -4   -0.04    0.03   1
  -4 -20  -2    0.05    0.05   1
  -4 -20   2    0.03    0.05   1
  -4  20  -2   -0.03    0.03   1
  -4  20   2    0.01    0.04   1
  -2  -4 -20   -0.07    0.04   1
  -2  -4  20    0.06    0.05   1
  -2  -4  20    0.08    0.04   1
  -2   4  20   -0.07    0.03   1
   2  -4 -20   -0.04    0.04   1
   2  -4  20   -0.06    0.05   1
   2  -4  20    0.01    0.04   1
   2   4  20   -0.01    0.03   1
   4 -20  -2    0.08    0.05   1
   4 -20   2    0.06    0.05   1
   4  20  -2   -0.05    0.03   1
   4  20   2    0.05    0.04   1
  20  -2   4    0.02    0.02   1
  20   2   4   -0.07    0.03   1
 -20  -2  -6    0.09    0.04   1
 -20  -2   6    0.07    0.02   1
 -20   2  -6    0.08    0.04   1
  -6 -20  -2    0.03    0.05   1
  -6 -20   2    0.17    0.06   1
  -6  20  -2    0.02    0.04   1
  -6  20   2    0.16    0.04   1
  -2  -6 -20    0.05    0.05   1
  -2  -6  20    0.05    0.05   1
  -2  -6  20    0.07    0.04   1
  -2   6  20    0.04    0.04   1
   2  -6 -20    0.08    0.05   1
   2  -6  20    0.14    0.05   1
   2  -6  20    0.05    0.04   1
   2   6  20    0.11    0.04   1
   6 -20  -2    0.12    0.05   1
   6 -20   2    0.08    0.05   1
   6  20  -2   -0.01    0.03   1
   6  20   2    0.14    0.04   1
  20  -2   6    0.07    0.03   1
  20   2  -6    0.08    0.02   1
  20   2   6    0.18    0.03   1
 -20  -2  -8    0.08    0.05   1
 -20  -2   8    0.05    0.02   1
 -20   2  -8    0.07    0.05   1
  -8  20  -2    0.02    0.04   1
  -8  20   2    0.01    0.04   1
  -2  -8 -20    0.06    0.05   1
  -2  -8  20    0.12    0.06   1
  -2  -8  20    0.00    0.04   1
  -2   8  20    0.01    0.04   1
   2  -8 -20    0.03    0.05   1
   2  -8  20    0.11    0.04   1
   2   8  20    0.10    0.04   1
   8 -20  -2    0.05    0.05   1
   8 -20   2    0.09    0.06   1
   8  20  -2    0.13    0.04   1
   8  20   2   -0.03    0.03   1
  20  -2   8    0.00    0.03   1
  20   2  -8    0.02    0.02   1
  20   2   8    0.08    0.03   1
 -20  -2 -10    0.83    0.10   1
 -20   2 -10    0.86    0.09   1
 -10  20  -2    0.63    0.07   1
 -10  20   2    0.61    0.07   1
  -2 -10 -20    0.61    0.08   1
  -2 -10  20    0.78    0.08   1
  -2  10  20    0.75    0.09   1
   2 -10 -20    0.62    0.07   1
   2 -10  20    0.78    0.08   1
   2  10  20    0.82    0.08   1
  10 -20  -2    0.61    0.07   1
  10 -20   2    0.85    0.10   1
  10  20  -2    0.78    0.07   1
  10  20   2    0.83    0.07   1
  20  -2  10    0.73    0.07   1
  20   2  10    0.66    0.07   1
 -20  -2 -12    0.44    0.07   1
 -20   2 -12    0.42    0.07   1
 -12  20  -2    0.45    0.06   1
 -12  20   2    0.60    0.06   1
  -2 -12  20    0.46    0.07   1
  -2  12  20    0.51    0.06   1
   2 -12 -20    0.43    0.08   1
   2 -12  20    0.87    0.08   1
   2  12  20    0.44    0.07   1
  12 -20  -2    0.41    0.06   1
  12 -20   2    0.48    0.07   1
  12  20  -2    0.46    0.05   1
  12  20   2    0.37    0.04   1
  20  -2  12    0.50    0.06   1
  20   2  12    0.65    0.07   1
 -20  -2  14    0.06    0.02   1
 -20  -2  14    0.05    0.02   1
 -14  20  -2    0.00    0.05   1
  -2  14  20    0.06    0.04   1
   2 -14 -20    0.04    0.07   1
   2 -14  20    0.07    0.05   1
   2  14  20    0.05    0.05   1
  14 -20  -2    0.03    0.05   1
  14 -20   2    0.12    0.06   1
  14  20  -2    0.03    0.04   1
  20  -2  14    0.11    0.04   1
  20   2  14    0.09    0.04   1
 -20  -2  16    0.02    0.03   1
 -20  -2  16    0.00    0.03   1
 -16  20  -2   -0.01    0.05   1
 -16  20   2   -0.03    0.04   1
  -2 -16  20    0.03    0.05   1
  -2  16  20   -0.02    0.05   1
   2 -16  20    0.16    0.05   1
   2  16  20    0.09    0.06   1
  16 -20  -2   -0.02    0.06   1
  16 -20   2   -0.02    0.06   1
  16  20  -2   -0.08    0.05   1
  16  20   2   -0.07    0.04   1
  20  -2  16   -0.01    0.04   1
 -20  -2  18    0.07    0.03   1
 -20  -2  18    0.17    0.04   1
 -18  20   2    0.12    0.04   1
  -2 -18  20    0.16    0.06   1
   2 -18  20   -0.01    0.06   1
   2  18  20   -0.02    0.05   1
  18 -20  -2    0.03    0.06   1
  18 -20   2    0.02    0.06   1
  18 -20   2    0.11    0.04   1
  18  20  -2   -0.11    0.05   1
  18  20   2   -0.08    0.05   1
  20  -2  18    0.02    0.05   1
  20   2  18    0.17    0.05   1
 -20  -4   0    0.05    0.04   1
  -4   0 -20   -0.04    0.05   1
  -4   0  20    0.05    0.04   1
   0 -20  -4    0.03    0.05   1
   0 -20   4   -0.05    0.05   1
   0  20  -4    0.01    0.04   1
   0  20   4    0.08    0.04   1
   4   0  20   -0.02    0.04   1
  20  -4   0    0.02    0.02   1
  20  -4   0    0.07    0.02   1
  20   4   0    0.01    0.02   1
 -20  -4  -2    0.02    0.04   1
 -20  -4   2    0.06    0.04   1
  -4  -2 -20    0.01    0.05   1
  -4  -2  20   -0.03    0.04   1
  -4  -2  20   -0.03    0.04   1
  -4   2 -20    0.08    0.05   1
  -4   2  20    0.02    0.04   1
  -2 -20  -4    0.05    0.06   1
  -2 -20   4    0.05    0.05   1
  -2  20  -4    0.01    0.03   1
  -2  20   4   -0.02    0.03   1
   2 -20  -4    0.02    0.05   1
   2 -20   4    0.00    0.06   1
   2  20  -4    0.06    0.04   1
   2  20   4    0.11    0.04   1
   4  -2 -20    0.05    0.05   1
   4  -2  20    0.06    0.04   1
   4   2  20    0.01    0.04   1
  20  -4  -2    0.02    0.02   1
  20  -4  -2   -0.01    0.02   1
  20  -4   2    0.03    0.02   1
  20   4  -2   -0.01    0.02   1
  20   4   2    0.02    0.03   1
 -20  -4  -4    0.05    0.04   1
 -20  -4   4    0.04    0.03   1
  -4 -20  -4   -0.04    0.05   1
  -4 -20   4   -0.05    0.04   1
  -4  -4 -20    0.07    0.06   1
  -4  -4  20    0.01    0.05   1
  -4  -4  20    0.00    0.04   1
  -4   4  20    0.06    0.04   1
  -4  20  -4   -0.06    0.03   1
  -4  20   4    0.06    0.04   1
   4 -20  -4   -0.05    0.05   1
   4 -20   4    0.01    0.05   1
   4  -4 -20    0.02    0.04   1
   4  -4  20    0.00    0.04   1
   4   4  20   -0.03    0.03   1
   4  20  -4    0.05    0.03   1
   4  20   4    0.06    0.04   1
  20  -4   4    0.06    0.02   1
  20   4  -4   -0.03    0.02   1
  20   4   4   -0.02    0.02   1
 -20  -4  -6    0.00    0.04   1
 -20  -4   6    0.11    0.03   1
 -20   4  -6    0.05    0.04   1
  -6 -20   4    0.02    0.06   1
  -6  20  -4    0.02    0.04   1
  -6  20   4   -0.01    0.04   1
  -4  -6 -20    0.02    0.05   1
  -4  -6  20    0.10    0.06   1
  -4  -6  20   -0.08    0.03   1
  -4   6  20    0.00    0.03   1
   4  -6 -20    0.04    0.05   1
   4  -6  20    0.04    0.05   1
   4  -6  20   -0.03    0.03   1
   4   6  20   -0.02    0.04   1
   6 -20  -4    0.02    0.05   1
   6 -20   4    0.16    0.06   1
   6  20  -4    0.11    0.03   1
   6  20   4    0.00    0.03   1
  20  -4   6    0.02    0.03   1
  20   4  -6    0.01    0.02   1
  20   4   6    0.04    0.03   1
 -20  -4  -8    0.00    0.04   1
 -20  -4   8    0.05    0.03   1
 -20   4  -8    0.00    0.05   1
  -8  20  -4    0.05    0.04   1
  -8  20   4    0.05    0.04   1
  -4  -8 -20    0.03    0.06   1
  -4  -8  20    0.03    0.06   1
  -4  -8  20   -0.05    0.04   1
  -4   8  20    0.06    0.04   1
   4  -8 -20    0.12    0.05   1
   4  -8  20    0.12    0.05   1
   4   8  20    0.16    0.04   1
   8 -20  -4    0.12    0.05   1
   8 -20   4    0.05    0.05   1
   8  20  -4    0.17    0.04   1
   8  20   4    0.01    0.04   1
  20  -4   8    0.05    0.03   1
  20   4  -8    0.09    0.02   1
  20   4   8    0.11    0.04   1
 -20  -4 -10    0.25    0.06   1
 -20  -4  10    0.24    0.03   1
 -20   4 -10    0.14    0.05   1
 -10  20  -4    0.17    0.05   1
 -10  20   4    0.22    0.05   1
  -4 -10  20    0.11    0.06   1
  -4 -10  20    0.23    0.04   1
  -4  10  20    0.22    0.05   1
   4 -10 -20    0.19    0.06   1
   4 -10  20    0.22    0.05   1
   4  10  20    0.14    0.05   1
  10 -20  -4    0.17    0.05   1
  10 -20   4    0.21    0.06   1
  10  20  -4    0.24    0.04   1
  10  20   4    0.31    0.05   1
  20  -4  10    0.25    0.04   1
  20   4 -10    0.19    0.03   1
  20   4  10    0.16    0.04   1
 -20  -4 -12    0.17    0.06   1
 -20  -4  12    0.20    0.03   1
 -20  -4  12    0.19    0.03   1
 -20   4 -12    0.12    0.06   1
 -12  20  -4    0.22    0.06   1
 -12  20   4    0.19    0.05   1
  -4 -12  20    0.07    0.05   1
  -4  12  20    0.18    0.05   1
   4 -12 -20    0.13    0.06   1
   4 -12  20   -0.04    0.06   1
   4  12  20    0.08    0.04   1
  12 -20  -4    0.16    0.05   1
  12 -20   4    0.16    0.06   1
  12  20  -4    0.12    0.04   1
  12  20   4    0.23    0.04   1
  20  -4  12    0.29    0.05   1
  20   4  12    0.30    0.04   1
 -20  -4  14   -0.01    0.03   1
 -20  -4  14    0.00    0.03   1
 -14  20  -4    0.06    0.05   1
 -14  20   4    0.00    0.04   1
  -4 -14  20    0.10    0.06   1
  -4  14  20    0.03    0.05   1
   4 -14 -20    0.18    0.07   1
   4 -14  20    0.17    0.05   1
  14 -20  -4    0.04    0.05   1
  14 -20   4    0.01    0.06   1
  14  20  -4    0.11    0.04   1
  14  20   4    0.08    0.05   1
  20  -4  14    0.15    0.04   1
  20   4  14   -0.10    0.04   1
 -20  -4  16    0.45    0.05   1
 -20  -4  16    0.51    0.05   1
 -16  20   4    0.55    0.06   1
  -4 -16  20    0.33    0.06   1
  -4  16  20    0.53    0.07   1
   4 -16  20    0.40    0.06   1
   4  16  20    0.49    0.07   1
  16 -20  -4    0.47    0.07   1
  16 -20   4    0.46    0.07   1
  16  20  -4    0.39    0.09   1
  16  20   4    0.58    0.07   1
  20  -4  16    0.46    0.06   1
  20   4  16    0.35    0.05   1
 -20  -4  18    0.02    0.04   1
 -18  20   4   -0.06    0.04   1
  -4  18  20   -0.04    0.05   1
   4 -18  20   -0.03    0.05   1
   4  18  20   -0.01    0.06   1
  18 -20   4    0.18    0.07   1
  18 -20   4   -0.08    0.04   1
  18  20  -4   -0.06    0.05   1
  18  20   4   -0.05    0.05   1
  20  -4  18    0.04    0.05   1
  20   4  18   -0.04    0.05   1
 -20  -6   0    0.18    0.04   1
  -6   0 -20    0.24    0.06   1
  -6   0  20    0.09    0.05   1
  -6   0  20    0.14    0.04   1
   0 -20  -6    0.18    0.06   1
   0 -20   6    0.15    0.06   1
   0  20  -6    0.07    0.03   1
   0  20   6    0.18    0.04   1
   6   0  20    0.16    0.04   1
  20  -6   0    0.14    0.03   1
  20  -6   0    0.13    0.02   1
  20   6   0    0.13    0.03   1
 -20  -6  -2    0.08    0.05   1
 -20  -6   2    0.16    0.04   1
  -6  -2 -20    0.07    0.05   1
  -6  -2  20    0.09    0.05   1
  -6  -2  20    0.07    0.04   1
  -6   2 -20   -0.01    0.05   1
  -6   2  20    0.08    0.04   1
  -2 -20  -6    0.03    0.06   1
  -2 -20   6    0.06    0.05   1
  -2  20  -6    0.07    0.04   1
  -2  20   6    0.09    0.04   1
   2 -20  -6    0.06    0.05   1
   2 -20   6    0.14    0.05   1
   2  20  -6    0.06    0.03   1
   2  20   6    0.11    0.05   1
   6  -2 -20    0.05    0.05   1
   6  -2  20    0.08    0.03   1
   6   2  20    0.08    0.04   1
  20  -6  -2    0.08    0.02   1
  20  -6  -2    0.10    0.02   1
  20  -6   2    0.05    0.05   1
  20  -6   2    0.08    0.02   1
  20   6  -2    0.12    0.03   1
  20   6   2    0.13    0.03   1
 -20  -6  -4    0.05    0.05   1
 -20  -6   4    0.07    0.04   1
  -6  -4 -20   -0.06    0.05   1
  -6  -4  20    0.02    0.05   1
  -6  -4  20    0.01    0.04   1
  -6   4  20    0.11    0.04   1
  -4 -20  -6   -0.01    0.05   1
  -4  20  -6    0.08    0.04   1
  -4  20   6    0.01    0.04   1
   4 -20  -6   -0.05    0.05   1
   4 -20   6    0.02    0.05   1
   4  20  -6    0.02    0.03   1
   4  20   6   -0.01    0.03   1
   6  -4 -20    0.06    0.04   1
   6  -4  20    0.03    0.04   1
   6   4  20    0.03    0.03   1
  20  -6   4    0.05    0.03   1
  20  -6   4    0.07    0.03   1
  20   6  -4    0.02    0.02   1
  20   6   4    0.02    0.03   1
 -20  -6  -6    0.09    0.05   1
 -20  -6   6    0.04    0.03   1
  -6  -6  20    0.05    0.05   1
  -6  -6  20    0.01    0.04   1
  -6   6  20    0.05    0.04   1
  -6  20  -6   -0.01    0.04   1
  -6  20   6    0.08    0.04   1
   6 -20  -6    0.02    0.05   1
   6 -20   6   -0.05    0.05   1
   6  -6 -20    0.01    0.04   1
   6  -6  20   -0.02    0.04   1
   6   6  20    0.02    0.04   1
   6  20  -6    0.06    0.04   1
   6  20   6   -0.06    0.04   1
  20  -6   6    0.01    0.04   1
  20  -6   6    0.02    0.03   1
  20   6  -6    0.00    0.02   1
  20   6   6    0.09    0.04   1
 -20  -6  -8    0.03    0.06   1
  -8  20  -6    0.00    0.04   1
  -8  20   6    0.08    0.04   1
  -6  -8  20    0.10    0.06   1
  -6  -8  20    0.39    0.06   1
  -6   8  20    0.17    0.04   1
   6  -8 -20    0.09    0.05   1
   6  -8  20    0.11    0.04   1
   6   8  20    0.15    0.05   1
   8 -20  -6    0.10    0.05   1
   8 -20   6    0.09    0.06   1
   8  20  -6    0.15    0.04   1
   8  20   6    0.05    0.04   1
  20  -6   8    0.03    0.04   1
  20  -6   8    0.15    0.03   1
  20   6  -8    0.13    0.02   1
  20   6   8    0.16    0.04   1
 -20  -6 -10    0.19    0.06   1
 -10  20  -6    0.28    0.05   1
 -10  20   6    0.38    0.05   1
  -6 -10  20    0.27    0.06   1
  -6 -10  20    0.19    0.04   1
  -6  10  20    0.26    0.05   1
   6 -10 -20    0.35    0.06   1
   6 -10  20    0.22    0.05   1
   6  10  20    0.23    0.05   1
  10 -20  -6    0.34    0.06   1
  10 -20   6    0.27    0.06   1
  10  20  -6    0.29    0.05   1
  10  20   6    0.40    0.05   1
  20  -6  10    0.35    0.06   1
  20  -6  10    0.26    0.04   1
  20   6 -10    0.27    0.03   1
  20   6  10    0.36    0.05   1
 -20  -6  12    0.23    0.05   1
 -12  20  -6    0.54    0.06   1
  -6 -12  20    0.33    0.06   1
  -6  12  20    0.25    0.05   1
   6 -12 -20    0.35    0.06   1
   6 -12  20    0.37    0.06   1
   6  12  20    0.43    0.07   1
  12 -20  -6    0.36    0.06   1
  12 -20   6    0.26    0.06   1
  12  20  -6    0.47    0.06   1
  20  -6  12    0.32    0.06   1
  20  -6  12    0.45    0.05   1
  20   6 -12    0.36    0.04   1
  20   6  12    0.40    0.05   1
 -20  -6  14   -0.04    0.04   1
 -20  -6  14    0.03    0.03   1
 -14  20  -6    0.15    0.05   1
 -14  20   6    0.04    0.04   1
  -6 -14  20    0.02    0.04   1
  -6  14  20    0.01    0.05   1
   6 -14 -20    0.00    0.05   1
   6 -14  20   -0.01    0.05   1
   6  14  20   -0.12    0.05   1
  14 -20  -6    0.07    0.05   1
  14 -20   6    0.14    0.08   1
  14  20  -6    0.02    0.04   1
  14  20   6   -0.01    0.04   1
  20  -6  14    0.09    0.04   1
  20   6  14   -0.01    0.04   1
 -20  -6  16    0.60    0.06   1
 -20  -6  16    0.47    0.05   1
 -16  20   6    0.53    0.06   1
  -6 -16  20    0.53    0.07   1
  -6  16  20    0.52    0.07   1
   6 -16 -20    0.51    0.07   1
   6 -16  20    0.79    0.09   1
   6  16  20    0.82    0.10   1
  16 -20  -6    0.57    0.07   1
  16 -20   6    0.63    0.07   1
  16  20  -6    0.54    0.08   1
  16  20   6    0.44    0.06   1
  20   6  16    0.39    0.05   1
 -20  -6  18   -0.01    0.06   1
 -20  -6  18    0.05    0.04   1
 -18  20   6    0.05    0.04   1
  -6  18  20   -0.09    0.05   1
   6 -18  20    0.04    0.06   1
   6  18  20    0.16    0.06   1
  18 -20  -6    0.03    0.05   1
  18 -20   6    0.13    0.04   1
  18  20  -6   -0.09    0.05   1
  18  20   6    0.00    0.06   1
  20  -6  18    0.06    0.05   1
  20   6  18    0.08    0.06   1
 -20  -8   0    0.22    0.05   1
  -8   0  20    0.19    0.05   1
  -8   0  20    0.19    0.04   1
   0 -20  -8    0.07    0.06   1
   0  20  -8    0.17    0.04   1
   0  20   8    0.26    0.05   1
   8   0  20    0.20    0.04   1
  20  -8   0    0.16    0.03   1
  20  -8   0    0.20    0.02   1
  20   8   0    0.19    0.03   1
 -20  -8  -2    0.05    0.05   1
 -20  -8   2    0.05    0.05   1
  -8  -2  20    0.04    0.05   1
  -8  -2  20    0.08    0.04   1
  -8   2  20    0.00    0.04   1
  -8   2  20    0.02    0.03   1
  -2 -20  -8    0.07    0.06   1
  -2  20  -8    0.02    0.04   1
  -2  20   8    0.04    0.04   1
   2 -20  -8   -0.01    0.05   1
   2  20  -8    0.03    0.03   1
   2  20   8    0.03    0.04   1
   8  -2  20    0.03    0.04   1
   8   2  20    0.10    0.04   1
  20  -8  -2    0.05    0.02   1
  20  -8  -2    0.05    0.02   1
  20  -8   2    0.07    0.03   1
  20  -8   2    0.06    0.02   1
  20   8  -2   -0.01    0.03   1
  20   8   2    0.09    0.03   1
 -20  -8  -4    0.08    0.05   1
 -20  -8   4    0.08    0.05   1
  -8  -4  20    0.03    0.05   1
  -8  -4  20    0.09    0.04   1
  -8   4  20    0.08    0.03   1
  -4  20  -8    0.14    0.05   1
  -4  20   8   -0.05    0.04   1
   4 -20  -8    0.07    0.05   1
   4  20  -8    0.03    0.04   1
   4  20   8    0.05    0.04   1
   8  -4 -20    0.01    0.05   1
   8  -4  20    0.03    0.04   1
   8   4  20    0.06    0.04   1
  20  -8   4    0.04    0.03   1
  20  -8   4    0.06    0.02   1
  20   8  -4    0.10    0.03   1
  20   8   4    0.10    0.04   1
 -20  -8  -6    0.17    0.06   1
 -20  -8   6    0.11    0.04   1
  -8  -6  20    0.18    0.06   1
  -8  -6  20    0.10    0.04   1
  -8   6  20    0.10    0.04   1
  -6  20  -8    0.23    0.05   1
  -6  20   8    0.14    0.04   1
   6 -20  -8    0.16    0.06   1
   6  20  -8    0.02    0.04   1
   6  20   8    0.13    0.04   1
   8  -6 -20    0.06    0.04   1
   8  -6  20    0.11    0.04   1
   8   6  20    0.04    0.04   1
  20  -8   6    0.11    0.04   1
  20  -8   6    0.08    0.03   1
  20   8  -6    0.11    0.03   1
  20   8   6    0.10    0.04   1
 -20  -8  -8   -0.03    0.06   1
 -20  -8   8    0.01    0.04   1
  -8  -8  20    0.17    0.06   1
  -8  -8  20    0.03    0.04   1
  -8   8  20    0.03    0.03   1
  -8  20  -8    0.05    0.05   1
  -8  20   8    0.00    0.04   1
   8 -20  -8    0.00    0.05   1
   8  -8 -20   -0.01    0.04   1
   8  -8  20    0.04    0.04   1
   8   8  20    0.32    0.05   1
   8  20  -8    0.03    0.04   1
   8  20   8    0.08    0.04   1
  20  -8   8   -0.02    0.05   1
  20  -8   8    0.05    0.03   1
  20   8  -8   -0.03    0.03   1
  20   8   8    0.02    0.04   1
 -20  -8 -10    0.48    0.13   1
 -20  -8  10    0.71    0.08   1
 -10  20  -8    0.72    0.09   1
 -10  20   8    0.52    0.06   1
  -8 -10  20    0.57    0.08   1
  -8 -10  20    0.52    0.06   1
  -8  10  20    0.58    0.06   1
   8 -10 -20    0.53    0.06   1
   8  10  20    0.49    0.07   1
  10 -20  -8    0.63    0.07   1
  10  20  -8    0.38    0.05   1
  20  -8  10    0.55    0.07   1
  20  -8  10    0.64    0.07   1
  20   8 -10    0.41    0.05   1
  20   8  10    0.59    0.07   1
 -20  -8  12    0.33    0.05   1
 -12  20  -8    0.44    0.06   1
 -12  20   8    0.47    0.06   1
  -8 -12  20    0.41    0.06   1
  -8  12  20    0.38    0.06   1
   8 -12 -20    0.38    0.06   1
   8 -12  20    0.51    0.07   1
   8  12  20    0.46    0.08   1
  12 -20  -8    0.48    0.06   1
  12  20  -8    0.43    0.05   1
  12  20   8    0.38    0.05   1
  20  -8  12    0.37    0.07   1
  20  -8  12    0.36    0.05   1
  20   8 -12    0.47    0.05   1
  20   8  12    0.33    0.05   1
 -20  -8  14    0.03    0.05   1
 -14  20   8    0.00    0.04   1
  -8 -14  20   -0.02    0.04   1
  -8  14  20   -0.09    0.05   1
   8 -14 -20   -0.05    0.05   1
   8 -14  20   -0.03    0.06   1
   8  14  20   -0.05    0.05   1
  14 -20  -8    0.00    0.05   1
  20  -8  14   -0.06    0.04   1
  20   8 -14    0.01    0.03   1
  20   8  14   -0.03    0.04   1
 -20  -8  16    0.12    0.05   1
 -20  -8  16    0.28    0.05   1
 -16  20   8    0.26    0.04   1
  -8  16  20    0.21    0.05   1
   8 -16 -20    0.22    0.08   1
   8 -16  20    0.26    0.07   1
   8  16  20    0.16    0.06   1
  16 -20  -8    0.07    0.05   1
  16 -20   8    0.21    0.04   1
  16  20  -8    0.13    0.05   1
  16  20   8    0.17    0.05   1
  20  -8  16    0.37    0.06   1
  20   8  16    0.35    0.06   1
 -20  -8  18    0.00    0.04   1
 -18  20   8    0.09    0.04   1
  -8  18  20   -0.07    0.05   1
   8 -18 -20   -0.03    0.06   1
   8 -18  20   -0.01    0.06   1
   8  18 -20    0.10    0.06   1
   8  18  20    0.04    0.06   1
  18 -20   8    0.05    0.04   1
  18  20  -8    0.12    0.06   1
  18  20   8   -0.11    0.06   1
  20  -8  18   -0.03    0.05   1
  20   8  18   -0.05    0.05   1
 -20 -10   0    0.84    0.09   1
 -10   0  20    0.90    0.08   1
 -10   0  20    1.03    0.07   1
   0 -20 -10    0.67    0.08   1
   0  20 -10    1.01    0.08   1
   0  20  10    1.16    0.08   1
  10   0  20    0.82    0.08   1
  20 -10   0    0.88    0.05   1
  20 -10   0    0.87    0.04   1
  20  10   0    0.91    0.07   1
 -20 -10  -2    1.02    0.10   1
 -20 -10   2    0.60    0.07   1
 -10  -2  20    0.84    0.09   1
 -10  -2  20    0.73    0.07   1
 -10   2  20    0.65    0.08   1
 -10   2  20    0.74    0.07   1
  -2  20 -10    0.66    0.08   1
  -2  20  10    0.72    0.08   1
   2 -20 -10    0.76    0.09   1
   2  20 -10    0.68    0.07   1
   2  20  10    0.99    0.08   1
  10  -2  20    0.69    0.07   1
  10   2  20    0.73    0.07   1
  20 -10  -2    0.81    0.04   1
  20 -10  -2    0.61    0.04   1
  20 -10   2    0.67    0.06   1
  20 -10   2    0.72    0.05   1
  20  10  -2    0.78    0.06   1
  20  10   2    0.68    0.06   1
 -20 -10  -4    0.24    0.06   1
 -20 -10   4    0.17    0.06   1
 -10  -4  20    0.28    0.06   1
 -10  -4  20    0.32    0.05   1
 -10   4  20    0.19    0.04   1
  -4  20 -10    0.26    0.05   1
  -4  20  10    0.22    0.05   1
   4 -20 -10    0.16    0.06   1
   4  20 -10    0.28    0.05   1
   4  20  10    0.23    0.05   1
  10  -4  20    0.21    0.05   1
  10   4  20    0.17    0.04   1
  20 -10   4    0.29    0.05   1
  20 -10   4    0.24    0.03   1
  20  10  -4    0.28    0.03   1
  20  10   4    0.20    0.04   1
 -20 -10  -6    0.32    0.07   1
 -20 -10   6    0.28    0.06   1
 -10  -6  20    0.32    0.06   1
 -10  -6  20    0.30    0.05   1
 -10   6  20    0.32    0.04   1
  -6  20 -10    0.40    0.07   1
  -6  20  10    0.27    0.05   1
   6 -20 -10    0.24    0.06   1
   6  20 -10    0.21    0.04   1
   6  20  10    0.19    0.05   1
  10  -6 -20    0.35    0.05   1
  10  -6  20    0.54    0.07   1
  10   6  20    0.38    0.05   1
  20 -10   6    0.33    0.06   1
  20 -10   6    0.23    0.03   1
  20  10  -6    0.18    0.03   1
  20  10   6    0.31    0.05   1
 -20 -10  -8    0.46    0.08   1
 -20 -10   8    0.60    0.07   1
 -10  -8  20    0.51    0.07   1
 -10  -8  20    0.57    0.06   1
 -10   8  20    0.54    0.06   1
  -8  20 -10    0.78    0.08   1
  -8  20  10    0.60    0.06   1
   8 -20 -10    0.60    0.07   1
   8  20 -10    0.40    0.05   1
   8  20  10    0.38    0.09   1
  10  -8 -20    0.60    0.06   1
  10  -8  20    0.49    0.09   1
  20 -10   8    0.53    0.07   1
  20 -10   8    0.70    0.07   1
  20  10  -8    0.57    0.06   1
  20  10   8    0.41    0.05   1
 -20 -10  10    1.87    0.11   1
 -10 -10  20    1.82    0.13   1
 -10 -10  20    1.71    0.10   1
 -10  10  20    1.74    0.08   1
 -10  20 -10    2.09    0.11   1
 -10  20  10    2.01    0.10   1
  10 -20 -10    1.77    0.11   1
  10 -10 -20    1.91    0.10   1
  10 -10  20    1.94    0.11   1
  10  10  20    1.61    0.11   1
  10  20 -10    2.01    0.09   1
  10  20  10    1.99    0.11   1
  20 -10  10    1.91    0.11   1
  20 -10  10    1.90    0.09   1
  20  10 -10    1.93    0.08   1
  20  10  10    1.76    0.09   1
 -20 -10  12    1.30    0.10   1
 -12  20  10    1.27    0.09   1
 -10 -12  20    1.43    0.10   1
 -10  12  20    1.33    0.09   1
  10 -12 -20    1.15    0.10   1
  10 -12  20    1.13    0.10   1
  10  12  20    1.56    0.11   1
  12 -20 -10    1.21    0.10   1
  12  20  10    1.17    0.10   1
  20 -10  12    1.11    0.12   1
  20 -10  12    1.16    0.08   1
  20  10 -12    1.08    0.07   1
  20  10  12    1.17    0.13   1
 -20 -10  14    0.17    0.06   1
 -14  20  10    0.22    0.05   1
 -10 -14  20    0.24    0.05   1
 -10  14  20    0.16    0.05   1
  10 -14 -20    0.23    0.06   1
  10 -14  20    0.22    0.06   1
  10  14  20    0.35    0.07   1
  14 -20 -10    0.13    0.06   1
  14 -20  10    0.08    0.05   1
  14  20 -10    0.20    0.05   1
  14  20  10    0.18    0.06   1
  20 -10  14    0.13    0.05   1
  20  10 -14    0.28    0.04   1
  20  10  14    0.15    0.05   1
 -20 -10  16    0.00    0.06   1
 -16  20  10    0.01    0.04   1
 -10  16  20    0.01    0.04   1
  10 -16 -20    0.04    0.06   1
  10 -16  20    0.07    0.05   1
  10  16  20   -0.03    0.06   1
  16 -20 -10    0.09    0.05   1
  16 -20  10    0.12    0.05   1
  16  20 -10    0.00    0.05   1
  16  20  10    0.05    0.06   1
  20 -10  16    0.03    0.05   1
  20  10 -16    0.07    0.05   1
  20  10  16    0.11    0.06   1
 -20 -10  18    0.15    0.05   1
 -18  20  10    0.07    0.04   1
 -10  18  20    0.04    0.05   1
  10 -18 -20    0.21    0.08   1
  10 -18  20    0.12    0.06   1
  10  18 -20    0.23    0.07   1
  10  18  20    0.08    0.06   1
  18 -20  10    0.30    0.06   1
  18  20 -10    0.27    0.06   1
  18  20  10    0.26    0.06   1
  20 -10  18    0.18    0.06   1
  20  10  18   -0.14    0.06   1
 -20 -12   0    0.69    0.08   1
 -12   0  20    0.81    0.08   1
 -12   0  20    0.83    0.07   1
   0  20 -12    0.84    0.07   1
   0  20  12    0.72    0.08   1
  12   0  20    0.84    0.07   1
  20 -12   0    0.69    0.08   1
  20 -12   0    0.74    0.05   1
  20  12   0    0.76    0.07   1
 -20 -12  -2    0.46    0.07   1
 -20 -12   2    0.39    0.07   1
 -12  -2  20    0.45    0.06   1
 -12  -2  20    0.56    0.06   1
 -12   2  20    0.40    0.05   1
 -12   2  20    0.55    0.06   1
  -2  20 -12    0.52    0.07   1
  -2  20  12    0.61    0.06   1
   2 -20 -12    0.46    0.08   1
   2  20 -12    0.64    0.07   1
   2  20  12    0.67    0.07   1
  12  -2  20    0.47    0.06   1
  12   2  20    0.59    0.07   1
  20 -12  -2    0.49    0.05   1
  20 -12  -2    0.56    0.04   1
  20 -12   2    0.57    0.07   1
  20 -12   2    0.46    0.05   1
  20  12  -2    0.57    0.06   1
  20  12   2    0.49    0.05   1
 -20 -12  -4    0.22    0.07   1
 -20 -12   4    0.15    0.06   1
 -12  -4  20    0.14    0.05   1
 -12  -4  20    0.26    0.05   1
 -12   4  20    0.07    0.04   1
 -12   4  20    0.13    0.04   1
  -4  20 -12    0.09    0.05   1
  -4  20  12    0.12    0.05   1
   4 -20 -12    0.26    0.07   1
   4  20 -12    0.24    0.05   1
   4  20  12    0.24    0.04   1
  12  -4  20    0.29    0.05   1
  20 -12  -4    0.21    0.03   1
  20 -12  -4    0.17    0.02   1
  20 -12   4    0.19    0.05   1
  20 -12   4    0.12    0.03   1
  20  12  -4    0.15    0.04   1
  20  12   4    0.15    0.04   1
 -20 -12   6    0.28    0.06   1
 -12  -6  20    0.40    0.07   1
 -12  -6  20    0.25    0.05   1
 -12   6  20    0.33    0.05   1
  -6  20 -12    0.17    0.09   1
  -6  20  12    0.28    0.05   1
   6 -20 -12    0.40    0.07   1
   6  20 -12    0.28    0.06   1
  12   6  20    0.18    0.05   1
  20 -12   6    0.44    0.06   1
  20 -12   6    0.37    0.04   1
  20  12  -6    0.41    0.05   1
  20  12   6    0.27    0.04   1
 -20 -12   8    0.34    0.07   1
 -12  -8  20    0.33    0.07   1
 -12  -8  20    0.34    0.06   1
 -12   8  20    0.41    0.05   1
  -8  20  12    0.50    0.06   1
   8 -20 -12    0.36    0.07   1
   8  20  12    0.45    0.07   1
  12  -8 -20    0.47    0.06   1
  12  -8  20    0.55    0.07   1
  12   8  20    0.43    0.06   1
  20 -12   8    0.92    0.10   1
  20 -12   8    0.56    0.07   1
  20  12  -8    0.43    0.05   1
  20  12   8    0.47    0.05   1
 -20 -12  10    1.40    0.11   1
 -12 -10  20    1.09    0.12   1
 -12 -10  20    1.12    0.09   1
 -12  10  20    1.20    0.08   1
 -10  20  12    1.38    0.09   1
  10 -20 -12    1.11    0.11   1
  10  20 -12    1.08    0.10   1
  10  20  12    1.04    0.10   1
  12 -10 -20    1.40    0.09   1
  12 -10  20    1.16    0.09   1
  12  10  20    1.38    0.11   1
  20 -12  10    1.37    0.12   1
  20 -12  10    1.23    0.09   1
  20  12 -10    1.29    0.08   1
  20  12  10    1.32    0.09   1
 -20 -12  12    1.16    0.11   1
 -12 -12  20    1.34    0.11   1
 -12  12  20    1.19    0.08   1
 -12  20  12    1.32    0.09   1
  12 -20 -12    1.02    0.10   1
  12 -20  12    1.28    0.09   1
  12 -12 -20    1.41    0.09   1
  12 -12  20    1.20    0.10   1
  12  12  20    1.05    0.11   1
  12  20 -12    0.90    0.09   1
  12  20  12    1.16    0.10   1
  20 -12  12    1.19    0.10   1
  20  12 -12    1.33    0.09   1
  20  12  12    0.95    0.09   1
 -20 -12  14    0.21    0.07   1
 -14  20  12    0.33    0.05   1
 -12  14  20    0.26    0.05   1
  12 -14  20    0.33    0.07   1
  12  14  20    0.19    0.06   1
  14 -20 -12    0.22    0.06   1
  14 -20  12    0.13    0.05   1
  14  20 -12    0.20    0.06   1
  14  20  12    0.19    0.06   1
  20  12 -14    0.35    0.05   1
  20  12  14    0.14    0.05   1
 -20 -12  16    0.04    0.07   1
 -16  20  12    0.03    0.04   1
 -12  16  20   -0.08    0.05   1
  12 -16 -20   -0.03    0.06   1
  12 -16  20    0.11    0.06   1
  12  16 -20    0.10    0.06   1
  12  16  20   -0.12    0.06   1
  16 -20  12    0.05    0.05   1
  16  20 -12   -0.05    0.06   1
  16  20  12   -0.04    0.06   1
  20 -12  16    0.09    0.06   1
  20  12 -16    0.09    0.05   1
  20  12  16   -0.14    0.05   1
 -18  20  12    0.20    0.04   1
 -12  18  20    0.08    0.05   1
  12 -18  20    0.27    0.06   1
  12  18 -20    0.36    0.08   1
  12  18  20   -0.16    0.06   1
  18 -20  12    0.07    0.06   1
  18  20 -12    0.12    0.06   1
  18  20  12   -0.04    0.06   1
  20 -12  18    0.09    0.06   1
  20  12  18   -0.06    0.06   1
 -20 -14   0    0.45    0.08   1
 -14   0  20    0.34    0.05   1
 -14   0  20    0.40    0.05   1
   0  20 -14    0.36    0.07   1
   0  20  14    0.31    0.06   1
  14   0  20    0.42    0.06   1
  20 -14   0    0.41    0.05   1
  20 -14   0    0.39    0.05   1
  20  14   0    0.36    0.05   1
 -20 -14  -2    0.05    0.06   1
 -20 -14   2    0.08    0.07   1
 -14  -2  20    0.11    0.05   1
 -14  -2  20    0.09    0.04   1
 -14   2  20    0.14    0.05   1
 -14   2  20    0.05    0.03   1
  -2  20 -14    0.12    0.05   1
  -2  20  14    0.14    0.05   1
   2  20 -14    0.07    0.06   1
   2  20  14    0.18    0.05   1
  14  -2  20    0.04    0.04   1
  14   2  20    0.15    0.05   1
  20 -14  -2    0.10    0.04   1
  20 -14  -2    0.04    0.02   1
  20 -14   2    0.06    0.04   1
  20 -14   2    0.07    0.03   1
  20  14  -2    0.08    0.04   1
  20  14   2    0.13    0.04   1
 -20 -14   4    0.00    0.06   1
 -14  -4  20    0.05    0.05   1
 -14  -4  20    0.05    0.04   1
 -14   4  20    0.07    0.04   1
 -14   4  20    0.06    0.03   1
  -4  20 -14    0.06    0.05   1
  -4  20  14    0.03    0.04   1
   4 -20 -14   -0.03    0.06   1
   4  20 -14    0.00    0.05   1
   4  20  14    0.11    0.06   1
  14  -4  20    0.04    0.05   1
  14   4  20   -0.02    0.04   1
  20 -14  -4    0.06    0.03   1
  20 -14  -4    0.02    0.02   1
  20 -14   4   -0.03    0.05   1
  20 -14   4    0.04    0.03   1
  20  14  -4    0.07    0.04   1
  20  14   4    0.07    0.04   1
 -20 -14   6   -0.11    0.06   1
 -14  -6  20    0.09    0.06   1
 -14  -6  20    0.01    0.04   1
 -14   6  20    0.04    0.04   1
 -14   6  20   -0.04    0.03   1
  -6  20 -14    0.13    0.06   1
  -6  20  14    0.06    0.05   1
   6 -20 -14   -0.02    0.06   1
   6  20 -14   -0.01    0.05   1
   6  20  14    0.02    0.05   1
  14  -6  20    0.00    0.05   1
  14   6  20   -0.03    0.04   1
  20 -14  -6   -0.02    0.02   1
  20 -14  -6    0.01    0.02   1
  20 -14   6    0.09    0.06   1
  20 -14   6   -0.04    0.03   1
  20  14  -6    0.03    0.04   1
 -20 -14   8   -0.08    0.07   1
 -14  -8  20    0.04    0.06   1
 -14  -8  20    0.01    0.04   1
 -14   8  20   -0.08    0.04   1
 -14   8  20   -0.06    0.03   1
  -8  20  14   -0.02    0.04   1
   8 -20 -14    0.09    0.06   1
   8  20 -14    0.04    0.05   1
   8  20  14   -0.09    0.05   1
  14  -8  20   -0.04    0.05   1
  14   8  20    0.13    0.05   1
  20 -14   8   -0.14    0.06   1
  20 -14   8   -0.07    0.04   1
  20  14  -8    0.03    0.04   1
 -20 -14  10    0.26    0.08   1
 -14 -10  20    0.26    0.08   1
 -14 -10  20    0.15    0.05   1
 -14  10  20    0.21    0.04   1
 -10  20  14    0.20    0.05   1
  10 -20 -14    0.26    0.07   1
  10 -20  14    0.19    0.05   1
  10  20 -14    0.19    0.05   1
  10  20  14    0.28    0.06   1
  14 -10 -20    0.23    0.05   1
  14 -10  20    0.27    0.07   1
  14  10  20    0.25    0.06   1
  20 -14  10    0.31    0.08   1
  20 -14  10    0.25    0.04   1
  20  14 -10    0.24    0.05   1
  20  14  10    0.27    0.05   1
 -20 -14  12    0.26    0.07   1
 -14 -12  20    0.28    0.06   1
 -14  12  20    0.34    0.05   1
 -12  20  14    0.36    0.06   1
  12 -20 -14    0.40    0.06   1
  12 -20  14    0.11    0.05   1
  12  20 -14    0.27    0.06   1
  12  20  14    0.19    0.06   1
  14 -12 -20    0.33    0.06   1
  14 -12  20    0.25    0.06   1
  14  12  20    0.12    0.05   1
  20 -14  12    0.33    0.05   1
  20  14 -12    0.27    0.05   1
  20  14  12    0.20    0.05   1
 -20 -14  14   -0.10    0.07   1
 -14  14  20   -0.02    0.04   1
 -14  20  14   -0.01    0.04   1
  14 -20 -14    0.03    0.06   1
  14 -20  14    0.10    0.05   1
  14  14  20   -0.09    0.06   1
  14  20 -14    0.02    0.06   1
  14  20  14    0.11    0.06   1
  20 -14  14    0.05    0.05   1
  20  14 -14    0.00    0.05   1
  20  14  14   -0.03    0.05   1
 -16  20  14    0.14    0.05   1
 -14  16  20    0.19    0.05   1
  14 -16  20    0.01    0.07   1
  14  16 -20    0.22    0.07   1
  14  16  20    0.10    0.07   1
  16 -20  14    0.16    0.06   1
  16  20 -14    0.26    0.06   1
  16  20  14    0.22    0.06   1
  20 -14  16    0.10    0.06   1
  20  14 -16    0.20    0.06   1
  20  14  16    0.08    0.06   1
 -14  18  20    0.00    0.05   1
  14 -18  20   -0.06    0.06   1
  14  18 -20    0.36    0.09   1
  14  18  20    0.08    0.07   1
  18 -20  14   -0.06    0.06   1
  18  20 -14    0.14    0.07   1
  18  20  14   -0.01    0.07   1
  20 -14  18    0.08    0.07   1
  20  14 -18    0.05    0.07   1
  20  14  18   -0.11    0.07   1
 -16   0  20    0.02    0.04   1
 -16   0  20    0.02    0.03   1
   0  20 -16    0.10    0.06   1
   0  20  16    0.00    0.05   1
  16   0  20    0.02    0.05   1
  20 -16   0    0.06    0.04   1
  20 -16   0    0.05    0.03   1
  20  16   0    0.01    0.04   1
 -16  -2  20    0.00    0.04   1
 -16  -2  20   -0.03    0.03   1
 -16   2  20    0.03    0.03   1
  -2  20 -16    0.05    0.06   1
  -2  20  16    0.01    0.04   1
   2  20 -16    0.04    0.05   1
   2  20  16   -0.09    0.05   1
  16  -2  20   -0.01    0.04   1
  16   2  20    0.04    0.04   1
  20 -16  -2    0.00    0.04   1
  20 -16  -2    0.02    0.03   1
  20 -16   2    0.03    0.05   1
  20 -16   2   -0.01    0.03   1
  20  16  -2    0.04    0.05   1
  20  16   2   -0.06    0.04   1
 -16  -4  20    0.79    0.09   1
 -16  -4  20    0.43    0.05   1
 -16   4  20    0.48    0.06   1
 -16   4  20    0.41    0.04   1
  -4  20 -16    0.94    0.11   1
  -4  20  16    0.53    0.07   1
   4  20 -16    0.52    0.07   1
   4  20  16    0.46    0.07   1
  16  -4  20    0.56    0.07   1
  16   4  20    0.45    0.06   1
  20 -16  -4    0.48    0.04   1
  20 -16   4    0.36    0.06   1
  20 -16   4    0.52    0.05   1
  20  16  -4    0.48    0.06   1
  20  16   4    0.44    0.05   1
 -16  -6  20    0.58    0.07   1
 -16  -6  20    0.58    0.06   1
 -16   6  20    0.55    0.06   1
 -16   6  20    0.43    0.05   1
  -6  20  16    0.52    0.06   1
   6 -20 -16    0.43    0.09   1
   6  20 -16    0.61    0.07   1
   6  20  16    0.57    0.07   1
  16  -6  20    0.75    0.09   1
  16   6  20    0.73    0.09   1
  20 -16  -6    0.45    0.05   1
  20 -16  -6    0.54    0.04   1
  20 -16   6    0.56    0.08   1
  20 -16   6    0.56    0.06   1
  20  16  -6    0.40    0.05   1
  20  16   6    0.53    0.06   1
 -16  -8  20    0.06    0.07   1
 -16  -8  20    0.18    0.05   1
 -16   8  20    0.17    0.04   1
 -16   8  20    0.18    0.04   1
  -8  20  16    0.25    0.06   1
   8 -20 -16    0.27    0.07   1
   8 -20  16    0.04    0.05   1
   8  20 -16    0.36    0.06   1
   8  20  16    0.22    0.06   1
  16  -8  20    0.08    0.05   1
  16   8  20    0.08    0.05   1
  20 -16  -8    0.23    0.03   1
  20 -16  -8    0.21    0.03   1
  20 -16   8    0.40    0.06   1
  20 -16   8    0.04    0.04   1
  20  16  -8    0.14    0.05   1
  20  16   8    0.02    0.05   1
 -16 -10  20   -0.02    0.07   1
 -16 -10  20    0.03    0.05   1
 -16  10  20   -0.04    0.03   1
 -10  20  16    0.05    0.05   1
  10 -20 -16    0.01    0.06   1
  10 -20  16    0.09    0.06   1
  10  20 -16    0.16    0.06   1
  10  20  16    0.00    0.06   1
  16 -10  20    0.02    0.06   1
  16  10  20   -0.01    0.07   1
  20 -16  10    0.01    0.05   1
  20  16 -10    0.07    0.05   1
  20  16  10   -0.14    0.05   1
 -16 -12  20   -0.01    0.05   1
 -16  12  20    0.07    0.03   1
 -12  20  16   -0.05    0.05   1
  12 -20 -16    0.09    0.07   1
  12 -20  16   -0.10    0.05   1
  12  20 -16    0.02    0.06   1
  12  20  16    0.07    0.07   1
  16 -12  20    0.09    0.05   1
  16  12  20   -0.11    0.06   1
  20  16 -12    0.00    0.05   1
  20  16  12   -0.07    0.05   1
 -16  14  20    0.14    0.05   1
 -14  20  16    0.58    0.06   1
  14 -20  16    0.20    0.06   1
  14  20 -16    0.26    0.07   1
  14  20  16    0.31    0.07   1
  16 -14  20    0.12    0.06   1
  16  14  20    0.04    0.06   1
  20 -16  14    0.08    0.06   1
  20  16 -14    0.12    0.07   1
  20  16  14    0.09    0.06   1
 -16  20  16    0.46    0.06   1
  16 -20  16    0.38    0.07   1
  16 -16  20    0.33    0.07   1
  16  16 -20    0.37    0.08   1
  16  16  20    0.33    0.07   1
  16  20 -16    0.62    0.09   1
  16  20  16    0.22    0.07   1
  20 -16  16    0.46    0.07   1
  20  16 -16    0.35    0.07   1
  20  16  16    0.32    0.07   1
  16 -18  20    0.08    0.08   1
  16  18 -20    0.55    0.10   1
  16  18  20    0.15    0.08   1
  18 -20  16    0.02    0.07   1
  18  20 -16    0.37    0.09   1
  18  20  16    0.05    0.08   1
  20 -16  18    0.19    0.07   1
  20  16 -18    0.21    0.09   1
  20  16  18    0.18    0.08   1
 -18   0  20    0.24    0.04   1
 -18   0  20    0.25    0.03   1
   0  20 -18    0.23    0.07   1
   0  20  18    0.04    0.05   1
  18   0  20    0.22    0.05   1
  20 -18   0    0.28    0.06   1
  20 -18   0    0.28    0.04   1
  20  18   0    0.16    0.06   1
 -18  -2  20    0.07    0.05   1
 -18  -2  20    0.12    0.04   1
 -18   2  20    0.02    0.03   1
 -18   2  20    0.04    0.04   1
   2  20 -18    0.07    0.06   1
   2  20  18   -0.07    0.06   1
  18  -2  20    0.04    0.05   1
  18   2  20    0.04    0.05   1
  20 -18  -2    0.00    0.05   1
  20 -18  -2    0.08    0.03   1
  20 -18   2    0.32    0.06   1
  20 -18   2    0.02    0.04   1
  20  18   2   -0.03    0.05   1
 -18  -4  20    0.03    0.05   1
 -18  -4  20    0.02    0.04   1
 -18   4  20   -0.02    0.03   1
  -4  20  18    0.11    0.05   1
   4 -20  18    0.01    0.05   1
   4  20 -18    0.10    0.06   1
   4  20  18   -0.06    0.06   1
  18  -4  20   -0.08    0.05   1
  18   4  20   -0.03    0.05   1
  20 -18  -4    0.05    0.05   1
  20 -18  -4    0.05    0.03   1
  20 -18   4   -0.04    0.06   1
  20 -18   4    0.02    0.04   1
  20  18  -4    0.02    0.05   1
  20  18   4    0.10    0.06   1
 -18  -6  20    0.06    0.06   1
 -18  -6  20    0.21    0.05   1
  -6  20  18    0.16    0.06   1
   6 -20  18    0.12    0.06   1
   6  20 -18    0.08    0.06   1
   6  20  18    0.16    0.06   1
  18  -6  20    0.08    0.05   1
  18   6  20    0.15    0.06   1
  20 -18  -6    0.01    0.05   1
  20 -18  -6    0.05    0.03   1
  20 -18   6   -0.01    0.06   1
  20 -18   6    0.06    0.04   1
  20  18  -6    0.05    0.05   1
  20  18   6    0.10    0.05   1
 -18  -8  20    0.11    0.06   1
 -18  -8  20   -0.06    0.05   1
  -8  20  18    0.09    0.06   1
   8 -20  18    0.04    0.06   1
   8  20 -18    0.00    0.07   1
   8  20  18    0.00    0.06   1
  18  -8  20   -0.07    0.06   1
  18   8  20   -0.11    0.06   1
  20 -18   8    0.02    0.05   1
  20  18  -8    0.03    0.05   1
  20  18   8   -0.05    0.05   1
 -18 -10  20    0.00    0.09   1
 -18 -10  20   -0.01    0.05   1
 -10  20  18    0.06    0.05   1
  10 -20 -18    0.16    0.07   1
  10 -20  18   -0.15    0.06   1
  10  20 -18    0.17    0.08   1
  10  20  18    0.13    0.06   1
  18 -10  20    0.15    0.07   1
  18  10  20    0.06    0.06   1
  20 -18  10    0.22    0.06   1
  20  18  10   -0.04    0.05   1
 -18 -12  20    0.07    0.06   1
 -12  20  18    0.03    0.05   1
  12 -20  18    0.32    0.07   1
  12  20 -18    0.10    0.07   1
  12  20  18    0.12    0.07   1
  18 -12  20    0.15    0.07   1
  18  12  20   -0.02    0.06   1
  20 -18  12   -0.10    0.06   1
  20  18 -12    0.17    0.06   1
  20  18  12    0.13    0.06   1
 -14  20  18    0.01    0.06   1
  14 -20  18    0.06    0.06   1
  14  20 -18   -0.12    0.08   1
  14  20  18    0.06    0.07   1
  18 -14  20    0.20    0.07   1
  18  14  20   -0.07    0.07   1
  20 -18  14   -0.03    0.07   1
  20  18 -14    0.03    0.08   1
  20  18  14    0.05    0.07   1
  16 -20  18    0.14    0.08   1
  16  20 -18    0.02    0.09   1
  16  20  18   -0.04    0.07   1
  18 -16  20    0.17    0.08   1
  18  16  20    0.17    0.08   1
  20 -18  16    0.17    0.07   1
  20  18 -16    0.10    0.08   1
  20  18  16    0.13    0.08   1
  18 -20  18   -0.05    0.08   1
  18 -18  20    0.03    0.08   1
  18  18 -20   -0.03    0.11   1
  18  18  20   -0.01    0.08   1
  18  20 -18   -0.07    0.10   1
  18  20  18   -0.04    0.08   1
  20 -18  18    0.61    0.10   1
  20  18  18   -0.17    0.08   1
   0 -20  20    1.04    0.11   1
   0  20  20    1.17    0.12   1
  20 -20   0    0.83    0.08   1
  20 -20   0    0.75    0.07   1
  20   0  20    0.77    0.10   1
  20  20   0    0.90    0.10   1
 -20  -2  20    0.89    0.06   1
  -2  20  20    0.70    0.08   1
   2 -20  20    0.78    0.09   1
   2  20  20    0.64    0.08   1
  20 -20  -2    0.68    0.11   1
  20 -20  -2    0.72    0.07   1
  20 -20   2    0.85    0.09   1
  20 -20   2    0.92    0.08   1
  20  -2  20    0.67    0.08   1
  20   2  20    1.00    0.09   1
  20  20  -2    0.98    0.10   1
  20  20   2    0.64    0.08   1
 -20  -4  20    0.30    0.04   1
  -4  20  20    0.35    0.07   1
   4 -20  20    0.40    0.07   1
   4  20  20    0.39    0.07   1
  20 -20  -4    0.25    0.04   1
  20 -20   4    0.45    0.08   1
  20 -20   4    0.33    0.05   1
  20  -4  20    0.33    0.06   1
  20   4  20    0.12    0.06   1
  20  20  -4    0.29    0.07   1
  20  20   4    0.22    0.07   1
 -20  -6  20    0.15    0.05   1
  -6  20  20    0.13    0.06   1
   6 -20  20    0.11    0.06   1
   6  20 -20    0.10    0.07   1
   6  20  20    0.08    0.07   1
  20 -20   6    0.31    0.06   1
  20  -6  20    0.17    0.06   1
  20   6  20    0.01    0.06   1
  20  20  -6    0.20    0.06   1
  20  20   6    0.09    0.07   1
  -8  20  20    0.12    0.06   1
   8 -20  20    0.10    0.07   1
   8  20 -20    0.39    0.08   1
   8  20  20    0.15    0.07   1
  20 -20   8    0.07    0.05   1
  20  -8  20    0.09    0.06   1
  20   8  20    0.11    0.06   1
  20  20  -8    0.24    0.07   1
  20  20   8    0.06    0.06   1
 -20 -10  20    0.84    0.10   1
 -10  20  20    0.67    0.08   1
  10 -20  20    1.13    0.13   1
  10  20 -20    0.54    0.09   1
  10  20  20    0.36    0.08   1
  20 -20  10    0.63    0.08   1
  20 -10  20    0.75    0.09   1
  20  10  20    0.38    0.08   1
  20  20 -10    0.58    0.07   1
  20  20  10    0.58    0.08   1
 -20 -12  20    0.80    0.08   1
 -12  20  20    0.92    0.11   1
  12 -20  20    1.01    0.10   1
  12  20 -20    0.94    0.10   1
  12  20  20    0.89    0.10   1
  20 -20  12    0.87    0.09   1
  20 -12  20    0.70    0.09   1
  20  12  20    0.69    0.09   1
  20  20 -12    0.75    0.10   1
  20  20  12    0.79    0.10   1
 -20 -14  20   -0.02    0.06   1
  14 -20  20    0.37    0.08   1
  14  20 -20    0.16    0.09   1
  14  20  20    0.20    0.08   1
  20 -20  14    0.01    0.08   1
  20 -14  20    0.33    0.08   1
  20  20 -14    0.03    0.09   1
  20  20  14    0.01    0.08   1
  16 -20  20   -0.02    0.09   1
  16  20 -20    0.04    0.10   1
  16  20  20    0.10    0.09   1
  20 -20  16    0.08    0.08   1
  20 -16  20   -0.13    0.09   1
  20  16  20   -0.11    0.08   1
  20  20 -16   -0.03    0.10   1
  20  20  16    0.09    0.09   1
  18 -20  20    0.12    0.10   1
  18  20 -20    0.24    0.12   1
  18  20  20    0.19    0.10   1
  20 -20  18    0.16    0.10   1
  20 -18  20    0.54    0.11   1
  20  18 -20    0.55    0.13   1
  20  18  20    0.27    0.10   1
  20  20 -18    0.03    0.12   1
  20  20  18    0.21    0.10   1
  20 -20  20    0.73    0.13   1
  20  20 -20    0.55    0.16   1
 -21  -1  -1    2.47    0.08   1
 -21  -1   1    2.50    0.07   1
 -21   1  -1    2.39    0.08   1
 -21   1   1    2.53    0.06   1
  -1 -21  -1    2.48    0.13   1
  -1 -21   1    2.36    0.12   1
  -1  -1 -21    2.40    0.12   1
  -1  -1  21    2.44    0.11   1
  -1   1 -21    2.26    0.12   1
  -1   1  21    2.63    0.11   1
  -1  21  -1    2.81    0.11   1
  -1  21   1    2.63    0.11   1
   1 -21  -1    2.23    0.12   1
   1 -21   1    2.29    0.12   1
   1  -1 -21    2.75    0.13   1
   1  -1  21    2.38    0.11   1
   1   1 -21    2.30    0.11   1
   1   1  21    2.50    0.11   1
   1  21  -1    2.47    0.10   1
   1  21   1    2.63    0.11   1
  21  -1  -1    2.56    0.06   1
  21  -1   1    2.55    0.07   1
  21   1  -1    2.51    0.06   1
  21   1   1    2.52    0.07   1
 -21  -1  -3    0.72    0.07   1
 -21  -1   3    0.66    0.05   1
 -21   1  -3    0.67    0.06   1
 -21   1   3    0.62    0.03   1
  -3 -21  -1    0.76    0.09   1
  -3 -21   1    0.95    0.14   1
  -3  21  -1    0.75    0.08   1
  -3  21   1    0.80    0.08   1
  -1  -3 -21    0.72    0.08   1
  -1  -3  21    0.70    0.08   1
  -1  -3  21    0.60    0.07   1
  -1   3  21    0.63    0.07   1
   1  -3 -21    0.76    0.09   1
   1  -3  21    0.73    0.08   1
   1  -3  21    0.99    0.09   1
   1   3  21    0.84    0.08   1
   3 -21  -1    0.67    0.08   1
   3 -21   1    0.65    0.07   1
   3  21  -1    0.56    0.07   1
   3  21   1    0.85    0.07   1
  21  -1  -3    0.71    0.03   1
  21  -1   3    0.76    0.05   1
  21   1   3    0.67    0.05   1
 -21  -1  -5    0.37    0.05   1
 -21  -1   5    0.34    0.03   1
 -21   1  -5    0.23    0.05   1
  -5  21  -1    0.39    0.06   1
  -5  21   1    0.23    0.05   1
  -1  -5 -21    0.29    0.06   1
  -1  -5  21    0.31    0.07   1
  -1  -5  21    0.33    0.05   1
  -1   5  21    0.27    0.05   1
   1  -5 -21    0.23    0.06   1
   1  -5  21    0.29    0.06   1
   1  -5  21    0.17    0.04   1
   1   5  21    0.26    0.05   1
   5 -21  -1    0.24    0.06   1
   5 -21   1    0.18    0.06   1
   5  21  -1    0.17    0.04   1
   5  21   1    0.36    0.05   1
  21  -1   5    0.25    0.04   1
  21   1  -5    0.26    0.03   1
  21   1   5    0.29    0.04   1
 -21  -1  -7    0.06    0.05   1
 -21   1  -7   -0.04    0.04   1
  -7  21  -1    0.00    0.04   1
  -7  21   1    0.08    0.04   1
  -1  -7 -21    0.11    0.06   1
  -1  -7  21    0.01    0.05   1
  -1  -7  21   -0.03    0.04   1
  -1   7  21    0.09    0.04   1
   1  -7 -21    0.08    0.06   1
   1  -7  21    0.02    0.04   1
   1   7  21    0.08    0.04   1
   7 -21  -1    0.06    0.05   1
   7 -21   1    0.07    0.05   1
   7  21  -1   -0.02    0.04   1
   7  21   1    0.10    0.04   1
  21  -1   7    0.08    0.03   1
  21   1   7    0.10    0.03   1
 -21  -1  -9    0.62    0.07   1
 -21   1  -9    0.82    0.09   1
  -9  21  -1    0.76    0.08   1
  -9  21   1    0.63    0.08   1
  -1  -9 -21    0.74    0.08   1
  -1  -9  21    0.73    0.08   1
  -1   9  21    0.69    0.08   1
   1  -9 -21    0.82    0.10   1
   1  -9  21    0.62    0.08   1
   1   9  21    0.71    0.07   1
   9 -21  -1    0.86    0.09   1
   9 -21   1    0.73    0.08   1
   9  21  -1    0.73    0.07   1
   9  21   1    0.77    0.07   1
  21  -1   9    0.73    0.07   1
  21   1   9    0.85    0.07   1
 -21  -1 -11    1.40    0.11   1
 -21   1 -11    1.30    0.11   1
 -11  21  -1    1.44    0.10   1
 -11  21   1    1.51    0.10   1
  -1 -11  21    1.13    0.09   1
  -1  11  21    1.45    0.09   1
   1 -11 -21    1.23    0.10   1
   1 -11  21    1.50    0.10   1
   1  11  21    1.29    0.10   1
  11 -21  -1    1.24    0.10   1
  11 -21   1    1.43    0.11   1
  11  21  -1    1.43    0.09   1
  11  21   1    1.41    0.09   1
  21  -1  11    1.50    0.09   1
  21   1  11    1.33    0.08   1
 -13  21  -1    0.87    0.09   1
 -13  21   1    0.95    0.08   1
  -1 -13  21    0.67    0.08   1
  -1  13  21    0.85    0.09   1
   1 -13  21    1.04    0.10   1
   1  13  21    0.83    0.09   1
  13 -21  -1    0.93    0.10   1
  13 -21   1    0.80    0.08   1
  13  21  -1    0.87    0.10   1
  13  21   1    0.80    0.08   1
  21  -1  13    0.81    0.07   1
  21   1  13    0.81    0.08   1
 -15  21  -1    0.17    0.05   1
 -15  21   1    0.12    0.05   1
  -1 -15  21    0.25    0.06   1
  -1  15  21    0.17    0.05   1
   1 -15  21    0.05    0.05   1
  15 -21  -1    0.07    0.05   1
  15 -21   1    0.09    0.07   1
  15  21  -1   -0.01    0.04   1
  15  21   1    0.09    0.05   1
  21  -1  15    0.18    0.04   1
  21   1  15    0.03    0.04   1
 -17  21  -1    0.17    0.06   1
 -17  21   1    0.14    0.05   1
  -1 -17  21    0.23    0.06   1
  -1  17  21   -0.02    0.05   1
   1 -17  21    0.19    0.06   1
   1  17  21    0.18    0.06   1
  17 -21  -1    0.10    0.06   1
  17 -21   1    0.21    0.07   1
  17  21  -1    0.22    0.06   1
  17  21   1    0.17    0.05   1
  21  -1  17    0.18    0.06   1
  21   1  17    0.21    0.05   1
  -1 -19  21    0.62    0.08   1
  -1  19  21    0.45    0.07   1
   1 -19  21    0.68    0.08   1
   1  19  21    0.54    0.08   1
  19 -21  -1    0.24    0.07   1
  19 -21   1    0.34    0.07   1
  19 -21   1    0.43    0.05   1
  19  21  -1    0.58    0.07   1
  19  21   1    0.56    0.07   1
  21  -1  19    0.48    0.07   1
  21   1  19    0.53    0.07   1
 -21  -3  -1    0.67    0.07   1
 -21  -3   1    0.70    0.06   1
  -3  -1 -21    0.54    0.07   1
  -3  -1  21    0.77    0.09   1
  -3  -1  21    0.72    0.08   1
  -3   1 -21    0.68    0.08   1
  -3   1  21    0.69    0.07   1
  -1 -21  -3    0.71    0.08   1
  -1 -21   3    0.76    0.10   1
  -1  21  -3    0.67    0.07   1
  -1  21   3    0.93    0.08   1
   1 -21  -3    0.81    0.09   1
   1 -21   3    0.51    0.06   1
   1  21  -3    0.64    0.07   1
   1  21   3    0.95    0.08   1
   3  -1 -21    0.69    0.07   1
   3  -1  21    0.91    0.08   1
   3   1  21    0.71    0.07   1
  21  -3  -1    0.62    0.04   1
  21  -3  -1    0.62    0.05   1
  21  -3   1    0.66    0.04   1
  21   3  -1    0.73    0.04   1
  21   3   1    0.75    0.05   1
 -21  -3  -3    0.30    0.05   1
 -21  -3   3    0.34    0.04   1
 -21   3  -3    0.29    0.04   1
  -3 -21  -3    0.29    0.10   1
  -3  -3 -21    0.36    0.06   1
  -3  -3  21    0.30    0.06   1
  -3  -3  21    0.30    0.05   1
  -3   3  21    0.29    0.05   1
  -3  21  -3    0.37    0.05   1
  -3  21   3    0.27    0.05   1
   3 -21  -3    0.40    0.07   1
   3 -21   3    0.33    0.06   1
   3  -3 -21    0.31    0.06   1
   3  -3  21    0.25    0.05   1
   3   3  21    0.23    0.05   1
   3  21  -3    0.24    0.04   1
   3  21   3    0.31    0.05   1
  21  -3   3    0.31    0.04   1
  21   3  -3    0.33    0.03   1
  21   3   3    0.33    0.04   1
 -21  -3  -5    0.23    0.05   1
 -21  -3   5    0.16    0.03   1
 -21   3  -5    0.14    0.04   1
  -5  21  -3    0.06    0.04   1
  -5  21   3    0.25    0.05   1
  -3  -5 -21    0.16    0.06   1
  -3  -5  21    0.15    0.06   1
  -3  -5  21    0.18    0.05   1
  -3   5  21    0.09    0.04   1
   3  -5 -21    0.05    0.05   1
   3  -5  21    0.15    0.04   1
   3   5  21    0.10    0.04   1
   5 -21  -3    0.17    0.06   1
   5 -21   3    0.09    0.06   1
   5  21  -3    0.18    0.04   1
   5  21   3    0.05    0.04   1
  21  -3   5    0.16    0.03   1
  21   3  -5    0.12    0.02   1
  21   3   5    0.09    0.03   1
 -21  -3  -7   -0.04    0.05   1
 -21  -3   7    0.03    0.02   1
 -21   3  -7    0.07    0.05   1
  -7  21  -3    0.01    0.04   1
  -7  21   3    0.04    0.05   1
  -3  -7  21   -0.04    0.06   1
  -3  -7  21    0.05    0.04   1
  -3   7  21   -0.07    0.04   1
   3  -7 -21   -0.03    0.05   1
   3  -7  21   -0.08    0.04   1
   3   7  21    0.00    0.04   1
   7 -21  -3   -0.01    0.05   1
   7 -21   3   -0.03    0.05   1
   7  21  -3    0.03    0.04   1
   7  21   3    0.09    0.04   1
  21  -3   7    0.04    0.03   1
  21   3  -7    0.00    0.02   1
  21   3   7    0.01    0.03   1
 -21  -3  -9    0.52    0.07   1
 -21  -3   9    0.44    0.04   1
 -21   3  -9    0.38    0.06   1
  -9  21  -3    0.42    0.06   1
  -9  21   3    0.53    0.06   1
  -3  -9  21    0.37    0.06   1
  -3   9  21    0.46    0.06   1
   3  -9 -21    0.42    0.06   1
   3  -9  21    0.38    0.06   1
   3   9  21    0.34    0.06   1
   9 -21  -3    0.45    0.07   1
   9 -21   3    0.31    0.06   1
   9  21  -3    0.50    0.05   1
   9  21   3    0.34    0.05   1
  21  -3   9    0.51    0.06   1
  21   3  -9    0.48    0.04   1
  21   3   9    0.42    0.05   1
 -21  -3 -11    1.11    0.11   1
 -21  -3  11    1.06    0.04   1
 -21  -3  11    1.08    0.04   1
 -21   3 -11    1.07    0.10   1
 -11  21  -3    1.11    0.09   1
 -11  21   3    1.11    0.09   1
  -3 -11  21    1.00    0.09   1
  -3  11  21    1.08    0.09   1
   3 -11 -21    0.90    0.10   1
   3  11  21    1.07    0.09   1
  11 -21  -3    1.01    0.10   1
  11 -21   3    1.21    0.10   1
  11  21  -3    1.03    0.08   1
  21  -3  11    1.14    0.08   1
  21   3  11    1.04    0.08   1
 -21  -3  13    0.26    0.03   1
 -21  -3  13    0.25    0.03   1
 -13  21  -3    0.41    0.06   1
 -13  21   3    0.27    0.06   1
  -3  13  21    0.28    0.05   1
   3 -13 -21    0.44    0.07   1
   3 -13  21    0.19    0.06   1
   3  13  21    0.32    0.06   1
  13 -21  -3    0.30    0.06   1
  13 -21   3    0.31    0.07   1
  13  21   3    0.32    0.05   1
  21  -3  13    0.25    0.05   1
  21   3  13    0.36    0.05   1
 -21  -3  15    0.03    0.03   1
 -21  -3  15    0.02    0.03   1
 -15  21  -3    0.13    0.05   1
 -15  21   3   -0.02    0.04   1
  -3 -15  21   -0.01    0.06   1
  -3  15  21   -0.05    0.05   1
   3 -15  21   -0.08    0.05   1
   3  15  21   -0.04    0.06   1
  15 -21  -3   -0.06    0.06   1
  15 -21   3   -0.07    0.06   1
  15  21  -3   -0.04    0.04   1
  15  21   3    0.04    0.05   1
  21  -3  15   -0.07    0.04   1
 -21  -3  17    0.03    0.04   1
 -21  -3  17    0.12    0.05   1
 -17  21   3   -0.03    0.05   1
  -3 -17  21    0.03    0.06   1
  -3  17  21   -0.12    0.05   1
   3 -17  21    0.14    0.06   1
   3  17  21   -0.10    0.05   1
  17 -21  -3   -0.06    0.06   1
  17 -21   3    0.08    0.06   1
  17  21  -3   -0.14    0.05   1
  17  21   3    0.03    0.05   1
  21  -3  17   -0.12    0.05   1
  21   3  17   -0.04    0.05   1
 -21  -3  19    0.25    0.04   1
 -19  21   3    0.19    0.05   1
  -3 -19  21    0.34    0.07   1
  -3  19  21    0.27    0.06   1
   3 -19  21    0.41    0.08   1
   3  19  21    0.24    0.07   1
  19 -21  -3    0.28    0.09   1
  19 -21   3    0.21    0.07   1
  19 -21   3    0.15    0.05   1
  19  21  -3    0.28    0.06   1
  19  21   3    0.22    0.06   1
  21  -3  19    0.35    0.07   1
  21   3  19    0.08    0.06   1
 -21  -5  -1    0.29    0.05   1
 -21  -5   1    0.32    0.05   1
  -5  -1  21    0.25    0.06   1
  -5  -1  21    0.26    0.05   1
  -5   1  21    0.41    0.05   1
  -1 -21  -5    0.33    0.07   1
  -1  21  -5    0.25    0.04   1
  -1  21   5    0.34    0.06   1
   1 -21  -5    0.25    0.06   1
   1  21  -5    0.34    0.06   1
   1  21   5    0.34    0.05   1
   5  -1  21    0.39    0.05   1
   5   1  21    0.26    0.04   1
  21  -5  -1    0.32    0.03   1
  21  -5  -1    0.31    0.03   1
  21  -5   1    0.27    0.03   1
  21  -5   1    0.31    0.03   1
  21   5  -1    0.34    0.04   1
  21   5   1    0.28    0.04   1
 -21  -5  -3    0.15    0.05   1
 -21  -5   3    0.14    0.04   1
  -5  -3  21    0.11    0.06   1
  -5  -3  21    0.16    0.05   1
  -5   3  21    0.06    0.04   1
  -3  21  -5    0.03    0.03   1
  -3  21   5    0.16    0.05   1
   3 -21  -5    0.14    0.06   1
   3  21  -5    0.07    0.04   1
   3  21   5    0.11    0.04   1
   5  -3 -21    0.19    0.05   1
   5  -3  21    0.13    0.04   1
   5   3  21    0.22    0.04   1
  21  -5   3    0.10    0.03   1
  21  -5   3    0.05    0.02   1
  21   5  -3    0.13    0.02   1
  21   5   3    0.15    0.03   1
 -21  -5  -5    0.04    0.05   1
  -5  -5  21   -0.01    0.05   1
  -5  -5  21   -0.03    0.04   1
  -5   5  21    0.07    0.04   1
  -5  21  -5    0.09    0.04   1
  -5  21   5    0.15    0.04   1
   5 -21  -5    0.07    0.05   1
   5 -21   5    0.05    0.06   1
   5  -5 -21    0.06    0.05   1
   5  -5  21    0.06    0.04   1
   5   5  21    0.02    0.04   1
   5  21  -5   -0.08    0.04   1
   5  21   5    0.09    0.04   1
  21  -5   5    0.00    0.04   1
  21  -5   5    0.05    0.03   1
  21   5  -5    0.01    0.02   1
  21   5   5    0.08    0.03   1
 -21  -5  -7    0.14    0.06   1
 -21  -5   7    0.14    0.04   1
  -7  21  -5    0.18    0.05   1
  -7  21   5    0.13    0.04   1
  -5  -7  21    0.13    0.07   1
  -5  -7  21    0.16    0.05   1
  -5   7  21    0.15    0.04   1
   5  -7 -21    0.18    0.06   1
   5  -7  21    0.18    0.05   1
   5   7  21    0.02    0.04   1
   7 -21  -5    0.16    0.06   1
   7 -21   5    0.17    0.07   1
   7  21  -5    0.28    0.05   1
   7  21   5    0.18    0.04   1
  21  -5   7    0.18    0.03   1
  21   5  -7    0.18    0.03   1
  21   5   7    0.12    0.04   1
 -21  -5  -9    0.00    0.06   1
 -21  -5   9    0.11    0.03   1
  -9  21  -5    0.22    0.05   1
  -9  21   5    0.14    0.05   1
  -5  -9  21    0.21    0.07   1
  -5  -9  21    0.18    0.05   1
  -5   9  21    0.08    0.04   1
   5  -9 -21    0.11    0.06   1
   5  -9  21    0.06    0.04   1
   5   9  21   -0.03    0.04   1
   9 -21  -5    0.17    0.06   1
   9 -21   5    0.16    0.07   1
   9  21  -5    0.09    0.04   1
   9  21   5    0.14    0.04   1
  21  -5   9    0.10    0.03   1
  21   5  -9    0.10    0.02   1
  21   5   9    0.10    0.04   1
 -21  -5 -11    0.48    0.08   1
 -21  -5  11    0.58    0.05   1
 -11  21  -5    0.72    0.08   1
 -11  21   5    0.67    0.08   1
  -5 -11  21    0.57    0.07   1
  -5  11  21    0.69    0.08   1
   5 -11 -21    0.67    0.08   1
   5 -11  21    0.79    0.08   1
   5  11  21    0.80    0.08   1
  11 -21  -5    0.87    0.10   1
  11  21  -5    0.63    0.07   1
  11  21   5    1.03    0.08   1
  21  -5  11    0.63    0.07   1
  21   5 -11    0.77    0.05   1
  21   5  11    0.70    0.07   1
 -21  -5  13    0.09    0.04   1
 -21  -5  13    0.09    0.03   1
 -13  21  -5    0.22    0.06   1
 -13  21   5    0.13    0.05   1
  -5 -13  21    0.19    0.06   1
  -5  13  21    0.17    0.06   1
   5 -13 -21    0.09    0.06   1
   5 -13  21    0.07    0.05   1
   5  13  21    0.11    0.06   1
  13 -21  -5    0.17    0.06   1
  13  21  -5    0.20    0.05   1
  13  21   5    0.09    0.04   1
  21  -5  13    0.17    0.04   1
  21   5  13    0.11    0.04   1
 -21  -5  15    0.12    0.04   1
 -21  -5  15    0.24    0.03   1
 -15  21  -5    0.24    0.06   1
 -15  21   5    0.33    0.06   1
  -5 -15  21    0.19    0.06   1
  -5  15  21    0.19    0.05   1
   5 -15 -21    0.20    0.08   1
   5 -15  21    0.14    0.06   1
   5  15  21    0.22    0.06   1
  15 -21  -5    0.19    0.06   1
  15  21  -5    0.31    0.05   1
  15  21   5    0.18    0.06   1
  21  -5  15    0.15    0.04   1
  21   5  15    0.09    0.05   1
 -21  -5  17    0.14    0.04   1
 -17  21   5    0.11    0.04   1
  -5 -17  21    0.13    0.07   1
  -5  17  21    0.19    0.06   1
   5 -17  21    0.14    0.07   1
   5  17  21    0.03    0.07   1
  17 -21  -5    0.08    0.06   1
  17 -21   5    0.01    0.04   1
  17  21  -5    0.03    0.05   1
  17  21   5    0.15    0.06   1
  21  -5  17    0.04    0.05   1
  21   5  17    0.05    0.05   1
 -21  -5  19    0.18    0.04   1
 -19  21   5    0.07    0.04   1
   5 -19  21   -0.05    0.06   1
   5  19  21   -0.11    0.06   1
  19 -21   5    0.14    0.05   1
  19  21  -5    0.55    0.08   1
  19  21   5    0.12    0.06   1
  21  -5  19   -0.02    0.06   1
  21   5  19   -0.11    0.06   1
 -21  -7  -1    0.07    0.05   1
 -21  -7   1    0.06    0.04   1
  -7  -1  21   -0.01    0.05   1
  -7  -1  21   -0.07    0.04   1
  -7   1  21   -0.04    0.04   1
  -7   1  21    0.10    0.04   1
  -1  21  -7    0.02    0.04   1
  -1  21   7    0.01    0.04   1
   1  21  -7    0.05    0.03   1
   1  21   7    0.02    0.04   1
   7  -1  21    0.05    0.04   1
   7   1  21    0.11    0.05   1
  21  -7  -1    0.05    0.02   1
  21  -7  -1    0.03    0.02   1
  21  -7   1    0.01    0.03   1
  21  -7   1   -0.02    0.02   1
  21   7  -1    0.03    0.03   1
  21   7   1    0.04    0.03   1
 -21  -7  -3    0.06    0.05   1
 -21  -7   3    0.07    0.04   1
  -7  -3  21   -0.03    0.05   1
  -7  -3  21    0.01    0.04   1
  -7   3  21   -0.05    0.04   1
  -3  21  -7   -0.06    0.04   1
  -3  21   7   -0.07    0.04   1
   3 -21  -7   -0.10    0.06   1
   3  21  -7    0.08    0.04   1
   3  21   7    0.07    0.04   1
   7  -3 -21   -0.01    0.05   1
   7  -3  21   -0.02    0.04   1
   7   3  21    0.00    0.04   1
  21  -7   3    0.02    0.03   1
  21  -7   3    0.02    0.02   1
  21   7  -3    0.00    0.03   1
  21   7   3    0.13    0.04   1
 -21  -7  -5    0.39    0.06   1
 -21  -7   5    0.10    0.04   1
  -7  -5  21    0.12    0.06   1
  -7  -5  21    0.19    0.05   1
  -7   5  21    0.22    0.04   1
  -5  21  -7    0.24    0.05   1
  -5  21   7    0.22    0.05   1
   5 -21  -7    0.21    0.06   1
   5  21  -7    0.07    0.04   1
   5  21   7    0.22    0.05   1
   7  -5 -21    0.13    0.05   1
   7  -5  21    0.21    0.04   1
   7   5  21    0.18    0.05   1
  21  -7   5    0.15    0.04   1
  21  -7   5    0.16    0.03   1
  21   7  -5    0.17    0.03   1
  21   7   5    0.18    0.04   1
 -21  -7  -7    0.86    0.11   1
 -21  -7   7    0.56    0.06   1
  -7  -7  21    0.62    0.08   1
  -7  -7  21    0.56    0.07   1
  -7   7  21    0.63    0.07   1
  -7  21  -7    0.71    0.08   1
  -7  21   7    0.59    0.06   1
   7 -21  -7    0.56    0.07   1
   7  -7 -21    0.53    0.06   1
   7  -7  21    0.55    0.06   1
   7   7  21    0.44    0.05   1
   7  21  -7    0.53    0.06   1
   7  21   7    0.43    0.06   1
  21  -7   7    0.58    0.06   1
  21  -7   7    0.63    0.06   1
  21   7  -7    0.65    0.05   1
  21   7   7    0.64    0.07   1
 -21  -7  -9    0.05    0.06   1
 -21  -7   9    0.05    0.04   1
  -9  21  -7   -0.01    0.05   1
  -9  21   7    0.01    0.04   1
  -7  -9  21   -0.01    0.06   1
  -7  -9  21    0.06    0.04   1
  -7   9  21   -0.04    0.04   1
   7  -9 -21   -0.01    0.05   1
   7  -9  21   -0.11    0.07   1
   7   9  21   -0.04    0.05   1
   9 -21  -7    0.01    0.05   1
   9  21  -7    0.01    0.04   1
  21  -7   9   -0.04    0.05   1
  21  -7   9    0.05    0.03   1
  21   7  -9    0.00    0.03   1
  21   7   9    0.01    0.04   1
 -21  -7  11    0.45    0.05   1
 -11  21  -7    0.58    0.07   1
 -11  21   7    0.55    0.07   1
  -7 -11  21    0.47    0.06   1
  -7  11  21    0.39    0.06   1
   7 -11 -21    0.58    0.07   1
   7 -11  21    0.57    0.06   1
   7  11  21    0.60    0.09   1
  11 -21  -7    0.48    0.07   1
  11  21   7    0.48    0.07   1
  21  -7  11    0.41    0.07   1
  21  -7  11    0.75    0.07   1
  21   7 -11    0.68    0.05   1
  21   7  11    0.53    0.06   1
 -21  -7  13    0.01    0.04   1
 -13  21  -7    0.12    0.05   1
 -13  21   7    0.04    0.04   1
  -7 -13  21    0.06    0.05   1
  -7  13  21    0.08    0.05   1
   7 -13 -21    0.05    0.06   1
   7 -13  21    0.04    0.05   1
   7  13  21    0.06    0.06   1
  13 -21  -7    0.05    0.06   1
  13  21  -7    0.20    0.05   1
  13  21   7    0.07    0.05   1
  21  -7  13    0.08    0.04   1
  21   7 -13    0.12    0.03   1
  21   7  13    0.09    0.05   1
 -21  -7  15    0.32    0.05   1
 -21  -7  15    0.18    0.04   1
 -15  21   7    0.29    0.05   1
  -7 -15  21    0.23    0.06   1
  -7  15  21    0.10    0.06   1
   7 -15 -21    0.15    0.07   1
   7 -15  21    0.14    0.06   1
   7  15  21    0.18    0.06   1
  15 -21  -7    0.12    0.06   1
  15  21  -7    0.24    0.05   1
  15  21   7    0.35    0.06   1
  21  -7  15    0.19    0.05   1
  21   7  15    0.32    0.06   1
 -21  -7  17    0.11    0.04   1
 -17  21   7    0.08    0.04   1
  -7 -17  21    0.14    0.06   1
  -7  17  21    0.24    0.06   1
   7 -17  21    0.22    0.06   1
   7  17  21    0.05    0.07   1
  17 -21  -7    0.05    0.06   1
  17 -21   7    0.07    0.04   1
  17  21  -7    0.18    0.06   1
  17  21   7    0.16    0.06   1
  21  -7  17    0.18    0.05   1
  21   7  17    0.01    0.05   1
 -21  -7  19    0.05    0.05   1
 -19  21   7    0.04    0.04   1
  -7  19  21   -0.05    0.05   1
   7 -19  21    0.05    0.06   1
   7  19  21   -0.05    0.06   1
  19 -21   7    0.06    0.05   1
  19  21  -7   -0.01    0.06   1
  19  21   7   -0.15    0.06   1
  21  -7  19   -0.02    0.06   1
  21   7  19    0.02    0.06   1
 -21  -9  -1    0.89    0.10   1
 -21  -9   1    0.64    0.07   1
  -9  -1  21    0.66    0.07   1
  -9  -1  21    0.74    0.07   1
  -9   1  21    0.67    0.07   1
  -9   1  21    0.69    0.07   1
  -1  21  -9    0.63    0.07   1
  -1  21   9    0.77    0.07   1
   1 -21  -9    0.68    0.10   1
   1  21  -9    0.67    0.07   1
   1  21   9    0.85    0.08   1
   9  -1  21    0.82    0.07   1
   9   1  21    0.68    0.07   1
  21  -9  -1    0.64    0.05   1
  21  -9   1    0.68    0.06   1
  21  -9   1    0.78    0.04   1
  21   9  -1    0.83    0.06   1
  21   9   1    0.84    0.07   1
 -21  -9  -3    0.46    0.07   1
 -21  -9   3    0.40    0.06   1
  -9  -3  21    0.31    0.07   1
  -9  -3  21    0.31    0.05   1
  -9   3  21    0.37    0.06   1
  -9   3  21    0.46    0.05   1
  -3  21  -9    0.40    0.06   1
  -3  21   9    0.41    0.06   1
   3 -21  -9    0.25    0.06   1
   3  21  -9    0.44    0.06   1
   3  21   9    0.66    0.08   1
   9  -3  21    0.39    0.06   1
   9   3  21    0.54    0.06   1
  21  -9   3    0.47    0.05   1
  21  -9   3    0.37    0.04   1
  21   9  -3    0.33    0.04   1
  21   9   3    0.61    0.06   1
 -21  -9  -5    0.15    0.06   1
 -21  -9   5    0.15    0.05   1
  -9  -5  21    0.05    0.06   1
  -9  -5  21    0.19    0.05   1
  -9   5  21    0.10    0.04   1
  -5  21  -9    0.13    0.05   1
  -5  21   9    0.10    0.04   1
   5 -21  -9    0.05    0.06   1
   5  21  -9    0.09    0.04   1
   5  21   9    0.00    0.04   1
   9  -5 -21    0.21    0.05   1
   9  -5  21    0.20    0.05   1
   9   5  21    0.05    0.05   1
  21  -9   5    0.10    0.04   1
  21  -9   5    0.10    0.03   1
  21   9  -5    0.08    0.03   1
  21   9   5    0.17    0.04   1
 -21  -9  -7    0.04    0.07   1
 -21  -9   7   -0.08    0.05   1
  -9  -7  21    0.03    0.06   1
  -9  -7  21   -0.02    0.05   1
  -9   7  21   -0.04    0.04   1
  -7  21  -9    0.00    0.05   1
  -7  21   9   -0.03    0.04   1
   7 -21  -9   -0.01    0.05   1
   7  21  -9   -0.03    0.04   1
   9  -7 -21   -0.02    0.04   1
  21  -9   7    0.01    0.04   1
  21  -9   7    0.00    0.03   1
  21   9  -7    0.03    0.03   1
  21   9   7   -0.02    0.04   1
 -21  -9   9    0.81    0.08   1
  -9  -9  21    1.24    0.12   1
  -9  -9  21    0.80    0.08   1
  -9   9  21    0.80    0.08   1
  -9  21  -9    0.89    0.09   1
  -9  21   9    1.08    0.09   1
   9 -21  -9    0.93    0.10   1
   9  -9 -21    0.90    0.09   1
   9  -9  21    0.91    0.09   1
   9   9  21    0.97    0.10   1
   9  21   9    0.76    0.09   1
  21  -9   9    1.19    0.10   1
  21  -9   9    0.94    0.07   1
  21   9  -9    0.90    0.06   1
  21   9   9    0.64    0.07   1
 -21  -9  11    1.63    0.09   1
 -11  21  -9    1.85    0.11   1
 -11  21   9    1.80    0.10   1
  -9 -11  21    1.98    0.11   1
  -9  11  21    1.78    0.10   1
   9 -11 -21    1.80    0.11   1
   9 -11  21    1.72    0.11   1
   9  11  21    1.70    0.11   1
  11 -21  -9    1.67    0.11   1
  11  21  -9    1.70    0.10   1
  11  21   9    1.35    0.10   1
  21  -9  11    1.33    0.11   1
  21  -9  11    1.78    0.09   1
  21   9 -11    1.65    0.07   1
  21   9  11    1.39    0.09   1
 -21  -9  13    0.50    0.06   1
 -13  21   9    0.59    0.07   1
  -9 -13  21    0.74    0.08   1
  -9  13  21    0.63    0.07   1
   9 -13 -21    0.55    0.07   1
   9 -13  21    0.83    0.09   1
   9  13  21    0.75    0.09   1
  13 -21  -9    0.65    0.07   1
  13  21  -9    0.47    0.06   1
  13  21   9    0.55    0.07   1
  21  -9  13    0.77    0.08   1
  21   9 -13    0.63    0.07   1
  21   9  13    0.40    0.06   1
 -21  -9  15   -0.01    0.05   1
 -15  21   9    0.00    0.04   1
  -9 -15  21   -0.02    0.06   1
  -9  15  21    0.07    0.05   1
   9 -15 -21    0.06    0.06   1
   9 -15  21   -0.02    0.05   1
   9  15  21   -0.10    0.06   1
  15 -21  -9   -0.03    0.06   1
  15 -21   9    0.06    0.07   1
  15  21  -9   -0.03    0.05   1
  15  21   9    0.00    0.05   1
  21  -9  15    0.16    0.06   1
  21   9 -15    0.16    0.04   1
  21   9  15   -0.07    0.05   1
 -21  -9  17    0.20    0.05   1
 -17  21   9   -0.02    0.04   1
  -9  17  21    0.07    0.05   1
   9 -17 -21    0.08    0.07   1
   9 -17  21    0.20    0.07   1
   9  17  21   -0.07    0.06   1
  17 -21   9    0.00    0.05   1
  17  21  -9    0.13    0.06   1
  17  21   9    0.00    0.06   1
  21  -9  17    0.24    0.06   1
  21   9  17   -0.04    0.05   1
 -21  -9  19    0.24    0.06   1
 -19  21   9    0.20    0.05   1
  -9  19  21    0.15    0.06   1
   9 -19  21    0.17    0.07   1
   9  19  21    0.28    0.07   1
  19 -21   9    0.22    0.06   1
  19  21  -9    0.19    0.07   1
  19  21   9    0.16    0.07   1
  21  -9  19    0.24    0.07   1
  21   9  19    0.14    0.06   1
 -21 -11  -1    1.22    0.12   1
 -21 -11   1    1.05    0.10   1
 -11  -1  21    1.34    0.10   1
 -11  -1  21    1.41    0.08   1
 -11   1  21    1.27    0.09   1
 -11   1  21    1.37    0.08   1
  -1  21 -11    0.99    0.13   1
  -1  21  11    1.54    0.10   1
   1  21  11    1.51    0.10   1
  21 -11  -1    1.45    0.06   1
  21 -11  -1    1.27    0.05   1
  21 -11   1    1.26    0.07   1
  21 -11   1    1.51    0.06   1
  21  11  -1    1.28    0.08   1
  21  11   1    1.25    0.08   1
 -21 -11  -3    1.25    0.11   1
 -21 -11   3    0.86    0.11   1
 -11  -3  21    1.03    0.10   1
 -11  -3  21    1.26    0.09   1
 -11   3  21    0.99    0.09   1
 -11   3  21    1.00    0.07   1
  -3  21  11    0.89    0.08   1
   3 -21 -11    0.95    0.12   1
   3  21  11    1.03    0.09   1
  21 -11  -3    1.07    0.04   1
  21 -11  -3    1.08    0.04   1
  21 -11   3    1.08    0.08   1
  21 -11   3    0.96    0.06   1
  21  11  -3    0.89    0.07   1
  21  11   3    0.97    0.08   1
 -21 -11  -5    0.68    0.08   1
 -21 -11   5    0.60    0.07   1
 -11  -5  21    0.84    0.10   1
 -11  -5  21    0.82    0.08   1
 -11   5  21    0.56    0.06   1
 -11   5  21    0.65    0.07   1
  -5  21  11    0.71    0.08   1
   5 -21 -11    0.63    0.08   1
   5  21 -11    0.71    0.08   1
  11  -5  21    0.68    0.08   1
  11   5  21    0.65    0.08   1
  21 -11   5    0.72    0.08   1
  21 -11   5    0.77    0.06   1
  21  11  -5    0.79    0.07   1
  21  11   5    0.60    0.07   1
 -21 -11   7    0.35    0.07   1
 -11  -7  21    0.54    0.07   1
 -11  -7  21    0.59    0.07   1
 -11   7  21    0.44    0.05   1
  -7  21 -11    0.41    0.08   1
  -7  21  11    0.51    0.06   1
   7 -21 -11    0.33    0.07   1
   7  21 -11    0.53    0.06   1
   7  21  11    0.39    0.06   1
  11  -7 -21    0.58    0.06   1
  11  -7  21    0.75    0.09   1
  11   7  21    0.55    0.07   1
  21 -11   7    0.54    0.07   1
  21 -11   7    0.59    0.07   1
  21  11  -7    0.59    0.07   1
  21  11   7    0.46    0.06   1
 -21 -11   9    1.61    0.11   1
 -11  -9  21    1.79    0.12   1
 -11  -9  21    1.60    0.10   1
 -11   9  21    1.61    0.08   1
  -9  21 -11    1.85    0.11   1
  -9  21  11    1.86    0.10   1
   9 -21 -11    1.65    0.12   1
   9  21 -11    1.64    0.10   1
   9  21  11    1.67    0.11   1
  11  -9 -21    1.65    0.10   1
  11  -9  21    1.64    0.11   1
  11   9  21    1.99    0.12   1
  21 -11   9    1.72    0.12   1
  21 -11   9    1.81    0.09   1
  21  11  -9    1.65    0.08   1
  21  11   9    1.43    0.09   1
 -21 -11  11    2.53    0.12   1
 -11 -11  21    2.60    0.12   1
 -11  11  21    2.57    0.10   1
 -11  21  11    2.74    0.11   1
  11 -21 -11    2.46    0.13   1
  11 -11 -21    2.43    0.11   1
  11 -11  21    2.60    0.13   1
  11  11  21    2.76    0.14   1
  11  21 -11    2.42    0.11   1
  11  21  11    2.73    0.13   1
  21 -11  11    2.35    0.13   1
  21 -11  11    2.77    0.10   1
  21  11 -11    2.62    0.10   1
  21  11  11    2.23    0.13   1
 -21 -11  13    1.20    0.11   1
 -13  21  11    1.25    0.10   1
 -11 -13  21    1.14    0.10   1
 -11  13  21    1.05    0.09   1
  11 -13 -21    1.04    0.11   1
  11 -13  21    1.38    0.11   1
  11  13  21    1.02    0.11   1
  13 -21 -11    1.33    0.11   1
  13 -21  11    1.33    0.09   1
  13  21 -11    1.07    0.09   1
  13  21  11    1.36    0.11   1
  21 -11  13    1.18    0.09   1
  21  11 -13    1.05    0.08   1
  21  11  13    1.37    0.10   1
 -21 -11  15    0.16    0.07   1
 -15  21  11    0.36    0.06   1
 -11 -15  21    0.15    0.06   1
 -11  15  21    0.29    0.06   1
  11 -15 -21    0.21    0.06   1
  11 -15  21    0.23    0.06   1
  11  15  21    0.27    0.06   1
  15 -21 -11    0.22    0.06   1
  15 -21  11    0.28    0.06   1
  15  21 -11    0.26    0.06   1
  15  21  11    0.14    0.06   1
  21 -11  15    0.36    0.06   1
  21  11 -15    0.20    0.05   1
  21  11  15    0.27    0.06   1
 -17  21  11    0.16    0.05   1
 -11  17  21    0.13    0.06   1
  11 -17  21   -0.07    0.07   1
  11  17  21    0.26    0.07   1
  17 -21  11    0.09    0.05   1
  17  21 -11    0.27    0.07   1
  17  21  11    0.17    0.07   1
  21 -11  17    0.26    0.07   1
  21  11  17   -0.04    0.06   1
 -21 -11  19    0.63    0.08   1
 -11  19  21    0.81    0.10   1
  11 -19  21    0.93    0.11   1
  11  19 -21    0.76    0.10   1
  11  19  21    0.73    0.10   1
  19 -21  11    0.57    0.08   1
  19  21 -11    0.57    0.09   1
  19  21  11    0.56    0.08   1
  21 -11  19    0.54    0.08   1
  21  11  19    0.76    0.09   1
 -21 -13  -1    0.73    0.09   1
 -21 -13   1    0.71    0.09   1
 -13  -1  21    0.82    0.09   1
 -13  -1  21    1.00    0.07   1
 -13   1  21    0.87    0.08   1
 -13   1  21    0.74    0.07   1
  -1  21 -13    0.78    0.09   1
  -1  21  13    0.94    0.09   1
   1  21 -13    0.93    0.09   1
   1  21  13    0.95    0.09   1
  13  -1  21    0.88    0.09   1
  13   1  21    0.79    0.09   1
  21 -13  -1    0.93    0.08   1
  21 -13  -1    0.84    0.05   1
  21 -13   1    0.84    0.07   1
  21 -13   1    0.82    0.05   1
  21  13  -1    1.00    0.08   1
  21  13   1    0.84    0.08   1
 -21 -13  -3    0.34    0.09   1
 -21 -13   3    0.17    0.07   1
 -13  -3  21    0.24    0.06   1
 -13  -3  21    0.27    0.05   1
 -13   3  21    0.27    0.05   1
 -13   3  21    0.28    0.04   1
  -3  21 -13    0.34    0.06   1
  -3  21  13    0.31    0.06   1
   3  21 -13    0.20    0.05   1
  13  -3  21    0.21    0.06   1
  13   3  21    0.31    0.05   1
  21 -13  -3    0.28    0.03   1
  21 -13   3    0.32    0.05   1
  21 -13   3    0.28    0.04   1
  21  13  -3    0.36    0.05   1
  21  13   3    0.30    0.04   1
 -21 -13   5    0.18    0.07   1
 -13  -5  21    0.19    0.06   1
 -13  -5  21    0.17    0.05   1
 -13   5  21    0.11    0.05   1
 -13   5  21    0.09    0.04   1
  -5  21 -13    0.09    0.05   1
  -5  21  13    0.20    0.05   1
   5 -21 -13    0.14    0.07   1
   5  21 -13    0.25    0.05   1
   5  21  13    0.21    0.06   1
  13  -5  21    0.16    0.06   1
  13   5  21    0.22    0.05   1
  21 -13   5    0.12    0.05   1
  21 -13   5    0.11    0.04   1
  21  13  -5    0.17    0.04   1
  21  13   5    0.16    0.05   1
 -21 -13   7    0.15    0.07   1
 -13  -7  21    0.01    0.07   1
 -13  -7  21    0.12    0.05   1
 -13   7  21    0.03    0.04   1
 -13   7  21    0.05    0.04   1
  -7  21 -13    0.09    0.06   1
  -7  21  13    0.12    0.05   1
   7 -21 -13   -0.05    0.06   1
   7  21 -13    0.19    0.05   1
   7  21  13   -0.03    0.05   1
  13  -7  21    0.09    0.05   1
  13   7  21    0.13    0.05   1
  21 -13   7    0.06    0.06   1
  21 -13   7   -0.06    0.03   1
  21  13  -7    0.16    0.04   1
  21  13   7    0.01    0.04   1
 -21 -13   9    0.67    0.09   1
 -13  -9  21    0.55    0.08   1
 -13  -9  21    0.57    0.07   1
 -13   9  21    0.65    0.06   1
  -9  21  13    0.71    0.09   1
   9 -21 -13    0.51    0.08   1
   9  21 -13    0.76    0.09   1
   9  21  13    0.51    0.07   1
  13  -9 -21    0.57    0.06   1
  13  -9  21    0.85    0.09   1
  13   9  21    0.44    0.06   1
  21 -13   9    0.69    0.08   1
  21 -13   9    0.75    0.08   1
  21  13  -9    0.78    0.08   1
  21  13   9    0.46    0.06   1
 -21 -13  11    1.20    0.13   1
 -13 -11  21    1.26    0.10   1
 -13  11  21    1.26    0.08   1
 -11  21  13    0.94    0.09   1
  11 -21 -13    1.19    0.11   1
  11 -21  13    1.00    0.09   1
  11  21 -13    1.57    0.10   1
  11  21  13    1.13    0.11   1
  13 -11 -21    0.81    0.09   1
  13 -11  21    1.07    0.11   1
  13  11  21    0.97    0.10   1
  21 -13  11    1.14    0.09   1
  21  13 -11    1.12    0.09   1
  21  13  11    1.24    0.10   1
 -21 -13  13    0.88    0.10   1
 -13 -13  21    0.85    0.09   1
 -13  13  21    0.73    0.07   1
 -13  21  13    0.96    0.09   1
  13 -21 -13    0.81    0.08   1
  13 -21  13    0.68    0.08   1
  13 -13 -21    0.81    0.10   1
  13 -13  21    0.79    0.09   1
  13  13  21    0.77    0.09   1
  13  21 -13    0.68    0.07   1
  21 -13  13    0.69    0.08   1
  21  13 -13    0.90    0.09   1
  21  13  13    1.10    0.09   1
 -21 -13  15    0.09    0.10   1
 -15  21  13    0.07    0.05   1
 -13 -15  21    0.10    0.06   1
 -13  15  21    0.01    0.05   1
  13 -15  21    0.07    0.06   1
  13  15  21    0.13    0.06   1
  15 -21  13   -0.07    0.05   1
  15  21 -13    0.01    0.06   1
  15  21  13    0.03    0.06   1
  21 -13  15    0.08    0.06   1
  21  13 -15    0.05    0.05   1
  21  13  15   -0.02    0.06   1
 -17  21  13    0.10    0.04   1
 -13  17  21    0.09    0.05   1
  13 -17  21   -0.02    0.07   1
  13  17  21    0.15    0.07   1
  17 -21  13    0.06    0.06   1
  17  21 -13    0.04    0.07   1
  17  21  13   -0.06    0.07   1
  21 -13  17    0.06    0.06   1
  21  13 -17    0.11    0.06   1
  21  13  17   -0.10    0.06   1
 -13  19  21    0.35    0.06   1
  13 -19  21    0.55    0.10   1
  13  19 -21    0.35    0.09   1
  13  19  21    0.50    0.09   1
  19 -21  13    0.21    0.08   1
  19  21 -13    0.38    0.08   1
  19  21  13    0.31    0.08   1
  21 -13  19    0.40    0.08   1
  21  13  19    0.18    0.08   1
 -15  -1  21    0.18    0.05   1
 -15  -1  21    0.22    0.05   1
 -15   1  21    0.28    0.05   1
 -15   1  21    0.18    0.04   1
  -1  21 -15    0.08    0.05   1
  -1  21  15    0.10    0.05   1
   1  21 -15    0.10    0.06   1
   1  21  15    0.31    0.06   1
  15  -1  21    0.16    0.05   1
  15   1  21    0.13    0.05   1
  21 -15  -1    0.20    0.04   1
  21 -15  -1    0.16    0.03   1
  21 -15   1    0.20    0.05   1
  21 -15   1    0.15    0.03   1
  21  15  -1    0.01    0.04   1
  21  15   1    0.23    0.05   1
 -21 -15   3   -0.01    0.07   1
 -15  -3  21   -0.02    0.05   1
 -15  -3  21    0.02    0.04   1
 -15   3  21   -0.07    0.04   1
 -15   3  21    0.02    0.03   1
  -3  21 -15    0.03    0.06   1
   3  21 -15    0.14    0.05   1
   3  21  15    0.15    0.06   1
  15  -3  21   -0.07    0.05   1
  15   3  21    0.02    0.04   1
  21 -15  -3    0.02    0.04   1
  21 -15  -3   -0.03    0.02   1
  21 -15   3    0.04    0.05   1
  21 -15   3    0.07    0.03   1
  21  15  -3   -0.02    0.04   1
  21  15   3   -0.07    0.04   1
 -21 -15   5    0.20    0.07   1
 -15  -5  21    0.21    0.06   1
 -15  -5  21    0.26    0.05   1
 -15   5  21    0.12    0.04   1
 -15   5  21    0.12    0.04   1
  -5  21 -15    0.34    0.06   1
  -5  21  15    0.13    0.05   1
   5  21 -15    0.18    0.06   1
   5  21  15    0.29    0.06   1
  15  -5  21    0.17    0.06   1
  15   5  21    0.17    0.05   1
  21 -15  -5    0.19    0.03   1
  21 -15   5    0.20    0.06   1
  21 -15   5    0.13    0.04   1
  21  15  -5    0.19    0.04   1
  21  15   5    0.17    0.05   1
 -21 -15   7    0.07    0.07   1
 -15  -7  21    0.06    0.07   1
 -15  -7  21    0.26    0.06   1
 -15   7  21    0.16    0.04   1
 -15   7  21    0.17    0.04   1
  -7  21  15    0.18    0.05   1
   7 -21 -15    0.22    0.09   1
   7  21 -15    0.20    0.06   1
   7  21  15    0.24    0.06   1
  15  -7  21    0.31    0.06   1
  15   7  21    0.32    0.07   1
  21 -15   7    0.14    0.12   1
  21 -15   7    0.26    0.05   1
  21  15  -7    0.16    0.05   1
  21  15   7    0.11    0.05   1
 -21 -15   9    0.10    0.07   1
 -15  -9  21    0.03    0.08   1
 -15  -9  21    0.02    0.05   1
 -15   9  21    0.04    0.05   1
 -15   9  21    0.06    0.03   1
  -9  21  15   -0.05    0.05   1
   9 -21 -15   -0.01    0.06   1
   9 -21  15    0.02    0.05   1
   9  21 -15    0.10    0.06   1
   9  21  15   -0.07    0.05   1
  15  -9  21    0.01    0.06   1
  15   9  21    0.02    0.06   1
  21 -15   9    0.01    0.08   1
  21 -15   9   -0.09    0.04   1
  21  15  -9    0.00    0.04   1
  21  15   9    0.04    0.05   1
 -21 -15  11    0.14    0.08   1
 -15 -11  21    0.20    0.06   1
 -15  11  21    0.19    0.04   1
 -11  21  15    0.26    0.06   1
  11 -21 -15    0.20    0.07   1
  11 -21  15    0.02    0.05   1
  11  21 -15    0.27    0.06   1
  11  21  15    0.35    0.07   1
  15 -11  21    0.21    0.06   1
  15  11  21    0.27    0.07   1
  21 -15  11    0.22    0.05   1
  21  15 -11    0.22    0.05   1
  21  15  11    0.21    0.06   1
 -15 -13  21    0.12    0.06   1
 -15  13  21    0.08    0.04   1
 -13  21  15    0.04    0.05   1
  13 -21  15    0.08    0.06   1
  13  21 -15    0.01    0.07   1
  13  21  15    0.05    0.06   1
  15 -13  21    0.03    0.06   1
  15  13  21    0.10    0.06   1
  21 -15  13    0.14    0.06   1
  21  15 -13   -0.02    0.05   1
  21  15  13    0.07    0.06   1
 -15 -15  21    0.03    0.07   1
 -15  15  21    0.05    0.05   1
 -15  21  15    0.07    0.05   1
  15 -21  15    0.07    0.06   1
  15 -15  21    0.07    0.06   1
  15  15  21   -0.14    0.07   1
  15  21 -15   -0.05    0.07   1
  15  21  15   -0.04    0.07   1
  21 -15  15   -0.01    0.06   1
  21  15 -15   -0.02    0.06   1
  21  15  15    0.05    0.06   1
  15 -17  21    0.11    0.07   1
  15  17  21    0.12    0.08   1
  17 -21  15    0.05    0.07   1
  17  21 -15    0.06    0.08   1
  17  21  15    0.18    0.08   1
  21 -15  17   -0.14    0.07   1
  21  15 -17    0.04    0.07   1
  21  15  17    0.02    0.07   1
  15 -19  21   -0.17    0.08   1
  15  19 -21    0.23    0.10   1
  15  19  21   -0.07    0.08   1
  19 -21  15   -0.02    0.08   1
  19  21 -15   -0.19    0.08   1
  19  21  15   -0.02    0.08   1
  21  15  19   -0.11    0.08   1
 -17  -1  21    0.16    0.05   1
 -17  -1  21    0.25    0.04   1
 -17   1  21    0.18    0.05   1
 -17   1  21    0.15    0.04   1
  -1  21 -17    0.24    0.06   1
  -1  21  17    0.14    0.07   1
   1  21 -17    0.32    0.07   1
   1  21  17    0.12    0.06   1
  17  -1  21    0.13    0.05   1
  17   1  21    0.15    0.05   1
  21 -17  -1    0.11    0.05   1
  21 -17  -1    0.21    0.04   1
  21 -17   1    0.17    0.03   1
  21  17  -1    0.17    0.05   1
 -17  -3  21    0.13    0.05   1
 -17  -3  21    0.03    0.04   1
 -17   3  21    0.09    0.04   1
 -17   3  21   -0.08    0.03   1
  -3  21 -17    0.08    0.06   1
  -3  21  17    0.14    0.10   1
   3  21 -17   -0.08    0.06   1
   3  21  17    0.05    0.06   1
  17  -3  21    0.07    0.05   1
  17   3  21   -0.01    0.06   1
  21 -17  -3    0.04    0.05   1
  21 -17  -3   -0.04    0.03   1
  21 -17   3   -0.03    0.06   1
  21 -17   3    0.12    0.04   1
  21  17  -3    0.07    0.06   1
  21  17   3   -0.13    0.05   1
 -17  -5  21    0.12    0.06   1
 -17  -5  21    0.07    0.04   1
 -17   5  21    0.04    0.03   1
  -5  21  17    0.16    0.05   1
   5  21 -17   -0.01    0.07   1
   5  21  17    0.06    0.06   1
  17  -5  21    0.13    0.06   1
  17   5  21    0.02    0.06   1
  21 -17  -5    0.12    0.04   1
  21 -17  -5    0.12    0.02   1
  21 -17   5    0.09    0.06   1
  21 -17   5    0.07    0.04   1
  21  17  -5    0.07    0.05   1
  21  17   5   -0.04    0.05   1
 -17  -7  21    0.12    0.07   1
 -17  -7  21    0.23    0.05   1
 -17   7  21    0.11    0.03   1
  -7  21  17    0.15    0.06   1
   7 -21  17    0.16    0.06   1
   7  21 -17    0.47    0.08   1
   7  21  17    0.23    0.06   1
  17  -7  21    0.09    0.06   1
  17   7  21    0.33    0.07   1
  21 -17   7    0.05    0.06   1
  21 -17   7    0.21    0.05   1
  21  17  -7    0.02    0.05   1
  21  17   7    0.02    0.05   1
 -17  -9  21    0.03    0.07   1
 -17  -9  21    0.00    0.05   1
 -17   9  21   -0.04    0.04   1
  -9  21  17    0.05    0.05   1
   9 -21  17   -0.03    0.06   1
   9  21 -17   -0.07    0.06   1
   9  21  17    0.05    0.06   1
  17  -9  21    0.06    0.06   1
  17   9  21    0.03    0.06   1
  21 -17   9    0.10    0.05   1
  21  17  -9   -0.08    0.05   1
  21  17   9    0.17    0.06   1
 -17 -11  21    0.21    0.11   1
 -17 -11  21    0.17    0.05   1
 -11  21  17    0.16    0.06   1
  11 -21 -17    0.33    0.08   1
  11 -21  17    0.30    0.06   1
  11  21 -17    0.22    0.07   1
  11  21  17    0.17    0.07   1
  17 -11  21    0.30    0.07   1
  17  11  21   -0.06    0.06   1
  21 -17  11    0.12    0.06   1
  21  17 -11    0.12    0.05   1
  21  17  11    0.17    0.07   1
 -17 -13  21    0.27    0.06   1
 -13  21  17    0.00    0.06   1
  13 -21  17   -0.03    0.06   1
  13  21 -17    0.10    0.08   1
  13  21  17    0.15    0.08   1
  17 -13  21   -0.10    0.07   1
  17  13  21    0.03    0.07   1
  21 -17  13    0.03    0.06   1
  21  17  13   -0.15    0.06   1
 -17 -15  21    0.01    0.07   1
 -15  21  17    0.01    0.06   1
  15 -21  17    0.18    0.08   1
  15  21 -17    0.14    0.08   1
  15  21  17    0.05    0.08   1
  17 -15  21    0.08    0.08   1
  17  15  21    0.05    0.08   1
  21 -17  15    0.19    0.07   1
  21  17 -15    0.13    0.08   1
  21  17  15    0.10    0.07   1
  17 -21  17    0.04    0.08   1
  17 -17  21    0.11    0.08   1
  17  21 -17   -0.02    0.08   1
  17  21  17    0.16    0.08   1
  21 -17  17    0.24    0.08   1
  21  17 -17    0.21    0.08   1
  21  17  17    0.06    0.08   1
  17 -19  21    0.03    0.09   1
  17  19 -21   -0.17    0.11   1
  17  19  21    0.02    0.09   1
  19 -21  17    0.08    0.09   1
  19  21 -17   -0.19    0.11   1
  19  21  17    0.06    0.09   1
  21 -17  19   -0.01    0.09   1
  21  17 -19   -0.20    0.10   1
  21  17  19   -0.20    0.09   1
 -19  -1  21    0.67    0.06   1
 -19   1  21    0.52    0.05   1
  -1  21  19    0.64    0.08   1
   1  21 -19    0.60    0.08   1
   1  21  19    0.65    0.09   1
  19  -1  21    0.60    0.08   1
  19   1  21    0.37    0.07   1
  21 -19  -1    0.49    0.05   1
  21 -19   1    0.52    0.08   1
  21 -19   1    0.44    0.05   1
  21  19  -1    0.50    0.07   1
  21  19   1    0.50    0.07   1
 -19  -3  21    0.34    0.05   1
  -3  21  19    0.32    0.07   1
   3 -21  19    0.35    0.07   1
   3  21 -19    0.41    0.07   1
   3  21  19    0.38    0.07   1
  19  -3  21    0.32    0.06   1
  19   3  21    0.21    0.06   1
  21 -19  -3    0.27    0.04   1
  21 -19   3    0.33    0.07   1
  21 -19   3    0.27    0.05   1
  21  19  -3    0.12    0.06   1
  21  19   3    0.10    0.06   1
 -19  -5  21    0.02    0.05   1
  -5  21  19    0.02    0.07   1
   5 -21  19    0.10    0.07   1
   5  21 -19    0.17    0.07   1
   5  21  19   -0.01    0.06   1
  19  -5  21   -0.03    0.06   1
  19   5  21    0.02    0.06   1
  21 -19  -5    0.10    0.03   1
  21 -19   5    0.01    0.06   1
  21 -19   5   -0.05    0.05   1
  21  19  -5    0.02    0.06   1
  21  19   5    0.05    0.06   1
 -19  -7  21    0.70    0.08   1
  -7  21  19   -0.14    0.05   1
   7 -21  19   -0.09    0.06   1
   7  21 -19    0.28    0.07   1
   7  21  19   -0.02    0.06   1
  19  -7  21   -0.02    0.06   1
  19   7  21   -0.03    0.06   1
  21 -19  -7    0.01    0.03   1
  21 -19   7    0.02    0.05   1
  21  19  -7   -0.08    0.06   1
  21  19   7    0.12    0.07   1
 -19  -9  21    0.27    0.06   1
  -9  21  19    0.16    0.06   1
   9 -21  19    0.04    0.07   1
   9  21 -19    0.14    0.08   1
   9  21  19    0.14    0.07   1
  19  -9  21    0.28    0.07   1
  19   9  21    0.19    0.07   1
  21 -19   9    0.08    0.10   1
  21  19  -9    0.15    0.06   1
  21  19   9    0.23    0.07   1
 -19 -11  21    0.56    0.06   1
 -11  21  19    0.60    0.07   1
  11 -21  19    0.83    0.10   1
  11  21 -19    0.79    0.10   1
  11  21  19    0.62    0.09   1
  19 -11  21    0.83    0.10   1
  19  11  21    0.52    0.09   1
  21 -19  11    0.70    0.09   1
  21  19 -11    0.58    0.08   1
  21  19  11    0.50    0.08   1
 -19 -13  21    0.25    0.07   1
 -13  21  19    0.40    0.07   1
  13 -21  19    0.50    0.08   1
  13  21 -19    0.36    0.09   1
  13  21  19    0.32    0.09   1
  19 -13  21    0.29    0.08   1
  19  13  21    0.05    0.08   1
  21 -19  13    0.24    0.09   1
  21  19 -13    0.21    0.08   1
  21  19  13    0.20    0.07   1
 -19 -15  21    0.09    0.07   1
  15 -21  19    0.10    0.08   1
  15  21 -19    0.00    0.09   1
  15  21  19    0.07    0.08   1
  19 -15  21   -0.02    0.09   1
  19  15  21   -0.02    0.08   1
  21 -19  15   -0.16    0.08   1
  21  19 -15   -0.08    0.09   1
  21  19  15    0.07    0.09   1
  17 -21  19    0.22    0.09   1
  17  21 -19   -0.14    0.11   1
  17  21  19   -0.19    0.09   1
  19 -17  21    0.02    0.09   1
  19  17  21   -0.08    0.08   1
  21 -19  17    0.25    0.09   1
  21  19 -17   -0.13    0.10   1
  21  19  17   -0.08    0.09   1
  19 -21  19    0.32    0.12   1
  19 -19  21    0.33    0.12   1
  19  19 -21    0.23    0.13   1
  19  19  21    0.14    0.11   1
  19  21 -19    0.20    0.14   1
  19  21  19    0.25    0.12   1
  21 -19  19    0.49    0.11   1
  21  19 -19    0.26    0.14   1
  21  19  19    0.29    0.12   1
  -1 -21  21    0.82    0.11   1
  -1  21  21    0.91    0.10   1
   1 -21  21    0.98    0.10   1
   1  21  21    0.84    0.10   1
  21 -21  -1    0.93    0.08   1
  21 -21   1    0.99    0.09   1
  21  -1  21    1.13    0.11   1
  21   1  21    1.21    0.11   1
  21  21  -1    1.01    0.10   1
  21  21   1    1.49    0.12   1
  -3  21  21    0.92    0.09   1
   3 -21  21    0.85    0.11   1
   3  21  21    0.65    0.09   1
  21 -21  -3    0.93    0.07   1
  21 -21   3    0.74    0.07   1
  21  -3  21    0.53    0.07   1
  21   3  21    0.73    0.08   1
  21  21  -3    0.73    0.09   1
  21  21   3    0.75    0.08   1
  -5  21  21    0.30    0.07   1
   5 -21  21    0.41    0.08   1
   5  21  21    0.19    0.07   1
  21 -21  -5    0.27    0.04   1
  21 -21   5    0.33    0.06   1
  21  -5  21    0.17    0.06   1
  21   5  21    0.29    0.07   1
  21  21  -5    0.10    0.07   1
  21  21   5    0.37    0.07   1
 -21  -7  21    0.15    0.07   1
  -7  21  21   -0.04    0.06   1
   7 -21  21   -0.07    0.08   1
   7  21 -21    0.29    0.08   1
   7  21  21   -0.09    0.07   1
  21  -7  21    0.14    0.07   1
  21   7  21    0.07    0.07   1
  21  21  -7   -0.04    0.07   1
  21  21   7    0.11    0.07   1
 -21  -9  21    0.45    0.07   1
  -9  21  21    0.65    0.08   1
   9 -21  21    0.61    0.09   1
   9  21 -21    0.66    0.10   1
   9  21  21    0.17    0.08   1
  21 -21   9    0.63    0.09   1
  21  -9  21    0.74    0.09   1
  21   9  21    0.45    0.08   1
  21  21  -9    0.39    0.08   1
  21  21   9    0.60    0.09   1
 -21 -11  21    1.15    0.10   1
 -11  21  21    1.09    0.12   1
  11 -21  21    1.69    0.17   1
  11  21 -21    1.81    0.17   1
  11  21  21    1.41    0.16   1
  21 -21  11    1.34    0.16   1
  21 -11  21    1.64    0.14   1
  21  11  21    1.01    0.12   1
  21  21 -11    1.09    0.11   1
  21  21  11    0.86    0.11   1
 -21 -13  21    0.54    0.07   1
  13 -21  21    1.48    0.17   1
  13  21 -21    1.19    0.13   1
  13  21  21    0.94    0.12   1
  21 -21  13    0.55    0.10   1
  21 -13  21    0.79    0.10   1
  21  13  21    0.56    0.10   1
  21  21 -13    0.81    0.11   1
  21  21  13    0.69    0.10   1
  15 -21  21    0.37    0.10   1
  15  21 -21    0.17    0.12   1
  15  21  21   -0.05    0.10   1
  21 -21  15    0.18    0.10   1
  21 -15  21    0.24    0.10   1
  21  15  21    0.00    0.09   1
  21  21 -15    0.02    0.11   1
  21  21  15   -0.05    0.09   1
  17 -21  21    0.20    0.11   1
  17  21 -21    0.11    0.15   1
  17  21  21   -0.01    0.12   1
  21 -21  17    0.01    0.11   1
  21 -17  21    0.11    0.11   1
  21  17  21   -0.05    0.10   1
  21  21 -17    0.07    0.13   1
  21  21  17    0.13    0.12   1
 -22   0   0    3.45    0.09   1
   0   0 -22    3.20    0.14   1
   0   0  22    3.68    0.13   1
   0  22   0    3.68    0.13   1
  22   0   0    3.46    0.08   1
 -22   0  -2    1.86    0.08   1
 -22   0   2    1.63    0.06   1
  -2  22   0    1.86    0.10   1
   0  -2 -22    1.52    0.11   1
   0  -2  22    1.76    0.10   1
   0   2  22    1.66    0.10   1
   2 -22   0    2.35    0.14   1
   2  22   0    1.72    0.10   1
  22   0  -2    1.83    0.05   1
  22   0   2    1.74    0.06   1
 -22   0  -4    0.88    0.08   1
 -22   0   4    0.77    0.04   1
  -4  22   0    0.80    0.08   1
   0  -4 -22    0.76    0.08   1
   0  -4  22    0.67    0.08   1
   0  -4  22    0.78    0.08   1
   0   4  22    0.84    0.08   1
   4 -22   0    0.58    0.07   1
   4  22   0    0.71    0.08   1
  22   0  -4    0.84    0.04   1
  22   0   4    0.84    0.06   1
 -22   0  -6    0.00    0.05   1
  -6  22   0   -0.09    0.04   1
   0  -6 -22    0.07    0.05   1
   0  -6  22   -0.06    0.04   1
   0   6  22   -0.03    0.04   1
   6 -22   0   -0.03    0.05   1
  22   0   6   -0.03    0.03   1
 -22   0  -8    0.30    0.06   1
  -8  22   0    0.50    0.06   1
   0  -8 -22    0.54    0.08   1
   0  -8  22    0.28    0.06   1
   0   8  22    0.62    0.07   1
   8 -22   0    0.31    0.06   1
   8  22   0    0.31    0.05   1
  22   0   8    0.36    0.05   1
 -22   0 -10    1.05    0.10   1
 -10  22   0    1.11    0.09   1
   0 -10  22    1.33    0.09   1
   0  10  22    1.15    0.10   1
  10 -22   0    1.06    0.10   1
  10  22   0    1.32    0.12   1
  22   0  10    1.29    0.08   1
 -22   0 -12    1.37    0.13   1
 -12  22   0    1.62    0.10   1
   0 -12  22    1.59    0.11   1
   0  12  22    1.48    0.11   1
  12 -22   0    1.46    0.12   1
  12  22   0    1.95    0.10   1
  22   0  12    1.28    0.08   1
 -14  22   0    0.63    0.07   1
   0 -14  22    0.66    0.08   1
   0  14  22    0.55    0.07   1
  14 -22   0    0.70    0.08   1
  14  22   0    0.82    0.09   1
  22   0  14    0.42    0.05   1
 -16  22   0    0.19    0.06   1
   0 -16  22    0.15    0.06   1
   0  16  22    0.15    0.06   1
  16 -22   0    0.29    0.07   1
  16  22   0    0.28    0.05   1
  22   0  16    0.18    0.05   1
 -18  22   0    0.36    0.06   1
   0 -18  22    0.28    0.08   1
   0  18  22    0.31    0.07   1
  18 -22   0    0.26    0.07   1
  18  22   0    0.33    0.07   1
  22   0  18    0.25    0.06   1
   0 -20  22    0.80    0.10   1
   0  20  22    0.57    0.09   1
  20 -22   0    0.58    0.07   1
  20  22   0    0.63    0.08   1
  22   0  20    0.63    0.08   1
 -22  -2   0    1.68    0.08   1
 -22   2   0    1.52    0.06   1
  -2   0 -22    1.72    0.13   1
  -2   0  22    1.80    0.09   1
   0  22  -2    2.00    0.10   1
   0  22   2    1.77    0.10   1
   2   0 -22    1.65    0.12   1
   2   0  22    1.61    0.09   1
  22  -2   0    1.85    0.05   1
  22   2   0    1.76    0.06   1
 -22  -2  -2    1.03    0.07   1
 -22  -2   2    1.09    0.06   1
 -22   2  -2    0.95    0.06   1
  -2  -2 -22    1.06    0.10   1
  -2  -2  22    1.06    0.10   1
  -2  -2  22    1.07    0.09   1
  -2   2  22    1.09    0.09   1
  -2  22  -2    1.00    0.08   1
  -2  22   2    0.95    0.08   1
   2 -22  -2    1.00    0.10   1
   2  -2 -22    1.21    0.10   1
   2  -2  22    1.12    0.08   1
   2   2  22    1.03    0.08   1
   2  22  -2    0.92    0.08   1
   2  22   2    1.16    0.09   1
  22  -2  -2    0.98    0.04   1
  22  -2   2    1.10    0.05   1
  22   2  -2    0.92    0.04   1
  22   2   2    1.03    0.06   1
 -22  -2  -4    0.59    0.06   1
 -22  -2   4    0.56    0.04   1
 -22   2  -4    0.43    0.05   1
  -4  22  -2    0.56    0.06   1
  -4  22   2    0.65    0.08   1
  -2  -4 -22    0.30    0.08   1
  -2  -4  22    0.64    0.08   1
  -2  -4  22    0.52    0.06   1
  -2   4  22    0.64    0.08   1
   2  -4 -22    0.68    0.08   1
   2  -4  22    0.56    0.07   1
   2   4  22    0.46    0.06   1
   4 -22  -2    0.47    0.07   1
   4  22  -2    0.60    0.07   1
   4  22   2    0.52    0.06   1
  22  -2   4    0.57    0.05   1
  22   2  -4    0.51    0.04   1
  22   2   4    0.52    0.05   1
 -22  -2  -6    0.01    0.05   1
 -22  -2   6   -0.01    0.02   1
 -22   2  -6    0.07    0.04   1
  -6  22  -2   -0.04    0.04   1
  -6  22   2    0.01    0.04   1
  -2  -6  22    0.03    0.09   1
  -2  -6  22   -0.05    0.04   1
  -2   6  22   -0.03    0.04   1
   2  -6 -22    0.00    0.05   1
   2  -6  22    0.04    0.05   1
   2   6  22    0.01    0.04   1
   6 -22  -2    0.02    0.06   1
   6 -22   2   -0.02    0.06   1
   6  22  -2   -0.03    0.03   1
   6  22   2   -0.10    0.04   1
  22  -2   6    0.04    0.03   1
  22   2  -6    0.01    0.02   1
  22   2   6   -0.01    0.03   1
 -22  -2  -8    0.14    0.06   1
 -22   2  -8    0.20    0.05   1
  -8  22  -2    0.29    0.05   1
  -8  22   2    0.27    0.06   1
  -2  -8  22    0.14    0.05   1
  -2   8  22    0.29    0.05   1
   2  -8 -22    0.32    0.07   1
   2  -8  22    0.11    0.04   1
   2   8  22    0.15    0.05   1
   8 -22  -2    0.27    0.07   1
   8 -22   2    0.24    0.06   1
   8  22  -2    0.10    0.04   1
   8  22   2    0.21    0.04   1
  22  -2   8    0.25    0.04   1
  22   2   8    0.21    0.04   1
 -22  -2 -10    1.11    0.12   1
 -22   2 -10    0.84    0.10   1
 -10  22  -2    1.17    0.09   1
 -10  22   2    1.10    0.09   1
  -2 -10  22    0.89    0.09   1
  -2  10  22    1.05    0.09   1
   2 -10 -22    1.17    0.11   1
   2  10  22    1.08    0.09   1
  10 -22  -2    1.16    0.11   1
  10 -22   2    1.38    0.11   1
  10  22   2    1.11    0.09   1
  22  -2  10    1.15    0.08   1
  22   2  10    1.30    0.08   1
 -22   2 -12    0.97    0.10   1
 -12  22  -2    1.17    0.09   1
 -12  22   2    1.17    0.09   1
  -2 -12  22    1.07    0.10   1
  -2  12  22    1.06    0.10   1
   2 -12  22    0.98    0.10   1
   2  12  22    1.24    0.09   1
  12 -22  -2    1.14    0.11   1
  12 -22   2    0.98    0.11   1
  12  22  -2    1.24    0.10   1
  12  22   2    0.94    0.09   1
  22  -2  12    1.24    0.08   1
  22   2  12    1.08    0.08   1
 -14  22  -2    0.20    0.05   1
 -14  22   2    0.32    0.06   1
  -2 -14  22    0.11    0.06   1
  -2  14  22    0.14    0.06   1
   2 -14  22    0.17    0.06   1
   2  14  22    0.23    0.06   1
  14 -22  -2    0.16    0.06   1
  14 -22   2    0.13    0.06   1
  14  22  -2    0.26    0.06   1
  14  22   2    0.11    0.05   1
  22  -2  14    0.22    0.04   1
  22   2  14    0.24    0.05   1
 -16  22  -2    0.13    0.05   1
 -16  22   2    0.14    0.05   1
  -2 -16  22   -0.07    0.06   1
   2 -16  22    0.09    0.06   1
   2  16  22    0.02    0.06   1
  16 -22  -2    0.03    0.07   1
  16 -22   2   -0.04    0.06   1
  16  22  -2    0.05    0.05   1
  16  22   2   -0.01    0.05   1
  22  -2  16    0.11    0.05   1
  22   2  16    0.15    0.05   1
 -18  22   2    0.21    0.05   1
  -2 -18  22    0.10    0.07   1
  -2  18  22    0.00    0.06   1
   2 -18  22    0.20    0.07   1
   2  18  22    0.10    0.06   1
  18 -22  -2    0.05    0.07   1
  18 -22   2    0.24    0.07   1
  18  22  -2    0.05    0.07   1
  18  22   2   -0.01    0.06   1
  22  -2  18    0.16    0.05   1
  22   2  18    0.14    0.06   1
  -2 -20  22    0.51    0.09   1
  -2  20  22    0.48    0.08   1
   2 -20  22    0.52    0.09   1
   2  20  22    0.54    0.08   1
  20 -22   2    0.58    0.06   1
  20  22  -2    0.61    0.09   1
  20  22   2    0.60    0.08   1
  22  -2  20    0.50    0.07   1
  22   2  20    0.53    0.08   1
 -22  -4   0    0.82    0.07   1
  -4   0  22    0.88    0.08   1
   0  22  -4    0.66    0.08   1
   0  22   4    0.88    0.08   1
   4   0  22    0.93    0.09   1
  22  -4   0    0.87    0.05   1
  22  -4   0    0.91    0.04   1
  22   4   0    0.92    0.05   1
 -22  -4  -2    0.45    0.06   1
 -22  -4   2    0.54    0.06   1
  -4  -2  22    0.52    0.07   1
  -4  -2  22    0.49    0.06   1
  -4   2  22    0.51    0.06   1
  -2  22  -4    0.60    0.07   1
  -2  22   4    0.59    0.07   1
   2 -22  -4    0.50    0.07   1
   2  22  -4    0.53    0.06   1
   2  22   4    0.54    0.07   1
   4  -2 -22    0.54    0.07   1
   4  -2  22    0.57    0.07   1
   4   2  22    0.45    0.06   1
  22  -4  -2    0.59    0.03   1
  22  -4  -2    0.51    0.03   1
  22  -4   2    0.48    0.06   1
  22  -4   2    0.44    0.04   1
  22   4  -2    0.50    0.04   1
  22   4   2    0.47    0.05   1
 -22  -4  -4    0.35    0.06   1
 -22  -4   4    0.49    0.05   1
  -4  -4  22    0.39    0.07   1
  -4  -4  22    0.52    0.07   1
  -4   4  22    0.52    0.06   1
  -4  22  -4    0.38    0.06   1
  -4  22   4    0.46    0.06   1
   4 -22  -4    0.37    0.07   1
   4  -4 -22    0.42    0.06   1
   4  -4  22    0.44    0.07   1
   4   4  22    0.41    0.06   1
   4  22  -4    0.50    0.05   1
  22  -4   4    0.45    0.05   1
  22   4  -4    0.35    0.04   1
  22   4   4    0.62    0.05   1
 -22  -4  -6    0.08    0.06   1
 -22  -4   6    0.20    0.03   1
 -22   4  -6    0.06    0.04   1
  -6  22  -4    0.08    0.05   1
  -6  22   4    0.02    0.04   1
  -4  -6  22    0.06    0.05   1
  -4  -6  22    0.07    0.04   1
  -4   6  22    0.01    0.04   1
   4  -6 -22    0.07    0.05   1
   4  -6  22    0.05    0.04   1
   4   6  22   -0.01    0.04   1
   6 -22  -4    0.05    0.07   1
   6  22  -4    0.02    0.04   1
   6  22   4   -0.04    0.04   1
  22  -4   6    0.02    0.03   1
  22   4  -6    0.10    0.02   1
  22   4   6    0.04    0.04   1
 -22  -4  -8    0.11    0.06   1
 -22  -4   8    0.09    0.03   1
 -22   4  -8    0.16    0.05   1
  -8  22  -4    0.12    0.05   1
  -8  22   4    0.10    0.05   1
  -4  -8  22   -0.05    0.05   1
  -4   8  22    0.12    0.05   1
   4  -8 -22    0.17    0.06   1
   4  -8  22    0.20    0.05   1
   4   8  22    0.07    0.04   1
   8 -22  -4    0.13    0.06   1
   8  22  -4    0.18    0.05   1
  22  -4   8    0.17    0.04   1
  22   4  -8    0.09    0.02   1
  22   4   8    0.02    0.04   1
 -22  -4 -10    1.26    0.11   1
 -22  -4  10    0.88    0.05   1
 -22   4 -10    0.67    0.07   1
 -10  22  -4    0.94    0.09   1
 -10  22   4    0.84    0.09   1
  -4 -10  22    0.77    0.09   1
  -4  10  22    0.73    0.09   1
   4 -10 -22    0.84    0.09   1
   4 -10  22    0.95    0.09   1
   4  10  22    0.70    0.08   1
  10 -22  -4    0.97    0.11   1
  10  22  -4    0.79    0.09   1
  10  22   4    0.78    0.08   1
  22  -4  10    0.82    0.08   1
  22   4  10    1.05    0.08   1
 -22  -4  12    0.67    0.05   1
 -22   4 -12    0.45    0.07   1
 -12  22  -4    0.85    0.10   1
 -12  22   4    0.75    0.08   1
  -4  12  22    0.48    0.06   1
   4 -12 -22    0.49    0.07   1
   4 -12  22    0.85    0.10   1
   4  12  22    0.49    0.07   1
  12 -22  -4    0.65    0.08   1
  12  22  -4    1.07    0.09   1
  12  22   4    0.83    0.09   1
  22  -4  12    0.61    0.06   1
  22   4  12    0.77    0.08   1
 -22  -4  14   -0.05    0.03   1
 -14  22  -4    0.03    0.05   1
 -14  22   4    0.02    0.04   1
  -4 -14  22   -0.05    0.05   1
  -4  14  22    0.07    0.05   1
   4 -14  22   -0.08    0.05   1
   4  14  22   -0.08    0.05   1
  14 -22  -4    0.06    0.06   1
  14  22  -4   -0.04    0.05   1
  14  22   4    0.00    0.05   1
  22  -4  14   -0.06    0.04   1
 -22  -4  16    0.06    0.04   1
 -16  22  -4   -0.09    0.05   1
 -16  22   4    0.09    0.05   1
  -4 -16  22   -0.01    0.06   1
  -4  16  22   -0.03    0.05   1
   4 -16  22    0.09    0.06   1
   4  16  22   -0.10    0.06   1
  16 -22  -4   -0.14    0.06   1
  16  22  -4   -0.03    0.05   1
  16  22   4    0.04    0.05   1
  22  -4  16   -0.01    0.05   1
  22   4  16   -0.06    0.05   1
 -18  22   4    0.03    0.05   1
  -4 -18  22   -0.13    0.06   1
  -4  18  22   -0.04    0.06   1
   4 -18  22    0.08    0.07   1
   4  18  22    0.62    0.10   1
  18 -22  -4   -0.19    0.10   1
  18 -22   4    0.02    0.05   1
  18  22   4    0.10    0.06   1
  22  -4  18    0.01    0.05   1
  22   4  18    0.04    0.06   1
  -4 -20  22    0.25    0.07   1
  -4  20  22    0.25    0.08   1
   4 -20  22    0.31    0.08   1
   4  20  22    0.20    0.07   1
  20 -22   4    0.23    0.06   1
  20  22  -4    0.19    0.07   1
  20  22   4    0.38    0.07   1
  22  -4  20    0.10    0.07   1
  22   4  20    0.14    0.07   1
 -22  -6   0    0.00    0.04   1
  -6   0  22   -0.04    0.05   1
  -6   0  22   -0.02    0.04   1
   0  22  -6    0.01    0.04   1
   0  22   6    0.02    0.04   1
   6   0  22    0.04    0.04   1
  22  -6   0    0.03    0.03   1
  22  -6   0   -0.04    0.02   1
  22   6   0   -0.03    0.03   1
 -22  -6  -2    0.00    0.05   1
 -22  -6   2    0.06    0.04   1
  -6  -2  22   -0.01    0.06   1
  -6   2  22   -0.01    0.04   1
  -2  22  -6    0.03    0.04   1
  -2  22   6    0.06    0.04   1
   2 -22  -6    0.02    0.07   1
   2  22  -6    0.02    0.03   1
   2  22   6   -0.08    0.04   1
   6  -2  22    0.42    0.06   1
   6   2  22   -0.08    0.04   1
  22  -6   2    0.02    0.03   1
  22  -6   2    0.01    0.02   1
  22   6  -2    0.01    0.03   1
  22   6   2    0.03    0.03   1
 -22  -6  -4    0.16    0.06   1
 -22  -6   4    0.08    0.04   1
  -6  -4  22    0.05    0.06   1
  -6  -4  22    0.10    0.05   1
  -6   4  22    0.01    0.04   1
  -4  22  -6    0.08    0.04   1
  -4  22   6    0.03    0.04   1
   4 -22  -6    0.10    0.05   1
   4  22  -6   -0.05    0.04   1
   4  22   6   -0.04    0.04   1
   6  -4 -22    0.11    0.05   1
   6  -4  22   -0.01    0.04   1
   6   4  22    0.07    0.04   1
  22  -6   4    0.04    0.04   1
  22  -6   4    0.07    0.03   1
  22   6  -4    0.05    0.03   1
  22   6   4    0.10    0.03   1
 -22  -6  -6    0.88    0.10   1
 -22  -6   6    1.02    0.07   1
  -6  -6  22    1.02    0.11   1
  -6  -6  22    0.98    0.08   1
  -6   6  22    0.91    0.08   1
  -6  22  -6    0.93    0.09   1
  -6  22   6    0.85    0.08   1
   6 -22  -6    0.82    0.09   1
   6  -6 -22    0.85    0.10   1
   6  -6  22    0.82    0.10   1
   6   6  22    0.86    0.08   1
   6  22  -6    1.01    0.08   1
   6  22   6    0.98    0.09   1
  22  -6   6    0.93    0.08   1
  22  -6   6    0.97    0.06   1
  22   6  -6    0.98    0.05   1
  22   6   6    0.95    0.07   1
 -22  -6  -8    0.27    0.07   1
 -22  -6   8    0.27    0.05   1
  -8  22  -6    0.32    0.06   1
  -8  22   6    0.34    0.06   1
  -6  -8  22    0.54    0.13   1
  -6  -8  22    0.24    0.05   1
  -6   8  22    0.27    0.05   1
   6  -8 -22    0.32    0.06   1
   6  -8  22    0.27    0.05   1
   6   8  22    0.29    0.07   1
   8 -22  -6    0.31    0.07   1
   8  22   6    0.30    0.06   1
  22  -6   8    0.16    0.05   1
  22  -6   8    0.26    0.04   1
  22   6  -8    0.16    0.03   1
  22   6   8    0.25    0.05   1
 -10  22  -6    0.15    0.06   1
 -10  22   6    0.10    0.05   1
  -6 -10  22    0.10    0.05   1
  -6  10  22    0.05    0.05   1
   6 -10 -22    0.08    0.06   1
   6 -10  22    0.25    0.05   1
   6  10  22    0.12    0.05   1
  10 -22  -6    0.09    0.06   1
  10  22  -6    0.04    0.05   1
  10  22   6    0.09    0.05   1
  22  -6  10    0.06    0.05   1
  22  -6  10    0.16    0.04   1
  22   6 -10    0.03    0.03   1
  22   6  10    0.14    0.04   1
 -12  22  -6    0.36    0.06   1
 -12  22   6    0.24    0.06   1
  -6 -12  22    0.26    0.08   1
  -6  12  22    0.18    0.05   1
   6 -12 -22    0.19    0.07   1
   6 -12  22    0.30    0.06   1
   6  12  22    0.21    0.06   1
  12 -22  -6    0.12    0.06   1
  12  22  -6    0.06    0.05   1
  12  22   6    0.17    0.05   1
  22  -6  12    0.12    0.07   1
  22  -6  12    0.25    0.04   1
  22   6 -12    0.20    0.03   1
  22   6  12    0.17    0.04   1
 -22  -6  14    0.04    0.03   1
 -14  22  -6   -0.01    0.05   1
 -14  22   6    0.08    0.05   1
  -6 -14  22    0.01    0.05   1
  -6  14  22    0.06    0.05   1
   6 -14 -22    0.09    0.06   1
   6 -14  22    0.10    0.07   1
   6  14  22    0.05    0.06   1
  14 -22  -6    0.03    0.06   1
  14  22  -6   -0.07    0.05   1
  14  22   6    0.06    0.06   1
  22  -6  14    0.05    0.04   1
  22   6  14    0.16    0.05   1
 -22  -6  16    0.24    0.04   1
 -16  22   6    0.30    0.06   1
  -6 -16  22    0.28    0.07   1
  -6  16  22    0.18    0.06   1
   6 -16  22    0.24    0.07   1
   6  16  22    0.14    0.06   1
  16 -22  -6    0.28    0.07   1
  16  22  -6    0.38    0.06   1
  16  22   6    0.24    0.06   1
  22  -6  16    0.21    0.06   1
  22   6  16    0.34    0.06   1
 -22  -6  18    0.02    0.04   1
 -18  22   6    0.18    0.05   1
  -6 -18  22    0.13    0.07   1
  -6  18  22    0.11    0.05   1
   6 -18  22    0.03    0.07   1
   6  18  22   -0.13    0.07   1
  18 -22   6    0.04    0.05   1
  18  22  -6   -0.03    0.06   1
  18  22   6    0.16    0.07   1
  22  -6  18    0.16    0.06   1
  22   6  18   -0.05    0.06   1
 -20  22   6    0.09    0.04   1
  -6 -20  22    0.03    0.07   1
  -6  20  22    0.01    0.06   1
   6 -20  22    0.02    0.07   1
   6  20  22   -0.06    0.07   1
  20  22  -6   -0.03    0.07   1
  20  22   6   -0.08    0.07   1
  22  -6  20   -0.07    0.07   1
  22   6  20   -0.05    0.06   1
 -22  -8   0    0.47    0.06   1
  -8   0  22    0.34    0.07   1
  -8   0  22    0.38    0.05   1
   0  22  -8    0.41    0.06   1
   0  22   8    0.53    0.07   1
   8   0  22    0.32    0.05   1
  22  -8   0    0.46    0.05   1
  22  -8   0    0.43    0.04   1
  22   8   0    0.41    0.04   1
 -22  -8  -2    0.24    0.06   1
 -22  -8   2    0.26    0.05   1
  -8  -2  22    0.28    0.06   1
  -8  -2  22    0.18    0.05   1
  -8   2  22    0.16    0.05   1
  -8   2  22    0.19    0.05   1
  -2  22  -8    0.26    0.05   1
  -2  22   8    0.27    0.06   1
   2  22  -8    0.06    0.04   1
   2  22   8    0.26    0.05   1
   8  -2  22    0.19    0.06   1
   8   2  22    0.07    0.04   1
  22  -8  -2    0.23    0.03   1
  22  -8   2    0.27    0.04   1
  22  -8   2    0.21    0.03   1
  22   8  -2    0.18    0.03   1
  22   8   2    0.27    0.04   1
 -22  -8  -4    0.09    0.06   1
 -22  -8   4    0.12    0.05   1
  -8  -4  22    0.04    0.06   1
  -8  -4  22    0.14    0.05   1
  -8   4  22    0.12    0.05   1
  -4  22  -8    0.27    0.05   1
  -4  22   8    0.10    0.04   1
   4 -22  -8    0.07    0.06   1
   4  22   8    0.06    0.04   1
   8  -4 -22    0.21    0.06   1
   8   4  22    0.08    0.06   1
  22  -8   4    0.02    0.04   1
  22  -8   4    0.11    0.03   1
  22   8  -4    0.05    0.03   1
  22   8   4    0.13    0.04   1
 -22  -8  -6    0.20    0.07   1
 -22  -8   6    0.27    0.05   1
  -8  -6  22    0.19    0.07   1
  -8  -6  22    0.31    0.05   1
  -6  22  -8    0.33    0.05   1
  -6  22   8    0.26    0.06   1
   6 -22  -8    0.14    0.06   1
   6  22  -8    0.28    0.06   1
   6  22   8    0.13    0.05   1
   8  -6 -22    0.26    0.06   1
   8  -6  22    0.26    0.06   1
   8   6  22    0.18    0.06   1
  22  -8   6    0.16    0.05   1
  22  -8   6    0.31    0.04   1
  22   8  -6    0.27    0.04   1
  22   8   6    0.29    0.05   1
 -22  -8  -8   -0.01    0.06   1
 -22  -8   8   -0.07    0.04   1
  -8  -8  22    0.09    0.06   1
  -8  -8  22   -0.08    0.04   1
  -8   8  22    0.01    0.04   1
  -8  22  -8    0.01    0.04   1
  -8  22   8    0.00    0.04   1
   8 -22  -8    0.16    0.06   1
   8  -8 -22   -0.02    0.05   1
   8  -8  22   -0.04    0.05   1
   8   8  22    0.03    0.05   1
   8  22  -8    0.14    0.05   1
   8  22   8    0.16    0.06   1
  22  -8   8    0.01    0.05   1
  22  -8   8    0.01    0.03   1
  22   8  -8   -0.01    0.03   1
  22   8   8   -0.01    0.03   1
 -22  -8  10    0.66    0.06   1
 -10  22  -8    0.75    0.09   1
 -10  22   8    0.91    0.09   1
  -8 -10  22    0.92    0.09   1
  -8  10  22    0.69    0.08   1
   8 -10 -22    0.70    0.08   1
   8 -10  22    0.75    0.09   1
   8  10  22    0.70    0.08   1
  10 -22  -8    0.57    0.08   1
  10  22  -8    1.12    0.09   1
  10  22   8    0.62    0.07   1
  22  -8  10    0.83    0.10   1
  22  -8  10    0.95    0.08   1
  22   8 -10    0.70    0.06   1
  22   8  10    0.69    0.08   1
 -22  -8  12    0.81    0.09   1
 -12  22   8    0.75    0.09   1
  -8 -12  22    0.79    0.09   1
  -8  12  22    0.81    0.09   1
   8 -12 -22    0.80    0.09   1
   8 -12  22    0.58    0.07   1
   8  12  22    0.57    0.08   1
  12 -22  -8    0.77    0.09   1
  12  22  -8    1.04    0.09   1
  12  22   8    0.61    0.07   1
  22  -8  12    0.86    0.08   1
  22   8 -12    0.74    0.06   1
 -22  -8  14   -0.02    0.05   1
 -14  22   8    0.05    0.05   1
  -8 -14  22   -0.10    0.06   1
  -8  14  22    0.05    0.05   1
   8 -14 -22    0.17    0.07   1
   8 -14  22   -0.01    0.06   1
   8  14  22    0.13    0.06   1
  14 -22  -8    0.03    0.06   1
  14  22  -8    0.01    0.05   1
  14  22   8    0.03    0.06   1
  22  -8  14    0.15    0.05   1
  22   8 -14    0.08    0.04   1
  22   8  14   -0.08    0.05   1
 -22  -8  16   -0.02    0.04   1
 -16  22   8    0.07    0.05   1
  -8 -16  22   -0.06    0.06   1
  -8  16  22   -0.09    0.04   1
   8 -16 -22   -0.09    0.07   1
   8 -16  22   -0.02    0.06   1
   8  16  22    0.02    0.06   1
  16 -22  -8    0.00    0.06   1
  16 -22   8   -0.03    0.05   1
  16  22  -8   -0.07    0.06   1
  16  22   8   -0.09    0.06   1
  22  -8  16    0.01    0.05   1
  22   8  16    0.10    0.06   1
 -22  -8  18   -0.03    0.04   1
  -8 -18  22    0.02    0.06   1
  -8  18  22   -0.08    0.06   1
   8 -18  22    0.09    0.07   1
   8  18  22    0.07    0.07   1
  18 -22   8    0.17    0.06   1
  18  22   8   -0.11    0.07   1
  22  -8  18    0.30    0.07   1
  22   8  18    0.04    0.07   1
   8 -20  22    0.21    0.09   1
   8  20  22   -0.06    0.07   1
  20 -22   8    0.22    0.07   1
  20  22  -8    0.04    0.07   1
  20  22   8    0.11    0.08   1
  22  -8  20    0.01    0.06   1
  22   8  20    0.15    0.07   1
 -22 -10   0    1.20    0.10   1
 -10   0  22    1.13    0.10   1
   0  22 -10    1.36    0.10   1
   0  22  10    1.24    0.09   1
  10   0  22    1.36    0.10   1
  22 -10   0    1.15    0.06   1
  22 -10   0    1.18    0.05   1
  22  10   0    1.40    0.08   1
 -22 -10  -2    0.85    0.10   1
 -22 -10   2    0.98    0.10   1
 -10  -2  22    0.93    0.08   1
 -10  -2  22    1.10    0.08   1
 -10   2  22    1.01    0.10   1
 -10   2  22    1.18    0.08   1
  -2  22 -10    1.08    0.09   1
  -2  22  10    1.19    0.09   1
   2  22 -10    1.02    0.09   1
   2  22  10    1.08    0.09   1
  10  -2  22    1.19    0.09   1
  10   2  22    0.99    0.09   1
  22 -10  -2    1.07    0.05   1
  22 -10  -2    1.17    0.04   1
  22 -10   2    1.06    0.07   1
  22 -10   2    1.09    0.06   1
  22  10  -2    1.06    0.07   1
  22  10   2    0.90    0.07   1
 -22 -10  -4    0.83    0.09   1
 -22 -10   4    0.75    0.08   1
 -10  -4  22    0.82    0.10   1
 -10  -4  22    0.98    0.08   1
 -10   4  22    0.56    0.07   1
 -10   4  22    0.77    0.07   1
  -4  22 -10    0.73    0.08   1
  -4  22  10    0.80    0.09   1
   4  22 -10    1.03    0.09   1
   4  22  10    0.94    0.11   1
  10  -4  22    0.90    0.09   1
  10   4  22    0.72    0.09   1
  22 -10   4    0.94    0.08   1
  22 -10   4    0.79    0.06   1
  22  10  -4    0.83    0.07   1
  22  10   4    0.86    0.07   1
 -22 -10  -6    0.21    0.06   1
 -22 -10   6    0.09    0.06   1
 -10  -6  22    0.09    0.06   1
 -10  -6  22    0.17    0.05   1
 -10   6  22    0.10    0.04   1
  -6  22 -10   -0.01    0.06   1
  -6  22  10    0.00    0.04   1
   6 -22 -10    0.13    0.06   1
   6  22 -10    0.06    0.04   1
   6  22  10   -0.09    0.05   1
  10  -6 -22    0.08    0.05   1
  10  -6  22    0.20    0.05   1
  10   6  22    0.05    0.04   1
  22 -10   6    0.06    0.05   1
  22 -10   6    0.06    0.03   1
  22  10  -6    0.10    0.04   1
  22  10   6    0.25    0.04   1
 -22 -10   8    0.80    0.08   1
 -10  -8  22    0.89    0.10   1
 -10  -8  22    0.74    0.07   1
 -10   8  22    0.77    0.08   1
  -8  22 -10    0.65    0.08   1
  -8  22  10    0.77    0.08   1
   8 -22 -10    0.50    0.08   1
   8  22 -10    0.66    0.07   1
   8  22  10    0.98    0.10   1
  10  -8 -22    0.68    0.07   1
  10  -8  22    0.82    0.08   1
  10   8  22    0.83    0.10   1
  22 -10   8    0.74    0.08   1
  22 -10   8    0.76    0.07   1
  22  10  -8    0.72    0.06   1
  22  10   8    0.88    0.08   1
 -22 -10  10    2.01    0.11   1
 -10 -10  22    2.33    0.12   1
 -10  10  22    2.30    0.10   1
 -10  22 -10    2.04    0.14   1
 -10  22  10    2.38    0.11   1
  10 -22 -10    2.06    0.12   1
  10 -10 -22    2.26    0.12   1
  10 -10  22    2.47    0.12   1
  10  10  22    2.19    0.13   1
  10  22 -10    2.21    0.11   1
  10  22  10    2.10    0.13   1
  22 -10  10    2.22    0.13   1
  22 -10  10    2.12    0.10   1
  22  10 -10    2.24    0.09   1
  22  10  10    2.34    0.11   1
 -22 -10  12    1.82    0.11   1
 -12  22 -10    1.93    0.13   1
 -12  22  10    1.98    0.11   1
 -10 -12  22    1.83    0.10   1
 -10  12  22    1.81    0.11   1
  10 -12 -22    1.53    0.11   1
  10 -12  22    1.88    0.13   1
  10  12  22    1.84    0.13   1
  12 -22 -10    1.40    0.12   1
  12  22 -10    1.76    0.11   1
  12  22  10    1.73    0.12   1
  22 -10  12    1.65    0.10   1
  22  10 -12    1.75    0.08   1
  22  10  12    2.06    0.11   1
 -22 -10  14    0.56    0.08   1
 -14  22  10    0.66    0.07   1
 -10 -14  22    0.56    0.08   1
 -10  14  22    0.47    0.07   1
  10 -14 -22    0.45    0.08   1
  10 -14  22    0.49    0.07   1
  10  14  22    0.64    0.09   1
  14 -22 -10    0.34    0.07   1
  14 -22  10    0.55    0.07   1
  14  22 -10    0.60    0.07   1
  14  22  10    0.48    0.07   1
  22  10 -14    0.55    0.06   1
  22  10  14    0.44    0.06   1
 -16  22  10    0.21    0.05   1
 -10 -16  22    0.26    0.07   1
 -10  16  22    0.19    0.06   1
  10 -16 -22    0.29    0.08   1
  10 -16  22    0.26    0.06   1
  10  16  22    0.21    0.07   1
  16 -22  10    0.32    0.06   1
  16  22 -10    0.11    0.06   1
  16  22  10    0.27    0.07   1
  22 -10  16    0.26    0.06   1
  22  10  16    0.07    0.06   1
 -22 -10  18    0.14    0.06   1
 -18  22  10    0.25    0.05   1
 -10 -18  22    0.39    0.08   1
 -10  18  22    0.21    0.06   1
  10 -18  22    0.25    0.08   1
  10  18  22    0.06    0.08   1
  18 -22  10    0.29    0.07   1
  18  22 -10    0.06    0.06   1
  18  22  10    0.02    0.07   1
  22 -10  18    0.35    0.08   1
  22  10  18    0.24    0.07   1
 -22 -10  20    0.73    0.10   1
 -10  20  22    0.64    0.07   1
  10 -20  22    0.84    0.10   1
  10  20  22    0.54    0.10   1
  20 -22  10    0.68    0.10   1
  20  22 -10    0.64    0.09   1
  20  22  10    0.71    0.10   1
  22 -10  20    0.74    0.10   1
  22  10  20    0.47    0.08   1
 -22 -12   0    1.54    0.12   1
 -12   0  22    1.41    0.10   1
 -12   0  22    1.53    0.09   1
   0  22 -12    1.43    0.11   1
   0  22  12    1.56    0.10   1
  12   0  22    1.71    0.10   1
  22 -12   0    1.45    0.06   1
  22  12   0    1.62    0.09   1
 -22 -12  -2    1.00    0.12   1
 -22 -12   2    0.97    0.09   1
 -12  -2  22    1.05    0.10   1
 -12  -2  22    1.00    0.08   1
 -12   2  22    0.97    0.09   1
 -12   2  22    1.09    0.07   1
  -2  22 -12    1.03    0.11   1
  -2  22  12    1.26    0.10   1
   2  22 -12    0.93    0.09   1
   2  22  12    0.93    0.11   1
  12  -2  22    1.14    0.10   1
  12   2  22    1.22    0.09   1
  22 -12  -2    0.99    0.05   1
  22 -12   2    1.04    0.08   1
  22 -12   2    1.05    0.06   1
  22  12  -2    1.17    0.08   1
  22  12   2    1.24    0.09   1
 -22 -12   4    0.74    0.08   1
 -12  -4  22    0.55    0.07   1
 -12  -4  22    0.62    0.07   1
 -12   4  22    0.61    0.07   1
 -12   4  22    0.56    0.07   1
  -4  22 -12    0.65    0.08   1
  -4  22  12    0.80    0.08   1
   4  22 -12    0.64    0.08   1
   4  22  12    0.77    0.09   1
  12  -4  22    0.76    0.08   1
  12   4  22    0.68    0.08   1
  22 -12   4    0.72    0.08   1
  22 -12   4    0.61    0.06   1
  22  12  -4    0.65    0.07   1
  22  12   4    0.73    0.07   1
 -22 -12   6    0.28    0.07   1
 -12  -6  22    0.19    0.07   1
 -12  -6  22    0.21    0.05   1
 -12   6  22    0.33    0.05   1
 -12   6  22    0.23    0.04   1
  -6  22 -12    0.43    0.07   1
  -6  22  12    0.18    0.05   1
   6  22 -12    0.32    0.06   1
   6  22  12    0.03    0.06   1
  12  -6  22    0.23    0.06   1
  12   6  22   -0.06    0.05   1
  22 -12   6    0.16    0.06   1
  22 -12   6    0.24    0.04   1
  22  12  -6    0.25    0.04   1
  22  12   6    0.10    0.04   1
 -22 -12   8    0.70    0.08   1
 -12  -8  22    0.78    0.09   1
 -12  -8  22    0.82    0.10   1
 -12   8  22    0.59    0.07   1
  -8  22 -12    0.97    0.10   1
  -8  22  12    0.92    0.09   1
   8 -22 -12    0.66    0.08   1
   8  22 -12    0.93    0.09   1
   8  22  12    0.55    0.07   1
  12  -8 -22    0.78    0.07   1
  12  -8  22    0.91    0.09   1
  12   8  22    0.68    0.08   1
  22 -12   8    0.81    0.09   1
  22 -12   8    0.89    0.08   1
  22  12  -8    0.88    0.08   1
  22  12   8    0.87    0.08   1
 -22 -12  10    1.86    0.12   1
 -12 -10  22    1.78    0.11   1
 -12  10  22    1.47    0.09   1
 -10  22 -12    1.79    0.13   1
 -10  22  12    2.06    0.11   1
  10 -22 -12    1.52    0.13   1
  10  22 -12    1.68    0.11   1
  10  22  12    2.06    0.13   1
  12 -10 -22    2.27    0.11   1
  12 -10  22    1.87    0.12   1
  12  10  22    1.71    0.13   1
  22 -12  10    1.62    0.12   1
  22 -12  10    1.66    0.09   1
  22  12 -10    1.83    0.09   1
  22  12  10    1.82    0.11   1
 -22 -12  12    1.75    0.13   1
 -12 -12  22    1.74    0.11   1
 -12  12  22    1.69    0.10   1
 -12  22  12    1.86    0.11   1
  12 -22 -12    1.77    0.13   1
  12 -22  12    1.55    0.10   1
  12 -12 -22    1.58    0.11   1
  12 -12  22    1.93    0.12   1
  12  12  22    1.92    0.13   1
  12  22 -12    1.98    0.11   1
  12  22  12    1.99    0.12   1
  22 -12  12    1.81    0.11   1
  22  12 -12    1.72    0.10   1
  22  12  12    1.99    0.11   1
 -14  22  12    0.69    0.07   1
 -12 -14  22    0.55    0.08   1
 -12  14  22    0.61    0.07   1
  12 -14  22    0.39    0.07   1
  12  14  22    0.73    0.10   1
  14 -22 -12    0.32    0.10   1
  14 -22  12    0.48    0.07   1
  14  22 -12    0.39    0.08   1
  14  22  12    0.56    0.07   1
  22 -12  14    0.60    0.08   1
  22  12 -14    0.72    0.09   1
  22  12  14    0.41    0.06   1
 -16  22  12    0.19    0.05   1
 -12 -16  22    0.29    0.07   1
 -12  16  22    0.07    0.05   1
  12 -16  22    0.15    0.07   1
  12  16  22    0.07    0.07   1
  16 -22  12    0.19    0.06   1
  16  22 -12    0.01    0.06   1
  16  22  12    0.23    0.07   1
  22 -12  16    0.28    0.07   1
  22  12 -16    0.17    0.06   1
  22  12  16    0.23    0.06   1
 -12 -18  22    0.30    0.08   1
 -12  18  22    0.29    0.07   1
  12 -18  22    0.29    0.08   1
  12  18  22    0.25    0.08   1
  18 -22  12    0.40    0.07   1
  18  22 -12    0.34    0.08   1
  18  22  12    0.20    0.08   1
  22 -12  18    0.29    0.07   1
  22  12  18    0.07    0.07   1
 -22 -12  20    0.62    0.07   1
 -12  20  22    0.78    0.08   1
  12 -20  22    0.65    0.10   1
  12  20  22    0.91    0.11   1
  20 -22  12    0.95    0.10   1
  20  22 -12    0.93    0.11   1
  20  22  12    0.78    0.10   1
  22 -12  20    0.75    0.10   1
  22  12  20    0.57    0.10   1
 -14   0  22    1.04    0.09   1
 -14   0  22    0.64    0.07   1
   0  22 -14    0.83    0.09   1
   0  22  14    0.58    0.07   1
  14   0  22    0.69    0.08   1
  22 -14   0    0.69    0.07   1
  22 -14   0    0.58    0.05   1
  22  14   0    0.54    0.05   1
 -22 -14   2    0.23    0.07   1
 -14  -2  22    0.24    0.06   1
 -14  -2  22    0.26    0.05   1
 -14   2  22    0.27    0.05   1
 -14   2  22    0.26    0.05   1
  -2  22 -14    0.34    0.07   1
  -2  22  14    0.23    0.06   1
   2  22 -14    0.34    0.06   1
   2  22  14    0.17    0.06   1
  14  -2  22    0.28    0.05   1
  14   2  22    0.22    0.05   1
  22 -14  -2    0.24    0.04   1
  22 -14  -2    0.17    0.03   1
  22 -14   2    0.16    0.05   1
  22 -14   2    0.23    0.03   1
  22  14  -2    0.28    0.05   1
  22  14   2    0.10    0.05   1
 -22 -14   4    0.00    0.07   1
 -14  -4  22   -0.01    0.06   1
 -14  -4  22    0.08    0.05   1
 -14   4  22    0.04    0.05   1
 -14   4  22   -0.03    0.04   1
  -4  22 -14    0.02    0.06   1
  -4  22  14    0.04    0.05   1
   4  22 -14    0.09    0.06   1
   4  22  14    0.05    0.05   1
  14  -4  22    0.01    0.05   1
  22 -14  -4    0.01    0.03   1
  22 -14  -4    0.02    0.02   1
  22 -14   4    0.01    0.05   1
  22 -14   4    0.03    0.03   1
  22  14  -4   -0.02    0.04   1
  22  14   4    0.02    0.04   1
 -22 -14   6    0.07    0.07   1
 -14  -6  22    0.04    0.07   1
 -14  -6  22    0.15    0.05   1
 -14   6  22    0.05    0.05   1
 -14   6  22   -0.02    0.04   1
  -6  22 -14    0.22    0.06   1
  -6  22  14    0.07    0.05   1
   6  22 -14    0.14    0.06   1
   6  22  14    0.12    0.06   1
  14  -6  22    0.16    0.06   1
  14   6  22    0.06    0.06   1
  22 -14   6    0.10    0.06   1
  22 -14   6    0.12    0.04   1
  22  14  -6    0.09    0.04   1
 -22 -14   8    0.06    0.07   1
 -14  -8  22    0.04    0.07   1
 -14  -8  22   -0.04    0.05   1
 -14   8  22    0.00    0.05   1
 -14   8  22   -0.02    0.04   1
  -8  22 -14   -0.04    0.07   1
  -8  22  14    0.06    0.05   1
   8  22 -14    0.13    0.06   1
   8  22  14   -0.07    0.05   1
  14  -8  22    0.20    0.06   1
  14   8  22   -0.03    0.06   1
  22 -14   8    0.21    0.07   1
  22 -14   8    0.06    0.04   1
  22  14  -8    0.05    0.05   1
  22  14   8    0.06    0.05   1
 -22 -14  10    0.63    0.09   1
 -14 -10  22    0.40    0.06   1
 -14  10  22    0.48    0.05   1
 -10  22  14    0.46    0.07   1
  10 -22 -14    0.34    0.07   1
  10 -22  14    0.56    0.07   1
  10  22 -14    0.65    0.08   1
  10  22  14    0.47    0.07   1
  14 -10 -22    0.47    0.08   1
  14 -10  22    0.67    0.09   1
  14  10  22    0.47    0.07   1
  22 -14  10    0.79    0.09   1
  22  14 -10    0.53    0.06   1
  22  14  10    0.80    0.10   1
 -22 -14  12    0.38    0.08   1
 -14 -12  22    1.06    0.10   1
 -14  12  22    0.59    0.06   1
 -12  22  14    0.59    0.07   1
  12 -22 -14    0.53    0.08   1
  12 -22  14    0.68    0.08   1
  12  22 -14    0.52    0.08   1
  12  22  14    0.49    0.08   1
  14 -12  22    0.80    0.09   1
  14  12  22    0.45    0.08   1
  22 -14  12    0.61    0.07   1
  22  14 -12    0.48    0.06   1
  22  14  12    0.60    0.08   1
 -14 -14  22    0.26    0.07   1
 -14  14  22    0.18    0.05   1
 -14  22  14    0.00    0.05   1
  14 -22  14    0.25    0.06   1
  14 -14  22    0.05    0.06   1
  14  14  22    0.22    0.07   1
  14  22 -14    0.14    0.07   1
  14  22  14    0.24    0.07   1
  22 -14  14    0.16    0.06   1
  22  14 -14    0.10    0.05   1
  22  14  14    0.29    0.07   1
 -16  22  14    0.03    0.05   1
 -14 -16  22    0.03    0.07   1
 -14  16  22    0.03    0.05   1
  14 -16  22   -0.02    0.07   1
  14  16  22    0.07    0.08   1
  16 -22  14   -0.04    0.07   1
  16  22 -14    0.11    0.07   1
  22 -14  16    0.29    0.07   1
  22  14 -16   -0.11    0.06   1
  22  14  16    0.12    0.07   1
  14 -18  22    0.04    0.08   1
  14  18  22    0.10    0.08   1
  18 -22  14   -0.13    0.07   1
  18  22 -14    0.00    0.08   1
  18  22  14   -0.09    0.08   1
  22 -14  18    0.13    0.08   1
  22  14 -18    0.07    0.07   1
  22  14  18   -0.13    0.08   1
 -22 -14  20    0.39    0.07   1
  14 -20  22    0.08    0.09   1
  14  20  22    0.01    0.09   1
  20 -22  14    0.10    0.09   1
  20  22 -14    0.18    0.10   1
  20  22  14    0.09    0.09   1
  22 -14  20    0.16    0.10   1
  22  14  20   -0.03    0.09   1
 -16   0  22    0.22    0.05   1
 -16   0  22    0.18    0.04   1
   0  22 -16    0.21    0.06   1
   0  22  16    0.20    0.06   1
  16   0  22    0.19    0.07   1
  22 -16   0    0.14    0.05   1
  22 -16   0    0.13    0.03   1
  22  16   0    0.21    0.05   1
 -16  -2  22    0.03    0.05   1
 -16  -2  22    0.04    0.04   1
 -16   2  22    0.15    0.05   1
 -16   2  22    0.08    0.04   1
  -2  22 -16    0.21    0.06   1
  -2  22  16   -0.08    0.06   1
   2  22 -16    0.00    0.06   1
   2  22  16    0.12    0.06   1
  16  -2  22    0.16    0.07   1
  16   2  22    0.14    0.06   1
  22 -16  -2   -0.04    0.05   1
  22 -16  -2    0.00    0.03   1
  22 -16   2    0.03    0.04   1
  22  16  -2   -0.01    0.05   1
 -16  -4  22    0.06    0.06   1
 -16  -4  22    0.12    0.04   1
 -16   4  22    0.02    0.04   1
  -4  22 -16    0.24    0.07   1
  -4  22  16    0.00    0.09   1
   4  22 -16   -0.01    0.07   1
   4  22  16    0.06    0.06   1
  16  -4  22   -0.07    0.06   1
  16   4  22   -0.01    0.05   1
  22 -16  -4   -0.02    0.04   1
  22 -16  -4    0.05    0.03   1
  22 -16   4    0.09    0.06   1
  22 -16   4    0.02    0.04   1
  22  16  -4    0.02    0.05   1
  22  16   4    0.10    0.06   1
 -16  -6  22    0.38    0.08   1
 -16  -6  22    0.40    0.06   1
 -16   6  22    0.28    0.04   1
  -6  22  16    0.36    0.06   1
   6  22 -16    0.29    0.06   1
   6  22  16    0.30    0.07   1
  16  -6  22    0.36    0.07   1
  16   6  22    0.54    0.07   1
  22 -16   6    0.23    0.07   1
  22 -16   6    0.32    0.05   1
  22  16  -6    0.25    0.05   1
  22  16   6    0.39    0.06   1
 -16  -8  22    0.11    0.07   1
 -16  -8  22    0.04    0.06   1
 -16   8  22   -0.01    0.04   1
  -8  22  16    0.09    0.05   1
   8 -22  16    0.04    0.06   1
   8  22 -16   -0.05    0.06   1
   8  22  16    0.17    0.07   1
  16  -8  22    0.14    0.06   1
  16   8  22   -0.14    0.06   1
  22 -16   8    0.03    0.08   1
  22 -16   8    0.09    0.04   1
  22  16  -8    0.00    0.05   1
  22  16   8   -0.08    0.06   1
 -16 -10  22    0.16    0.09   1
 -16 -10  22    0.13    0.05   1
 -16  10  22    0.17    0.04   1
 -10  22  16    0.21    0.06   1
  10 -22  16   -0.04    0.05   1
  10  22 -16    0.15    0.07   1
  10  22  16    0.44    0.08   1
  16 -10  22    0.13    0.07   1
  16  10  22    0.12    0.06   1
  22 -16  10    0.12    0.06   1
  22  16 -10    0.38    0.06   1
  22  16  10    0.10    0.06   1
 -16 -12  22    0.19    0.06   1
 -12  22  16    0.03    0.06   1
  12 -22  16    0.07    0.06   1
  12  22 -16    0.14    0.07   1
  12  22  16    0.09    0.07   1
  16 -12  22    0.14    0.07   1
  16  12  22    0.01    0.07   1
  22 -16  12    0.20    0.06   1
  22  16 -12    0.11    0.06   1
  22  16  12   -0.07    0.06   1
 -16 -14  22    0.06    0.07   1
 -14  22  16   -0.08    0.06   1
  14 -22  16   -0.15    0.06   1
  14  22 -16    0.11    0.08   1
  14  22  16   -0.11    0.07   1
  16 -14  22    0.03    0.07   1
  22 -16  14    0.10    0.07   1
  22  16 -14   -0.08    0.06   1
  22  16  14    0.07    0.07   1
 -16 -16  22   -0.01    0.08   1
  16 -22  16    0.24    0.08   1
  16 -16  22    0.22    0.08   1
  16  16  22    0.08    0.08   1
  16  22 -16   -0.02    0.08   1
  16  22  16    0.05    0.08   1
  22 -16  16    0.19    0.08   1
  22  16  16    0.07    0.08   1
  16 -18  22    0.01    0.08   1
  16  18  22    0.03    0.09   1
  18 -22  16    0.31    0.10   1
  18  22 -16    0.08    0.09   1
  18  22  16    0.25    0.09   1
  22 -16  18    0.08    0.09   1
  22  16 -18    0.25    0.10   1
  22  16  18   -0.07    0.08   1
  16 -20  22   -0.11    0.10   1
  16  20  22    0.06    0.10   1
  20 -22  16   -0.07    0.10   1
  20  22 -16   -0.08    0.12   1
  20  22  16   -0.25    0.10   1
  22 -16  20    0.24    0.10   1
  22  16  20    0.10    0.09   1
   0  22 -18    0.39    0.07   1
   0  22  18    0.31    0.07   1
  18   0  22    0.33    0.06   1
  22 -18   0    0.19    0.04   1
  22  18   0    0.26    0.06   1
 -18  -2  22    0.27    0.05   1
 -18   2  22    0.03    0.03   1
  -2  22 -18    0.92    0.11   1
  -2  22  18    0.18    0.06   1
   2  22 -18    0.10    0.07   1
   2  22  18    0.10    0.07   1
  18  -2  22    0.17    0.06   1
  18   2  22    0.14    0.06   1
  22 -18  -2    0.17    0.04   1
  22 -18   2    0.05    0.08   1
  22 -18   2    0.20    0.04   1
  22  18  -2    0.18    0.06   1
  22  18   2    0.11    0.06   1
 -18  -4  22    0.03    0.04   1
  -4  22  18    0.08    0.06   1
   4  22 -18   -0.09    0.07   1
   4  22  18    0.04    0.06   1
  18  -4  22   -0.02    0.06   1
  18   4  22   -0.12    0.05   1
  22 -18  -4   -0.06    0.03   1
  22 -18   4   -0.09    0.06   1
  22 -18   4   -0.02    0.04   1
  22  18  -4    0.05    0.06   1
  22  18   4   -0.06    0.06   1
 -18  -6  22    0.15    0.05   1
  -6  22  18   -0.07    0.10   1
   6 -22  18    0.25    0.06   1
   6  22 -18    0.09    0.07   1
   6  22  18    0.05    0.07   1
  18  -6  22    0.22    0.07   1
  18   6  22   -0.02    0.06   1
  22 -18   6    0.18    0.07   1
  22 -18   6   -0.01    0.05   1
  22  18  -6    0.05    0.06   1
  22  18   6   -0.08    0.06   1
 -18  -8  22    0.12    0.06   1
  -8  22  18   -0.01    0.05   1
   8 -22  18    0.04    0.06   1
   8  22  18   -0.09    0.07   1
  18   8  22    0.01    0.06   1
  22 -18   8    0.11    0.06   1
  22  18  -8   -0.01    0.06   1
  22  18   8    0.21    0.06   1
 -18 -10  22    0.18    0.06   1
 -10  22  18   -0.04    0.06   1
  10 -22  18    0.28    0.07   1
  10  22 -18    0.40    0.08   1
  10  22  18    0.17    0.08   1
  18 -10  22    0.27    0.07   1
  18  10  22    0.07    0.07   1
  22 -18  10    0.09    0.07   1
  22  18 -10    0.38    0.08   1
  22  18  10    0.27    0.07   1
 -18 -12  22    0.23    0.06   1
 -12  22  18    0.26    0.06   1
  12 -22  18    0.28    0.07   1
  12  22 -18    0.35    0.08   1
  12  22  18    0.28    0.08   1
  18 -12  22    0.06    0.08   1
  18  12  22    0.06    0.08   1
  22 -18  12    0.49    0.08   1
  22  18 -12    0.38    0.08   1
  22  18  12    0.25    0.08   1
 -18 -14  22   -0.15    0.07   1
 -14  22  18    0.05    0.07   1
  14 -22  18    0.37    0.09   1
  14  22 -18    0.01    0.09   1
  14  22  18    0.14    0.09   1
  18 -14  22    0.16    0.09   1
  18  14  22   -0.16    0.08   1
  22 -18  14   -0.08    0.07   1
  22  18 -14    0.00    0.09   1
  22  18  14    0.04    0.08   1
 -18 -16  22    0.05    0.08   1
  16 -22  18    0.02    0.09   1
  16  22 -18    0.07    0.10   1
  16  22  18   -0.08    0.08   1
  18 -16  22    0.11    0.09   1
  18  16  22    0.25    0.10   1
  22 -18  16   -0.13    0.08   1
  22  18 -16    0.09    0.10   1
  22  18  16   -0.10    0.08   1
 -18 -18  22    0.05    0.09   1
  18 -22  18    0.06    0.10   1
  18 -18  22    0.05    0.10   1
  18  18  22   -0.05    0.10   1
  18  22 -18   -0.26    0.12   1
  18  22  18   -0.09    0.10   1
  22 -18  18    0.08    0.09   1
  22  18 -18   -0.03    0.12   1
  22  18  18    0.00    0.10   1
  18 -20  22    0.09    0.11   1
  20 -22  18    0.17    0.13   1
  20  22 -18    0.12    0.14   1
  22 -18  20    0.21    0.13   1
  22  18 -20   -0.01    0.14   1
  22  18  20   -0.01    0.17   1
   0  22  20    0.90    0.10   1
  20   0  22    0.70    0.08   1
  22 -20   0    0.75    0.08   1
  22  20   0    0.66    0.09   1
  -2  22  20    0.68    0.09   1
   2 -22  20    0.42    0.08   1
   2  22  20    0.63    0.09   1
  20  -2  22    0.66    0.07   1
  20   2  22    0.49    0.07   1
  22 -20  -2    0.52    0.06   1
  22 -20   2    0.72    0.08   1
  22  20  -2    0.60    0.08   1
  22  20   2    0.62    0.08   1
  -4  22  20    0.26    0.07   1
   4 -22  20    0.29    0.08   1
   4  22 -20    0.50    0.09   1
   4  22  20    0.19    0.07   1
  20  -4  22    0.46    0.07   1
  20   4  22    0.34    0.07   1
  22 -20  -4    0.16    0.04   1
  22 -20   4    0.36    0.06   1
  22  20  -4    0.28    0.07   1
  22  20   4    0.22    0.07   1
 -20  -6  22   -0.13    0.05   1
  -6  22  20   -0.02    0.06   1
   6 -22  20   -0.04    0.07   1
   6  22 -20    0.31    0.08   1
   6  22  20    0.04    0.07   1
  20  -6  22    0.02    0.07   1
  20   6  22   -0.18    0.07   1
  22 -20   6    0.00    0.05   1
  22  20  -6    0.16    0.07   1
  22  20   6    0.08    0.07   1
 -20  -8  22    0.07    0.06   1
  -8  22  20    0.13    0.07   1
   8 -22  20    0.17    0.07   1
   8  22 -20   -0.10    0.08   1
   8  22  20    0.01    0.07   1
  20  -8  22    0.19    0.07   1
  20   8  22   -0.07    0.07   1
  22  20  -8    0.07    0.08   1
  22  20   8   -0.12    0.07   1
 -20 -10  22    0.53    0.08   1
 -10  22  20    0.81    0.10   1
  10  22 -20    0.54    0.10   1
  10  22  20    0.53    0.10   1
  20 -10  22    1.12    0.14   1
  20  10  22    1.30    0.15   1
  22 -20  10    0.80    0.10   1
  22  20 -10    0.78    0.10   1
  22  20  10    0.57    0.09   1
 -20 -12  22    0.54    0.08   1
 -12  22  20    0.85    0.08   1
  12 -22  20    0.72    0.10   1
  12  22 -20    0.95    0.11   1
  12  22  20    0.74    0.11   1
  20 -12  22    0.72    0.10   1
  20  12  22    0.89    0.10   1
  22 -20  12    0.88    0.11   1
  22  20 -12    0.78    0.11   1
  22  20  12    0.68    0.10   1
 -20 -14  22    0.20    0.08   1
  14 -22  20    0.24    0.10   1
  14  22 -20    0.15    0.11   1
  14  22  20    0.11    0.10   1
  20 -14  22    0.24    0.09   1
  20  14  22    0.02    0.09   1
  22 -20  14    0.05    0.09   1
  22  20 -14    0.19    0.10   1
  22  20  14    0.06    0.10   1
 -20 -16  22    0.10    0.09   1
  16 -22  20    0.04    0.11   1
  16  22 -20   -0.09    0.12   1
  16  22  20    0.06    0.10   1
  20 -16  22    0.10    0.11   1
  20  16  22    0.06    0.10   1
  22 -20  16    0.15    0.11   1
  22  20 -16   -0.02    0.12   1
  22  20  16   -0.09    0.09   1
 -20 -18  22   -0.10    0.09   1
  18 -22  20    0.09    0.12   1
  18  22 -20    0.05    0.15   1
  20 -18  22    0.04    0.12   1
  22 -20  18    0.09    0.13   1
  22  20 -18   -0.21    0.13   1
  22  20  18    0.34    0.16   1
   0 -22  22    1.14    0.14   1
   0  22  22    1.04    0.11   1
  22 -22   0    0.75    0.09   1
  22   0  22    1.17    0.13   1
  22  22   0    1.29    0.13   1
  -2 -22  22    0.67    0.10   1
  -2  22  22    0.76    0.10   1
   2 -22  22    0.79    0.11   1
   2  22  22    1.07    0.13   1
  22 -22  -2    1.15    0.09   1
  22 -22   2    0.72    0.07   1
  22  -2  22    0.73    0.09   1
  22   2  22    0.62    0.08   1
  22  22  -2    0.81    0.09   1
  22  22   2    0.69    0.09   1
  -4 -22  22    0.49    0.09   1
  -4  22  22    0.45    0.08   1
   4 -22  22    0.54    0.10   1
   4  22  22    0.36    0.09   1
  22 -22   4    0.36    0.07   1
  22  -4  22    0.18    0.08   1
  22   4  22    0.41    0.09   1
  22  22  -4    0.19    0.08   1
  22  22   4    0.44    0.09   1
  -6  22  22   -0.10    0.07   1
   6 -22  22    0.04    0.08   1
   6  22  22    0.05    0.08   1
  22  -6  22    0.11    0.08   1
  22   6  22   -0.06    0.07   1
  22  22  -6    0.35    0.09   1
  22  22   6    0.03    0.08   1
  -8  22  22    0.19    0.08   1
   8 -22  22    0.24    0.10   1
   8  22  22   -0.03    0.09   1
  22 -22   8    0.21    0.08   1
  22  -8  22    0.23    0.09   1
  22   8  22    0.20    0.08   1
  22  22  -8    0.26    0.09   1
  22  22   8    0.23    0.09   1
 -10  22  22    1.03    0.10   1
  10 -22  22    0.87    0.12   1
  10  22  22    0.72    0.11   1
  22 -22  10    0.99    0.11   1
  22 -10  22    0.93    0.11   1
  22  10  22    1.11    0.13   1
  22  22 -10    1.31    0.16   1
  22  22  10    0.70    0.11   1
  12 -22  22    0.78    0.13   1
  12  22 -22    0.83    0.14   1
  12  22  22    0.92    0.11   1
  22 -22  12    0.99    0.12   1
  22 -12  22    1.04    0.12   1
  22  12  22    0.53    0.11   1
  22  22 -12    0.87    0.12   1
  22  22  12    0.75    0.12   1
  14 -22  22    0.25    0.11   1
  14  22 -22    0.41    0.14   1
  14  22  22    0.36    0.12   1
  22 -22  14    0.19    0.11   1
  22 -14  22    0.44    0.12   1
  22  14  22   -0.01    0.10   1
  22  22 -14    0.43    0.12   1
  22  22  14    0.23    0.10   1
 -23  -1  -1    1.84    0.08   1
 -23  -1   1    1.96    0.07   1
 -23   1  -1    1.85    0.08   1
 -23   1   1    1.86    0.06   1
  -1  -1  23    1.87    0.10   1
  -1   1  23    1.84    0.10   1
  -1  23  -1    2.08    0.11   1
  -1  23   1    2.25    0.11   1
   1  -1 -23    1.63    0.12   1
   1  -1  23    2.12    0.11   1
   1   1  23    1.87    0.10   1
   1  23  -1    1.85    0.10   1
   1  23   1    1.93    0.10   1
  23  -1  -1    1.89    0.05   1
  23  -1   1    1.87    0.06   1
  23   1  -1    1.84    0.06   1
  23   1   1    1.91    0.07   1
 -23  -1  -3    0.89    0.08   1
 -23  -1   3    0.82    0.05   1
 -23   1  -3    0.74    0.07   1
  -3  23  -1    1.02    0.09   1
  -3  23   1    0.78    0.09   1
  -1  -3  23    0.82    0.09   1
  -1   3  23    1.03    0.08   1
   1  -3 -23    0.89    0.10   1
   1  -3  23    0.90    0.09   1
   1   3  23    0.80    0.09   1
   3  23  -1    0.91    0.08   1
   3  23   1    1.20    0.09   1
  23  -1  -3    0.94    0.04   1
  23  -1   3    0.85    0.06   1
  23   1  -3    0.95    0.04   1
  23   1   3    0.89    0.06   1
 -23  -1  -5    0.12    0.05   1
 -23  -1   5   -0.02    0.02   1
 -23   1  -5    0.04    0.04   1
  -5  23  -1    0.08    0.05   1
  -5  23   1   -0.11    0.04   1
  -1  -5  23    0.03    0.05   1
  -1   5  23    0.03    0.04   1
   1  -5 -23    0.04    0.06   1
   1  -5  23    0.01    0.04   1
   1   5  23    0.05    0.04   1
   5  23  -1   -0.08    0.05   1
   5  23   1   -0.02    0.05   1
  23  -1   5   -0.01    0.03   1
  23   1  -5    0.03    0.02   1
  23   1   5   -0.02    0.03   1
 -23  -1  -7    0.10    0.05   1
 -23   1  -7    0.12    0.05   1
  -7  23  -1    0.08    0.04   1
  -7  23   1    0.08    0.04   1
  -1  -7  23    0.04    0.04   1
  -1   7  23    0.09    0.04   1
   1  -7  23    0.19    0.05   1
   1   7  23    0.13    0.05   1
   7  23  -1    0.04    0.05   1
   7  23   1    0.08    0.05   1
  23  -1   7    0.15    0.04   1
  23   1   7   -0.02    0.03   1
 -23  -1  -9    0.66    0.07   1
 -23   1  -9    0.85    0.09   1
  -9  23  -1    0.74    0.08   1
  -9  23   1    0.64    0.07   1
  -1  -9  23    0.73    0.11   1
  -1   9  23    0.56    0.07   1
   1  -9  23    0.59    0.09   1
   1   9  23    0.69    0.08   1
   9 -23  -1    0.74    0.09   1
   9  23  -1    0.72    0.09   1
   9  23   1    0.77    0.08   1
  23  -1   9    0.62    0.06   1
  23   1   9    0.68    0.07   1
 -23  -1 -11    1.05    0.11   1
 -23   1 -11    1.16    0.10   1
 -11  23  -1    0.97    0.10   1
 -11  23   1    1.21    0.09   1
  -1 -11  23    0.90    0.09   1
  -1  11  23    1.05    0.09   1
   1 -11  23    1.13    0.10   1
   1  11  23    1.02    0.09   1
  11 -23  -1    0.86    0.10   1
  11  23  -1    1.25    0.10   1
  11  23   1    0.94    0.09   1
  23  -1  11    1.10    0.08   1
  23   1  11    0.88    0.07   1
 -13  23  -1    0.74    0.09   1
 -13  23   1    0.95    0.09   1
  -1 -13  23    0.81    0.09   1
  -1  13  23    0.76    0.08   1
   1 -13  23    0.87    0.09   1
   1  13  23    0.66    0.08   1
  13 -23  -1    0.55    0.08   1
  13  23  -1    0.71    0.08   1
  13  23   1    0.74    0.08   1
  23  -1  13    0.61    0.06   1
  23   1  13    0.86    0.08   1
 -15  23  -1    0.11    0.06   1
 -15  23   1    0.23    0.05   1
  -1 -15  23    0.11    0.06   1
  -1  15  23    0.21    0.07   1
   1 -15  23    0.36    0.07   1
   1  15  23    0.30    0.06   1
  15 -23  -1    0.09    0.06   1
  15  23  -1    0.17    0.06   1
  15  23   1    0.13    0.06   1
  23  -1  15    0.24    0.05   1
  23   1  15    0.16    0.06   1
 -17  23  -1    0.04    0.05   1
 -17  23   1    0.19    0.06   1
  -1 -17  23   -0.01    0.07   1
  -1  17  23    0.09    0.07   1
   1 -17  23    0.01    0.07   1
   1  17  23    0.06    0.07   1
  17 -23  -1    0.10    0.07   1
  17  23  -1    0.09    0.06   1
  17  23   1    0.10    0.06   1
  23  -1  17   -0.05    0.05   1
  23   1  17    0.03    0.05   1
  -1 -19  23    0.33    0.07   1
  -1  19  23    0.31    0.08   1
   1 -19  23    0.30    0.08   1
   1  19  23    0.31    0.08   1
  19  23  -1    0.32    0.07   1
  19  23   1    0.25    0.07   1
  23  -1  19    0.21    0.06   1
  23   1  19    0.13    0.06   1
  -1 -21  23    0.67    0.10   1
  -1  21  23    0.77    0.10   1
   1 -21  23    0.72    0.09   1
   1  21  23    0.44    0.08   1
  21 -23  -1    0.80    0.09   1
  21 -23   1    0.84    0.09   1
  21  23  -1    1.05    0.13   1
  21  23   1    0.87    0.10   1
  23  -1  21    0.67    0.09   1
  23   1  21    0.56    0.08   1
 -23  -3  -1    0.89    0.08   1
 -23  -3   1    0.85    0.07   1
  -3  -1  23    0.82    0.08   1
  -3  -1  23    0.94    0.09   1
  -3   1  23    0.82    0.09   1
  -1  23  -3    0.86    0.09   1
  -1  23   3    0.86    0.08   1
   1  23   3    0.91    0.08   1
   3  -1 -23    0.75    0.08   1
   3  -1  23    1.05    0.09   1
   3   1  23    0.96    0.09   1
  23  -3  -1    0.83    0.05   1
  23  -3   1    0.94    0.05   1
  23   3  -1    1.02    0.05   1
  23   3   1    0.93    0.06   1
 -23  -3  -3    0.77    0.08   1
 -23  -3   3    0.74    0.06   1
 -23   3  -3    0.65    0.07   1
  -3  -3  23    0.44    0.06   1
  -3  -3  23    0.57    0.06   1
  -3   3  23    0.63    0.07   1
  -3  23  -3    0.69    0.08   1
  -3  23   3    0.48    0.06   1
   3  -3 -23    0.48    0.08   1
   3  -3  23    0.56    0.06   1
   3   3  23    0.51    0.06   1
   3  23  -3    0.75    0.08   1
   3  23   3    0.54    0.06   1
  23  -3   3    0.52    0.05   1
  23   3  -3    0.56    0.04   1
  23   3   3    0.55    0.05   1
 -23  -3  -5    0.03    0.05   1
 -23  -3   5    0.04    0.03   1
 -23   3  -5   -0.04    0.04   1
  -5  23  -3    0.07    0.04   1
  -5  23   3   -0.01    0.05   1
  -3  -5  23   -0.11    0.04   1
  -3   5  23   -0.01    0.04   1
   3  -5 -23    0.00    0.06   1
   3  -5  23   -0.04    0.04   1
   3   5  23    0.02    0.04   1
   5  23   3    0.03    0.08   1
  23  -3   5    0.02    0.03   1
  23   3  -5    0.05    0.02   1
  23   3   5    0.01    0.03   1
 -23  -3  -7   -0.04    0.05   1
 -23  -3   7    0.01    0.02   1
 -23   3  -7   -0.02    0.05   1
  -7  23  -3   -0.01    0.04   1
  -7  23   3   -0.05    0.04   1
  -3  -7  23   -0.07    0.05   1
  -3   7  23    0.08    0.04   1
   3  -7 -23   -0.06    0.05   1
   3   7  23   -0.06    0.04   1
   7 -23  -3    0.02    0.07   1
   7  23  -3    0.00    0.04   1
   7  23   3   -0.07    0.05   1
  23  -3   7    0.07    0.04   1
  23   3  -7    0.01    0.02   1
  23   3   7   -0.03    0.03   1
 -23  -3  -9    0.42    0.07   1
 -23   3  -9    0.42    0.07   1
  -9  23  -3    0.47    0.07   1
  -9  23   3    0.47    0.06   1
  -3  -9  23    0.48    0.07   1
  -3   9  23    0.48    0.06   1
   3  -9 -23    0.33    0.07   1
   3  -9  23    0.36    0.07   1
   3   9  23    0.34    0.06   1
   9 -23  -3    0.43    0.07   1
   9  23  -3    0.39    0.05   1
   9  23   3    0.36    0.05   1
  23  -3   9    0.38    0.05   1
  23   3   9    0.35    0.05   1
 -23   3 -11    0.54    0.07   1
 -11  23  -3    0.63    0.07   1
 -11  23   3    0.91    0.09   1
  -3 -11  23    0.75    0.09   1
  -3  11  23    0.62    0.08   1
   3 -11  23    0.60    0.07   1
   3  11  23    0.72    0.09   1
  11 -23  -3    0.67    0.07   1
  11  23  -3    0.54    0.06   1
  11  23   3    0.73    0.09   1
  23  -3  11    0.69    0.07   1
  23   3  11    0.76    0.08   1
 -13  23  -3    0.11    0.06   1
 -13  23   3    0.26    0.05   1
  -3 -13  23    0.11    0.06   1
  -3  13  23    0.19    0.06   1
   3 -13  23    0.11    0.06   1
   3  13  23   -0.04    0.06   1
  13 -23  -3    0.25    0.07   1
  13  23  -3    0.15    0.05   1
  13  23   3    0.15    0.06   1
  23  -3  13    0.19    0.05   1
  23   3  13    0.15    0.04   1
 -15  23  -3    0.11    0.06   1
 -15  23   3   -0.02    0.05   1
  -3 -15  23    0.02    0.06   1
  -3  15  23   -0.03    0.06   1
   3 -15  23    0.13    0.07   1
   3  15  23    0.14    0.06   1
  15 -23  -3    0.03    0.07   1
  15  23  -3   -0.01    0.05   1
  15  23   3    0.10    0.06   1
  23  -3  15   -0.10    0.05   1
  23   3  15   -0.05    0.05   1
 -17  23  -3    0.00    0.06   1
 -17  23   3   -0.03    0.05   1
  -3 -17  23    0.03    0.07   1
  -3  17  23    0.04    0.06   1
   3 -17  23    0.16    0.07   1
   3  17  23    0.08    0.06   1
  17 -23  -3    0.04    0.07   1
  17  23  -3   -0.04    0.06   1
  17  23   3    0.11    0.06   1
  23  -3  17    0.07    0.06   1
  23   3  17   -0.06    0.06   1
 -19  23   3   -0.01    0.05   1
  -3 -19  23    0.24    0.08   1
  -3  19  23   -0.02    0.06   1
   3 -19  23   -0.09    0.07   1
   3  19  23    0.20    0.07   1
  19 -23   3    0.08    0.05   1
  19  23  -3   -0.05    0.07   1
  19  23   3    0.12    0.07   1
  23  -3  19    0.21    0.06   1
  23   3  19   -0.07    0.07   1
  -3 -21  23    0.55    0.09   1
  -3  21  23    0.46    0.09   1
   3 -21  23    0.49    0.10   1
   3  21  23    0.11    0.08   1
  21 -23  -3    0.33    0.05   1
  21 -23   3    0.27    0.06   1
  21  23  -3    0.03    0.07   1
  21  23   3    0.32    0.08   1
  23  -3  21    0.39    0.09   1
  23   3  21    0.24    0.08   1
 -23  -5  -1    0.05    0.05   1
 -23  -5   1    0.00    0.04   1
  -5  -1  23   -0.05    0.06   1
  -5  -1  23    0.01    0.05   1
  -5   1  23   -0.02    0.04   1
  -1  23  -5   -0.07    0.04   1
  -1  23   5    0.05    0.05   1
   1  23  -5   -0.01    0.04   1
   1  23   5   -0.04    0.04   1
   5   1  23    0.08    0.04   1
  23  -5  -1    0.05    0.03   1
  23  -5  -1   -0.05    0.02   1
  23  -5   1    0.09    0.03   1
  23  -5   1   -0.03    0.02   1
  23   5  -1    0.00    0.03   1
  23   5   1    0.02    0.03   1
 -23  -5  -3    0.01    0.05   1
 -23  -5   3    0.01    0.04   1
  -5  -3  23    0.06    0.06   1
  -5  -3  23    0.00    0.04   1
  -5   3  23    0.12    0.04   1
  -3  23  -5   -0.01    0.04   1
  -3  23   5    0.00    0.05   1
   3  23   5   -0.03    0.04   1
   5  -3 -23   -0.06    0.06   1
   5  -3  23   -0.01    0.04   1
   5   3  23    0.04    0.04   1
  23  -5   3    0.00    0.03   1
  23  -5   3    0.04    0.03   1
  23   5   3   -0.02    0.03   1
 -23  -5  -5    0.75    0.09   1
 -23  -5   5    0.48    0.06   1
  -5  -5  23    0.55    0.07   1
  -5  -5  23    0.46    0.06   1
  -5   5  23    0.60    0.07   1
  -5  23  -5    0.59    0.07   1
  -5  23   5    0.58    0.07   1
   5  -5 -23    0.56    0.07   1
   5   5  23    0.52    0.07   1
   5  23  -5    0.43    0.06   1
  23  -5   5    0.54    0.06   1
  23  -5   5    0.53    0.05   1
  23   5  -5    0.57    0.05   1
  23   5   5    0.50    0.06   1
 -23  -5  -7    0.38    0.07   1
 -23  -5   7    0.45    0.05   1
  -7  23  -5    0.46    0.06   1
  -7  23   5    0.40    0.06   1
  -5  -7  23    0.34    0.06   1
  -5   7  23    0.36    0.06   1
   5  -7 -23    0.24    0.07   1
   5  -7  23    0.36    0.07   1
   7 -23  -5    0.47    0.08   1
   7  23  -5    0.48    0.06   1
   7  23   5    0.46    0.06   1
  23  -5   7    0.34    0.06   1
  23  -5   7    0.51    0.06   1
  23   5  -7    0.38    0.04   1
  23   5   7    0.37    0.05   1
 -23  -5  -9   -0.05    0.06   1
 -23  -5   9    0.09    0.03   1
  -9  23  -5   -0.11    0.04   1
  -9  23   5    0.17    0.05   1
  -5   9  23    0.01    0.05   1
   5  -9 -23    0.02    0.06   1
   5  -9  23    0.01    0.05   1
   5   9  23   -0.06    0.05   1
   9 -23  -5   -0.07    0.06   1
   9  23  -5    0.02    0.05   1
   9  23   5   -0.01    0.05   1
  23  -5   9   -0.01    0.04   1
  23   5  -9   -0.01    0.02   1
  23   5   9   -0.05    0.04   1
 -23  -5  11    0.12    0.03   1
 -11  23  -5    0.06    0.05   1
 -11  23   5    0.13    0.05   1
  -5 -11  23    0.26    0.10   1
  -5  11  23    0.05    0.05   1
   5 -11 -23    0.10    0.06   1
   5 -11  23    0.13    0.06   1
   5  11  23    0.04    0.05   1
  11 -23  -5    0.09    0.07   1
  11  23  -5    0.13    0.05   1
  11  23   5    0.20    0.05   1
  23  -5  11    0.20    0.05   1
  23   5 -11    0.16    0.03   1
  23   5  11    0.26    0.05   1
 -23  -5  13    0.01    0.03   1
 -23  -5  13   -0.04    0.03   1
 -13  23  -5    0.05    0.05   1
 -13  23   5   -0.05    0.04   1
  -5 -13  23   -0.05    0.05   1
  -5  13  23    0.01    0.05   1
   5 -13  23    0.04    0.06   1
   5  13  23    0.00    0.06   1
  13 -23  -5    0.00    0.07   1
  13  23  -5   -0.04    0.05   1
  13  23   5    0.06    0.05   1
  23  -5  13   -0.02    0.04   1
 -23  -5  15    0.29    0.04   1
 -15  23  -5    0.33    0.07   1
 -15  23   5    0.24    0.06   1
  -5 -15  23    0.26    0.07   1
  -5  15  23    0.35    0.06   1
   5 -15  23    0.42    0.08   1
   5  15  23    0.29    0.07   1
  15 -23  -5    0.30    0.08   1
  15  23  -5    0.27    0.06   1
  15  23   5    0.26    0.07   1
  23  -5  15    0.29    0.06   1
  23   5  15    0.21    0.06   1
 -17  23   5    0.27    0.06   1
   5 -17  23    0.09    0.07   1
   5  17  23    0.22    0.07   1
  17  23  -5    0.17    0.06   1
  17  23   5    0.17    0.06   1
  23  -5  17    0.24    0.06   1
  23   5  17    0.13    0.06   1
 -19  23   5   -0.02    0.05   1
  -5 -19  23   -0.06    0.07   1
  -5  19  23   -0.14    0.06   1
   5 -19  23    0.02    0.07   1
   5  19  23    0.11    0.07   1
  19  23  -5   -0.04    0.07   1
  19  23   5   -0.05    0.06   1
  23  -5  19    0.00    0.07   1
  23   5  19   -0.06    0.06   1
  -5 -21  23   -0.12    0.08   1
  -5  21  23    0.16    0.08   1
   5 -21  23   -0.09    0.08   1
   5  21  23   -0.06    0.07   1
  21  23  -5    0.01    0.08   1
  21  23   5   -0.02    0.08   1
  23  -5  21    0.16    0.08   1
 -23  -7  -1    0.14    0.05   1
 -23  -7   1    0.13    0.05   1
  -7  -1  23    0.07    0.06   1
  -7  -1  23    0.05    0.05   1
  -7   1  23    0.13    0.06   1
  -7   1  23    0.07    0.05   1
  -1  23   7    0.10    0.05   1
   1  23  -7    0.03    0.04   1
   1  23   7   -0.01    0.04   1
   7  -1  23    0.20    0.08   1
  23  -7  -1    0.08    0.02   1
  23  -7  -1    0.05    0.02   1
  23  -7   1    0.10    0.03   1
  23  -7   1    0.14    0.02   1
  23   7  -1    0.06    0.03   1
  23   7   1   -0.02    0.03   1
 -23  -7  -3    0.05    0.06   1
 -23  -7   3    0.06    0.04   1
  -7  -3  23    0.00    0.06   1
  -7  -3  23   -0.05    0.04   1
  -7   3  23   -0.08    0.04   1
  -3  23   7    0.02    0.05   1
   3  23  -7    0.03    0.04   1
   7  -3  23    0.01    0.04   1
   7   3  23   -0.07    0.05   1
  23  -7   3    0.02    0.04   1
  23  -7   3   -0.04    0.03   1
  23   7  -3   -0.04    0.03   1
  23   7   3    0.02    0.03   1
 -23  -7  -5    0.51    0.07   1
 -23  -7   5    0.46    0.06   1
  -7  -5  23    0.45    0.07   1
  -7  -5  23    0.43    0.06   1
  -7   5  23    0.44    0.06   1
  -5  23   7    0.44    0.06   1
   5  23  -7    0.46    0.06   1
   5  23   7    0.39    0.06   1
   7  -5 -23    0.47    0.07   1
   7  -5  23    0.49    0.07   1
   7   5  23    0.30    0.06   1
  23  -7   5    0.45    0.05   1
  23  -7   5    0.47    0.05   1
  23   7  -5    0.42    0.04   1
  23   7   5    0.42    0.05   1
 -23  -7  -7    0.41    0.07   1
 -23  -7   7    0.42    0.05   1
  -7  -7  23    0.32    0.06   1
  -7   7  23    0.35    0.06   1
  -7  23   7    0.42    0.06   1
   7 -23  -7    0.25    0.07   1
   7  -7 -23    0.29    0.07   1
   7  -7  23    0.55    0.08   1
   7   7  23    0.14    0.05   1
   7  23  -7    0.38    0.05   1
   7  23   7    0.46    0.06   1
  23  -7   7    0.39    0.06   1
  23  -7   7    0.34    0.05   1
  23   7  -7    0.23    0.03   1
  23   7   7    0.32    0.05   1
 -23  -7   9   -0.04    0.04   1
  -9  23   7    0.07    0.05   1
  -7  -9  23   -0.08    0.05   1
  -7   9  23   -0.04    0.04   1
   7  -9 -23    0.09    0.07   1
   7  -9  23   -0.11    0.05   1
   7   9  23    0.02    0.05   1
   9 -23  -7   -0.08    0.05   1
   9  23  -7   -0.08    0.05   1
   9  23   7    0.01    0.05   1
  23  -7   9    0.02    0.06   1
  23  -7   9   -0.03    0.04   1
  23   7  -9    0.04    0.03   1
  23   7   9   -0.01    0.04   1
 -23  -7  11    0.30    0.05   1
 -11  23  -7    0.43    0.08   1
 -11  23   7    0.34    0.06   1
  -7  11  23    0.27    0.06   1
   7 -11 -23    0.23    0.07   1
   7 -11  23    0.27    0.07   1
   7  11  23    0.38    0.07   1
  11 -23  -7    0.22    0.07   1
  11  23  -7    0.21    0.05   1
  11  23   7    0.34    0.06   1
  23  -7  11    0.29    0.06   1
  23  -7  11    0.35    0.05   1
  23   7 -11    0.32    0.04   1
  23   7  11    0.17    0.05   1
 -23  -7  13   -0.10    0.05   1
 -13  23  -7    0.06    0.06   1
 -13  23   7    0.06    0.05   1
  -7 -13  23   -0.08    0.06   1
  -7  13  23    0.08    0.05   1
   7 -13 -23    0.13    0.06   1
   7 -13  23   -0.03    0.06   1
   7  13  23    0.06    0.06   1
  13 -23  -7    0.05    0.07   1
  13  23  -7   -0.02    0.05   1
  13  23   7    0.07    0.06   1
  23  -7  13    0.08    0.05   1
  23   7 -13    0.05    0.03   1
  23   7  13    0.06    0.05   1
 -23  -7  15    0.11    0.04   1
 -15  23   7    0.09    0.05   1
  -7 -15  23    0.15    0.07   1
  -7  15  23    0.17    0.06   1
   7 -15  23    0.24    0.07   1
   7  15  23    0.10    0.06   1
  15 -23  -7    0.17    0.07   1
  15  23  -7    0.37    0.08   1
  15  23   7    0.01    0.06   1
  23  -7  15    0.14    0.05   1
  23   7  15    0.01    0.06   1
 -23  -7  17    0.09    0.05   1
 -17  23   7    0.25    0.06   1
  -7 -17  23    0.24    0.07   1
  -7  17  23    0.07    0.05   1
   7 -17  23    0.23    0.07   1
   7  17  23    0.06    0.07   1
  17 -23   7    0.16    0.06   1
  17  23  -7    0.20    0.07   1
  17  23   7    0.20    0.07   1
  23  -7  17    0.22    0.06   1
  23   7  17    0.12    0.06   1
 -19  23   7   -0.03    0.05   1
  -7 -19  23    0.11    0.08   1
  -7  19  23   -0.01    0.07   1
   7 -19  23   -0.01    0.08   1
   7  19  23    0.11    0.08   1
  19 -23   7    0.10    0.06   1
  19  23  -7    0.07    0.08   1
  19  23   7   -0.12    0.08   1
  23  -7  19    0.17    0.07   1
  23   7  19    0.04    0.07   1
  -7 -21  23   -0.04    0.08   1
  -7  21  23    0.05    0.07   1
   7 -21  23   -0.11    0.09   1
  21 -23   7    0.22    0.08   1
  21  23  -7   -0.09    0.08   1
  21  23   7    0.13    0.09   1
  23  -7  21   -0.06    0.08   1
  23   7  21   -0.05    0.08   1
 -23  -9  -1    0.68    0.08   1
 -23  -9   1    0.61    0.07   1
  -9  -1  23    0.64    0.08   1
  -9  -1  23    0.69    0.08   1
  -9   1  23    0.71    0.08   1
  -9   1  23    0.79    0.08   1
  -1  23  -9    0.77    0.08   1
  -1  23   9    0.73    0.07   1
   1  23  -9    0.61    0.07   1
   1  23   9    0.78    0.09   1
   9  -1  23    0.85    0.09   1
   9   1  23    0.71    0.09   1
  23  -9  -1    0.59    0.05   1
  23  -9  -1    0.50    0.05   1
  23  -9   1    0.68    0.07   1
  23  -9   1    0.63    0.05   1
  23   9  -1    0.74    0.07   1
  23   9   1    0.69    0.07   1
 -23  -9  -3    0.37    0.07   1
 -23  -9   3    0.43    0.07   1
  -9  -3  23    0.23    0.07   1
  -9  -3  23    0.49    0.06   1
  -9   3  23    0.25    0.06   1
  -9   3  23    0.46    0.06   1
  -3  23  -9    0.45    0.07   1
  -3  23   9    0.41    0.07   1
   3  23  -9    0.39    0.06   1
   3  23   9    0.56    0.07   1
   9  -3  23    0.49    0.07   1
   9   3  23    0.30    0.06   1
  23  -9   3    0.51    0.05   1
  23  -9   3    0.44    0.05   1
  23   9  -3    0.52    0.06   1
  23   9   3    0.57    0.07   1
 -23  -9  -5    0.09    0.06   1
 -23  -9   5    0.08    0.05   1
  -9  -5  23    0.06    0.07   1
  -9  -5  23   -0.11    0.05   1
  -9   5  23    0.01    0.04   1
  -5  23  -9    0.06    0.05   1
  -5  23   9    0.06    0.05   1
   5  23  -9    0.03    0.05   1
   9  -5 -23   -0.10    0.05   1
   9  -5  23    0.00    0.05   1
   9   5  23    0.03    0.04   1
  23  -9   5    0.05    0.05   1
  23  -9   5    0.04    0.03   1
  23   9  -5   -0.03    0.03   1
  23   9   5   -0.05    0.04   1
 -23  -9   7    0.10    0.05   1
  -9  -7  23    0.05    0.07   1
  -9  -7  23   -0.09    0.04   1
  -9   7  23   -0.09    0.04   1
  -7  23  -9   -0.08    0.06   1
  -7  23   9   -0.04    0.05   1
   7  23  -9    0.02    0.05   1
   7  23   9    0.02    0.06   1
   9  -7 -23    0.04    0.06   1
   9  -7  23   -0.04    0.06   1
  23  -9   7   -0.03    0.06   1
  23  -9   7    0.01    0.03   1
  23   9  -7    0.03    0.04   1
  23   9   7    0.05    0.04   1
 -23  -9   9    0.54    0.07   1
  -9  -9  23    0.71    0.08   1
  -9   9  23    0.64    0.07   1
  -9  23  -9    0.53    0.08   1
  -9  23   9    1.16    0.09   1
   9 -23  -9    0.53    0.07   1
   9  -9 -23    0.62    0.08   1
   9  -9  23    0.73    0.09   1
   9   9  23    0.61    0.07   1
   9  23  -9    0.83    0.09   1
   9  23   9    0.79    0.09   1
  23  -9   9    0.71    0.08   1
  23  -9   9    0.83    0.08   1
  23   9  -9    0.47    0.06   1
  23   9   9    0.79    0.08   1
 -23  -9  11    1.12    0.10   1
 -11  23  -9    1.34    0.12   1
 -11  23   9    1.23    0.11   1
  -9 -11  23    1.32    0.10   1
  -9  11  23    1.23    0.09   1
   9 -11 -23    1.10    0.12   1
   9 -11  23    1.28    0.11   1
   9  11  23    1.22    0.12   1
  11 -23  -9    1.11    0.12   1
  11  23  -9    0.97    0.09   1
  11  23   9    1.48    0.12   1
  23  -9  11    1.16    0.13   1
  23  -9  11    1.14    0.09   1
  23   9 -11    1.00    0.07   1
  23   9  11    0.99    0.10   1
 -13  23  -9    0.51    0.08   1
 -13  23   9    0.59    0.08   1
  -9 -13  23    0.60    0.07   1
  -9  13  23    0.52    0.07   1
   9 -13 -23    0.42    0.08   1
   9 -13  23    0.43    0.07   1
   9  13  23    0.63    0.08   1
  13 -23  -9    0.47    0.08   1
  13  23  -9    0.40    0.06   1
  23  -9  13    0.42    0.05   1
  23   9 -13    0.60    0.07   1
  23   9  13    0.39    0.06   1
 -15  23   9    0.03    0.05   1
  -9 -15  23   -0.07    0.06   1
  -9  15  23   -0.01    0.05   1
   9 -15 -23    0.12    0.07   1
   9 -15  23    0.00    0.06   1
   9  15  23   -0.16    0.06   1
  15 -23  -9    0.07    0.12   1
  15 -23   9    0.10    0.05   1
  15  23  -9    0.02    0.06   1
  15  23   9    0.03    0.07   1
  23  -9  15    0.08    0.06   1
  23   9  15   -0.03    0.06   1
 -23  -9  17   -0.02    0.05   1
 -17  23   9    0.03    0.05   1
  -9 -17  23    0.00    0.07   1
  -9  17  23    0.12    0.06   1
   9 -17  23    0.01    0.08   1
   9  17  23    0.02    0.07   1
  17 -23   9    0.01    0.06   1
  17  23  -9    0.07    0.07   1
  23  -9  17    0.26    0.07   1
  23   9  17   -0.04    0.06   1
  -9 -19  23    0.12    0.08   1
  -9  19  23    0.10    0.06   1
   9 -19  23    0.50    0.09   1
   9  19  23    0.01    0.08   1
  19 -23   9    0.20    0.07   1
  19  23  -9    0.17    0.08   1
  19  23   9    0.03    0.08   1
  23  -9  19   -0.09    0.07   1
  23   9  19   -0.07    0.07   1
  -9 -21  23    0.42    0.09   1
  -9  21  23    0.17    0.07   1
   9 -21  23    0.35    0.10   1
   9  21  23    0.40    0.10   1
  21 -23   9    0.53    0.10   1
  21  23  -9    0.39    0.09   1
  21  23   9    0.31    0.10   1
  23  -9  21    0.43    0.09   1
  23   9  21    0.15    0.09   1
 -23 -11  -1    1.08    0.12   1
 -23 -11   1    0.95    0.11   1
 -11  -1  23    1.12    0.11   1
 -11  -1  23    1.15    0.09   1
 -11   1  23    0.95    0.10   1
 -11   1  23    0.97    0.08   1
  -1  23 -11    1.18    0.11   1
  -1  23  11    1.04    0.10   1
   1  23 -11    1.14    0.10   1
   1  23  11    0.99    0.10   1
  11  -1  23    1.42    0.10   1
  11   1  23    1.14    0.10   1
  23 -11  -1    1.13    0.06   1
  23 -11  -1    1.07    0.05   1
  23 -11   1    0.98    0.07   1
  23 -11   1    1.10    0.05   1
  23  11  -1    1.07    0.08   1
  23  11   1    1.25    0.08   1
 -23 -11  -3    0.59    0.07   1
 -23 -11   3    0.65    0.08   1
 -11  -3  23    0.66    0.08   1
 -11  -3  23    0.83    0.09   1
 -11   3  23    0.56    0.07   1
 -11   3  23    0.70    0.08   1
  -3  23 -11    0.68    0.08   1
  -3  23  11    0.79    0.08   1
   3  23 -11    0.76    0.09   1
   3  23  11    0.80    0.09   1
  11  -3  23    0.91    0.09   1
  11   3  23    0.87    0.09   1
  23 -11   3    0.71    0.06   1
  23 -11   3    0.74    0.06   1
  23  11  -3    0.80    0.07   1
  23  11   3    0.95    0.08   1
 -23 -11   5    0.15    0.07   1
 -11  -5  23    0.10    0.07   1
 -11  -5  23    0.12    0.05   1
 -11   5  23    0.04    0.05   1
 -11   5  23    0.16    0.04   1
  -5  23 -11    0.09    0.06   1
  -5  23  11    0.17    0.05   1
   5  23 -11    0.11    0.05   1
   5  23  11    0.13    0.06   1
  11  -5  23    0.27    0.06   1
  11   5  23    0.04    0.05   1
  23 -11   5    0.17    0.05   1
  23 -11   5    0.14    0.03   1
  23  11  -5    0.16    0.04   1
  23  11   5    0.16    0.05   1
 -23 -11   7    0.23    0.07   1
 -11  -7  23    0.31    0.07   1
 -11  -7  23    0.32    0.06   1
 -11   7  23    0.35    0.06   1
  -7  23 -11    0.29    0.07   1
  -7  23  11    0.36    0.06   1
   7  23 -11    0.29    0.05   1
   7  23  11    0.35    0.07   1
  11  -7 -23    0.23    0.07   1
  11  -7  23    0.42    0.07   1
  11   7  23    0.23    0.07   1
  23 -11   7    0.27    0.07   1
  23 -11   7    0.28    0.05   1
  23  11  -7    0.29    0.05   1
  23  11   7    0.33    0.05   1
 -23 -11   9    1.25    0.11   1
 -11  -9  23    1.21    0.11   1
 -11   9  23    1.08    0.09   1
  -9  23 -11    1.37    0.12   1
  -9  23  11    1.22    0.10   1
   9 -23 -11    1.21    0.13   1
   9  23 -11    1.49    0.11   1
   9  23  11    1.24    0.11   1
  11  -9 -23    1.17    0.11   1
  11  -9  23    1.38    0.11   1
  11   9  23    1.39    0.12   1
  23 -11   9    1.22    0.13   1
  23 -11   9    1.35    0.09   1
  23  11  -9    1.18    0.08   1
 -23 -11  11    1.46    0.11   1
 -11 -11  23    1.75    0.11   1
 -11  11  23    1.75    0.10   1
 -11  23 -11    1.97    0.14   1
 -11  23  11    1.97    0.11   1
  11 -23 -11    1.64    0.12   1
  11 -11 -23    1.94    0.12   1
  11 -11  23    2.06    0.13   1
  11  11  23    2.03    0.13   1
  11  23 -11    1.65    0.12   1
  11  23  11    1.72    0.12   1
  23 -11  11    1.61    0.10   1
  23  11 -11    1.83    0.09   1
  23  11  11    1.75    0.11   1
 -13  23  11    0.88    0.11   1
 -11 -13  23    0.96    0.11   1
 -11  13  23    0.78    0.07   1
  11 -13 -23    0.87    0.08   1
  11 -13  23    0.75    0.09   1
  11  13  23    0.69    0.08   1
  13 -23 -11    0.70    0.09   1
  13 -23  11    1.14    0.10   1
  13  23 -11    0.91    0.10   1
  13  23  11    0.76    0.09   1
  23 -11  13    0.78    0.12   1
  23  11 -13    0.91    0.09   1
  23  11  13    0.93    0.10   1
 -15  23  11    0.31    0.06   1
 -11 -15  23    0.34    0.07   1
 -11  15  23    0.09    0.06   1
  11 -15  23    0.40    0.07   1
  11  15  23    0.00    0.07   1
  15 -23  11    0.19    0.07   1
  15  23 -11    0.39    0.07   1
  15  23  11    0.30    0.07   1
  23 -11  15    0.34    0.07   1
  23  11 -15    0.22    0.06   1
  23  11  15    0.20    0.06   1
 -17  23  11    0.18    0.06   1
 -11 -17  23    0.08    0.08   1
 -11  17  23    0.14    0.05   1
  11 -17  23    0.20    0.08   1
  11  17  23    0.13    0.08   1
  17 -23  11    0.14    0.07   1
  17  23 -11    0.05    0.07   1
  17  23  11    0.24    0.08   1
  23 -11  17    0.13    0.07   1
  23  11  17    0.13    0.07   1
 -11 -19  23    0.28    0.08   1
 -11  19  23    0.35    0.07   1
  11 -19  23    0.47    0.09   1
  11  19  23    0.44    0.10   1
  19 -23  11    0.49    0.09   1
  19  23 -11    0.14    0.08   1
  19  23  11    0.30    0.08   1
  23 -11  19    0.67    0.09   1
  23  11  19    0.32    0.08   1
 -11 -21  23    0.74    0.11   1
  11 -21  23    1.02    0.13   1
  11  21  23    0.59    0.10   1
  21 -23  11    1.01    0.12   1
  21  23 -11    0.64    0.11   1
  21  23  11    0.95    0.12   1
  23 -11  21    0.70    0.12   1
  23  11  21    0.72    0.11   1
 -23 -13   1    0.64    0.08   1
 -13  -1  23    0.62    0.07   1
 -13  -1  23    0.91    0.08   1
 -13   1  23    0.85    0.10   1
 -13   1  23    0.64    0.08   1
  -1  23 -13    0.81    0.08   1
  -1  23  13    0.90    0.10   1
   1  23 -13    0.56    0.07   1
   1  23  13    0.64    0.08   1
  13  -1  23    0.90    0.10   1
  13   1  23    0.76    0.09   1
  23 -13  -1    0.69    0.06   1
  23 -13  -1    0.61    0.04   1
  23 -13   1    0.70    0.08   1
  23 -13   1    0.61    0.05   1
  23  13  -1    0.68    0.08   1
  23  13   1    0.85    0.08   1
 -23 -13   3    0.14    0.07   1
 -13  -3  23    0.09    0.06   1
 -13  -3  23    0.22    0.05   1
 -13   3  23    0.09    0.05   1
 -13   3  23    0.14    0.04   1
  -3  23 -13    0.18    0.07   1
  -3  23  13    0.22    0.07   1
   3  23 -13    0.24    0.06   1
   3  23  13    0.17    0.06   1
  13  -3  23    0.11    0.06   1
  13   3  23    0.07    0.05   1
  23 -13  -3    0.14    0.03   1
  23 -13  -3    0.20    0.02   1
  23 -13   3    0.11    0.05   1
  23 -13   3    0.23    0.04   1
  23  13  -3    0.10    0.04   1
  23  13   3    0.18    0.05   1
 -23 -13   5   -0.04    0.07   1
 -13  -5  23   -0.11    0.07   1
 -13  -5  23    0.10    0.05   1
 -13   5  23    0.07    0.06   1
 -13   5  23   -0.02    0.04   1
  -5  23 -13    0.09    0.06   1
  -5  23  13    0.02    0.04   1
   5  23 -13    0.00    0.06   1
   5  23  13   -0.02    0.06   1
  13  -5  23   -0.08    0.06   1
  13   5  23    0.07    0.05   1
  23 -13   5    0.02    0.05   1
  23 -13   5   -0.05    0.04   1
  23  13  -5   -0.11    0.04   1
  23  13   5   -0.10    0.04   1
 -23 -13   7    0.01    0.07   1
 -13  -7  23    0.02    0.07   1
 -13  -7  23    0.16    0.06   1
 -13   7  23   -0.03    0.05   1
 -13   7  23   -0.04    0.04   1
  -7  23 -13    0.09    0.07   1
  -7  23  13    0.01    0.05   1
   7  23 -13    0.16    0.06   1
   7  23  13   -0.03    0.06   1
  13  -7  23    0.14    0.06   1
  13   7  23   -0.06    0.06   1
  23 -13   7    0.05    0.06   1
  23 -13   7    0.02    0.04   1
  23  13  -7   -0.03    0.05   1
  23  13   7   -0.01    0.05   1
 -23 -13   9    0.38    0.09   1
 -13  -9  23    0.56    0.07   1
 -13   9  23    0.30    0.05   1
  -9  23 -13    0.67    0.08   1
  -9  23  13    0.68    0.07   1
   9  23 -13    0.48    0.07   1
   9  23  13    0.40    0.08   1
  13  -9  23    0.52    0.08   1
  13   9  23    0.54    0.07   1
  23 -13   9    0.54    0.07   1
  23 -13   9    0.66    0.08   1
  23  13  -9    0.49    0.06   1
  23  13   9    0.65    0.07   1
 -23 -13  11    0.73    0.09   1
 -13 -11  23    1.12    0.10   1
 -13  11  23    0.96    0.09   1
 -11  23  13    0.73    0.09   1
  11 -23 -13    0.66    0.08   1
  11  23 -13    1.04    0.11   1
  11  23  13    1.10    0.11   1
  13 -11  23    1.16    0.12   1
  13  11  23    0.81    0.10   1
  23 -13  11    0.97    0.10   1
  23  13 -11    1.26    0.09   1
  23  13  11    0.83    0.10   1
 -13 -13  23    0.43    0.07   1
 -13  13  23    0.82    0.09   1
 -13  23  13    0.58    0.07   1
  13 -23  13    0.57    0.07   1
  13 -13  23    0.64    0.08   1
  13  13  23    0.25    0.07   1
  13  23 -13    0.46    0.07   1
  13  23  13    0.61    0.08   1
  23 -13  13    0.55    0.08   1
  23  13 -13    0.62    0.07   1
  23  13  13    0.31    0.07   1
 -15  23  13    0.04    0.06   1
 -13 -15  23    0.25    0.07   1
 -13  15  23   -0.01    0.05   1
  13 -15  23    0.16    0.07   1
  13  15  23   -0.14    0.07   1
  15 -23  13   -0.02    0.06   1
  15  23 -13    0.15    0.07   1
  15  23  13    0.18    0.07   1
  23 -13  15    0.10    0.07   1
  23  13 -15    0.05    0.06   1
  23  13  15    0.08    0.07   1
 -13 -17  23   -0.02    0.08   1
 -13  17  23   -0.02    0.06   1
  13 -17  23    0.51    0.09   1
  13  17  23   -0.17    0.07   1
  17 -23  13    0.04    0.07   1
  17  23 -13    0.13    0.07   1
  17  23  13    0.06    0.08   1
  23 -13  17   -0.13    0.07   1
  23  13 -17    0.25    0.07   1
  23  13  17   -0.02    0.08   1
 -13 -19  23    0.10    0.09   1
  13 -19  23    0.38    0.10   1
  13  19  23    0.12    0.09   1
  19 -23  13   -0.07    0.09   1
  19  23 -13    0.01    0.09   1
  19  23  13    0.21    0.09   1
  23 -13  19    0.07    0.08   1
  23  13  19    0.16    0.08   1
  13 -21  23    0.59    0.13   1
  13  21  23    0.36    0.11   1
  21 -23  13    0.50    0.12   1
  21  23 -13    0.50    0.12   1
  21  23  13    0.64    0.11   1
  23 -13  21    0.44    0.11   1
  23  13  21    0.53    0.11   1
 -15  -1  23    0.12    0.06   1
 -15  -1  23    0.15    0.05   1
 -15   1  23    0.07    0.06   1
 -15   1  23    0.23    0.04   1
  -1  23 -15    0.22    0.07   1
  -1  23  15    0.18    0.07   1
   1  23 -15    0.16    0.07   1
   1  23  15    0.33    0.07   1
  15  -1  23    0.16    0.05   1
  15   1  23    0.32    0.06   1
  23 -15  -1    0.29    0.05   1
  23 -15  -1    0.13    0.03   1
  23 -15   1    0.18    0.05   1
  23 -15   1    0.19    0.04   1
  23  15  -1    0.21    0.05   1
  23  15   1    0.11    0.05   1
 -15  -3  23   -0.03    0.06   1
 -15  -3  23    0.01    0.04   1
 -15   3  23    0.08    0.07   1
 -15   3  23   -0.02    0.04   1
  -3  23 -15   -0.06    0.07   1
  -3  23  15    0.06    0.05   1
   3  23 -15    0.03    0.07   1
   3  23  15    0.05    0.07   1
  15  -3  23    0.02    0.06   1
  15   3  23   -0.13    0.05   1
  23 -15  -3    0.05    0.02   1
  23 -15   3    0.02    0.03   1
  23  15  -3   -0.04    0.05   1
 -15  -5  23    0.29    0.08   1
 -15  -5  23    0.45    0.06   1
 -15   5  23    0.26    0.05   1
  -5  23 -15    0.32    0.07   1
   5  23 -15    0.37    0.07   1
   5  23  15    0.27    0.06   1
  15  -5  23    0.33    0.07   1
  23 -15   5    0.17    0.06   1
  23 -15   5    0.41    0.05   1
  23  15  -5    0.33    0.06   1
  23  15   5    0.40    0.06   1
 -15  -7  23    0.21    0.08   1
 -15  -7  23    0.16    0.06   1
 -15   7  23    0.04    0.04   1
  -7  23 -15    0.16    0.08   1
  -7  23  15    0.08    0.05   1
   7  23 -15    0.12    0.06   1
   7  23  15    0.13    0.06   1
  15  -7  23    0.12    0.08   1
  15   7  23    0.10    0.06   1
  23 -15   7    0.14    0.07   1
  23 -15   7    0.18    0.05   1
  23  15  -7    0.15    0.05   1
  23  15   7    0.01    0.06   1
 -15  -9  23    0.01    0.10   1
 -15  -9  23    0.09    0.06   1
 -15   9  23    0.03    0.04   1
  -9  23  15    0.06    0.05   1
   9 -23  15    0.24    0.06   1
   9  23 -15    0.07    0.06   1
   9  23  15    0.10    0.07   1
  15  -9  23    0.04    0.06   1
  15   9  23    0.03    0.06   1
  23 -15   9    0.09    0.05   1
  23  15  -9   -0.09    0.05   1
  23  15   9    0.01    0.06   1
 -15 -11  23    0.11    0.06   1
 -15  11  23    0.22    0.05   1
 -11  23  15    0.37    0.06   1
  11 -23  15    0.24    0.06   1
  11  23 -15    0.33    0.08   1
  11  23  15    0.38    0.08   1
  15 -11  23    0.11    0.07   1
  15  11  23    0.15    0.08   1
  23 -15  11    0.22    0.07   1
  23  15 -11    0.33    0.06   1
  23  15  11    0.20    0.07   1
 -15 -13  23    0.11    0.07   1
 -13  23  15    0.08    0.06   1
  13 -23  15    0.00    0.07   1
  13  23 -15   -0.01    0.08   1
  13  23  15    0.15    0.08   1
  15 -13  23    0.01    0.08   1
  15  13  23   -0.14    0.07   1
  23 -15  13   -0.05    0.06   1
  23  15 -13    0.10    0.07   1
  23  15  13    0.01    0.07   1
 -15 -15  23    0.23    0.08   1
 -15  23  15    0.06    0.06   1
  15 -23  15    0.05    0.07   1
  15 -15  23    0.14    0.08   1
  15  15  23   -0.07    0.08   1
  15  23 -15   -0.08    0.08   1
  15  23  15    0.06    0.08   1
  23 -15  15   -0.05    0.08   1
  23  15 -15   -0.01    0.07   1
  23  15  15   -0.11    0.07   1
 -15 -17  23    0.32    0.09   1
  15 -17  23    0.21    0.09   1
  15  17  23   -0.12    0.08   1
  17 -23  15    0.06    0.08   1
  17  23 -15    0.18    0.09   1
  17  23  15    0.20    0.10   1
  23 -15  17    0.19    0.08   1
  23  15 -17   -0.06    0.08   1
  23  15  17    0.24    0.08   1
 -15 -19  23   -0.13    0.09   1
  15 -19  23    0.11    0.09   1
  15  19  23   -0.04    0.09   1
  19 -23  15    0.27    0.10   1
  19  23 -15    0.05    0.12   1
  19  23  15    0.34    0.10   1
  23 -15  19    0.04    0.09   1
  23  15  19    0.04    0.09   1
  15 -21  23    0.02    0.12   1
  21 -23  15   -0.06    0.12   1
  21  23 -15   -0.04    0.13   1
  21  23  15   -0.09    0.11   1
  23 -15  21    0.03    0.12   1
  23  15  21   -0.21    0.11   1
 -17  -1  23    0.09    0.04   1
 -17   1  23    0.03    0.04   1
  -1  23 -17    0.07    0.07   1
  -1  23  17    0.06    0.07   1
   1  23 -17    0.12    0.07   1
   1  23  17    0.13    0.07   1
  17  -1  23   -0.02    0.06   1
  17   1  23    0.12    0.05   1
  23 -17  -1    0.11    0.03   1
  23 -17   1   -0.03    0.03   1
  23  17  -1    0.05    0.06   1
  23  17   1    0.02    0.05   1
 -17  -3  23    0.16    0.05   1
 -17   3  23    0.28    0.05   1
  -3  23 -17   -0.05    0.07   1
  -3  23  17    0.24    0.07   1
   3  23 -17   -0.03    0.06   1
   3  23  17    0.57    0.09   1
  17  -3  23    0.13    0.06   1
  17   3  23    0.05    0.06   1
  23 -17  -3    0.04    0.03   1
  23 -17   3    0.05    0.04   1
  23  17   3    0.08    0.06   1
 -17  -5  23    0.21    0.05   1
 -17   5  23    0.07    0.04   1
  -5  23  17    0.30    0.07   1
   5  23 -17    0.13    0.07   1
   5  23  17    0.26    0.08   1
  17  -5  23    0.28    0.07   1
  17   5  23    0.18    0.06   1
  23 -17   5    0.24    0.12   1
  23 -17   5    0.20    0.05   1
  23  17  -5    0.19    0.07   1
  23  17   5    0.14    0.07   1
 -17  -7  23    0.16    0.06   1
   7 -23  17    0.11    0.06   1
   7  23 -17    0.03    0.08   1
   7  23  17    0.30    0.07   1
  17  -7  23    0.15    0.07   1
  17   7  23    0.14    0.07   1
  23 -17   7    0.30    0.09   1
  23 -17   7    0.16    0.05   1
  23  17  -7    0.20    0.06   1
  23  17   7    0.11    0.06   1
 -17  -9  23    0.01    0.06   1
  -9  23  17    0.14    0.05   1
   9 -23  17   -0.11    0.06   1
   9  23 -17    0.02    0.07   1
   9  23  17   -0.05    0.07   1
  17  -9  23   -0.10    0.07   1
  17   9  23    0.03    0.07   1
  23 -17   9   -0.04    0.05   1
  23  17  -9   -0.11    0.06   1
  23  17   9    0.00    0.06   1
 -17 -11  23    0.06    0.06   1
 -11  23  17   -0.05    0.06   1
  11 -23  17   -0.05    0.07   1
  11  23 -17    0.15    0.08   1
  11  23  17    0.11    0.07   1
  17 -11  23    0.13    0.08   1
  17  11  23    0.02    0.07   1
  23 -17  11    0.19    0.07   1
  23  17 -11    0.23    0.12   1
  23  17  11    0.19    0.07   1
 -17 -13  23    0.01    0.07   1
 -13  23  17   -0.05    0.06   1
  13 -23  17    0.10    0.07   1
  13  23 -17   -0.06    0.09   1
  13  23  17    0.01    0.08   1
  17 -13  23   -0.02    0.08   1
  17  13  23    0.07    0.09   1
  23 -17  13    0.06    0.08   1
  23  17 -13   -0.12    0.08   1
  23  17  13   -0.05    0.07   1
 -17 -15  23   -0.03    0.07   1
  15 -23  17   -0.13    0.08   1
  15  23 -17    0.02    0.09   1
  15  23  17    0.00    0.08   1
  17 -15  23    0.11    0.09   1
  17  15  23   -0.11    0.08   1
  23 -17  15    0.19    0.08   1
  23  17 -15   -0.02    0.09   1
  23  17  15    0.12    0.08   1
 -17 -17  23    0.14    0.09   1
  17 -23  17    0.06    0.10   1
  17 -17  23    0.46    0.10   1
  17  17  23   -0.06    0.09   1
  17  23 -17    0.09    0.11   1
  17  23  17    0.04    0.10   1
  23 -17  17    0.23    0.10   1
  23  17 -17   -0.22    0.10   1
  23  17  17    0.07    0.10   1
 -17 -19  23   -0.09    0.09   1
  17 -19  23   -0.11    0.11   1
  17  19  23    0.14    0.17   1
  19 -23  17    0.08    0.12   1
  19  23 -17    0.20    0.13   1
  19  23  17   -0.10    0.11   1
  23 -17  19   -0.14    0.11   1
  23  17 -19    0.43    0.14   1
  -1  23  19    0.25    0.08   1
   1  23 -19    0.41    0.08   1
   1  23  19    0.22    0.07   1
  19  -1  23    0.31    0.07   1
  19   1  23    0.18    0.07   1
  23 -19  -1    0.24    0.04   1
  23 -19   1    0.24    0.05   1
  23  19  -1    0.33    0.07   1
  23  19   1    0.20    0.07   1
 -19  -3  23    0.10    0.05   1
  -3  23  19    0.27    0.07   1
   3  23 -19    0.22    0.08   1
   3  23  19    0.05    0.07   1
  19  -3  23    0.03    0.07   1
  19   3  23   -0.15    0.06   1
  23 -19   3    0.09    0.05   1
  23  19  -3    0.11    0.07   1
  23  19   3    0.12    0.06   1
 -19  -5  23    0.13    0.05   1
  -5  23  19   -0.09    0.06   1
   5 -23  19    0.00    0.07   1
   5  23 -19    0.22    0.08   1
   5  23  19    0.09    0.07   1
  19  -5  23    0.16    0.07   1
  19   5  23    0.06    0.07   1
  23 -19   5   -0.11    0.05   1
  23  19  -5    0.04    0.07   1
  23  19   5   -0.04    0.07   1
 -19  -7  23    0.02    0.06   1
  -7  23  19   -0.03    0.06   1
   7 -23  19    0.28    0.08   1
   7  23 -19    0.15    0.08   1
   7  23  19   -0.04    0.07   1
  19  -7  23    0.00    0.07   1
  19   7  23   -0.09    0.07   1
  23 -19   7   -0.10    0.06   1
  23  19  -7    0.01    0.07   1
  23  19   7   -0.02    0.07   1
 -19  -9  23    0.17    0.07   1
  -9  23  19    0.16    0.07   1
   9 -23  19   -0.01    0.07   1
   9  23 -19    0.13    0.09   1
   9  23  19    0.04    0.08   1
  19  -9  23    0.04    0.08   1
  19   9  23    0.30    0.09   1
  23 -19   9    0.06    0.06   1
  23  19  -9    0.07    0.07   1
  23  19   9   -0.09    0.07   1
 -19 -11  23    0.32    0.07   1
 -11  23  19    0.26    0.06   1
  11 -23  19    0.60    0.10   1
  11  23 -19    0.32    0.10   1
  11  23  19    0.26    0.09   1
  19 -11  23    0.49    0.10   1
  19  11  23    0.12    0.08   1
  23 -19  11    0.45    0.08   1
  23  19 -11    0.31    0.09   1
  23  19  11    0.25    0.08   1
 -19 -13  23    0.14    0.08   1
 -13  23  19    0.10    0.11   1
  13 -23  19    0.25    0.09   1
  13  23 -19   -0.22    0.10   1
  13  23  19   -0.04    0.09   1
  19 -13  23    0.18    0.09   1
  19  13  23    0.15    0.09   1
  23 -19  13    0.22    0.09   1
  23  19 -13    0.21    0.09   1
  23  19  13    0.18    0.09   1
 -19 -15  23    0.07    0.08   1
  15 -23  19   -0.14    0.10   1
  15  23 -19    0.18    0.12   1
  15  23  19    0.19    0.10   1
  19 -15  23    0.04    0.10   1
  19  15  23   -0.19    0.09   1
  23 -19  15    0.04    0.10   1
  23  19 -15    0.00    0.11   1
  23  19  15   -0.22    0.10   1
 -19 -17  23   -0.08    0.09   1
  17 -23  19    0.09    0.12   1
  17  23 -19   -0.19    0.13   1
  17  23  19    0.06    0.14   1
  19 -17  23   -0.06    0.12   1
  19  17  23   -0.05    0.11   1
  23 -19  17    0.20    0.12   1
  23  19 -17   -0.23    0.12   1
  23  19  17    0.10    0.10   1
  -1  23  21    0.78    0.10   1
   1 -23  21    0.63    0.10   1
   1  23  21    0.71    0.09   1
  21  -1  23    0.51    0.08   1
  21   1  23    0.57    0.08   1
  23 -21  -1    0.70    0.09   1
  23 -21   1    0.90    0.09   1
  23  21  -1    0.60    0.09   1
  23  21   1    0.64    0.09   1
  -3  23  21    0.38    0.08   1
   3 -23  21    0.34    0.09   1
   3  23  21    0.55    0.09   1
  21  -3  23    0.36    0.08   1
  21   3  23    0.47    0.08   1
  23 -21   3    0.59    0.07   1
  23  21  -3    0.25    0.08   1
  23  21   3    0.36    0.09   1
  -5  23  21    0.12    0.08   1
   5 -23  21    0.04    0.09   1
   5  23 -21    0.00    0.09   1
   5  23  21    0.38    0.10   1
  21  -5  23    0.24    0.08   1
  21   5  23    0.03    0.07   1
  23 -21   5    0.11    0.06   1
  23  21  -5   -0.06    0.08   1
  23  21   5    0.09    0.09   1
  -7  23  21   -0.02    0.07   1
   7 -23  21    0.04    0.08   1
   7  23 -21    0.14    0.10   1
   7  23  21    0.05    0.08   1
  21  -7  23   -0.07    0.08   1
  21   7  23   -0.02    0.08   1
  23 -21   7    0.03    0.08   1
  23  21  -7   -0.16    0.09   1
  23  21   7   -0.25    0.08   1
  -9  23  21    0.42    0.08   1
   9 -23  21    0.50    0.10   1
   9  23 -21    1.26    0.16   1
   9  23  21    0.34    0.10   1
  21  -9  23    0.60    0.10   1
  21   9  23    0.20    0.09   1
  23 -21   9    0.36    0.09   1
  23  21  -9    0.39    0.10   1
  23  21   9    0.23    0.09   1
 -11  23  21    0.82    0.09   1
  11 -23  21    0.90    0.11   1
  11  23 -21    0.71    0.13   1
  11  23  21    0.38    0.10   1
  21 -11  23    0.87    0.11   1
  21  11  23    0.61    0.11   1
  23 -21  11    0.77    0.11   1
  23  21 -11    0.84    0.11   1
  23  21  11    0.71    0.10   1
  13 -23  21    0.47    0.11   1
  13  23 -21    0.71    0.13   1
  13  23  21    0.05    0.11   1
  21 -13  23    0.30    0.12   1
  21  13  23    0.03    0.10   1
  23 -21  13    0.36    0.10   1
  23  21 -13    0.55    0.12   1
  23  21  13    0.17    0.10   1
  15 -23  21    0.10    0.13   1
  15  23 -21    0.12    0.15   1
  21 -15  23    0.17    0.12   1
  21  15  23   -0.09    0.13   1
  23 -21  15    0.01    0.12   1
  23  21 -15    0.07    0.13   1
  23  21  15    0.05    0.11   1
  -1 -23  23    0.41    0.10   1
  -1  23  23    0.61    0.09   1
   1 -23  23    0.69    0.11   1
   1  23  23    0.86    0.11   1
  23  -1  23    0.61    0.09   1
  23   1  23    0.61    0.09   1
  23  23  -1    0.59    0.11   1
  23  23   1    0.65    0.10   1
  -3 -23  23   -0.12    0.09   1
  -3  23  23    0.40    0.08   1
   3 -23  23    0.30    0.10   1
   3  23  23    0.10    0.09   1
  23 -23   3    0.39    0.08   1
  23  -3  23    0.47    0.09   1
  23   3  23    0.22    0.09   1
  23  23  -3    0.33    0.10   1
  23  23   3    0.24    0.09   1
  -5 -23  23    0.09    0.09   1
  -5  23  23   -0.09    0.08   1
   5 -23  23   -0.14    0.09   1
   5  23  23   -0.20    0.08   1
  23 -23   5    0.03    0.08   1
  23  -5  23    0.14    0.09   1
  23   5  23   -0.10    0.09   1
  23  23  -5    0.05    0.10   1
  23  23   5   -0.24    0.09   1
  -7 -23  23    0.14    0.09   1
  -7  23  23   -0.03    0.08   1
   7 -23  23   -0.07    0.10   1
   7  23  23   -0.16    0.09   1
  23 -23   7   -0.02    0.09   1
  23  -7  23    0.00    0.10   1
  23   7  23    0.26    0.10   1
  23  23  -7    0.05    0.10   1
  23  23   7    0.14    0.10   1
  -9  23  23    0.31    0.09   1
   9 -23  23    0.42    0.11   1
   9  23  23    0.36    0.11   1
  23 -23   9    0.25    0.10   1
  23  -9  23    0.52    0.12   1
  23   9  23    0.04    0.10   1
  23  23  -9    0.24    0.11   1
  23  23   9    0.01    0.11   1
  11 -23  23    0.48    0.13   1
  11  23  23    0.54    0.13   1
  23 -23  11    0.60    0.13   1
  23 -11  23    1.03    0.14   1
  23  11  23    0.31    0.11   1
  23  23 -11    0.37    0.12   1
  23  23  11    0.29    0.12   1
   0   0  24    1.85    0.11   1
   0  24   0    1.91    0.10   1
  24   0   0    1.98    0.06   1
 -24   0  -2    1.14    0.08   1
 -24   0   2    1.06    0.05   1
  -2  24   0    0.96    0.09   1
   0  -2  24    1.03    0.10   1
   0   2  24    1.28    0.09   1
  24   0  -2    1.09    0.05   1
  24   0   2    1.19    0.06   1
 -24   0  -4   -0.08    0.04   1
 -24   0   4   -0.01    0.02   1
  -4  24   0    0.06    0.04   1
   0  -4  24   -0.12    0.04   1
   0   4  24   -0.02    0.04   1
   4  24   0   -0.06    0.04   1
  24   0   4   -0.04    0.03   1
 -24   0  -6   -0.01    0.05   1
  -6  24   0   -0.01    0.04   1
   0  -6  24    0.05    0.06   1
   0   6  24    0.11    0.05   1
   6  24   0    0.16    0.05   1
  24   0   6   -0.03    0.03   1
 -24   0  -8    0.23    0.06   1
  -8  24   0    0.22    0.05   1
   0  -8  24    0.21    0.06   1
   0   8  24    0.33    0.05   1
   8  24   0    0.24    0.05   1
  24   0   8    0.23    0.05   1
 -24   0 -10    0.47    0.07   1
 -10  24   0    0.60    0.07   1
   0 -10  24    0.45    0.07   1
   0  10  24    0.44    0.07   1
  10  24   0    0.58    0.07   1
  24   0  10    0.64    0.07   1
 -12  24   0    0.75    0.08   1
   0 -12  24    0.78    0.09   1
   0  12  24    0.46    0.08   1
  12  24   0    0.68    0.08   1
  24   0  12    0.80    0.08   1
 -14  24   0    0.23    0.06   1
   0 -14  24    0.21    0.07   1
   0  14  24    0.27    0.07   1
  14  24   0    0.10    0.06   1
  24   0  14    0.18    0.06   1
 -16  24   0    0.00    0.06   1
   0 -16  24    0.16    0.07   1
   0  16  24   -0.08    0.06   1
  16  24   0   -0.06    0.06   1
  24   0  16   -0.06    0.05   1
 -18  24   0    0.01    0.06   1
   0 -18  24    0.06    0.07   1
   0  18  24    0.10    0.07   1
  18  24   0    0.00    0.06   1
  24   0  18   -0.06    0.06   1
   0 -20  24    0.30    0.09   1
   0  20  24    0.31    0.08   1
  20 -24   0    0.17    0.06   1
  20  24   0    0.53    0.09   1
  24   0  20    0.26    0.07   1
   0 -22  24    0.52    0.10   1
   0  22  24    0.40    0.09   1
  22 -24   0    0.66    0.09   1
  22  24   0    0.79    0.11   1
  24   0  22    0.74    0.10   1
 -24  -2   0    1.10    0.07   1
  -2   0  24    1.14    0.09   1
   0  24   2    1.16    0.09   1
   2   0  24    1.20    0.09   1
  24  -2   0    1.14    0.05   1
  24   2   0    0.99    0.05   1
 -24  -2  -2    0.65    0.08   1
 -24  -2   2    0.82    0.06   1
 -24   2  -2    0.80    0.07   1
  -2  -2  24    0.73    0.08   1
  -2   2  24    0.91    0.09   1
  -2  24  -2    0.85    0.09   1
  -2  24   2    0.77    0.08   1
   2  -2  24    0.90    0.09   1
   2   2  24    0.68    0.07   1
   2  24  -2    0.80    0.11   1
  24  -2  -2    0.66    0.04   1
  24  -2  -2    0.73    0.04   1
  24  -2   2    0.77    0.05   1
  24   2  -2    0.67    0.04   1
  24   2   2    0.74    0.06   1
 -24  -2  -4    0.04    0.05   1
 -24  -2   4    0.02    0.03   1
 -24   2  -4    0.03    0.04   1
  -4  24  -2   -0.01    0.04   1
  -4  24   2    0.01    0.05   1
  -2  -4  24    0.00    0.05   1
  -2   4  24    0.07    0.04   1
   2   4  24    0.14    0.04   1
   4  24  -2    0.06    0.05   1
   4  24   2   -0.02    0.05   1
  24  -2   4    0.05    0.03   1
  24   2  -4    0.02    0.02   1
  24   2   4    0.00    0.03   1
 -24  -2  -6    0.01    0.05   1
 -24  -2   6    0.00    0.02   1
 -24   2  -6    0.05    0.05   1
  -6  24  -2   -0.03    0.04   1
  -6  24   2   -0.08    0.05   1
  -2  -6  24   -0.01    0.04   1
  -2   6  24    0.00    0.04   1
   2  -6  24    0.08    0.06   1
   2   6  24   -0.02    0.04   1
   6  24  -2   -0.11    0.04   1
   6  24   2   -0.01    0.05   1
  24  -2   6   -0.02    0.03   1
  24   2  -6    0.01    0.02   1
  24   2   6   -0.02    0.04   1
 -24  -2  -8    0.16    0.06   1
 -24   2  -8    0.14    0.06   1
  -8  24  -2    0.10    0.05   1
  -8  24   2    0.17    0.05   1
  -2   8  24    0.16    0.05   1
   2  -8  24    0.14    0.05   1
   8  24  -2    0.13    0.06   1
   8  24   2    0.07    0.05   1
  24  -2   8    0.12    0.04   1
  24   2   8    0.10    0.04   1
 -24  -2 -10    0.49    0.07   1
 -24   2 -10    0.41    0.07   1
 -10  24  -2    0.44    0.06   1
 -10  24   2    0.42    0.06   1
  -2 -10  24    0.52    0.08   1
  -2  10  24    0.28    0.07   1
   2 -10  24    0.53    0.07   1
   2  10  24    0.31    0.07   1
  10  24  -2    0.49    0.07   1
  10  24   2    0.33    0.06   1
  24  -2  10    0.38    0.05   1
  24   2  10    0.32    0.04   1
 -12  24  -2    0.37    0.06   1
 -12  24   2    0.42    0.07   1
  -2 -12  24    0.44    0.07   1
  -2  12  24    0.33    0.06   1
   2 -12  24    0.59    0.08   1
   2  12  24    0.26    0.07   1
  12  24  -2    0.32    0.06   1
  12  24   2    0.33    0.06   1
  24  -2  12    0.23    0.05   1
  24   2  12    0.36    0.05   1
 -14  24  -2   -0.01    0.05   1
 -14  24   2    0.13    0.05   1
  -2 -14  24    0.03    0.07   1
  -2  14  24   -0.01    0.05   1
   2 -14  24    0.08    0.07   1
   2  14  24   -0.04    0.06   1
  14  24  -2   -0.01    0.06   1
  14  24   2   -0.05    0.06   1
  24   2  14   -0.08    0.06   1
 -16  24  -2    0.01    0.05   1
 -16  24   2   -0.05    0.05   1
  -2 -16  24    0.01    0.07   1
  -2  16  24    0.00    0.06   1
   2 -16  24   -0.09    0.07   1
   2  16  24   -0.01    0.06   1
  16  24  -2   -0.05    0.06   1
  16  24   2    0.05    0.06   1
  24  -2  16    0.00    0.05   1
  24   2  16   -0.09    0.06   1
 -18  24   2   -0.10    0.05   1
  -2 -18  24   -0.07    0.07   1
  -2  18  24    0.05    0.07   1
   2 -18  24    0.02    0.07   1
   2  18  24    0.05    0.07   1
  18  24  -2   -0.01    0.06   1
  18  24   2   -0.07    0.07   1
  24  -2  18    0.01    0.06   1
  24   2  18   -0.17    0.07   1
  -2 -20  24    0.20    0.08   1
  -2  20  24    0.23    0.08   1
   2 -20  24    0.23    0.09   1
   2  20  24    0.14    0.08   1
  20 -24   2    0.13    0.06   1
  20  24  -2    0.04    0.07   1
  20  24   2    0.03    0.08   1
  24  -2  20    0.05    0.07   1
  24   2  20    0.14    0.08   1
  -2 -22  24    0.31    0.10   1
  -2  22  24    0.57    0.09   1
   2 -22  24    0.68    0.11   1
   2  22  24    0.52    0.09   1
  22 -24   2    0.48    0.07   1
  22  24  -2    0.83    0.10   1
  22  24   2    0.36    0.09   1
  24  -2  22    0.11    0.08   1
  24   2  22    0.55    0.09   1
 -24  -4   0   -0.02    0.04   1
  -4   0  24   -0.04    0.06   1
  -4   0  24    0.01    0.04   1
   0  24  -4   -0.03    0.04   1
   0  24   4   -0.03    0.04   1
  24  -4   0   -0.01    0.03   1
  24  -4   0    0.01    0.02   1
  24   4   0   -0.01    0.03   1
 -24  -4  -2   -0.03    0.05   1
 -24  -4   2    0.05    0.04   1
  -4  -2  24    0.10    0.05   1
  -4   2  24    0.00    0.04   1
  -2  24   4    0.05    0.04   1
   2  24  -4   -0.03    0.05   1
   4  -2 -24    0.02    0.06   1
   4   2  24    0.03    0.08   1
  24  -4   2    0.01    0.04   1
  24  -4   2   -0.03    0.02   1
  24   4  -2   -0.02    0.03   1
  24   4   2    0.04    0.03   1
 -24  -4  -4    0.50    0.07   1
  -4  -4  24    0.68    0.08   1
  -4   4  24    0.46    0.06   1
  -4  24   4    0.53    0.06   1
   4  -4 -24    0.43    0.07   1
   4  -4  24    0.54    0.07   1
   4  24  -4    0.59    0.08   1
   4  24   4    0.79    0.09   1
  24  -4   4    0.62    0.06   1
  24  -4   4    0.63    0.06   1
  24   4  -4    0.68    0.04   1
  24   4   4    0.58    0.05   1
 -24  -4  -6    0.50    0.07   1
 -24  -4   6    0.57    0.06   1
  -6  24  -4    0.55    0.09   1
  -6  24   4    0.63    0.07   1
  -4  -6  24    0.51    0.07   1
  -4   6  24    0.72    0.08   1
   4  -6 -24    0.41    0.07   1
   4  -6  24    0.61    0.08   1
   4   6  24    0.40    0.06   1
   6  24  -4    0.59    0.06   1
   6  24   4    0.76    0.08   1
  24  -4   6    0.46    0.06   1
  24   4  -6    0.47    0.04   1
  24   4   6    0.53    0.06   1
 -24  -4  -8    0.05    0.06   1
 -24  -4   8    0.08    0.03   1
  -8  24  -4    0.15    0.06   1
  -8  24   4    0.25    0.06   1
  -4  -8  24    0.14    0.05   1
  -4   8  24    0.20    0.05   1
   4  -8  24    0.07    0.05   1
   4   8  24    0.30    0.05   1
   8  24  -4    0.19    0.05   1
   8  24   4    0.03    0.05   1
  24  -4   8    0.06    0.04   1
  24   4   8    0.22    0.04   1
 -24  -4  10    0.06    0.03   1
 -24   4 -10    0.12    0.06   1
 -10  24  -4    0.14    0.06   1
 -10  24   4    0.00    0.05   1
  -4 -10  24   -0.06    0.06   1
  -4  10  24    0.04    0.05   1
   4 -10  24    0.02    0.05   1
   4  10  24    0.00    0.05   1
  10  24  -4   -0.07    0.05   1
  10  24   4   -0.03    0.05   1
  24  -4  10   -0.02    0.04   1
  24   4  10   -0.11    0.04   1
 -12  24  -4    0.02    0.09   1
 -12  24   4    0.04    0.05   1
  -4 -12  24   -0.01    0.06   1
  -4  12  24   -0.07    0.05   1
   4 -12  24   -0.07    0.06   1
   4  12  24    0.03    0.06   1
  12  24  -4   -0.03    0.05   1
  12  24   4    0.03    0.06   1
  24  -4  12   -0.02    0.04   1
  24   4  12   -0.03    0.04   1
 -14  24   4    0.11    0.05   1
  -4 -14  24   -0.01    0.07   1
  -4  14  24    0.17    0.06   1
   4 -14  24    0.32    0.07   1
   4  14  24    0.20    0.07   1
  14 -24  -4    0.22    0.07   1
  14  24  -4    0.09    0.06   1
  14  24   4    0.31    0.06   1
  24   4  14    0.13    0.05   1
 -16  24   4    0.41    0.07   1
  -4 -16  24    0.42    0.07   1
  -4  16  24    0.54    0.08   1
   4 -16  24    0.69    0.10   1
   4  16  24    0.28    0.08   1
  16 -24  -4    0.41    0.08   1
  16  24  -4    0.46    0.07   1
  16  24   4    0.50    0.07   1
  24  -4  16    0.56    0.07   1
  24   4  16    0.55    0.08   1
 -18  24   4    0.09    0.06   1
  -4 -18  24    0.02    0.07   1
  -4  18  24    0.15    0.07   1
   4 -18  24    0.31    0.09   1
   4  18  24    0.12    0.08   1
  18  24  -4    0.23    0.07   1
  18  24   4    0.26    0.07   1
  24  -4  18    0.42    0.07   1
  24   4  18    0.11    0.06   1
 -20  24   4    0.01    0.06   1
  -4 -20  24    0.06    0.09   1
  -4  20  24    0.05    0.08   1
   4 -20  24    0.15    0.09   1
   4  20  24   -0.17    0.07   1
  20 -24   4    0.02    0.07   1
  20  24  -4    0.02    0.08   1
  20  24   4   -0.06    0.08   1
  24  -4  20   -0.05    0.08   1
  24   4  20   -0.14    0.07   1
  -4 -22  24    0.21    0.10   1
  -4  22  24    0.19    0.08   1
   4 -22  24    0.05    0.09   1
   4  22  24   -0.08    0.08   1
  22 -24   4    0.06    0.08   1
  22  24  -4   -0.09    0.09   1
  22  24   4    0.18    0.10   1
  24  -4  22    0.28    0.09   1
  24   4  22   -0.17    0.08   1
 -24  -6   0    0.03    0.05   1
  -6   0  24    0.07    0.06   1
  -6   0  24    0.06    0.05   1
   0  24  -6   -0.01    0.05   1
   0  24   6    0.05    0.07   1
   6   0  24    0.09    0.06   1
  24  -6   0    0.01    0.03   1
  24  -6   0   -0.03    0.02   1
  24   6   0    0.05    0.03   1
 -24  -6  -2    0.00    0.05   1
 -24  -6   2    0.13    0.05   1
  -6  -2  24    0.02    0.06   1
  -6  -2  24   -0.03    0.04   1
  -6   2  24    0.07    0.04   1
  -2  24  -6   -0.03    0.05   1
  -2  24   6   -0.10    0.04   1
   2  24  -6    0.27    0.05   1
   2  24   6   -0.05    0.05   1
   6  -2  24   -0.02    0.05   1
   6   2  24   -0.10    0.05   1
  24  -6   2    0.04    0.04   1
  24  -6   2   -0.06    0.02   1
  24   6  -2   -0.06    0.03   1
  24   6   2   -0.05    0.03   1
 -24  -6  -4    0.59    0.07   1
 -24  -6   4    0.56    0.06   1
  -6  -4  24    0.48    0.07   1
  -6   4  24    0.49    0.07   1
  -4  24  -6    0.41    0.06   1
  -4  24   6    0.39    0.06   1
   4  24  -6    0.52    0.06   1
   4  24   6    0.57    0.07   1
   6  -4 -24    0.47    0.08   1
   6  -4  24    0.58    0.07   1
   6   4  24    0.72    0.09   1
  24  -6   4    0.53    0.06   1
  24  -6   4    0.52    0.06   1
  24   6  -4    0.54    0.05   1
  24   6   4    0.52    0.06   1
 -24  -6  -6    0.35    0.07   1
 -24  -6   6    0.50    0.05   1
  -6  -6  24    0.47    0.07   1
  -6   6  24    0.49    0.07   1
  -6  24  -6    0.47    0.07   1
  -6  24   6    0.35    0.06   1
   6  -6 -24    0.72    0.08   1
   6  -6  24    0.49    0.07   1
   6   6  24    0.46    0.07   1
   6  24  -6    0.44    0.07   1
   6  24   6    0.58    0.07   1
  24  -6   6    0.53    0.07   1
  24  -6   6    0.54    0.06   1
  24   6  -6    0.48    0.05   1
  24   6   6    0.45    0.05   1
 -24  -6  -8    0.25    0.07   1
  -8  24  -6    0.15    0.06   1
  -8  24   6    0.19    0.07   1
  -6  -8  24    0.26    0.06   1
  -6   8  24    0.17    0.05   1
   6  -8 -24    0.31    0.07   1
   6  -8  24    0.14    0.06   1
   6   8  24    0.24    0.06   1
   8  24  -6    0.00    0.05   1
   8  24   6    0.18    0.05   1
  24  -6   8    0.18    0.06   1
  24  -6   8    0.18    0.04   1
  24   6  -8    0.15    0.03   1
  24   6   8    0.16    0.04   1
 -24  -6  10   -0.02    0.04   1
 -10  24  -6   -0.08    0.06   1
 -10  24   6    0.07    0.06   1
  -6 -10  24    0.02    0.06   1
  -6  10  24   -0.04    0.05   1
   6 -10 -24   -0.04    0.06   1
   6 -10  24    0.14    0.06   1
   6  10  24    0.02    0.05   1
  10  24  -6    0.02    0.06   1
  10  24   6    0.00    0.05   1
  24  -6  10   -0.01    0.06   1
  24  -6  10    0.03    0.04   1
  24   6 -10    0.03    0.03   1
  24   6  10    0.01    0.04   1
 -12  24  -6    0.01    0.06   1
 -12  24   6    0.00    0.05   1
  -6 -12  24    0.10    0.06   1
  -6  12  24    0.01    0.05   1
   6 -12  24    0.06    0.06   1
   6  12  24    0.00    0.06   1
  12 -24  -6    0.03    0.07   1
  12  24  -6   -0.13    0.06   1
  24  -6  12    0.04    0.05   1
  24   6  12   -0.13    0.06   1
 -24  -6  14    0.15    0.03   1
 -14  24  -6    0.19    0.07   1
 -14  24   6    0.12    0.05   1
  -6 -14  24    0.24    0.06   1
  -6  14  24    0.17    0.06   1
   6 -14  24    0.24    0.07   1
   6  14  24    0.23    0.07   1
  14 -24  -6    0.18    0.07   1
  14  24  -6    0.20    0.06   1
  14  24   6    0.11    0.06   1
  24   6  14    0.10    0.06   1
 -16  24   6    0.55    0.06   1
  -6 -16  24    0.31    0.08   1
   6 -16  24    0.51    0.09   1
   6  16  24    0.52    0.08   1
  16  24  -6    0.51    0.07   1
  16  24   6    0.42    0.07   1
  24  -6  16    0.47    0.07   1
  24   6  16    0.47    0.07   1
 -18  24   6    0.17    0.06   1
  -6 -18  24    0.28    0.08   1
  -6  18  24    0.14    0.07   1
   6 -18  24    0.09    0.09   1
   6  18  24    0.16    0.08   1
  18 -24   6    0.18    0.07   1
  18  24  -6    0.19    0.07   1
  18  24   6    0.07    0.07   1
  24  -6  18    0.06    0.07   1
  24   6  18    0.00    0.07   1
  -6 -20  24    0.10    0.09   1
  -6  20  24   -0.01    0.07   1
   6 -20  24    0.02    0.09   1
   6  20  24   -0.18    0.08   1
  20 -24   6    0.05    0.07   1
  20  24  -6    0.17    0.08   1
  20  24   6    0.20    0.08   1
  24  -6  20    0.08    0.08   1
  24   6  20   -0.03    0.07   1
  -6 -22  24    0.15    0.10   1
  -6  22  24   -0.15    0.07   1
   6 -22  24   -0.25    0.09   1
   6  22  24    0.00    0.09   1
  22 -24   6    0.06    0.09   1
  22  24  -6   -0.07    0.09   1
  22  24   6   -0.13    0.09   1
  24  -6  22   -0.03    0.09   1
  24   6  22   -0.21    0.09   1
 -24  -8   0    0.30    0.06   1
  -8   0  24    0.27    0.07   1
  -8   0  24    0.25    0.06   1
   0  24  -8    0.17    0.05   1
   0  24   8    0.33    0.06   1
   8   0  24    0.30    0.06   1
  24  -8   0    0.28    0.04   1
  24  -8   0    0.28    0.03   1
  24   8   0    0.24    0.05   1
 -24  -8  -2    0.15    0.06   1
 -24  -8   2    0.20    0.06   1
  -8  -2  24    0.11    0.07   1
  -8  -2  24    0.25    0.05   1
  -8   2  24    0.11    0.06   1
  -8   2  24    0.02    0.04   1
  -2  24  -8    0.14    0.05   1
  -2  24   8    0.13    0.05   1
   2  24  -8    0.11    0.05   1
   2  24   8    0.02    0.05   1
   8  -2  24    0.24    0.06   1
   8   2  24    0.08    0.06   1
  24  -8   2    0.06    0.04   1
  24  -8   2    0.09    0.03   1
  24   8  -2    0.11    0.03   1
  24   8   2    0.11    0.04   1
 -24  -8  -4    0.14    0.07   1
 -24  -8   4    0.29    0.05   1
  -8  -4  24   -0.02    0.06   1
  -8  -4  24    0.07    0.05   1
  -8   4  24    0.06    0.05   1
  -4  24  -8    0.15    0.06   1
  -4  24   8    0.09    0.05   1
   4  24  -8    0.16    0.05   1
   4  24   8    0.15    0.05   1
   8  -4  24    0.26    0.07   1
   8   4  24    0.05    0.05   1
  24  -8   4    0.16    0.05   1
  24  -8   4    0.17    0.03   1
  24   8  -4    0.09    0.03   1
  24   8   4    0.05    0.04   1
 -24  -8  -6    0.27    0.07   1
 -24  -8   6    0.19    0.05   1
  -8  -6  24    0.31    0.06   1
  -8   6  24    0.23    0.05   1
  -6  24  -8    0.07    0.06   1
  -6  24   8    0.12    0.05   1
   6  24  -8    0.29    0.06   1
   6  24   8    0.21    0.06   1
   8  -6 -24    0.20    0.07   1
   8  -6  24    0.34    0.07   1
   8   6  24    0.25    0.06   1
  24  -8   6    0.22    0.05   1
  24  -8   6    0.16    0.04   1
  24   8  -6    0.15    0.03   1
  24   8   6    0.15    0.05   1
 -24  -8   8    0.05    0.05   1
  -8  -8  24   -0.13    0.05   1
  -8   8  24   -0.02    0.05   1
  -8  24  -8    0.02    0.06   1
  -8  24   8   -0.02    0.05   1
   8  -8 -24   -0.03    0.07   1
   8  -8  24    0.11    0.06   1
   8   8  24    0.11    0.06   1
   8  24  -8   -0.03    0.05   1
   8  24   8    0.07    0.06   1
  24  -8   8   -0.03    0.06   1
  24  -8   8    0.07    0.04   1
  24   8  -8    0.03    0.03   1
  24   8   8   -0.01    0.04   1
 -24  -8  10    0.17    0.05   1
 -10  24  -8    0.17    0.07   1
 -10  24   8    0.18    0.06   1
  -8  10  24    0.25    0.06   1
   8 -10 -24    0.38    0.08   1
   8 -10  24    0.12    0.06   1
   8  10  24    0.14    0.07   1
  10  24  -8    0.25    0.05   1
  10  24   8    0.31    0.07   1
  24  -8  10    0.27    0.07   1
  24  -8  10    0.34    0.05   1
  24   8 -10    0.25    0.04   1
  24   8  10    0.13    0.05   1
 -12  24  -8    0.20    0.07   1
 -12  24   8    0.22    0.06   1
  -8 -12  24    0.29    0.07   1
  -8  12  24    0.17    0.05   1
   8 -12 -24    0.26    0.07   1
   8 -12  24    0.33    0.07   1
   8  12  24    0.25    0.07   1
  12 -24  -8    0.29    0.07   1
  12  24  -8    0.09    0.06   1
  12  24   8    0.33    0.07   1
  24  -8  12    0.34    0.06   1
  24   8 -12    0.22    0.04   1
  24   8  12    0.22    0.06   1
 -14  24  -8    0.02    0.06   1
 -14  24   8    0.01    0.05   1
  -8 -14  24    0.01    0.06   1
  -8  14  24   -0.02    0.06   1
   8 -14  24   -0.17    0.06   1
   8  14  24   -0.01    0.06   1
  14 -24  -8   -0.02    0.07   1
  14  24  -8    0.01    0.06   1
  14  24   8    0.08    0.06   1
  24  -8  14    0.20    0.06   1
  24   8  14   -0.14    0.06   1
 -16  24   8    0.08    0.06   1
  -8 -16  24    0.18    0.07   1
  -8  16  24   -0.04    0.06   1
   8 -16  24    0.19    0.08   1
   8  16  24    0.06    0.07   1
  16 -24   8    0.06    0.06   1
  16  24  -8    0.10    0.06   1
  16  24   8    0.07    0.07   1
  24  -8  16    0.06    0.06   1
  24   8  16    0.07    0.06   1
 -18  24   8   -0.04    0.05   1
  -8 -18  24   -0.09    0.08   1
   8 -18  24    0.11    0.08   1
   8  18  24    0.10    0.08   1
  18 -24   8    0.22    0.07   1
  18  24  -8   -0.08    0.07   1
  18  24   8    0.15    0.08   1
  24  -8  18    0.04    0.07   1
  24   8  18    0.01    0.07   1
  -8 -20  24    0.03    0.09   1
  -8  20  24    0.22    0.08   1
   8 -20  24   -0.15    0.09   1
   8  20  24    0.07    0.08   1
  20 -24   8    0.21    0.09   1
  20  24  -8    0.07    0.08   1
  20  24   8   -0.08    0.09   1
  24  -8  20   -0.04    0.08   1
  24   8  20    0.04    0.08   1
  -8 -22  24    0.00    0.09   1
  -8  22  24    0.10    0.08   1
   8 -22  24    0.23    0.12   1
   8  22  24    0.08    0.10   1
  22 -24   8    0.18    0.11   1
  22  24  -8    0.15    0.10   1
  22  24   8    0.03    0.10   1
  24  -8  22    0.01    0.10   1
  24   8  22    0.20    0.10   1
 -24 -10   0    0.56    0.08   1
 -10   0  24    0.56    0.08   1
 -10   0  24    0.57    0.07   1
   0  24 -10    0.65    0.08   1
   0  24  10    0.58    0.08   1
  10   0  24    0.56    0.08   1
  24 -10   0    0.61    0.06   1
  24 -10   0    0.60    0.04   1
  24  10   0    0.55    0.06   1
 -24 -10  -2    0.56    0.08   1
 -24 -10   2    0.42    0.07   1
 -10  -2  24    0.40    0.07   1
 -10  -2  24    0.48    0.06   1
 -10   2  24    0.47    0.07   1
 -10   2  24    0.45    0.06   1
  -2  24 -10    0.47    0.07   1
   2  24 -10    0.30    0.06   1
   2  24  10    0.65    0.07   1
  10  -2  24    0.50    0.08   1
  10   2  24    0.40    0.06   1
  24 -10   2    0.50    0.05   1
  24 -10   2    0.44    0.05   1
  24  10  -2    0.43    0.06   1
  24  10   2    0.60    0.07   1
 -24 -10  -4    0.10    0.06   1
 -24 -10   4    0.04    0.06   1
 -10  -4  24   -0.13    0.07   1
 -10  -4  24    0.07    0.05   1
 -10   4  24    0.05    0.06   1
 -10   4  24    0.03    0.05   1
  -4  24 -10    0.10    0.06   1
  -4  24  10    0.00    0.05   1
   4  24 -10   -0.08    0.05   1
   4  24  10    0.00    0.06   1
  10  -4  24    0.04    0.06   1
  10   4  24    0.01    0.05   1
  24 -10   4   -0.02    0.04   1
  24 -10   4    0.02    0.03   1
  24  10  -4    0.03    0.04   1
  24  10   4   -0.04    0.04   1
 -24 -10   6   -0.06    0.06   1
 -10  -6  24    0.02    0.08   1
 -10  -6  24    0.00    0.05   1
 -10   6  24    0.05    0.05   1
  -6  24 -10   -0.04    0.06   1
   6  24 -10   -0.10    0.05   1
   6  24  10    0.01    0.06   1
  10  -6  24    0.03    0.06   1
  10   6  24    0.08    0.05   1
  24 -10   6    0.05    0.06   1
  24 -10   6    0.03    0.04   1
  24  10  -6   -0.04    0.04   1
  24  10   6   -0.05    0.04   1
 -24 -10   8    0.26    0.07   1
 -10  -8  24    0.33    0.06   1
 -10   8  24    0.16    0.05   1
  -8  24 -10    0.22    0.07   1
  -8  24  10    0.16    0.06   1
   8  24 -10    0.17    0.06   1
   8  24  10    0.29    0.07   1
  10  -8 -24    0.13    0.07   1
  10  -8  24    0.24    0.06   1
  10   8  24    0.23    0.06   1
  24 -10   8    0.29    0.07   1
  24 -10   8    0.31    0.05   1
  24  10  -8    0.19    0.04   1
  24  10   8    0.11    0.05   1
 -24 -10  10    0.75    0.08   1
 -10 -10  24    1.00    0.12   1
 -10  10  24    0.79    0.09   1
 -10  24 -10    0.89    0.10   1
 -10  24  10    0.86    0.10   1
  10 -10 -24    0.75    0.09   1
  10 -10  24    1.31    0.12   1
  10  10  24    1.10    0.12   1
  10  24 -10    1.06    0.10   1
  10  24  10    0.95    0.12   1
  24 -10  10    0.97    0.11   1
  24 -10  10    0.74    0.08   1
  24  10 -10    0.99    0.07   1
  24  10  10    0.74    0.07   1
 -12  24 -10    0.64    0.09   1
 -12  24  10    0.72    0.07   1
 -10 -12  24    0.64    0.08   1
 -10  12  24    0.57    0.07   1
  10 -12 -24    0.43    0.08   1
  10 -12  24    0.76    0.09   1
  10  12  24    0.64    0.09   1
  12 -24 -10    0.55    0.08   1
  12  24 -10    0.56    0.07   1
  12  24  10    0.66    0.08   1
  24 -10  12    0.82    0.09   1
  24  10 -12    0.57    0.05   1
  24  10  12    0.83    0.08   1
 -14  24  10    0.09    0.06   1
 -10 -14  24    0.02    0.07   1
 -10  14  24    0.10    0.06   1
  10 -14  24    0.20    0.07   1
  10  14  24    0.02    0.07   1
  14  24 -10    0.09    0.06   1
  14  24  10    0.27    0.08   1
  24 -10  14    0.13    0.06   1
  24  10 -14    0.06    0.05   1
  24  10  14   -0.04    0.06   1
 -16  24  10   -0.12    0.05   1
 -10 -16  24   -0.07    0.07   1
 -10  16  24   -0.11    0.06   1
  10 -16  24    0.09    0.08   1
  10  16  24    0.04    0.08   1
  16 -24  10    0.10    0.06   1
  16  24 -10   -0.04    0.06   1
  16  24  10   -0.06    0.08   1
  24 -10  16   -0.09    0.06   1
  24  10  16   -0.11    0.07   1
 -10 -18  24    0.05    0.09   1
 -10  18  24    0.15    0.06   1
  10 -18  24   -0.05    0.08   1
  10  18  24   -0.14    0.08   1
  18 -24  10    0.24    0.08   1
  18  24 -10    0.02    0.07   1
  18  24  10    0.25    0.09   1
  24 -10  18    0.15    0.07   1
  24  10  18    0.17    0.07   1
 -10 -20  24    0.37    0.10   1
 -10  20  24    0.17    0.08   1
  10 -20  24    0.38    0.10   1
  10  20  24    0.39    0.10   1
  20 -24  10    0.34    0.09   1
  20  24 -10    0.44    0.10   1
  20  24  10    0.19    0.11   1
  24 -10  20    0.28    0.09   1
  24  10  20    0.40    0.10   1
 -10 -22  24    0.43    0.11   1
 -10  22  24    0.61    0.11   1
  10 -22  24    0.15    0.12   1
  10  22  24    0.19    0.11   1
  22 -24  10    0.43    0.11   1
  22  24 -10    0.35    0.13   1
  22  24  10    0.22    0.12   1
  24 -10  22    0.33    0.11   1
  24  10  22    0.30    0.12   1
 -24 -12   0    0.60    0.08   1
 -12   0  24    0.57    0.08   1
 -12   0  24    0.70    0.07   1
   0  24 -12    0.72    0.09   1
   0  24  12    0.86    0.09   1
  12   0  24    0.93    0.10   1
  24 -12   0    0.94    0.08   1
  24 -12   0    0.73    0.05   1
  24  12   0    0.46    0.06   1
 -24 -12   2    0.40    0.08   1
 -12  -2  24    0.39    0.08   1
 -12  -2  24    0.31    0.06   1
 -12   2  24    0.29    0.07   1
 -12   2  24    0.32    0.05   1
  -2  24 -12    0.33    0.07   1
  -2  24  12    0.33    0.06   1
   2  24 -12    0.34    0.07   1
   2  24  12    0.41    0.07   1
  12  -2  24    0.39    0.07   1
  12   2  24    0.24    0.07   1
  24 -12  -2    0.33    0.03   1
  24 -12  -2    0.39    0.04   1
  24 -12   2    0.47    0.06   1
  24 -12   2    0.39    0.04   1
  24  12  -2    0.46    0.05   1
  24  12   2    0.31    0.05   1
 -24 -12   4   -0.15    0.07   1
 -12  -4  24    0.08    0.07   1
 -12  -4  24    0.15    0.05   1
 -12   4  24   -0.12    0.06   1
 -12   4  24   -0.07    0.04   1
  -4  24 -12    0.03    0.07   1
   4  24 -12    0.03    0.06   1
   4  24  12   -0.02    0.06   1
  12  -4  24   -0.14    0.06   1
  12   4  24    0.02    0.06   1
  24 -12   4    0.09    0.05   1
  24 -12   4    0.10    0.03   1
  24  12  -4    0.05    0.05   1
  24  12   4    0.08    0.05   1
 -24 -12   6    0.12    0.07   1
 -12  -6  24   -0.01    0.07   1
 -12  -6  24   -0.02    0.05   1
 -12   6  24    0.01    0.06   1
 -12   6  24   -0.01    0.04   1
  -6  24 -12   -0.02    0.06   1
  -6  24  12   -0.01    0.05   1
   6  24 -12    0.12    0.05   1
   6  24  12    0.07    0.06   1
  12  -6  24    0.17    0.06   1
  12   6  24   -0.16    0.05   1
  24 -12   6    0.00    0.06   1
  24 -12   6    0.11    0.04   1
  24  12  -6   -0.07    0.04   1
  24  12   6    0.03    0.05   1
 -24 -12   8    0.32    0.08   1
 -12  -8  24    0.23    0.06   1
 -12   8  24    0.15    0.05   1
  -8  24 -12    0.14    0.07   1
  -8  24  12    0.17    0.06   1
   8  24 -12    0.19    0.06   1
   8  24  12    0.28    0.07   1
  12   8  24    0.11    0.06   1
  24 -12   8    0.33    0.08   1
  24 -12   8    0.17    0.05   1
  24  12  -8    0.15    0.05   1
  24  12   8    0.29    0.06   1
 -12 -10  24    0.75    0.08   1
 -12  10  24    0.57    0.07   1
 -10  24  12    0.79    0.10   1
  10  24 -12    0.66    0.07   1
  10  24  12    0.60    0.08   1
  12 -10  24    0.63    0.09   1
  12  10  24    0.53    0.08   1
  24 -12  10    0.72    0.07   1
  24  12 -10    0.80    0.08   1
  24  12  10    0.75    0.08   1
 -12 -12  24    0.48    0.08   1
 -12  12  24    0.70    0.07   1
 -12  24  12    0.60    0.07   1
  12 -12  24    0.32    0.07   1
  12  12  24    0.62    0.09   1
  12  24 -12    0.43    0.07   1
  12  24  12    0.51    0.09   1
  24 -12  12    0.61    0.07   1
  24  12 -12    0.61    0.06   1
  24  12  12    0.59    0.07   1
 -14  24  12    0.14    0.06   1
 -12 -14  24   -0.09    0.07   1
 -12  14  24    0.15    0.05   1
  12 -14  24    0.11    0.07   1
  12  14  24    0.10    0.07   1
  14 -24  12    0.11    0.06   1
  14  24 -12   -0.05    0.06   1
  14  24  12   -0.11    0.07   1
  24 -12  14    0.08    0.06   1
  24  12 -14    0.07    0.06   1
  24  12  14    0.01    0.06   1
 -16  24  12    0.04    0.06   1
 -12 -16  24   -0.08    0.07   1
 -12  16  24   -0.04    0.06   1
  12 -16  24   -0.03    0.07   1
  12  16  24    0.00    0.07   1
  16 -24  12    0.05    0.07   1
  16  24 -12   -0.06    0.07   1
  16  24  12    0.03    0.08   1
  24 -12  16    0.00    0.07   1
  24  12 -16    0.01    0.06   1
 -12 -18  24    0.00    0.08   1
 -12  18  24    0.06    0.08   1
  12 -18  24   -0.10    0.09   1
  12  18  24   -0.02    0.08   1
  18 -24  12    0.08    0.08   1
  18  24 -12    0.23    0.09   1
  18  24  12    0.01    0.09   1
  24 -12  18    0.01    0.08   1
  24  12  18    0.09    0.08   1
 -12 -20  24    0.32    0.09   1
  12 -20  24    0.18    0.10   1
  12  20  24    0.09    0.10   1
  20 -24  12    0.33    0.11   1
  20  24 -12    0.15    0.10   1
  20  24  12    0.41    0.11   1
  24 -12  20    0.57    0.11   1
  24  12  20    0.08    0.10   1
 -12 -22  24    0.11    0.10   1
  22 -24  12    0.38    0.13   1
  22  24 -12    0.49    0.14   1
  22  24  12    0.20    0.13   1
  24 -12  22    0.48    0.13   1
  24  12  22    0.19    0.13   1
 -14   0  24    0.17    0.06   1
 -14   0  24    0.17    0.05   1
   0  24 -14    0.17    0.07   1
   0  24  14    0.18    0.06   1
  24 -14   0    0.18    0.03   1
  24  14   0    0.16    0.05   1
 -14  -2  24    0.10    0.07   1
 -14  -2  24    0.02    0.05   1
 -14   2  24   -0.04    0.06   1
 -14   2  24    0.02    0.05   1
  -2  24 -14    0.14    0.07   1
  -2  24  14    0.09    0.06   1
   2  24 -14    0.21    0.07   1
   2  24  14   -0.10    0.07   1
  14  -2  24    0.06    0.06   1
  14   2  24    0.16    0.06   1
  24 -14  -2    0.04    0.02   1
  24 -14   2    0.10    0.05   1
  24 -14   2    0.00    0.03   1
  24  14  -2   -0.03    0.05   1
  24  14   2   -0.06    0.05   1
 -24 -14   4    0.19    0.09   1
 -14  -4  24    0.19    0.07   1
 -14  -4  24    0.23    0.06   1
 -14   4  24    0.25    0.05   1
  -4  24 -14    0.54    0.08   1
  -4  24  14    0.52    0.08   1
   4  24 -14    0.37    0.07   1
   4  24  14    0.42    0.07   1
  14  -4  24    0.11    0.07   1
  14   4  24    0.32    0.07   1
  24 -14   4    0.25    0.06   1
  24 -14   4    0.26    0.05   1
  24  14  -4    0.22    0.05   1
 -24 -14   6   -0.04    0.07   1
 -14  -6  24    0.01    0.08   1
 -14  -6  24    0.31    0.06   1
 -14   6  24    0.15    0.05   1
  -6  24 -14    0.15    0.07   1
  -6  24  14    0.01    0.07   1
   6  24 -14    0.20    0.08   1
   6  24  14    0.25    0.07   1
  14  -6  24    0.11    0.07   1
  14   6  24    0.38    0.07   1
  24 -14   6    0.13    0.07   1
  24 -14   6    0.22    0.05   1
  24  14  -6    0.17    0.05   1
  24  14   6    0.20    0.06   1
 -24 -14   8   -0.16    0.07   1
 -14  -8  24    0.13    0.06   1
 -14   8  24    0.01    0.04   1
  -8  24 -14    0.28    0.08   1
  -8  24  14    0.08    0.05   1
   8  24 -14    0.11    0.07   1
   8  24  14    0.06    0.07   1
  14  -8  24    0.16    0.07   1
  14   8  24    0.00    0.06   1
  24 -14   8   -0.10    0.07   1
  24 -14   8    0.11    0.05   1
  24  14  -8   -0.08    0.05   1
 -14 -10  24    0.14    0.06   1
 -14  10  24    0.08    0.05   1
 -10  24  14    0.25    0.06   1
  10  24 -14   -0.05    0.07   1
  10  24  14   -0.03    0.07   1
  14 -10  24    0.09    0.07   1
  14  10  24    0.24    0.07   1
  24 -14  10    0.21    0.06   1
  24  14 -10    0.17    0.05   1
  24  14  10    0.19    0.07   1
 -14 -12  24    0.24    0.07   1
 -14  12  24    0.18    0.05   1
 -12  24  14    0.14    0.06   1
  12 -24  14    0.05    0.06   1
  12  24 -14    0.04    0.07   1
  12  24  14    0.16    0.08   1
  14 -12  24    0.22    0.08   1
  14  12  24   -0.01    0.07   1
  24 -14  12    0.21    0.08   1
  24  14 -12    0.03    0.06   1
  24  14  12    0.07    0.07   1
 -14 -14  24    0.06    0.07   1
 -14  24  14    0.07    0.06   1
  14 -24  14    0.04    0.07   1
  14 -14  24    0.24    0.08   1
  14  14  24    0.03    0.08   1
  14  24 -14    0.03    0.08   1
  14  24  14   -0.13    0.08   1
  24 -14  14    0.10    0.07   1
  24  14 -14   -0.01    0.06   1
  24  14  14   -0.05    0.07   1
 -14 -16  24   -0.21    0.07   1
  14 -16  24   -0.10    0.08   1
  14  16  24   -0.07    0.08   1
  16 -24  14    0.00    0.08   1
  16  24 -14    0.27    0.09   1
  16  24  14    0.12    0.08   1
  24 -14  16    0.12    0.08   1
  24  14 -16   -0.13    0.08   1
  24  14  16    0.05    0.08   1
 -14 -18  24    0.21    0.09   1
  14 -18  24    0.08    0.10   1
  14  18  24    0.05    0.09   1
  18 -24  14    0.11    0.09   1
  18  24 -14    0.02    0.10   1
  18  24  14    0.13    0.09   1
  24 -14  18    0.07    0.09   1
  24  14  18    0.04    0.09   1
 -14 -20  24   -0.02    0.10   1
  14 -20  24    0.00    0.11   1
  20 -24  14    0.09    0.12   1
  20  24 -14    0.13    0.13   1
  20  24  14    0.26    0.12   1
  24 -14  20    0.23    0.11   1
 -16   0  24    0.00    0.04   1
   0  24 -16    0.13    0.07   1
   0  24  16   -0.10    0.07   1
  16   0  24    0.03    0.06   1
  24 -16   0    0.03    0.03   1
  24  16   0    0.02    0.07   1
 -16   2  24    0.05    0.04   1
  -2  24 -16    0.19    0.08   1
  -2  24  16   -0.12    0.06   1
   2  24 -16   -0.10    0.07   1
   2  24  16   -0.02    0.07   1
  16  -2  24    0.01    0.06   1
  16   2  24    0.02    0.06   1
  24 -16  -2   -0.02    0.03   1
  24 -16   2   -0.02    0.03   1
  24  16  -2    0.00    0.06   1
  24  16   2    0.10    0.06   1
 -16  -4  24    0.42    0.06   1
 -16   4  24    0.40    0.05   1
  -4  24 -16    0.72    0.09   1
  -4  24  16    0.49    0.07   1
   4  24 -16    0.52    0.08   1
   4  24  16    0.57    0.08   1
  16  -4  24    0.47    0.07   1
  16   4  24    0.40    0.07   1
  24 -16   4    0.51    0.06   1
  24  16  -4    0.45    0.06   1
  24  16   4    0.54    0.07   1
 -16  -6  24    0.51    0.07   1
 -16   6  24    0.39    0.05   1
  -6  24 -16    0.52    0.09   1
  -6  24  16    0.35    0.07   1
   6  24 -16    0.56    0.08   1
   6  24  16    0.53    0.08   1
  16  -6  24    0.61    0.09   1
  16   6  24    0.67    0.08   1
  24 -16   6    0.40    0.06   1
  24  16  -6    0.47    0.07   1
  24  16   6    0.32    0.07   1
 -16  -8  24    0.11    0.06   1
  -8  24  16    0.11    0.07   1
   8 -24  16    0.23    0.06   1
   8  24 -16   -0.08    0.07   1
   8  24  16    0.05    0.07   1
  16  -8  24    0.31    0.08   1
  16   8  24   -0.04    0.07   1
  24 -16   8    0.13    0.05   1
  24  16  -8    0.08    0.06   1
  24  16   8    0.03    0.06   1
 -16 -10  24    0.07    0.06   1
 -10  24  16    0.08    0.06   1
  10 -24  16    0.13    0.08   1
  10  24 -16   -0.17    0.07   1
  10  24  16    0.32    0.08   1
  16 -10  24   -0.01    0.07   1
  16  10  24   -0.09    0.07   1
  24 -16  10    0.05    0.06   1
  24  16 -10   -0.05    0.06   1
  24  16  10    0.08    0.07   1
 -16 -12  24    0.00    0.07   1
 -12  24  16    0.07    0.06   1
  12 -24  16    0.02    0.07   1
  12  24 -16    0.20    0.08   1
  12  24  16   -0.03    0.08   1
  16 -12  24    0.10    0.08   1
  16  12  24   -0.21    0.07   1
  24 -16  12   -0.11    0.07   1
  24  16 -12   -0.03    0.06   1
  24  16  12    0.10    0.08   1
 -16 -14  24   -0.05    0.07   1
 -14  24  16    0.04    0.06   1
  14 -24  16    0.11    0.08   1
  14  24 -16   -0.11    0.09   1
  14  24  16    0.18    0.08   1
  16 -14  24   -0.25    0.09   1
  16  14  24   -0.02    0.09   1
  24 -16  14    0.12    0.08   1
  24  16 -14   -0.12    0.07   1
  24  16  14    0.17    0.09   1
 -16 -16  24   -0.02    0.08   1
  16 -24  16    0.39    0.10   1
  16 -16  24    0.35    0.10   1
  16  16  24    0.14    0.09   1
  16  24 -16    0.43    0.11   1
  16  24  16    0.39    0.10   1
  24 -16  16    0.30    0.10   1
  24  16  16    0.04    0.09   1
 -16 -18  24    0.17    0.10   1
  16 -18  24    0.36    0.11   1
  16  18  24   -0.01    0.11   1
  18 -24  16    0.07    0.11   1
  18  24 -16    0.16    0.12   1
  18  24  16    0.27    0.11   1
  24 -16  18    0.43    0.12   1
  24  16  18    0.14    0.11   1
   0  24 -18    0.29    0.08   1
   0  24  18    0.14    0.07   1
  18   0  24   -0.04    0.06   1
  24 -18   0    0.10    0.04   1
  24  18   0    0.14    0.07   1
 -18  -2  24    0.09    0.05   1
  -2  24 -18   -0.17    0.08   1
  -2  24  18    0.09    0.07   1
   2  24 -18    0.10    0.08   1
   2  24  18    0.06    0.07   1
  18  -2  24   -0.02    0.07   1
  18   2  24    0.06    0.07   1
  24 -18   2    0.02    0.04   1
  24  18  -2   -0.02    0.07   1
  24  18   2    0.10    0.07   1
 -18  -4  24    0.13    0.06   1
  -4  24  18    0.18    0.07   1
   4  24 -18    0.23    0.08   1
   4  24  18    0.27    0.08   1
  18  -4  24    0.28    0.08   1
  18   4  24    0.02    0.07   1
  24 -18   4    0.20    0.06   1
  24  18  -4    0.14    0.07   1
  24  18   4    0.09    0.07   1
 -18  -6  24    0.29    0.06   1
  -6  24  18    0.22    0.08   1
   6 -24  18    0.33    0.07   1
   6  24 -18    0.33    0.09   1
   6  24  18    0.38    0.09   1
  18  -6  24    0.34    0.08   1
  18   6  24    0.30    0.08   1
  24 -18   6    0.26    0.05   1
  24  18  -6    0.29    0.08   1
  24  18   6    0.35    0.08   1
 -18  -8  24    0.21    0.07   1
  -8  24  18   -0.07    0.06   1
   8 -24  18   -0.03    0.07   1
   8  24  18   -0.07    0.08   1
  18  -8  24    0.06    0.07   1
  18   8  24   -0.14    0.07   1
  24 -18   8    0.04    0.06   1
  24  18  -8   -0.11    0.07   1
  24  18   8    0.09    0.07   1
 -18 -10  24    0.08    0.07   1
 -10  24  18    0.22    0.08   1
  10 -24  18    0.05    0.08   1
  10  24 -18   -0.07    0.09   1
  10  24  18    0.17    0.09   1
  18 -10  24   -0.11    0.08   1
  18  10  24   -0.06    0.08   1
  24 -18  10    0.07    0.07   1
  24  18 -10    0.06    0.08   1
  24  18  10   -0.06    0.08   1
 -18 -12  24   -0.02    0.07   1
 -12  24  18    0.04    0.06   1
  12 -24  18   -0.03    0.08   1
  12  24 -18   -0.19    0.09   1
  12  24  18    0.09    0.09   1
  18 -12  24    0.16    0.09   1
  18  12  24    0.13    0.09   1
  24 -18  12    0.26    0.09   1
  24  18 -12    0.06    0.09   1
  24  18  12   -0.20    0.08   1
 -18 -14  24    0.07    0.08   1
  14 -24  18   -0.07    0.09   1
  14  24 -18   -0.15    0.10   1
  14  24  18    0.08    0.11   1
  18 -14  24    0.05    0.10   1
  18  14  24   -0.03    0.10   1
  24 -18  14    0.38    0.10   1
  24  18 -14    0.04    0.10   1
  24  18  14   -0.23    0.09   1
 -18 -16  24    0.06    0.09   1
  16 -24  18    0.11    0.11   1
  16  24 -18    0.04    0.12   1
  16  24  18    0.07    0.11   1
  18 -16  24   -0.04    0.11   1
  18  16  24    0.21    0.12   1
  24 -18  16    0.10    0.11   1
  24  18 -16    0.27    0.12   1
  24  18  16    0.05    0.11   1
   0  24  20    0.34    0.08   1
  20   0  24    0.31    0.07   1
  24  20   0    0.01    0.08   1
  -2  24  20    0.30    0.09   1
   2 -24  20    0.24    0.08   1
   2  24 -20    0.56    0.10   1
   2  24  20    0.36    0.09   1
  20  -2  24    0.21    0.08   1
  20   2  24    0.32    0.08   1
  24 -20   2    0.21    0.05   1
  24  20  -2    0.04    0.07   1
  24  20   2    0.26    0.08   1
  -4  24  20    0.04    0.08   1
   4 -24  20   -0.08    0.08   1
   4  24 -20    1.43    0.15   1
   4  24  20    0.01    0.08   1
  20  -4  24   -0.04    0.07   1
  20   4  24   -0.10    0.08   1
  24 -20   4    0.06    0.06   1
  24  20  -4   -0.05    0.07   1
  24  20   4   -0.13    0.07   1
  -6  24  20    0.06    0.07   1
   6 -24  20   -0.01    0.08   1
   6  24  20    0.22    0.08   1
  20  -6  24    0.14    0.08   1
  20   6  24    0.23    0.08   1
  24 -20   6    0.09    0.06   1
  24  20  -6    0.04    0.09   1
  24  20   6   -0.01    0.09   1
  -8  24  20   -0.09    0.07   1
   8 -24  20    0.04    0.08   1
   8  24 -20    0.09    0.10   1
   8  24  20   -0.03    0.09   1
  20  -8  24    0.21    0.09   1
  20   8  24   -0.09    0.08   1
  24 -20   8   -0.06    0.08   1
  24  20  -8    0.01    0.09   1
  24  20   8    0.00    0.09   1
 -10  24  20    0.27    0.08   1
  10 -24  20    0.61    0.11   1
  10  24 -20    0.38    0.11   1
  10  24  20    0.24    0.10   1
  20 -10  24    0.40    0.10   1
  20  10  24    0.47    0.11   1
  24 -20  10    0.37    0.10   1
  24  20 -10    0.36    0.10   1
  24  20  10    0.22    0.10   1
  12 -24  20    0.52    0.10   1
  12  24 -20    0.04    0.11   1
  12  24  20    0.12    0.11   1
  20 -12  24    0.09    0.11   1
  20  12  24   -0.04    0.10   1
  24 -20  12    0.37    0.10   1
  24  20 -12    0.23    0.11   1
  24  20  12    0.18    0.11   1
  14 -24  20    0.04    0.11   1
  14  24 -20   -0.17    0.14   1
  14  24  20    0.17    0.14   1
  20 -14  24   -0.13    0.12   1
  20  14  24   -0.16    0.11   1
  24 -20  14    0.02    0.11   1
  24  20 -14    0.17    0.12   1
  24  20  14   -0.07    0.11   1
   0 -24  22    0.40    0.10   1
   0  24  22    0.73    0.10   1
  22   0  24    0.59    0.10   1
  24  22   0    0.64    0.10   1
  -2 -24  22    0.43    0.09   1
  -2  24  22    0.01    0.09   1
   2 -24  22    0.46    0.11   1
   2  24  22    0.44    0.09   1
  22  -2  24    0.37    0.09   1
  22   2  24    0.33    0.09   1
  24  22  -2    0.28    0.10   1
  24  22   2    0.48    0.09   1
  -4  24  22    0.04    0.08   1
   4 -24  22    0.10    0.09   1
   4  24  22    0.18    0.09   1
  22  -4  24   -0.05    0.09   1
  22   4  24    0.05    0.09   1
  24 -22   4    0.09    0.08   1
  24  22  -4   -0.01    0.09   1
  24  22   4    0.06    0.09   1
  -6  24  22    0.09    0.08   1
   6 -24  22    0.05    0.09   1
   6  24  22   -0.20    0.09   1
  22  -6  24   -0.20    0.09   1
  22   6  24   -0.02    0.09   1
  24 -22   6    0.12    0.08   1
  24  22  -6    0.04    0.10   1
  24  22   6    0.13    0.09   1
  -8  24  22    0.15    0.08   1
   8 -24  22    0.13    0.10   1
   8  24 -22    0.33    0.12   1
   8  24  22    0.03    0.10   1
  22  -8  24    0.28    0.10   1
  22   8  24    0.11    0.10   1
  24 -22   8    0.06    0.09   1
  24  22  -8    0.17    0.10   1
  24  22   8    0.09    0.11   1
 -10  24  22    0.49    0.08   1
  10 -24  22    0.40    0.12   1
  10  24 -22    0.49    0.14   1
  10  24  22    0.31    0.12   1
  22 -10  24    0.50    0.12   1
  22  10  24    0.45    0.12   1
  24 -22  10    0.55    0.11   1
  24  22 -10    0.35    0.11   1
  24  22  10    0.32    0.12   1
  12 -24  22    0.47    0.15   1
  12  24 -22    0.69    0.15   1
  22 -12  24    0.51    0.13   1
  22  12  24    0.34    0.15   1
  24 -22  12    0.26    0.12   1
  24  22 -12    0.36    0.13   1
  24  22  12    0.26    0.13   1
   0 -24  24    0.12    0.12   1
   0  24  24    0.15    0.10   1
  24   0  24   -0.04    0.09   1
  24  24   0    0.14    0.12   1
  -2 -24  24    0.14    0.12   1
  -2  24  24    0.14    0.09   1
   2 -24  24    0.22    0.11   1
   2  24  24    0.24    0.10   1
  24  -2  24    0.04    0.10   1
  24   2  24    0.36    0.11   1
  24  24  -2    0.14    0.11   1
  24  24   2   -0.04    0.11   1
  -4 -24  24    0.03    0.11   1
  -4  24  24   -0.04    0.09   1
   4 -24  24    0.02    0.13   1
   4  24  24    0.06    0.10   1
  24  -4  24   -0.02    0.10   1
  24   4  24   -0.24    0.10   1
  24  24  -4    0.08    0.12   1
  24  24   4    0.16    0.11   1
  -6 -24  24    0.00    0.11   1
  -6  24  24    0.04    0.09   1
   6  24  24    0.10    0.11   1
  24  -6  24    0.08    0.11   1
  24   6  24   -0.04    0.11   1
  24  24  -6    0.10    0.13   1
  24  24   6    0.04    0.11   1
 -25  -1  -1    1.03    0.08   1
 -25   1  -1    0.80    0.07   1
 -25   1   1    1.00    0.06   1
  -1  -1  25    1.25    0.09   1
  -1   1  25    1.02    0.09   1
  -1  25  -1    1.06    0.10   1
  -1  25   1    1.23    0.11   1
   1   1  25    1.06    0.11   1
   1  25  -1    1.07    0.11   1
   1  25   1    1.04    0.10   1
  25  -1  -1    1.04    0.05   1
  25  -1   1    0.90    0.05   1
  25   1  -1    0.90    0.05   1
  25   1   1    0.95    0.06   1
 -25  -1  -3    0.05    0.05   1
 -25  -1   3    0.03    0.03   1
 -25   1  -3    0.03    0.04   1
  -3  25  -1   -0.03    0.05   1
  -1  -3  25   -0.02    0.05   1
  -1   3  25   -0.01    0.04   1
   1  -3  25    0.08    0.06   1
   1   3  25   -0.05    0.04   1
   3  25  -1    0.04    0.05   1
   3  25   1    0.10    0.05   1
  25  -1   3   -0.02    0.03   1
  25   1  -3   -0.01    0.02   1
  25   1   3   -0.03    0.03   1
 -25  -1  -5    0.04    0.06   1
 -25   1  -5    0.04    0.05   1
  -5  25   1    0.08    0.08   1
  -1   5  25   -0.01    0.05   1
   1  -5  25   -0.02    0.06   1
   5  25  -1    0.06    0.05   1
   5  25   1    0.08    0.05   1
  25  -1   5    0.02    0.03   1
  25   1   5    0.06    0.04   1
 -25  -1  -7    0.10    0.06   1
 -25   1  -7   -0.02    0.05   1
  -7  25   1    0.05    0.05   1
  -1  -7  25   -0.07    0.05   1
  -1   7  25    0.07    0.05   1
   1  -7  25    0.05    0.06   1
   1   7  25    0.14    0.06   1
   7  25  -1    0.17    0.05   1
   7  25   1    0.08    0.06   1
  25  -1   7   -0.02    0.04   1
  25   1   7   -0.02    0.04   1
 -25  -1  -9    0.18    0.07   1
 -25   1  -9    0.10    0.07   1
  -9  25  -1    0.08    0.08   1
  -9  25   1    0.21    0.06   1
  -1  -9  25    0.12    0.07   1
  -1   9  25    0.13    0.09   1
   1  -9  25    0.15    0.06   1
   1   9  25    0.27    0.07   1
   9  25  -1    0.24    0.05   1
   9  25   1    0.14    0.05   1
  25  -1   9    0.16    0.05   1
  25   1   9    0.15    0.05   1
 -11  25  -1    0.37    0.07   1
 -11  25   1    0.22    0.05   1
  -1 -11  25    0.41    0.07   1
  -1  11  25    0.44    0.08   1
   1 -11  25    0.24    0.08   1
   1  11  25    0.23    0.06   1
  11  25  -1    0.38    0.06   1
  11  25   1    0.52    0.07   1
  25  -1  11    0.42    0.05   1
  25   1  11    0.19    0.05   1
 -13  25  -1    0.03    0.06   1
 -13  25   1    0.12    0.05   1
  -1 -13  25    0.20    0.07   1
  -1  13  25   -0.03    0.06   1
   1 -13  25    0.24    0.08   1
   1  13  25   -0.11    0.06   1
  13  25  -1    0.04    0.06   1
  13  25   1    0.01    0.06   1
  25  -1  13    0.01    0.05   1
 -15  25  -1    0.02    0.06   1
 -15  25   1    0.13    0.06   1
  -1 -15  25   -0.14    0.07   1
  -1  15  25    0.07    0.07   1
   1 -15  25    0.07    0.07   1
   1  15  25   -0.06    0.07   1
  15  25  -1    0.07    0.06   1
  15  25   1    0.02    0.07   1
  25  -1  15   -0.02    0.06   1
  25   1  15   -0.11    0.06   1
 -17  25  -1    0.00    0.06   1
 -17  25   1    0.03    0.06   1
  -1 -17  25    0.00    0.07   1
  -1  17  25    0.04    0.07   1
   1 -17  25   -0.18    0.07   1
   1  17  25   -0.20    0.07   1
  17  25  -1   -0.08    0.07   1
  17  25   1   -0.04    0.07   1
  25  -1  17   -0.04    0.06   1
 -19  25   1    0.08    0.07   1
  -1 -19  25    0.04    0.08   1
  -1  19  25   -0.10    0.08   1
   1 -19  25   -0.02    0.08   1
   1  19  25   -0.08    0.07   1
  19  25  -1    0.01    0.08   1
  19  25   1   -0.20    0.08   1
  25  -1  19   -0.09    0.06   1
  25   1  19    0.18    0.08   1
  -1 -21  25    0.40    0.10   1
  -1  21  25    0.32    0.09   1
   1 -21  25    0.27    0.10   1
   1  21  25    0.15    0.08   1
  21 -25  -1    0.23    0.07   1
  21 -25   1    0.33    0.07   1
  21  25  -1    0.17    0.10   1
  21  25   1   -0.04    0.09   1
  25  -1  21    0.26    0.09   1
  25   1  21    0.22    0.09   1
  -1 -23  25    0.06    0.11   1
  -1  23  25    0.26    0.09   1
   1 -23  25    0.09    0.12   1
   1  23  25    0.16    0.10   1
  23  25  -1    0.11    0.11   1
  23  25   1    0.12    0.11   1
  25  -1  23    0.13    0.11   1
  25   1  23    0.36    0.12   1
 -25  -3  -1    0.00    0.04   1
 -25  -3   1    0.06    0.04   1
  -3  -1  25   -0.06    0.05   1
  -3   1  25    0.08    0.05   1
  -1  25  -3   -0.08    0.05   1
  -1  25   3   -0.01    0.05   1
   1  25  -3   -0.05    0.05   1
   1  25   3   -0.03    0.05   1
   3  -1  25   -0.05    0.05   1
   3   1  25   -0.03    0.05   1
  25  -3  -1   -0.03    0.03   1
  25  -3   1    0.01    0.02   1
  25   3  -1    0.01    0.03   1
  25   3   1    0.04    0.03   1
 -25  -3  -3    0.29    0.06   1
  -3  -3  25    0.38    0.06   1
  -3   3  25    0.28    0.06   1
  -3  25  -3    0.41    0.07   1
   3  -3  25    0.49    0.08   1
   3   3  25    0.45    0.06   1
   3  25  -3    0.43    0.07   1
   3  25   3    0.39    0.06   1
  25  -3   3    0.44    0.04   1
  25   3  -3    0.43    0.04   1
  25   3   3    0.38    0.04   1
 -25  -3  -5    0.58    0.07   1
 -25  -3   5    0.71    0.06   1
 -25   3  -5    0.60    0.06   1
  -5  25  -3    0.86    0.10   1
  -5  25   3    0.57    0.07   1
  -3  -5  25    0.71    0.07   1
  -3   5  25    0.80    0.09   1
   3  -5  25    0.57    0.08   1
   3   5  25    0.51    0.07   1
   5  25  -3    0.71    0.08   1
   5  25   3    0.73    0.08   1
  25  -3   5    0.64    0.06   1
  25   3  -5    0.60    0.04   1
  25   3   5    0.53    0.06   1
 -25  -3  -7    0.16    0.06   1
 -25  -3   7    0.17    0.03   1
 -25   3  -7    0.15    0.06   1
  -7  25  -3    0.14    0.06   1
  -7  25   3    0.30    0.06   1
  -3  -7  25    0.21    0.06   1
  -3   7  25    0.18    0.05   1
   3  -7  25    0.21    0.06   1
   3   7  25    0.21    0.06   1
   7  25  -3    0.22    0.06   1
   7  25   3    0.21    0.06   1
  25  -3   7    0.16    0.04   1
  25   3  -7    0.23    0.03   1
  25   3   7    0.25    0.05   1
 -25  -3  -9    0.01    0.07   1
 -25   3  -9    0.06    0.06   1
  -9  25  -3    0.00    0.05   1
  -9  25   3   -0.03    0.04   1
  -3  -9  25   -0.01    0.05   1
  -3   9  25   -0.11    0.04   1
   3  -9  25    0.00    0.06   1
   3   9  25   -0.04    0.06   1
   9  25  -3    0.06    0.05   1
   9  25   3   -0.04    0.06   1
  25  -3   9    0.04    0.05   1
  25   3   9   -0.02    0.04   1
 -11  25  -3   -0.02    0.06   1
 -11  25   3    0.01    0.05   1
  -3 -11  25   -0.03    0.06   1
  -3  11  25    0.08    0.06   1
   3 -11  25   -0.16    0.06   1
   3  11  25   -0.02    0.05   1
  11  25  -3   -0.02    0.05   1
  11  25   3    0.18    0.06   1
  25  -3  11   -0.03    0.04   1
  25   3  11   -0.05    0.05   1
 -13  25  -3    0.13    0.07   1
 -13  25   3    0.14    0.06   1
  -3 -13  25    0.26    0.08   1
  -3  13  25    0.08    0.06   1
   3 -13  25   -0.05    0.07   1
   3  13  25    0.08    0.07   1
  13  25  -3    0.04    0.06   1
  13  25   3    0.05    0.06   1
  25  -3  13    0.14    0.05   1
  25   3  13    0.06    0.06   1
 -15  25  -3    0.55    0.08   1
 -15  25   3    0.52    0.07   1
  -3 -15  25    0.41    0.08   1
  -3  15  25    0.33    0.07   1
   3 -15  25    0.55    0.09   1
   3  15  25    0.45    0.08   1
  15  25  -3    0.33    0.06   1
  15  25   3    0.51    0.08   1
  25  -3  15    0.46    0.07   1
  25   3  15    0.47    0.07   1
 -17  25  -3    0.55    0.08   1
 -17  25   3    0.34    0.07   1
  -3 -17  25    0.33    0.08   1
  -3  17  25    0.39    0.08   1
   3 -17  25    0.47    0.09   1
   3  17  25    0.40    0.08   1
  17  25  -3    0.42    0.07   1
  17  25   3    0.43    0.08   1
  25  -3  17    0.50    0.08   1
  25   3  17    0.35    0.07   1
 -19  25   3   -0.01    0.06   1
  -3 -19  25   -0.08    0.08   1
  -3  19  25    0.10    0.08   1
   3 -19  25    0.13    0.08   1
   3  19  25   -0.04    0.08   1
  19 -25   3    0.14    0.07   1
  19  25  -3    0.04    0.08   1
  19  25   3   -0.01    0.08   1
  25  -3  19    0.08    0.07   1
  25   3  19    0.16    0.08   1
  -3 -21  25    0.04    0.09   1
  -3  21  25    0.24    0.09   1
   3 -21  25    0.10    0.09   1
   3  21  25   -0.17    0.08   1
  21 -25   3    0.10    0.08   1
  21  25  -3    0.10    0.09   1
  21  25   3   -0.07    0.09   1
  25  -3  21    0.15    0.09   1
  25   3  21   -0.06    0.09   1
  -3 -23  25    0.04    0.11   1
  -3  23  25   -0.07    0.09   1
   3 -23  25    0.09    0.12   1
   3  23  25    0.13    0.10   1
  23  25  -3    0.28    0.11   1
  23  25   3   -0.06    0.11   1
  25  -3  23    0.18    0.11   1
  25   3  23    0.13    0.11   1
 -25  -5  -1    0.07    0.05   1
 -25  -5   1    0.14    0.05   1
  -5  -1  25    0.06    0.05   1
  -5   1  25    0.09    0.05   1
  -1  25  -5   -0.05    0.05   1
  -1  25   5    0.06    0.05   1
   1  25  -5    0.00    0.05   1
   1  25   5    0.03    0.05   1
   5  -1  25   -0.02    0.05   1
   5   1  25    0.06    0.05   1
  25  -5  -1    0.04    0.03   1
  25  -5  -1    0.05    0.02   1
  25  -5   1    0.11    0.04   1
  25  -5   1    0.03    0.03   1
  25   5  -1   -0.04    0.03   1
  25   5   1    0.00    0.03   1
 -25  -5  -3    0.54    0.07   1
 -25  -5   3    0.76    0.08   1
  -5  -3  25    0.51    0.07   1
  -5   3  25    0.71    0.08   1
  -3  25  -5    0.81    0.09   1
   3  25  -5    0.63    0.08   1
   3  25   5    0.60    0.08   1
   5  -3  25    0.96    0.11   1
   5   3  25    0.55    0.08   1
  25  -5   3    0.62    0.06   1
  25  -5   3    0.46    0.05   1
  25   5  -3    0.64    0.05   1
  25   5   3    0.50    0.05   1
 -25  -5  -5    0.86    0.08   1
 -25  -5   5    1.01    0.07   1
  -5  -5  25    0.91    0.08   1
  -5   5  25    1.00    0.09   1
  -5  25  -5    1.07    0.10   1
  -5  25   5    1.19    0.09   1
   5  -5  25    1.16    0.11   1
   5   5  25    1.30    0.11   1
   5  25  -5    1.11    0.10   1
   5  25   5    1.16    0.11   1
  25  -5   5    1.06    0.09   1
  25  -5   5    1.01    0.06   1
  25   5  -5    0.97    0.05   1
  25   5   5    0.96    0.07   1
 -25  -5  -7    0.50    0.08   1
 -25  -5   7    0.61    0.06   1
  -7  25  -5    0.72    0.08   1
  -7  25   5    0.57    0.07   1
  -5  -7  25    0.70    0.13   1
  -5   7  25    0.53    0.07   1
   5  -7  25    0.63    0.08   1
   5   7  25    0.74    0.08   1
   7  25  -5    0.50    0.07   1
   7  25   5    0.55    0.08   1
  25  -5   7    0.59    0.07   1
  25  -5   7    0.58    0.06   1
  25   5  -7    0.58    0.04   1
  25   5   7    0.60    0.06   1
 -25  -5   9    0.27    0.04   1
  -9  25  -5    0.26    0.06   1
  -9  25   5    0.30    0.06   1
  -5  -9  25    0.09    0.06   1
  -5   9  25    0.31    0.07   1
   5  -9  25    0.28    0.08   1
   5   9  25    0.14    0.07   1
   9  25  -5    0.24    0.07   1
   9  25   5    0.25    0.06   1
  25  -5   9    0.30    0.07   1
  25  -5   9    0.36    0.05   1
  25   5  -9    0.20    0.03   1
  25   5   9    0.16    0.05   1
 -11  25  -5    0.02    0.06   1
 -11  25   5    0.20    0.06   1
  -5 -11  25   -0.09    0.06   1
  -5  11  25   -0.08    0.05   1
   5 -11  25    0.10    0.07   1
   5  11  25   -0.09    0.06   1
  11  25  -5   -0.06    0.06   1
  11  25   5    0.13    0.06   1
  25  -5  11    0.08    0.04   1
  25   5  11    0.00    0.05   1
 -13  25  -5    0.21    0.07   1
 -13  25   5    0.31    0.06   1
  -5 -13  25    0.25    0.07   1
  -5  13  25    0.22    0.06   1
   5 -13  25    0.35    0.07   1
   5  13  25    0.27    0.07   1
  13  25  -5    0.29    0.07   1
  13  25   5    0.33    0.07   1
  25  -5  13    0.23    0.05   1
  25   5  13    0.20    0.06   1
 -15  25  -5    1.05    0.10   1
 -15  25   5    0.89    0.11   1
  -5 -15  25    0.85    0.09   1
  -5  15  25    1.02    0.10   1
   5 -15  25    0.81    0.10   1
   5  15  25    0.75    0.09   1
  15  25  -5    0.99    0.09   1
  15  25   5    0.84    0.09   1
  25  -5  15    1.18    0.11   1
  25   5  15    0.76    0.09   1
 -17  25   5    0.90    0.10   1
  -5 -17  25    0.82    0.10   1
  -5  17  25    0.91    0.10   1
   5 -17  25    0.81    0.11   1
   5  17  25    0.66    0.10   1
  17  25  -5    0.56    0.09   1
  17  25   5    0.59    0.08   1
  25  -5  17    0.74    0.09   1
  25   5  17    0.68    0.09   1
 -19  25   5    0.41    0.07   1
  -5 -19  25    0.09    0.09   1
  -5  19  25    0.08    0.08   1
   5 -19  25    0.58    0.11   1
   5  19  25    0.21    0.08   1
  19 -25   5    0.20    0.07   1
  19  25  -5    0.22    0.09   1
  19  25   5    0.07    0.08   1
  25  -5  19    0.25    0.08   1
  25   5  19    0.11    0.09   1
  -5 -21  25   -0.17    0.09   1
  -5  21  25    0.09    0.08   1
   5 -21  25   -0.11    0.10   1
   5  21  25    0.16    0.09   1
  21 -25   5    0.10    0.08   1
  21  25  -5   -0.10    0.09   1
  21  25   5    0.12    0.10   1
  25  -5  21    0.14    0.09   1
  25   5  21   -0.04    0.08   1
  -5 -23  25   -0.01    0.11   1
  -5  23  25   -0.02    0.09   1
   5 -23  25   -0.01    0.14   1
   5  23  25   -0.07    0.10   1
  23 -25   5    0.11    0.12   1
  23  25  -5   -0.16    0.12   1
  23  25   5    0.14    0.12   1
  25  -5  23    0.03    0.11   1
  25   5  23   -0.27    0.10   1
 -25  -7  -1    0.09    0.06   1
 -25  -7   1    0.01    0.05   1
  -7  -1  25   -0.09    0.07   1
  -7  -1  25    0.04    0.04   1
  -7   1  25    0.02    0.06   1
  -7   1  25    0.33    0.06   1
  -1  25  -7    0.03    0.06   1
  -1  25   7    0.10    0.06   1
   1  25  -7    0.01    0.05   1
   1  25   7    0.04    0.05   1
   7  -1  25    0.10    0.06   1
   7   1  25    0.12    0.05   1
  25  -7  -1    0.03    0.02   1
  25  -7  -1    0.01    0.02   1
  25  -7   1    0.06    0.04   1
  25  -7   1    0.03    0.02   1
  25   7  -1    0.11    0.04   1
  25   7   1    0.00    0.04   1
 -25  -7  -3    0.19    0.06   1
 -25  -7   3    0.22    0.05   1
  -7  -3  25    0.11    0.05   1
  -7   3  25    0.23    0.06   1
  -3  25  -7    0.23    0.06   1
  -3  25   7    0.04    0.06   1
   3  25  -7    0.10    0.06   1
   3  25   7    0.25    0.06   1
   7  -3  25    0.08    0.06   1
   7   3  25    0.12    0.06   1
  25  -7   3    0.19    0.05   1
  25  -7   3    0.17    0.03   1
  25   7  -3    0.18    0.04   1
  25   7   3    0.18    0.04   1
 -25  -7  -5    0.59    0.08   1
 -25  -7   5    0.75    0.09   1
  -7  -5  25    0.60    0.07   1
  -7   5  25    0.38    0.06   1
  -5  25  -7    0.53    0.07   1
  -5  25   7    0.60    0.08   1
   5  25  -7    0.74    0.08   1
   5  25   7    0.56    0.08   1
   7  -5 -25    0.50    0.08   1
   7  -5  25    0.72    0.09   1
   7   5  25    0.48    0.07   1
  25  -7   5    0.53    0.06   1
  25  -7   5    0.57    0.06   1
  25   7  -5    0.66    0.06   1
  25   7   5    0.58    0.06   1
 -25  -7   7    0.37    0.05   1
  -7  -7  25    0.24    0.05   1
  -7   7  25    0.24    0.05   1
  -7  25  -7    0.07    0.06   1
  -7  25   7    0.18    0.05   1
   7  -7 -25    0.12    0.06   1
   7  -7  25    0.10    0.07   1
   7   7  25    0.12    0.06   1
   7  25  -7    0.38    0.06   1
   7  25   7    0.27    0.07   1
  25  -7   7    0.20    0.06   1
  25  -7   7    0.18    0.04   1
  25   7  -7    0.24    0.03   1
  25   7   7    0.21    0.05   1
  -9  25  -7    0.05    0.07   1
  -9  25   7    0.00    0.05   1
  -7  -9  25   -0.16    0.06   1
  -7   9  25    0.05    0.05   1
   7  -9 -25   -0.08    0.07   1
   7  -9  25    0.02    0.07   1
   7   9  25   -0.01    0.06   1
   9  25  -7    0.01    0.06   1
   9  25   7    0.03    0.06   1
  25  -7   9    0.04    0.06   1
  25  -7   9   -0.03    0.05   1
  25   7  -9    0.05    0.03   1
  25   7   9    0.07    0.05   1
 -11  25  -7    0.01    0.07   1
 -11  25   7    0.17    0.06   1
  -7 -11  25    0.07    0.06   1
  -7  11  25    0.15    0.06   1
   7 -11  25   -0.12    0.06   1
   7  11  25   -0.11    0.06   1
  11  25  -7   -0.05    0.06   1
  11  25   7    0.10    0.06   1
  25  -7  11    0.03    0.05   1
  25   7 -11   -0.04    0.03   1
  25   7  11   -0.09    0.05   1
 -13  25  -7   -0.02    0.06   1
 -13  25   7    0.11    0.06   1
  -7 -13  25   -0.03    0.07   1
  -7  13  25    0.01    0.06   1
   7 -13  25    0.16    0.07   1
   7  13  25    0.13    0.07   1
  13  25  -7   -0.03    0.06   1
  13  25   7    0.02    0.06   1
  25  -7  13    0.03    0.06   1
  25   7  13    0.00    0.06   1
 -15  25  -7    0.57    0.09   1
 -15  25   7    0.43    0.06   1
  -7 -15  25    0.26    0.08   1
  -7  15  25    0.40    0.07   1
   7 -15  25    0.59    0.10   1
   7  15  25    0.39    0.08   1
  15  25  -7    0.30    0.07   1
  15  25   7    0.30    0.08   1
  25  -7  15    0.41    0.08   1
  25   7  15    0.24    0.07   1
 -17  25   7    0.35    0.06   1
  -7 -17  25    0.23    0.08   1
  -7  17  25    0.27    0.08   1
   7 -17  25    0.37    0.08   1
   7  17  25    0.24    0.08   1
  17 -25   7    0.22    0.07   1
  17  25  -7    0.27    0.07   1
  17  25   7    0.36    0.09   1
  25  -7  17    0.24    0.08   1
  25   7  17    0.24    0.07   1
  -7 -19  25   -0.01    0.08   1
  -7  19  25    0.07    0.07   1
   7 -19  25   -0.05    0.09   1
   7  19  25    0.09    0.09   1
  19 -25   7    0.03    0.08   1
  19  25  -7    0.15    0.08   1
  19  25   7    0.18    0.09   1
  25  -7  19    0.08    0.08   1
  25   7  19    0.09    0.09   1
  -7 -21  25    0.00    0.10   1
  -7  21  25    0.25    0.08   1
   7 -21  25   -0.01    0.10   1
   7  21  25   -0.12    0.09   1
  21 -25   7    0.09    0.09   1
  21  25  -7    0.06    0.10   1
  21  25   7   -0.18    0.10   1
  25  -7  21    0.23    0.10   1
  -7 -23  25    0.12    0.11   1
  -7  23  25    0.24    0.10   1
   7  23  25    0.17    0.11   1
  23 -25   7    0.14    0.12   1
  23  25  -7    0.20    0.12   1
  23  25   7    0.09    0.13   1
  25  -7  23   -0.02    0.12   1
  25   7  23   -0.15    0.11   1
 -25  -9  -1    0.19    0.07   1
 -25  -9   1    0.23    0.07   1
  -9  -1  25    0.17    0.07   1
  -9  -1  25    0.19    0.05   1
  -9   1  25    0.15    0.07   1
  -9   1  25    0.19    0.06   1
  -1  25  -9    0.16    0.06   1
  -1  25   9    0.24    0.06   1
   1  25  -9    0.16    0.06   1
   1  25   9    0.00    0.05   1
   9  -1  25    0.15    0.06   1
   9   1  25    0.11    0.06   1
  25  -9  -1    0.23    0.03   1
  25  -9   1    0.71    0.08   1
  25  -9   1    0.20    0.03   1
  25   9  -1    0.19    0.05   1
  25   9   1    0.10    0.04   1
 -25  -9  -3    0.18    0.08   1
 -25  -9   3    0.10    0.06   1
  -9  -3  25   -0.07    0.07   1
  -9  -3  25    0.03    0.04   1
  -9   3  25   -0.02    0.07   1
  -9   3  25    0.03    0.05   1
  -3  25  -9    0.05    0.06   1
  -3  25   9    0.08    0.06   1
   3  25  -9    0.02    0.06   1
   3  25   9    0.02    0.06   1
   9  -3  25    0.08    0.06   1
   9   3  25    0.01    0.05   1
  25  -9   3    0.06    0.05   1
  25  -9   3    0.06    0.03   1
  25   9  -3    0.04    0.04   1
  25   9   3    0.06    0.04   1
 -25  -9  -5    0.19    0.09   1
 -25  -9   5    0.33    0.06   1
  -9  -5  25    0.22    0.06   1
  -9   5  25    0.31    0.06   1
  -5  25  -9    0.35    0.07   1
   5  25  -9    0.16    0.06   1
   5  25   9    0.35    0.07   1
   9  -5  25    0.11    0.06   1
   9   5  25    0.23    0.06   1
  25  -9   5    0.34    0.06   1
  25  -9   5    0.23    0.04   1
  25   9  -5    0.25    0.04   1
  25   9   5    0.29    0.05   1
 -25  -9   7   -0.05    0.05   1
  -9  -7  25    0.00    0.05   1
  -9   7  25   -0.01    0.05   1
  -7  25  -9   -0.01    0.07   1
  -7  25   9    0.09    0.05   1
   7  25  -9    0.03    0.05   1
   7  25   9    0.04    0.06   1
   9  -7 -25    0.08    0.07   1
   9  -7  25    0.04    0.07   1
   9   7  25    0.12    0.06   1
  25  -9   7    0.05    0.06   1
  25  -9   7   -0.01    0.04   1
  25   9   7    0.04    0.05   1
  -9   9  25    0.03    0.05   1
  -9  25  -9    0.01    0.08   1
  -9  25   9    0.07    0.05   1
   9  -9 -25    0.25    0.08   1
   9  -9  25    0.31    0.07   1
   9   9  25    0.31    0.07   1
   9  25  -9    0.13    0.06   1
   9  25   9    0.08    0.07   1
  25  -9   9    0.14    0.07   1
  25  -9   9    0.13    0.05   1
  25   9  -9    0.09    0.04   1
 -11  25  -9    0.26    0.08   1
 -11  25   9    0.27    0.07   1
  -9 -11  25    0.14    0.07   1
  -9  11  25    0.17    0.06   1
   9 -11 -25    0.20    0.07   1
   9 -11  25    0.24    0.07   1
   9  11  25    0.33    0.07   1
  11  25  -9    0.33    0.06   1
  11  25   9    0.21    0.07   1
  25  -9  11    0.33    0.06   1
  25   9 -11    0.32    0.04   1
  25   9  11    0.19    0.06   1
 -13  25  -9    0.07    0.08   1
 -13  25   9    0.01    0.06   1
  -9 -13  25   -0.05    0.07   1
  -9  13  25   -0.11    0.05   1
   9 -13  25    0.25    0.07   1
   9  13  25   -0.10    0.06   1
  13  25   9   -0.11    0.07   1
  25  -9  13    0.00    0.07   1
  25   9 -13    0.06    0.04   1
 -15  25   9    0.12    0.05   1
  -9 -15  25    0.01    0.07   1
  -9  15  25   -0.04    0.06   1
   9 -15  25    0.06    0.08   1
   9  15  25   -0.03    0.07   1
  15  25  -9    0.13    0.07   1
  15  25   9   -0.06    0.08   1
  25  -9  15    0.04    0.06   1
  25   9  15    0.01    0.07   1
 -17  25   9    0.16    0.06   1
  -9 -17  25   -0.07    0.07   1
  -9  17  25   -0.05    0.07   1
   9 -17  25    0.02    0.08   1
   9  17  25   -0.17    0.07   1
  17 -25   9    0.00    0.07   1
  17  25  -9    0.18    0.08   1
  17  25   9   -0.03    0.09   1
  25  -9  17    0.07    0.07   1
  25   9  17   -0.16    0.07   1
  -9  19  25    0.09    0.08   1
   9 -19  25   -0.01    0.09   1
  19 -25   9   -0.04    0.08   1
  19  25  -9    0.41    0.10   1
  19  25   9    0.08    0.10   1
  25  -9  19    0.19    0.08   1
  25   9  19   -0.16    0.09   1
  -9 -21  25   -0.02    0.10   1
  -9  21  25   -0.02    0.08   1
   9 -21  25    0.11    0.12   1
   9  21  25   -0.12    0.10   1
  21 -25   9    0.15    0.10   1
  21  25  -9    0.21    0.10   1
  21  25   9    0.10    0.11   1
  25  -9  21    0.24    0.11   1
  25   9  21    0.26    0.11   1
 -25 -11  -1    0.36    0.07   1
 -25 -11   1    0.28    0.08   1
 -11  -1  25    0.30    0.08   1
 -11  -1  25    0.30    0.06   1
 -11   1  25    0.20    0.07   1
 -11   1  25    0.33    0.06   1
  -1  25 -11    0.36    0.07   1
  -1  25  11    0.27    0.07   1
   1  25 -11    0.42    0.07   1
   1  25  11    0.25    0.06   1
  11  -1  25    0.44    0.07   1
  11   1  25    0.23    0.06   1
  25 -11  -1    0.31    0.03   1
  25 -11   1    0.35    0.06   1
  25 -11   1    0.50    0.05   1
  25  11  -1    0.46    0.06   1
  25  11   1    0.34    0.06   1
 -25 -11   3    0.01    0.07   1
 -11  -3  25   -0.03    0.07   1
 -11  -3  25    0.02    0.05   1
 -11   3  25    0.03    0.07   1
 -11   3  25    0.01    0.05   1
  -3  25 -11   -0.11    0.06   1
  -3  25  11   -0.08    0.05   1
   3  25 -11    0.02    0.06   1
   3  25  11    0.06    0.06   1
  11  -3  25    0.23    0.07   1
  11   3  25   -0.12    0.06   1
  25 -11   3    0.01    0.05   1
  25 -11   3    0.07    0.03   1
  25  11  -3   -0.02    0.04   1
  25  11   3    0.02    0.05   1
 -25 -11   5    0.03    0.06   1
 -11  -5  25    0.11    0.05   1
 -11   5  25   -0.07    0.06   1
 -11   5  25    0.01    0.05   1
  -5  25 -11    0.03    0.07   1
  -5  25  11    0.05    0.05   1
   5  25 -11    0.02    0.06   1
   5  25  11    0.01    0.06   1
  11  -5  25   -0.05    0.06   1
  11   5  25    0.00    0.06   1
  25 -11   5    0.00    0.06   1
  25 -11   5    0.06    0.04   1
  25  11  -5    0.01    0.04   1
  25  11   5    0.06    0.05   1
 -25 -11   7    0.02    0.07   1
 -11  -7  25    0.08    0.06   1
 -11   7  25    0.01    0.05   1
  -7  25 -11    0.00    0.07   1
   7  25 -11    0.05    0.05   1
   7  25  11    0.07    0.06   1
  11  -7  25    0.14    0.08   1
  11   7  25    0.05    0.07   1
  25 -11   7    0.00    0.07   1
  25 -11   7    0.11    0.04   1
  25  11  -7   -0.06    0.04   1
 -11  -9  25    0.24    0.10   1
 -11   9  25    0.25    0.06   1
  -9  25 -11    0.19    0.08   1
   9  25 -11    0.30    0.07   1
   9  25  11    0.34    0.07   1
  11  -9 -25    0.38    0.08   1
  11  -9  25    0.20    0.07   1
  11   9  25    0.30    0.07   1
  25 -11   9    0.23    0.07   1
  25 -11   9    0.29    0.05   1
  25  11  -9    0.20    0.05   1
  25  11   9    0.24    0.06   1
 -11 -11  25    0.32    0.07   1
 -11  11  25    0.27    0.06   1
 -11  25 -11    0.55    0.08   1
 -11  25  11    0.47    0.07   1
  11 -11  25    0.65    0.09   1
  11  11  25    0.45    0.09   1
  11  25 -11    0.42    0.07   1
  11  25  11    0.22    0.08   1
  25 -11  11    0.42    0.07   1
  25  11 -11    0.51    0.06   1
  25  11  11    0.20    0.07   1
 -13  25  11   -0.02    0.06   1
 -11 -13  25    0.08    0.07   1
 -11  13  25    0.07    0.06   1
  11 -13  25    0.20    0.08   1
  11  13  25   -0.10    0.07   1
  13  25 -11    0.13    0.07   1
  13  25  11    0.11    0.08   1
  25 -11  13    0.15    0.07   1
  25  11 -13    0.03    0.05   1
  25  11  13   -0.01    0.07   1
 -15  25  11    0.11    0.06   1
 -11 -15  25   -0.03    0.07   1
 -11  15  25   -0.06    0.05   1
  11 -15  25    0.01    0.08   1
  11  15  25    0.19    0.08   1
  15 -25  11    0.06    0.06   1
  15  25 -11   -0.17    0.07   1
  15  25  11   -0.21    0.08   1
  25 -11  15    0.12    0.07   1
  25  11 -15    0.09    0.07   1
  25  11  15   -0.08    0.07   1
 -11 -17  25    0.00    0.08   1
 -11  17  25    0.02    0.06   1
  11 -17  25    0.12    0.09   1
  11  17  25    0.05    0.08   1
  17 -25  11    0.21    0.07   1
  17  25 -11    0.00    0.08   1
  17  25  11    0.08    0.10   1
  25 -11  17   -0.02    0.08   1
  25  11  17   -0.17    0.08   1
 -11 -19  25    0.03    0.08   1
  11 -19  25    0.01    0.10   1
  11  19  25    0.21    0.10   1
  19 -25  11    0.13    0.10   1
  19  25 -11    0.14    0.10   1
  19  25  11    0.21    0.11   1
  25 -11  19    0.32    0.10   1
  25  11  19   -0.15    0.09   1
 -11 -21  25    0.29    0.11   1
  11 -21  25    0.28    0.13   1
  11  21  25    0.16    0.13   1
  21 -25  11    0.40    0.12   1
  21  25 -11    0.11    0.12   1
  21  25  11    0.35    0.12   1
  25 -11  21    0.16    0.11   1
  25  11  21    0.16    0.12   1
 -13  -1  25   -0.02    0.07   1
 -13  -1  25    0.00    0.05   1
 -13   1  25   -0.01    0.07   1
 -13   1  25    0.06    0.04   1
  -1  25 -13    0.03    0.07   1
  -1  25  13    0.05    0.06   1
   1  25 -13    0.06    0.07   1
   1  25  13   -0.01    0.06   1
  13  -1  25    0.19    0.07   1
  13   1  25    0.01    0.06   1
  25 -13  -1    0.09    0.03   1
  25 -13   1    0.07    0.03   1
  25  13  -1   -0.06    0.05   1
  25  13   1   -0.07    0.05   1
 -25 -13   3    0.13    0.07   1
 -13  -3  25    0.07    0.07   1
 -13  -3  25    0.14    0.05   1
 -13   3  25    0.06    0.05   1
  -3  25 -13    0.14    0.08   1
  -3  25  13    0.12    0.06   1
   3  25 -13    0.22    0.07   1
   3  25  13    0.27    0.07   1
  13  -3  25    0.16    0.07   1
  13   3  25    0.14    0.06   1
  25 -13   3    0.15    0.04   1
  25  13  -3   -0.05    0.05   1
  25  13   3    0.14    0.05   1
 -25 -13   5    0.28    0.08   1
 -13  -5  25    0.32    0.08   1
 -13  -5  25    0.43    0.06   1
 -13   5  25    0.22    0.05   1
  -5  25 -13    0.35    0.08   1
  -5  25  13    0.30    0.07   1
   5  25 -13    0.46    0.07   1
   5  25  13    0.30    0.07   1
  13  -5  25    0.25    0.07   1
  13   5  25    0.33    0.07   1
  25 -13   5    0.39    0.05   1
  25  13  -5    0.19    0.05   1
  25  13   5    0.27    0.06   1
 -13  -7  25    0.05    0.06   1
  -7  25 -13    0.14    0.07   1
  -7  25  13    0.05    0.06   1
   7  25 -13    0.00    0.07   1
   7  25  13    0.07    0.07   1
  13  -7  25    0.25    0.08   1
  13   7  25   -0.02    0.06   1
  25 -13   7    0.01    0.12   1
  25 -13   7    0.15    0.05   1
  25  13  -7    0.08    0.05   1
  25  13   7   -0.05    0.06   1
 -13  -9  25    0.10    0.06   1
 -13   9  25   -0.05    0.05   1
  -9  25 -13    0.13    0.08   1
  -9  25  13   -0.05    0.11   1
   9  25 -13   -0.07    0.07   1
   9  25  13   -0.04    0.07   1
  13  -9  25    0.15    0.07   1
  13   9  25    0.18    0.07   1
  25 -13   9    0.06    0.05   1
  25  13  -9    0.02    0.05   1
  25  13   9   -0.15    0.06   1
 -13 -11  25   -0.02    0.07   1
 -13  11  25    0.09    0.06   1
 -11  25  13   -0.02    0.05   1
  11  25 -13    0.01    0.07   1
  11  25  13    0.08    0.08   1
  13 -11  25    0.04    0.08   1
  13  11  25   -0.05    0.07   1
  25 -13  11   -0.02    0.06   1
  25  13 -11   -0.02    0.06   1
  25  13  11    0.01    0.08   1
 -13 -13  25    0.05    0.07   1
 -13  13  25   -0.01    0.05   1
 -13  25  13    0.13    0.07   1
  13 -13  25   -0.01    0.08   1
  13  25 -13    0.10    0.07   1
  13  25  13   -0.20    0.07   1
  25 -13  13   -0.07    0.07   1
  25  13 -13    0.12    0.07   1
  25  13  13   -0.05    0.07   1
 -15  25  13    0.17    0.06   1
 -13 -15  25   -0.11    0.07   1
  13 -15  25    0.05    0.08   1
  13  15  25   -0.04    0.08   1
  15 -25  13   -0.08    0.07   1
  15  25 -13    0.01    0.08   1
  15  25  13    0.03    0.09   1
  25 -13  15    0.15    0.08   1
  25  13 -15    0.07    0.07   1
  25  13  15    0.12    0.07   1
 -13 -17  25    0.05    0.08   1
  13 -17  25    0.19    0.10   1
  13  17  25    0.02    0.09   1
  17 -25  13    0.13    0.08   1
  17  25 -13    0.22    0.09   1
  17  25  13    0.00    0.09   1
  25 -13  17    0.00    0.09   1
  25  13  17    0.13    0.08   1
 -13 -19  25    0.11    0.10   1
  13 -19  25    0.18    0.11   1
  13  19  25   -0.11    0.10   1
  19 -25  13   -0.04    0.10   1
  19  25 -13    0.11    0.11   1
  19  25  13   -0.11    0.11   1
  25 -13  19    0.18    0.10   1
  25  13  19   -0.16    0.10   1
 -15  -1  25    0.08    0.05   1
  -1  25 -15   -0.02    0.07   1
  -1  25  15    0.01    0.07   1
   1  25 -15    0.14    0.08   1
   1  25  15    0.03    0.07   1
  15  -1  25    0.02    0.06   1
  15   1  25    0.22    0.07   1
  25 -15  -1    0.07    0.03   1
  25 -15   1    0.14    0.04   1
  25  15  -1   -0.03    0.05   1
  25  15   1    0.03    0.06   1
 -15  -3  25    0.84    0.10   1
 -15   3  25    0.36    0.06   1
  -3  25 -15    0.54    0.09   1
  -3  25  15    0.40    0.08   1
   3  25 -15    0.48    0.08   1
   3  25  15    0.43    0.08   1
  15  -3  25    0.53    0.08   1
  15   3  25    0.36    0.07   1
  25 -15   3    0.41    0.05   1
  25  15  -3    0.49    0.07   1
  25  15   3    0.47    0.07   1
 -15  -5  25    0.93    0.10   1
 -15   5  25    0.69    0.08   1
  -5  25 -15    1.49    0.14   1
  -5  25  15    0.87    0.09   1
   5  25 -15    1.08    0.10   1
   5  25  15    0.95    0.11   1
  15  -5  25    1.07    0.12   1
  15   5  25    0.79    0.09   1
  25 -15   5    0.98    0.08   1
  25  15  -5    0.88    0.10   1
  25  15   5    1.07    0.12   1
 -15  -7  25    0.41    0.07   1
 -15   7  25    0.29    0.05   1
  -7  25 -15    0.30    0.09   1
  -7  25  15    0.39    0.07   1
   7  25 -15    0.54    0.08   1
   7  25  15    0.45    0.09   1
  15  -7  25    0.34    0.08   1
  15   7  25    0.32    0.08   1
  25 -15   7    0.48    0.06   1
  25  15  -7    0.28    0.06   1
  25  15   7    0.25    0.07   1
 -15  -9  25    0.18    0.06   1
  -9  25  15   -0.06    0.07   1
   9  25 -15    0.18    0.08   1
   9  25  15    0.19    0.08   1
  15  -9  25    0.16    0.08   1
  15   9  25    0.03    0.07   1
  25 -15   9    0.05    0.06   1
  25  15  -9    0.06    0.06   1
  25  15   9   -0.10    0.07   1
 -15 -11  25   -0.17    0.07   1
 -11  25  15    0.18    0.07   1
  11 -25  15    0.00    0.07   1
  11  25 -15   -0.01    0.08   1
  11  25  15    0.20    0.08   1
  15 -11  25   -0.05    0.08   1
  15  11  25   -0.21    0.07   1
  25 -15  11    0.02    0.07   1
  25  15 -11   -0.09    0.06   1
  25  15  11    0.12    0.07   1
 -15 -13  25   -0.01    0.07   1
 -13  25  15   -0.02    0.06   1
  13 -25  15    0.13    0.08   1
  13  25 -15   -0.05    0.09   1
  13  25  15    0.33    0.09   1
  15 -13  25    0.13    0.09   1
  15  13  25   -0.12    0.09   1
  25 -15  13    0.38    0.08   1
  25  15 -13    0.12    0.07   1
  25  15  13    0.01    0.08   1
 -15 -15  25    0.26    0.08   1
  15 -25  15    0.54    0.09   1
  15 -15  25    0.58    0.11   1
  15  15  25    0.10    0.09   1
  15  25 -15    0.09    0.10   1
  15  25  15    0.18    0.09   1
  25 -15  15    0.56    0.10   1
  25  15 -15    0.31    0.09   1
  25  15  15    0.28    0.10   1
 -15 -17  25    0.14    0.09   1
  15 -17  25    0.57    0.13   1
  15  17  25    0.35    0.11   1
  17 -25  15    0.60    0.11   1
  17  25 -15    0.61    0.12   1
  17  25  15    0.37    0.11   1
  25 -15  17    0.30    0.11   1
  25  15  17    0.30    0.10   1
 -17  -1  25    0.12    0.05   1
 -17   1  25   -0.10    0.05   1
  -1  25 -17    0.03    0.09   1
  -1  25  17    0.00    0.07   1
   1  25 -17   -0.01    0.08   1
   1  25  17   -0.08    0.07   1
  17  -1  25    0.06    0.07   1
  17   1  25   -0.04    0.06   1
  25 -17   1   -0.04    0.04   1
  25  17  -1    0.03    0.07   1
  25  17   1    0.11    0.07   1
 -17  -3  25    0.37    0.06   1
  -3  25 -17    0.75    0.11   1
  -3  25  17    0.51    0.08   1
   3  25 -17    0.26    0.09   1
   3  25  17    0.25    0.09   1
  17  -3  25    0.76    0.09   1
  17   3  25    0.31    0.07   1
  25 -17   3    0.32    0.05   1
  25  17  -3    0.42    0.08   1
  25  17   3    0.33    0.08   1
 -17  -5  25    0.71    0.07   1
  -5  25 -17    0.85    0.11   1
  -5  25  17    0.60    0.08   1
   5  25 -17    0.70    0.11   1
   5  25  17    0.81    0.10   1
  17  -5  25    0.69    0.09   1
  17   5  25    0.55    0.09   1
  25 -17   5    0.70    0.08   1
  25  17  -5    0.85    0.09   1
  25  17   5    0.94    0.10   1
 -17  -7  25    0.18    0.06   1
  -7  25  17    0.35    0.08   1
   7  25 -17    0.11    0.09   1
   7  25  17    0.22    0.08   1
  17  -7  25    0.33    0.09   1
  17   7  25    0.16    0.08   1
  25 -17   7    0.30    0.06   1
  25  17  -7    0.12    0.07   1
  25  17   7    0.24    0.08   1
 -17  -9  25    0.14    0.07   1
  -9  25  17   -0.09    0.06   1
   9 -25  17   -0.03    0.07   1
   9  25 -17   -0.03    0.09   1
   9  25  17    0.04    0.08   1
  17  -9  25    0.09    0.08   1
  17   9  25    0.10    0.09   1
  25 -17   9   -0.04    0.06   1
  25  17  -9    0.09    0.07   1
  25  17   9    0.02    0.08   1
 -17 -11  25   -0.01    0.08   1
 -11  25  17    0.14    0.07   1
  11 -25  17   -0.06    0.08   1
  11  25 -17   -0.14    0.09   1
  11  25  17    0.06    0.09   1
  17 -11  25    0.05    0.09   1
  17  11  25   -0.01    0.08   1
  25 -17  11   -0.04    0.08   1
  25  17 -11   -0.11    0.09   1
  25  17  11    0.05    0.08   1
 -17 -13  25    0.28    0.08   1
 -13  25  17   -0.03    0.07   1
  13 -25  17    0.03    0.09   1
  13  25 -17   -0.07    0.10   1
  13  25  17    0.15    0.09   1
  17 -13  25    0.06    0.10   1
  17  13  25    0.08    0.10   1
  25 -17  13    0.39    0.09   1
  25  17 -13   -0.06    0.09   1
  25  17  13    0.15    0.09   1
 -17 -15  25    0.36    0.09   1
  15 -25  17    0.51    0.11   1
  15  25 -17    0.53    0.11   1
  15  25  17    0.33    0.10   1
  17 -15  25    0.56    0.12   1
  17  15  25    0.17    0.11   1
  25 -17  15    0.38    0.11   1
  25  17 -15    0.30    0.11   1
  25  17  15    0.21    0.11   1
 -17 -17  25    0.29    0.10   1
  17 -25  17    0.20    0.12   1
  17 -17  25    0.63    0.15   1
  17  25 -17    0.60    0.15   1
  25 -17  17    0.49    0.13   1
  25  17  17    0.45    0.13   1
  -1  25 -19   -0.09    0.08   1
  -1  25  19    0.24    0.08   1
   1  25 -19    0.17    0.09   1
   1  25  19    0.18    0.08   1
  19  -1  25    0.10    0.07   1
  19   1  25    0.83    0.11   1
  25  19  -1   -0.11    0.07   1
  25  19   1    0.14    0.08   1
  -3  25  19    0.08    0.08   1
   3  25 -19    0.14    0.09   1
   3  25  19    0.04    0.08   1
  19  -3  25    0.05    0.08   1
  19   3  25    0.11    0.08   1
  25 -19   3    0.12    0.06   1
  25  19  -3    0.08    0.08   1
  25  19   3    0.22    0.08   1
  -5  25  19    0.35    0.08   1
   5 -25  19    0.20    0.08   1
   5  25 -19    0.23    0.09   1
   5  25  19    0.46    0.09   1
  19  -5  25    0.35    0.09   1
  19   5  25    0.25    0.09   1
  25 -19   5    0.24    0.06   1
  25  19  -5    0.18    0.08   1
  25  19   5    0.29    0.09   1
  -7  25  19   -0.04    0.07   1
   7 -25  19   -0.12    0.08   1
   7  25 -19    0.26    0.10   1
   7  25  19    0.18    0.08   1
  19  -7  25   -0.04    0.08   1
  19   7  25   -0.16    0.08   1
  25 -19   7    0.04    0.06   1
  25  19  -7    0.17    0.09   1
  25  19   7    0.07    0.09   1
  -9  25  19   -0.10    0.07   1
   9 -25  19    0.17    0.09   1
   9  25 -19   -0.09    0.10   1
   9  25  19    0.26    0.10   1
  19  -9  25   -0.16    0.09   1
  19   9  25    0.01    0.09   1
  25 -19   9    0.01    0.07   1
  25  19  -9   -0.11    0.09   1
  25  19   9    0.07    0.09   1
 -11  25  19   -0.11    0.07   1
  11 -25  19    0.05    0.09   1
  11  25 -19   -0.20    0.11   1
  11  25  19    0.11    0.10   1
  19 -11  25    0.32    0.11   1
  19  11  25   -0.11    0.10   1
  25 -19  11    0.30    0.10   1
  25  19 -11    0.15    0.11   1
  25  19  11   -0.06    0.09   1
 -19 -13  25    0.01    0.09   1
  13 -25  19    0.24    0.11   1
  13  25 -19   -0.01    0.12   1
  13  25  19   -0.06    0.10   1
  19 -13  25   -0.01    0.11   1
  19  13  25   -0.07    0.11   1
  25 -19  13   -0.01    0.11   1
  25  19 -13   -0.07    0.12   1
  25  19  13    0.13    0.11   1
  -1  25  21    0.42    0.09   1
   1 -25  21    0.17    0.09   1
   1  25  21    0.19    0.09   1
  21  -1  25    0.24    0.08   1
  21   1  25    0.08    0.08   1
  25  21  -1    0.41    0.10   1
  25  21   1    0.12    0.09   1
  -3  25  21    0.17    0.08   1
   3 -25  21    0.28    0.10   1
   3  25  21    0.15    0.09   1
  21  -3  25   -0.02    0.10   1
  21   3  25   -0.13    0.08   1
  25  21  -3    0.04    0.09   1
  25  21   3    0.08    0.09   1
  -5  25  21    0.01    0.08   1
   5 -25  21   -0.05    0.10   1
   5  25 -21    0.03    0.11   1
   5  25  21    0.11    0.09   1
  21  -5  25    0.10    0.10   1
  21   5  25    0.00    0.09   1
  25  21  -5    0.17    0.10   1
  25  21   5   -0.19    0.09   1
  -7  25  21    0.02    0.08   1
   7 -25  21    0.06    0.10   1
   7  25 -21    0.33    0.11   1
   7  25  21    0.20    0.09   1
  21  -7  25   -0.06    0.09   1
  21   7  25   -0.01    0.10   1
  25 -21   7    0.18    0.09   1
  25  21  -7    0.11    0.10   1
  25  21   7    0.15    0.10   1
  -9  25  21    0.35    0.09   1
   9 -25  21    0.17    0.11   1
   9  25 -21    0.32    0.11   1
   9  25  21    0.05    0.11   1
  21  -9  25    0.04    0.10   1
  21   9  25   -0.12    0.10   1
  25 -21   9    0.26    0.10   1
  25  21  -9    0.04    0.10   1
  25  21   9   -0.08    0.11   1
  11 -25  21    0.20    0.12   1
  11  25 -21   -0.01    0.13   1
  11  25  21    0.22    0.13   1
  21 -11  25    0.26    0.12   1
  21  11  25    0.30    0.13   1
  25 -21  11    0.36    0.12   1
  25  21 -11    0.19    0.12   1
  25  21  11    0.29    0.12   1
  -1 -25  23    0.51    0.12   1
  -1  25  23    0.21    0.09   1
   1 -25  23    0.23    0.11   1
   1  25  23    0.07    0.10   1
  23  -1  25    0.27    0.10   1
  23   1  25    0.13    0.09   1
  25  23  -1    0.03    0.11   1
  25  23   1    0.28    0.11   1
  -3  25  23   -0.14    0.08   1
   3 -25  23    0.09    0.12   1
   3  25  23    0.05    0.10   1
  23  -3  25    0.19    0.11   1
  23   3  25   -0.10    0.10   1
  25  23  -3   -0.03    0.12   1
  25  23   3    0.05    0.11   1
  -5 -25  23   -0.21    0.10   1
  -5  25  23   -0.02    0.09   1
   5 -25  23   -0.22    0.13   1
   5  25  23    0.23    0.10   1
  23  -5  25    0.26    0.12   1
  25  23  -5   -0.09    0.12   1
  25  23   5   -0.17    0.11   1
  -7  25  23   -0.02    0.09   1
   7  25  23    0.04    0.12   1
  23  -7  25    0.18    0.11   1
  23   7  25    0.07    0.12   1
  25  23  -7   -0.10    0.12   1
  25  23   7    0.02    0.12   1
 -26   0   0    1.08    0.07   1
   0   0  26    1.12    0.11   1
   0  26   0    1.23    0.11   1
  26   0   0    0.89    0.05   1
 -26   0  -2    0.14    0.05   1
 -26   0   2    0.04    0.03   1
  -2  26   0    0.05    0.06   1
   0  -2  26    0.30    0.07   1
   0   2  26    0.07    0.05   1
   2  26   0    0.14    0.06   1
  26   0  -2    0.01    0.02   1
  26   0   2    0.11    0.03   1
 -26   0  -4    0.08    0.05   1
  -4  26   0    0.11    0.06   1
   0  -4  26    0.03    0.06   1
   0   4  26    0.17    0.05   1
   4  26   0    0.10    0.05   1
  26   0   4    0.08    0.03   1
 -26   0  -6    0.02    0.06   1
  -6  26   0    0.08    0.05   1
   0  -6  26    0.04    0.06   1
   0   6  26   -0.09    0.05   1
   6  26   0   -0.05    0.05   1
  26   0   6   -0.03    0.04   1
 -26   0  -8    0.06    0.06   1
  -8  26   0    0.16    0.06   1
   0  -8  26    0.15    0.06   1
   0   8  26    0.21    0.06   1
   8  26   0    0.06    0.05   1
  26   0   8    0.14    0.05   1
 -10  26   0    0.21    0.06   1
   0 -10  26    0.22    0.07   1
   0  10  26    0.13    0.07   1
  26   0  10    0.07    0.05   1
 -12  26   0    0.14    0.06   1
   0 -12  26   -0.16    0.06   1
   0  12  26   -0.15    0.06   1
  12  26   0   -0.09    0.06   1
  26   0  12   -0.03    0.05   1
 -14  26   0    0.07    0.06   1
   0 -14  26    0.05    0.07   1
   0  14  26   -0.01    0.07   1
  14  26   0   -0.02    0.07   1
  26   0  14   -0.04    0.06   1
 -16  26   0   -0.07    0.08   1
   0 -16  26    0.07    0.08   1
   0  16  26    0.11    0.07   1
  16  26   0    0.18    0.08   1
  26   0  16    0.07    0.07   1
 -18  26   0   -0.17    0.07   1
   0 -18  26   -0.02    0.09   1
   0  18  26    0.07    0.07   1
  18  26   0   -0.03    0.08   1
  26   0  18    0.06    0.07   1
   0 -20  26    0.26    0.10   1
   0  20  26   -0.05    0.08   1
  20  26   0    0.15    0.10   1
  26   0  20    0.15    0.09   1
   0 -22  26   -0.01    0.12   1
   0  22  26   -0.21    0.09   1
  22  26   0   -0.04    0.11   1
  26   0  22    0.09    0.11   1
 -26  -2   0    0.13    0.05   1
  -2   0  26    0.14    0.05   1
   0  26  -2    0.17    0.06   1
   0  26   2    0.11    0.05   1
   2   0  26    0.00    0.05   1
  26  -2   0    0.06    0.04   1
  26  -2   0    0.12    0.02   1
  26   2   0    0.14    0.03   1
 -26  -2  -2    0.03    0.05   1
  -2   2  26    0.00    0.05   1
  -2  26  -2    0.05    0.06   1
  -2  26   2    0.00    0.05   1
   2  -2  26    0.18    0.06   1
   2   2  26    0.21    0.06   1
   2  26  -2   -0.04    0.06   1
   2  26   2    0.22    0.06   1
  26  -2  -2   -0.01    0.03   1
  26  -2  -2    0.05    0.02   1
  26  -2   2    0.03    0.03   1
  26   2  -2    0.09    0.03   1
  26   2   2    0.01    0.03   1
 -26  -2  -4    0.38    0.06   1
 -26  -2   4    0.40    0.04   1
 -26   2  -4    0.39    0.06   1
  -4  26  -2    0.50    0.07   1
  -4  26   2    0.55    0.08   1
  -2  -4  26    0.55    0.08   1
  -2   4  26    0.44    0.06   1
   2  -4  26    0.42    0.07   1
   2   4  26    0.57    0.08   1
   4  26  -2    0.48    0.07   1
   4  26   2    0.49    0.07   1
  26  -2   4    0.44    0.04   1
  26   2  -4    0.51    0.04   1
  26   2   4    0.42    0.05   1
 -26  -2  -6    0.30    0.07   1
 -26   2  -6    0.28    0.06   1
  -6  26  -2    0.25    0.06   1
  -6  26   2    0.48    0.07   1
  -2  -6  26    0.30    0.07   1
  -2   6  26    0.30    0.07   1
   2  -6  26    0.36    0.07   1
   2   6  26    0.40    0.07   1
   6  26  -2    0.46    0.07   1
   6  26   2    0.15    0.06   1
  26  -2   6    0.28    0.05   1
  26   2   6    0.34    0.05   1
 -26  -2  -8    0.15    0.06   1
 -26   2  -8    0.02    0.07   1
  -8  26  -2   -0.03    0.05   1
  -8  26   2   -0.06    0.05   1
  -2  -8  26    0.06    0.06   1
  -2   8  26    0.09    0.10   1
   2  -8  26    0.02    0.06   1
   2   8  26    0.08    0.06   1
   8  26  -2    0.01    0.05   1
   8  26   2   -0.06    0.06   1
  26  -2   8   -0.07    0.04   1
  26   2   8    0.10    0.05   1
 -26   2 -10    0.02    0.08   1
 -10  26  -2   -0.11    0.06   1
  -2 -10  26    0.03    0.07   1
  -2  10  26   -0.14    0.05   1
   2 -10  26   -0.03    0.06   1
   2  10  26   -0.02    0.06   1
  10  26  -2    0.15    0.06   1
  10  26   2   -0.02    0.06   1
  26  -2  10   -0.10    0.04   1
  26   2  10   -0.14    0.05   1
 -12  26  -2   -0.01    0.06   1
  -2  12  26   -0.01    0.06   1
   2 -12  26    0.06    0.07   1
   2  12  26    0.06    0.06   1
  12  26  -2    0.07    0.06   1
  12  26   2    0.10    0.07   1
  26  -2  12    0.05    0.05   1
 -14  26  -2    0.24    0.07   1
 -14  26   2    0.35    0.07   1
  -2 -14  26    0.18    0.08   1
  -2  14  26    0.23    0.07   1
   2 -14  26    0.11    0.07   1
   2  14  26   -0.01    0.07   1
  14  26  -2    0.45    0.07   1
  14  26   2    0.09    0.07   1
  26  -2  14    0.35    0.06   1
  26   2  14    0.19    0.06   1
 -16  26  -2    0.50    0.08   1
 -16  26   2    0.49    0.07   1
  -2 -16  26    0.29    0.09   1
  -2  16  26    0.33    0.08   1
   2 -16  26    0.90    0.11   1
   2  16  26    0.47    0.09   1
  16  26  -2    0.44    0.08   1
  16  26   2    0.26    0.07   1
  26  -2  16    0.51    0.08   1
  26   2  16    0.39    0.08   1
 -18  26  -2    0.29    0.08   1
 -18  26   2    0.28    0.07   1
  -2 -18  26    0.10    0.08   1
  -2  18  26   -0.01    0.08   1
   2 -18  26    0.39    0.10   1
   2  18  26    0.28    0.09   1
  18  26  -2    0.06    0.08   1
  18  26   2    0.07    0.08   1
  26  -2  18    0.19    0.07   1
  26   2  18    0.22    0.08   1
  -2 -20  26    0.01    0.09   1
  -2  20  26   -0.13    0.07   1
   2 -20  26   -0.09    0.09   1
   2  20  26   -0.24    0.08   1
  20 -26   2   -0.05    0.07   1
  20  26  -2   -0.11    0.09   1
  20  26   2    0.08    0.09   1
  26  -2  20    0.13    0.08   1
  26   2  20    0.05    0.09   1
  -2 -22  26   -0.07    0.11   1
  -2  22  26    0.03    0.09   1
   2 -22  26    0.06    0.11   1
   2  22  26    0.09    0.10   1
  22  26  -2    0.14    0.11   1
  22  26   2   -0.16    0.11   1
  26  -2  22    0.27    0.11   1
  26   2  22   -0.14    0.11   1
 -26  -4   0    0.09    0.05   1
  -4   0  26    0.08    0.05   1
   0  26  -4    0.31    0.06   1
   0  26   4    0.20    0.06   1
   4   0  26    0.24    0.06   1
  26  -4   0    0.11    0.03   1
  26  -4   0    0.09    0.03   1
  26   4   0    0.05    0.03   1
 -26  -4  -2    0.45    0.07   1
 -26  -4   2    0.48    0.06   1
  -4  -2  26    0.40    0.06   1
  -4   2  26    0.37    0.07   1
  -2  26  -4    0.43    0.07   1
  -2  26   4    0.44    0.07   1
   2  26  -4    0.57    0.08   1
   2  26   4    0.48    0.07   1
   4  -2  26    0.45    0.07   1
   4   2  26    0.54    0.07   1
  26  -4   2    0.32    0.05   1
  26  -4   2    0.41    0.04   1
  26   4  -2    0.43    0.05   1
  26   4   2    0.45    0.05   1
 -26  -4  -4    0.92    0.10   1
  -4   4  26    0.64    0.07   1
  -4  26  -4    1.03    0.10   1
  -4  26   4    0.87    0.11   1
   4  -4  26    1.17    0.11   1
   4   4  26    0.80    0.10   1
   4  26  -4    0.82    0.08   1
   4  26   4    1.06    0.11   1
  26  -4   4    0.87    0.08   1
  26  -4   4    0.65    0.06   1
  26   4  -4    1.14    0.06   1
  26   4   4    0.95    0.08   1
 -26  -4  -6    1.06    0.11   1
 -26  -4   6    0.93    0.06   1
  -6  26  -4    1.04    0.11   1
  -6  26   4    1.31    0.12   1
  -4  -6  26    0.84    0.09   1
  -4   6  26    1.12    0.10   1
   4  -6  26    1.01    0.10   1
   4   6  26    0.87    0.11   1
   6  26  -4    0.96    0.10   1
   6  26   4    0.95    0.10   1
  26  -4   6    0.87    0.10   1
  26  -4   6    0.79    0.07   1
  26   4  -6    0.79    0.05   1
  26   4   6    1.18    0.09   1
 -26  -4  -8    0.36    0.08   1
  -8  26  -4    0.38    0.08   1
  -8  26   4    0.22    0.08   1
  -4  -8  26    0.27    0.07   1
  -4   8  26    0.31    0.06   1
   4  -8  26    0.53    0.08   1
   4   8  26    0.26    0.07   1
   8  26   4    0.50    0.08   1
  26  -4   8    0.37    0.05   1
  26   4  -8    0.32    0.03   1
  26   4   8    0.35    0.05   1
 -10  26  -4    0.24    0.07   1
 -10  26   4   -0.03    0.09   1
  -4 -10  26    0.24    0.07   1
   4 -10  26    0.18    0.07   1
   4  10  26    0.04    0.06   1
  10  26  -4    0.06    0.06   1
  10  26   4    0.37    0.07   1
  26  -4  10    0.10    0.04   1
  26   4  10    0.14    0.05   1
 -12  26  -4    0.26    0.07   1
 -12  26   4    0.26    0.06   1
  -4 -12  26    0.17    0.07   1
  -4  12  26    0.15    0.07   1
   4 -12  26    0.26    0.07   1
   4  12  26    0.43    0.08   1
  12  26  -4    0.36    0.07   1
  12  26   4    0.31    0.07   1
  26  -4  12    0.34    0.06   1
  26   4  12    0.27    0.07   1
 -14  26  -4    0.85    0.10   1
 -14  26   4    0.80    0.08   1
  -4 -14  26    0.65    0.09   1
  -4  14  26    0.54    0.08   1
   4 -14  26    1.10    0.13   1
   4  14  26    0.70    0.10   1
  14  26  -4    0.77    0.09   1
  14  26   4    0.95    0.10   1
  26  -4  14    0.79    0.08   1
  26   4  14    0.72    0.09   1
 -16  26  -4    1.23    0.14   1
 -16  26   4    1.00    0.09   1
  -4 -16  26    1.18    0.12   1
  -4  16  26    1.16    0.11   1
   4 -16  26    1.78    0.15   1
   4  16  26    1.11    0.11   1
  16  26  -4    1.12    0.13   1
  16  26   4    1.14    0.13   1
  26  -4  16    1.44    0.13   1
  26   4  16    1.11    0.11   1
 -18  26   4    0.61    0.08   1
  -4 -18  26    0.89    0.11   1
  -4  18  26    0.51    0.08   1
   4 -18  26    0.53    0.10   1
   4  18  26    0.31    0.08   1
  18  26  -4    0.69    0.10   1
  18  26   4    0.40    0.09   1
  26  -4  18    0.39    0.08   1
  26   4  18    0.33    0.08   1
  -4 -20  26    0.08    0.09   1
  -4  20  26    0.03    0.08   1
   4 -20  26    0.13    0.11   1
   4  20  26   -0.12    0.09   1
  20 -26   4    0.14    0.08   1
  20  26  -4    0.30    0.10   1
  20  26   4    0.19    0.10   1
  26  -4  20    0.08    0.09   1
  26   4  20   -0.11    0.09   1
  -4 -22  26   -0.21    0.10   1
  -4  22  26    0.23    0.09   1
   4 -22  26   -0.16    0.13   1
   4  22  26   -0.06    0.10   1
  22 -26   4    0.13    0.09   1
  22  26  -4    0.02    0.12   1
  22  26   4    0.22    0.11   1
  26  -4  22    0.07    0.11   1
  26   4  22   -0.03    0.11   1
 -26  -6   0   -0.01    0.05   1
  -6   0  26    0.00    0.05   1
   0  26  -6    0.09    0.06   1
   0  26   6    0.11    0.06   1
   6   0  26    0.01    0.06   1
  26  -6   0    0.01    0.03   1
  26  -6   0    0.01    0.02   1
  26   6   0    0.02    0.03   1
 -26  -6  -2    0.36    0.07   1
 -26  -6   2    0.36    0.06   1
  -6  -2  26    0.33    0.06   1
  -6   2  26    0.38    0.07   1
  -2  26  -6    0.29    0.07   1
  -2  26   6    0.33    0.06   1
   2  26  -6    0.44    0.08   1
   2  26   6    0.35    0.07   1
   6  -2  26    0.44    0.07   1
   6   2  26    0.37    0.07   1
  26  -6   2    0.24    0.05   1
  26  -6   2    0.35    0.04   1
  26   6  -2    0.51    0.06   1
  26   6   2    0.25    0.05   1
 -26  -6  -4    1.02    0.11   1
 -26  -6   4    0.83    0.09   1
  -6  -4  26    0.85    0.09   1
  -6   4  26    0.91    0.10   1
  -4  26  -6    1.04    0.10   1
  -4  26   6    0.91    0.10   1
   4  26  -6    1.23    0.11   1
   4  26   6    1.24    0.11   1
   6  -4  26    1.03    0.12   1
   6   4  26    1.01    0.11   1
  26  -6   4    0.83    0.09   1
  26  -6   4    0.94    0.06   1
  26   6  -4    0.81    0.06   1
  26   6   4    0.97    0.08   1
 -26  -6  -6    1.04    0.11   1
 -26  -6   6    0.93    0.09   1
  -6  -6  26    1.26    0.15   1
  -6   6  26    1.23    0.10   1
  -6  26  -6    1.06    0.12   1
  -6  26   6    1.42    0.11   1
   6  -6  26    1.17    0.12   1
   6   6  26    1.02    0.11   1
   6  26  -6    1.03    0.11   1
   6  26   6    1.02    0.11   1
  26  -6   6    0.95    0.10   1
  26  -6   6    1.14    0.07   1
  26   6  -6    1.03    0.06   1
  26   6   6    1.15    0.09   1
  -8  26  -6    0.43    0.08   1
  -6  -8  26    0.43    0.07   1
  -6   8  26    0.41    0.07   1
   6  -8  26    0.70    0.09   1
   6   8  26    0.50    0.07   1
   8  26  -6    0.45    0.07   1
   8  26   6    0.39    0.07   1
  26  -6   8    0.40    0.08   1
  26  -6   8    0.45    0.06   1
  26   6  -8    0.44    0.05   1
  26   6   8    0.40    0.06   1
 -10  26  -6    0.26    0.08   1
 -10  26   6    0.07    0.07   1
  -6 -10  26   -0.05    0.06   1
  -6  10  26    0.47    0.07   1
   6 -10  26    0.12    0.07   1
   6  10  26    0.15    0.07   1
  10  26  -6    0.11    0.06   1
  10  26   6    0.13    0.07   1
  26  -6  10    0.13    0.07   1
  26  -6  10    0.09    0.04   1
  26   6 -10    0.03    0.03   1
  26   6  10    0.03    0.06   1
 -12  26  -6   -0.08    0.07   1
 -12  26   6    0.19    0.05   1
  -6 -12  26    0.18    0.08   1
  -6  12  26    0.27    0.07   1
   6 -12  26    0.20    0.07   1
   6  12  26    0.26    0.07   1
  12  26  -6    0.17    0.07   1
  12  26   6    0.23    0.07   1
  26  -6  12    0.28    0.06   1
  26   6  12    0.11    0.06   1
 -14  26  -6    0.77    0.10   1
 -14  26   6    0.66    0.07   1
  -6 -14  26    0.65    0.10   1
  -6  14  26    0.53    0.08   1
   6 -14  26    0.66    0.09   1
   6  14  26    0.64    0.09   1
  14  26  -6    0.81    0.09   1
  14  26   6    0.56    0.08   1
  26  -6  14    0.72    0.08   1
  26   6  14    0.46    0.08   1
 -16  26  -6    1.12    0.12   1
 -16  26   6    1.19    0.12   1
  -6 -16  26    0.95    0.11   1
  -6  16  26    1.16    0.13   1
   6 -16  26    1.28    0.16   1
   6  16  26    0.88    0.11   1
  16  26  -6    1.19    0.14   1
  16  26   6    1.27    0.14   1
  26  -6  16    1.00    0.11   1
  26   6  16    0.79    0.09   1
 -18  26   6    0.45    0.08   1
  -6 -18  26    0.48    0.09   1
  -6  18  26    0.29    0.08   1
   6 -18  26    0.76    0.10   1
   6  18  26    0.44    0.09   1
  18 -26   6    0.36    0.09   1
  18  26  -6    0.29    0.10   1
  18  26   6    0.31    0.09   1
  26  -6  18    0.30    0.09   1
  26   6  18    0.32    0.09   1
  -6 -20  26    0.20    0.09   1
  -6  20  26    0.25    0.09   1
   6 -20  26   -0.03    0.12   1
   6  20  26    0.14    0.09   1
  20 -26   6    0.23    0.09   1
  20  26  -6    0.20    0.11   1
  20  26   6   -0.01    0.10   1
  26  -6  20    0.16    0.10   1
  26   6  20    0.02    0.10   1
  -6 -22  26   -0.10    0.10   1
  -6  22  26    0.04    0.09   1
   6  22  26   -0.07    0.10   1
  22 -26   6   -0.01    0.11   1
  22  26  -6    0.15    0.13   1
  22  26   6    0.23    0.13   1
  26  -6  22    0.51    0.13   1
  26   6  22   -0.04    0.12   1
 -26  -8   0    0.13    0.07   1
  -8   0  26    0.04    0.05   1
   0  26  -8    0.28    0.06   1
   0  26   8    0.31    0.07   1
   8   0  26    0.04    0.06   1
  26  -8   0    0.13    0.03   1
  26  -8   0    0.03    0.04   1
  26   8   0   -0.02    0.04   1
 -26  -8  -2    0.04    0.07   1
 -26  -8   2    0.10    0.06   1
  -8  -2  26    0.09    0.05   1
  -8   2  26    0.03    0.08   1
  -8   2  26   -0.02    0.05   1
  -2  26  -8    0.08    0.06   1
  -2  26   8   -0.03    0.06   1
   2  26  -8    0.01    0.05   1
   2  26   8   -0.06    0.06   1
   8  -2  26    0.02    0.06   1
   8   2  26    0.01    0.06   1
  26  -8   2   -0.03    0.05   1
  26   8  -2    0.02    0.04   1
  26   8   2    0.11    0.04   1
 -26  -8  -4    0.40    0.08   1
 -26  -8   4    0.52    0.07   1
  -8  -4  26    0.26    0.06   1
  -8   4  26    0.25    0.07   1
  -8   4  26    0.28    0.05   1
  -4  26  -8    0.35    0.08   1
  -4  26   8    0.42    0.07   1
   4  26  -8    0.38    0.07   1
   4  26   8    0.41    0.07   1
   8  -4  26    0.27    0.07   1
   8   4  26    0.24    0.06   1
  26  -8   4    0.44    0.06   1
  26  -8   4    0.32    0.04   1
  26   8  -4    0.43    0.05   1
  26   8   4    0.33    0.05   1
  -8  -6  26    0.41    0.08   1
  -8   6  26    0.48    0.06   1
  -6  26  -8    0.57    0.08   1
  -6  26   8    0.48    0.07   1
   6  26   8    0.45    0.08   1
   8  -6 -26    0.57    0.10   1
   8  -6  26    0.62    0.09   1
   8   6  26    0.36    0.07   1
  26  -8   6    0.45    0.07   1
  26  -8   6    0.49    0.05   1
  26   8  -6    0.36    0.04   1
  26   8   6    0.38    0.06   1
  -8  -8  26   -0.03    0.06   1
  -8   8  26   -0.06    0.05   1
  -8  26  -8   -0.04    0.07   1
  -8  26   8   -0.17    0.06   1
   8  -8  26   -0.02    0.07   1
   8   8  26   -0.02    0.06   1
   8  26  -8    0.07    0.06   1
   8  26   8   -0.01    0.06   1
  26  -8   8    0.01    0.06   1
  26  -8   8    0.34    0.05   1
  26   8  -8   -0.02    0.04   1
  26   8   8    0.02    0.05   1
 -10  26   8   -0.05    0.06   1
  -8 -10  26   -0.04    0.07   1
  -8  10  26    0.08    0.06   1
   8 -10  26   -0.09    0.07   1
   8  10  26    0.00    0.06   1
  10  26  -8    0.04    0.06   1
  10  26   8    0.15    0.07   1
  26  -8  10    0.16    0.05   1
  26   8 -10    0.11    0.04   1
  26   8  10    0.05    0.05   1
 -12  26  -8   -0.12    0.07   1
 -12  26   8   -0.03    0.06   1
  -8 -12  26    0.00    0.07   1
  -8  12  26   -0.02    0.06   1
   8 -12  26   -0.19    0.07   1
   8  12  26    0.06    0.07   1
  12  26  -8   -0.09    0.06   1
  12  26   8   -0.10    0.07   1
  26  -8  12   -0.04    0.05   1
  26   8 -12   -0.08    0.04   1
  26   8  12    0.07    0.06   1
 -14  26  -8    0.47    0.09   1
 -14  26   8    0.06    0.06   1
  -8 -14  26    0.21    0.08   1
  -8  14  26   -0.05    0.06   1
   8 -14  26    0.19    0.08   1
   8  14  26   -0.10    0.07   1
  14  26  -8    0.09    0.07   1
  14  26   8    0.10    0.07   1
  26  -8  14    0.16    0.07   1
  26   8  14    0.18    0.07   1
 -16  26   8    0.39    0.07   1
  -8 -16  26    0.34    0.08   1
  -8  16  26    0.18    0.07   1
   8 -16  26    0.49    0.09   1
   8  16  26    0.17    0.08   1
  16  26  -8    0.26    0.08   1
  16  26   8    0.13    0.08   1
  26  -8  16    0.33    0.08   1
  26   8  16    0.22    0.08   1
  -8 -18  26    0.18    0.08   1
  -8  18  26   -0.10    0.07   1
   8 -18  26   -0.26    0.09   1
   8  18  26    0.15    0.09   1
  18 -26   8    0.06    0.08   1
  18  26  -8   -0.06    0.08   1
  18  26   8    0.05    0.09   1
  26  -8  18   -0.02    0.09   1
  26   8  18   -0.02    0.09   1
  -8 -20  26   -0.20    0.09   1
  -8  20  26    0.05    0.10   1
   8 -20  26    0.08    0.11   1
  20 -26   8    0.01    0.09   1
  20  26  -8    0.18    0.10   1
  20  26   8   -0.05    0.10   1
  26  -8  20    0.21    0.11   1
  26   8  20   -0.11    0.11   1
 -26 -10   0    0.21    0.07   1
 -10   0  26    0.02    0.06   1
 -10   0  26    0.17    0.05   1
   0  26 -10    0.14    0.07   1
   0  26  10    0.22    0.06   1
  10   0  26    0.28    0.07   1
  26 -10   0    0.09    0.03   1
  26  10   0    0.07    0.05   1
 -26 -10  -2   -0.09    0.06   1
 -26 -10   2    0.09    0.06   1
 -10  -2  26   -0.08    0.05   1
 -10   2  26   -0.11    0.07   1
 -10   2  26    0.07    0.05   1
  -2  26 -10   -0.17    0.06   1
  -2  26  10    0.00    0.06   1
   2  26 -10   -0.02    0.06   1
   2  26  10   -0.05    0.06   1
  10  -2  26   -0.07    0.06   1
  10   2  26    0.02    0.06   1
  26 -10   2   -0.02    0.03   1
  26  10  -2   -0.04    0.04   1
  26  10   2   -0.02    0.05   1
 -26 -10   4    0.21    0.07   1
 -10  -4  26    0.15    0.05   1
 -10   4  26    0.02    0.07   1
 -10   4  26    0.10    0.05   1
  -4  26 -10    0.23    0.07   1
  -4  26  10    0.16    0.06   1
   4  26 -10    0.21    0.07   1
   4  26  10    0.15    0.06   1
  10  -4  26    0.18    0.07   1
  10   4  26    0.21    0.06   1
  26 -10   4    0.07    0.09   1
  26 -10   4    0.19    0.04   1
  26  10  -4    0.08    0.05   1
  26  10   4   -0.04    0.05   1
 -10  -6  26    0.17    0.06   1
 -10   6  26    0.19    0.06   1
  -6  26 -10   -0.04    0.07   1
  -6  26  10    0.20    0.06   1
   6  26 -10    0.18    0.07   1
   6  26  10    0.17    0.07   1
  10  -6  26   -0.04    0.07   1
  10   6  26    0.16    0.06   1
  26 -10   6    0.13    0.08   1
  26 -10   6    0.05    0.05   1
  26  10  -6    0.13    0.05   1
  26  10   6    0.05    0.05   1
 -10  -8  26   -0.09    0.07   1
 -10   8  26   -0.01    0.05   1
  -8  26 -10   -0.17    0.07   1
  -8  26  10   -0.02    0.06   1
   8  26 -10   -0.15    0.06   1
   8  26  10    0.12    0.07   1
  10  -8 -26    0.09    0.08   1
  10  -8  26    0.15    0.08   1
  10   8  26   -0.16    0.06   1
  26 -10   8   -0.06    0.07   1
  26 -10   8    0.17    0.05   1
  26  10  -8    0.05    0.04   1
  26  10   8   -0.06    0.06   1
 -10 -10  26    0.17    0.07   1
 -10  10  26    0.06    0.06   1
 -10  26 -10    0.26    0.08   1
  10 -10  26    0.30    0.08   1
  10  10  26    0.26    0.08   1
  10  26 -10    0.26    0.06   1
  10  26  10    0.20    0.07   1
  26 -10  10    0.25    0.06   1
  26  10 -10    0.19    0.04   1
  26  10  10    0.12    0.07   1
 -12  26 -10    0.19    0.08   1
 -12  26  10   -0.12    0.06   1
 -10 -12  26    0.04    0.07   1
 -10  12  26    0.00    0.06   1
  10 -12  26    0.01    0.08   1
  10  12  26    0.03    0.08   1
  12  26 -10    0.15    0.07   1
  12  26  10    0.02    0.08   1
  26  10 -12    0.05    0.04   1
  26  10  12   -0.06    0.06   1
 -14  26  10    0.13    0.06   1
 -10 -14  26    0.10    0.08   1
 -10  14  26   -0.01    0.06   1
  10 -14  26    0.05    0.08   1
  10  14  26   -0.04    0.08   1
  14  26 -10    0.13    0.07   1
  14  26  10   -0.19    0.08   1
  26 -10  14    0.16    0.07   1
  26  10  14   -0.04    0.07   1
 -16  26  10    0.14    0.06   1
 -10 -16  26    0.22    0.08   1
 -10  16  26    0.16    0.06   1
  10 -16  26    0.06    0.09   1
  10  16  26    0.08    0.10   1
  16 -26  10    0.15    0.07   1
  16  26 -10    0.00    0.08   1
  16  26  10    0.27    0.09   1
  26 -10  16    0.05    0.08   1
  26  10  16    0.07    0.08   1
 -10 -18  26   -0.11    0.09   1
 -10  18  26   -0.04    0.07   1
  10 -18  26   -0.13    0.10   1
  10  18  26   -0.08    0.09   1
  18 -26  10    0.42    0.10   1
  18  26 -10    0.19    0.10   1
  18  26  10    0.07    0.10   1
  26 -10  18   -0.07    0.09   1
  26  10  18   -0.01    0.09   1
 -10 -20  26    0.09    0.10   1
  10 -20  26   -0.19    0.12   1
  10  20  26   -0.13    0.10   1
  20 -26  10    0.21    0.11   1
  20  26 -10    0.20    0.11   1
  20  26  10   -0.01    0.12   1
  26 -10  20    0.09    0.12   1
  26  10  20   -0.24    0.11   1
 -12   0  26   -0.05    0.08   1
 -12   0  26   -0.04    0.05   1
   0  26 -12    0.03    0.07   1
   0  26  12    0.16    0.07   1
  12   0  26    0.12    0.07   1
  26 -12   0    0.02    0.03   1
  26  12   0    0.23    0.05   1
 -26 -12   2    0.07    0.08   1
 -12  -2  26   -0.01    0.08   1
 -12  -2  26   -0.04    0.05   1
 -12   2  26    0.03    0.08   1
 -12   2  26   -0.05    0.05   1
  -2  26 -12    0.03    0.07   1
  -2  26  12   -0.14    0.06   1
   2  26 -12    0.04    0.06   1
   2  26  12   -0.14    0.06   1
  12  -2  26    0.02    0.06   1
  12   2  26    0.08    0.06   1
  26 -12   2   -0.01    0.03   1
  26  12  -2   -0.10    0.05   1
  26  12   2    0.01    0.05   1
 -12  -4  26    0.28    0.06   1
 -12   4  26    0.34    0.06   1
  -4  26 -12    0.21    0.08   1
  -4  26  12    0.29    0.07   1
   4  26 -12    0.36    0.08   1
   4  26  12    0.37    0.08   1
  12  -4  26    0.25    0.07   1
  12   4  26    0.51    0.08   1
  26 -12   4    0.30    0.04   1
  26  12  -4    0.36    0.06   1
  26  12   4    0.17    0.06   1
 -12  -6  26    0.15    0.06   1
 -12   6  26    0.13    0.06   1
  -6  26 -12    0.29    0.07   1
  -6  26  12    0.18    0.07   1
   6  26 -12    0.14    0.07   1
   6  26  12    0.14    0.07   1
  12  -6  26    0.21    0.08   1
  12   6  26    0.06    0.06   1
  26 -12   6    0.16    0.05   1
  26  12  -6    0.02    0.05   1
  26  12   6    0.12    0.06   1
 -12  -8  26   -0.16    0.10   1
 -12   8  26   -0.11    0.05   1
  -8  26 -12    0.16    0.08   1
  -8  26  12    0.10    0.07   1
   8  26 -12    0.02    0.07   1
   8  26  12    0.00    0.07   1
  12  -8  26    0.14    0.08   1
  12   8  26   -0.07    0.07   1
  26 -12   8   -0.02    0.05   1
  26  12  -8   -0.04    0.05   1
  26  12   8    0.06    0.06   1
 -12 -10  26    0.26    0.08   1
 -12  10  26    0.01    0.06   1
 -10  26 -12    0.22    0.08   1
 -10  26  12    0.04    0.07   1
  10  26 -12   -0.20    0.07   1
  10  26  12    0.18    0.08   1
  12 -10  26    0.16    0.08   1
  12  10  26    0.10    0.08   1
  26 -12  10    0.01    0.05   1
  26  12 -10   -0.01    0.05   1
  26  12  10   -0.14    0.07   1
 -12 -12  26   -0.04    0.07   1
 -12  12  26    0.00    0.06   1
 -12  26  12   -0.17    0.06   1
  12 -12  26    0.03    0.09   1
  12  12  26   -0.14    0.07   1
  12  26 -12    0.06    0.07   1
  12  26  12    0.09    0.09   1
  26 -12  12   -0.06    0.07   1
  26  12 -12    0.02    0.06   1
  26  12  12   -0.06    0.06   1
 -14  26  12    0.17    0.07   1
 -12 -14  26    0.07    0.08   1
  12 -14  26   -0.09    0.09   1
  12  14  26    0.03    0.09   1
  14 -26  12   -0.08    0.07   1
  14  26 -12   -0.10    0.08   1
  14  26  12    0.24    0.10   1
  26 -12  14    0.20    0.08   1
  26  12  14    0.03    0.07   1
 -12 -16  26    0.09    0.08   1
  12 -16  26    0.21    0.09   1
  12  16  26    0.35    0.10   1
  16 -26  12    0.11    0.08   1
  16  26 -12   -0.06    0.09   1
  16  26  12    0.02    0.10   1
  26 -12  16    0.12    0.09   1
  26  12  16    0.04    0.08   1
 -12 -18  26   -0.06    0.09   1
  12 -18  26    0.18    0.11   1
  12  18  26    0.00    0.09   1
  18 -26  12    0.05    0.09   1
  18  26 -12    0.24    0.10   1
  18  26  12    0.28    0.11   1
  26 -12  18    0.21    0.10   1
  26  12  18   -0.02    0.10   1
 -14   0  26    0.07    0.05   1
   0  26 -14   -0.10    0.08   1
   0  26  14    0.05    0.07   1
  14   0  26   -0.03    0.07   1
  26  14   0    0.03    0.05   1
 -14  -2  26    0.13    0.06   1
 -14   2  26    0.17    0.05   1
  -2  26 -14    0.24    0.09   1
  -2  26  14    0.27    0.07   1
   2  26 -14    0.28    0.09   1
   2  26  14    0.09    0.07   1
  14  -2  26    0.31    0.08   1
  14   2  26    0.13    0.08   1
  26 -14   2    0.27    0.04   1
  26  14  -2    0.24    0.06   1
  26  14   2    0.21    0.07   1
 -14  -4  26    0.75    0.09   1
 -14   4  26    0.82    0.09   1
  -4  26 -14    1.04    0.11   1
  -4  26  14    0.75    0.09   1
   4  26 -14    1.20    0.13   1
   4  26  14    1.10    0.11   1
  14  -4  26    0.96    0.11   1
  14   4  26    0.77    0.09   1
  26 -14   4    0.64    0.08   1
  26  14  -4    1.06    0.10   1
  26  14   4    0.74    0.09   1
 -14  -6  26    0.68    0.08   1
 -14   6  26    0.47    0.06   1
  -6  26 -14    0.43    0.09   1
  -6  26  14    0.54    0.08   1
   6  26 -14    0.82    0.11   1
   6  26  14    0.64    0.09   1
  14  -6  26    0.41    0.10   1
  14   6  26    0.72    0.09   1
  26 -14   6    0.84    0.09   1
  26  14  -6    0.55    0.07   1
  26  14   6    0.72    0.08   1
 -14  -8  26   -0.02    0.06   1
 -14   8  26   -0.01    0.05   1
  -8  26 -14    0.38    0.08   1
  -8  26  14    0.13    0.07   1
   8  26 -14    0.09    0.08   1
   8  26  14    0.22    0.09   1
  14  -8  26    0.31    0.09   1
  14   8  26    0.09    0.08   1
  26 -14   8    0.26    0.05   1
  26  14  -8    0.22    0.06   1
  26  14   8    0.04    0.07   1
 -14 -10  26    0.21    0.08   1
 -10  26  14    0.15    0.07   1
  10  26 -14   -0.10    0.08   1
  10  26  14   -0.03    0.08   1
  14 -10  26    0.12    0.08   1
  14  10  26    0.00    0.08   1
  26 -14  10    0.13    0.06   1
  26  14 -10    0.09    0.06   1
  26  14  10    0.07    0.07   1
 -14 -12  26   -0.03    0.08   1
  12 -26  14    0.10    0.08   1
  12  26 -14    0.03    0.09   1
  12  26  14   -0.04    0.09   1
  14 -12  26   -0.15    0.09   1
  14  12  26    0.12    0.09   1
  26 -14  12    0.15    0.08   1
  26  14 -12    0.19    0.06   1
  26  14  12    0.07    0.08   1
 -14 -14  26    0.27    0.09   1
 -14  26  14    0.11    0.07   1
  14 -26  14    0.23    0.08   1
  14 -14  26    0.14    0.10   1
  14  14  26    0.30    0.10   1
  14  26 -14    0.25    0.10   1
  14  26  14   -0.10    0.09   1
  26 -14  14    0.29    0.09   1
  26  14  14    0.26    0.09   1
 -14 -16  26    0.42    0.09   1
  14 -16  26    0.48    0.11   1
  14  16  26    0.09    0.10   1
  16 -26  14    0.23    0.09   1
  16  26 -14    0.79    0.12   1
  16  26  14    0.26    0.12   1
  26 -14  16    0.55    0.11   1
  26  14  16    0.42    0.11   1
 -14 -18  26    0.23    0.10   1
  14 -18  26    0.35    0.16   1
  18 -26  14    0.30    0.12   1
  18  26 -14    0.30    0.13   1
  26 -14  18    0.24    0.12   1
  26  14  18    0.30    0.11   1
 -16   0  26    0.20    0.05   1
   0  26 -16    0.03    0.09   1
   0  26  16    0.25    0.07   1
  16   0  26    0.12    0.07   1
  26  16   0    0.05    0.07   1
 -16  -2  26    0.35    0.06   1
 -16   2  26    0.58    0.07   1
  -2  26 -16    0.63    0.10   1
  -2  26  16    0.44    0.08   1
   2  26 -16    0.45    0.10   1
   2  26  16    0.42    0.08   1
  16  -2  26    0.30    0.08   1
  16   2  26    0.47    0.08   1
  26  16  -2    0.44    0.08   1
  26  16   2    0.47    0.08   1
 -16  -4  26    1.58    0.11   1
  -4  26 -16    1.55    0.14   1
  -4  26  16    0.98    0.12   1
   4  26 -16    1.49    0.14   1
   4  26  16    1.17    0.11   1
  16  -4  26    1.51    0.14   1
  16   4  26    0.87    0.10   1
  26 -16   4    1.29    0.09   1
  26  16  -4    0.82    0.12   1
  26  16   4    1.26    0.14   1
 -16  -6  26    1.12    0.12   1
  -6  26 -16    0.88    0.11   1
  -6  26  16    0.64    0.09   1
   6  26 -16    1.38    0.14   1
   6  26  16    1.30    0.14   1
  16  -6  26    1.17    0.11   1
  16   6  26    1.27    0.14   1
  26 -16   6    1.18    0.12   1
  26  16  -6    0.90    0.10   1
  26  16   6    1.01    0.10   1
 -16  -8  26    0.32    0.07   1
  -8  26  16    0.26    0.07   1
   8  26 -16    0.25    0.09   1
   8  26  16    0.26    0.09   1
  16  -8  26    0.40    0.10   1
  16   8  26    0.27    0.08   1
  26 -16   8    0.30    0.06   1
  26  16  -8    0.08    0.07   1
  26  16   8    0.19    0.08   1
 -16 -10  26    0.23    0.08   1
 -10  26  16    0.21    0.07   1
  10 -26  16   -0.05    0.07   1
  10  26 -16   -0.02    0.09   1
  10  26  16   -0.10    0.09   1
  16 -10  26    0.09    0.09   1
  16  10  26   -0.14    0.08   1
  26 -16  10    0.20    0.07   1
  26  16 -10    0.00    0.07   1
  26  16  10    0.19    0.08   1
 -16 -12  26    0.04    0.08   1
 -12  26  16    0.09    0.08   1
  12 -26  16    0.10    0.09   1
  12  26 -16    0.33    0.10   1
  12  26  16    0.22    0.10   1
  16 -12  26    0.53    0.12   1
  16  12  26    0.17    0.10   1
  26 -16  12    0.26    0.09   1
  26  16 -12    0.13    0.09   1
  26  16  12   -0.05    0.09   1
 -16 -14  26    0.44    0.09   1
  14 -26  16    0.54    0.10   1
  14  26 -16    0.68    0.13   1
  14  26  16    0.41    0.11   1
  16 -14  26    0.34    0.13   1
  16  14  26    0.24    0.10   1
  26 -16  14    0.40    0.10   1
  26  16  14    0.43    0.11   1
 -16 -16  26    0.61    0.10   1
  16 -26  16    0.58    0.13   1
  16 -16  26    0.45    0.14   1
  16  26 -16    0.90    0.15   1
  26 -16  16    0.59    0.13   1
  26  16  16    0.72    0.13   1
   0  26 -18   -0.06    0.09   1
   0  26  18    0.00    0.08   1
  18   0  26    0.05    0.07   1
  26  18   0    0.07    0.09   1
  -2  26 -18    0.14    0.10   1
  -2  26  18    0.09    0.07   1
   2  26 -18    0.31    0.09   1
   2  26  18    0.06    0.09   1
  18  -2  26    0.34    0.08   1
  18   2  26    0.10    0.07   1
  26  18  -2    0.25    0.09   1
  26  18   2    0.30    0.09   1
  -4  26  18    0.47    0.09   1
   4  26 -18    0.69    0.10   1
   4  26  18    0.54    0.10   1
  18  -4  26    0.68    0.10   1
  18   4  26    0.48    0.09   1
  26  18  -4    0.63    0.09   1
  26  18   4    0.49    0.09   1
  -6  26  18    0.33    0.08   1
   6 -26  18    0.47    0.10   1
   6  26 -18    0.64    0.11   1
   6  26  18    0.11    0.08   1
  18  -6  26    0.47    0.10   1
  18   6  26    0.55    0.10   1
  26 -18   6    0.36    0.07   1
  26  18  -6    0.35    0.09   1
  26  18   6    0.46    0.09   1
 -18  -8  26    0.09    0.10   1
  -8  26  18    0.08    0.08   1
   8 -26  18   -0.06    0.08   1
   8  26 -18   -0.11    0.10   1
   8  26  18   -0.06    0.09   1
  18  -8  26    0.16    0.10   1
  18   8  26    0.19    0.09   1
  26 -18   8    0.06    0.07   1
  26  18  -8   -0.17    0.08   1
  26  18   8   -0.08    0.09   1
 -18 -10  26    0.07    0.09   1
 -10  26  18   -0.14    0.08   1
  10 -26  18   -0.14    0.10   1
  10  26 -18   -0.15    0.11   1
  10  26  18    0.11    0.10   1
  18 -10  26    0.09    0.11   1
  26 -18  10    0.23    0.09   1
  26  18 -10    0.00    0.09   1
 -18 -12  26    0.13    0.09   1
  12 -26  18   -0.07    0.10   1
  12  26 -18   -0.07    0.12   1
  12  26  18   -0.15    0.10   1
  18 -12  26    0.18    0.11   1
  18  12  26   -0.08    0.11   1
  26 -18  12    0.03    0.10   1
  26  18 -12    0.09    0.11   1
  26  18  12    0.08    0.10   1
 -18 -14  26    0.20    0.09   1
  14 -26  18    0.31    0.12   1
  14  26 -18    0.52    0.14   1
  18 -14  26    0.22    0.14   1
  26 -18  14    0.55    0.13   1
  26  18  14    0.20    0.12   1
   0  26  20    0.14    0.09   1
  20   0  26   -0.08    0.08   1
  26  20   0    0.14    0.09   1
  -2  26  20   -0.20    0.08   1
   2  26 -20    0.09    0.10   1
   2  26  20   -0.03    0.09   1
  20  -2  26    0.09    0.09   1
  20   2  26   -0.12    0.08   1
  26  20  -2    0.18    0.09   1
  26  20   2   -0.09    0.09   1
  -4  26  20    0.20    0.08   1
   4 -26  20   -0.08    0.09   1
   4  26 -20    0.37    0.11   1
   4  26  20   -0.03    0.09   1
  20  -4  26    0.21    0.09   1
  20   4  26    0.09    0.09   1
  26  20  -4    0.17    0.10   1
  26  20   4    0.10    0.09   1
  -6  26  20    0.22    0.08   1
   6 -26  20    0.02    0.10   1
   6  26 -20    0.07    0.11   1
   6  26  20    0.10    0.10   1
  20  -6  26    0.30    0.10   1
  20   6  26   -0.09    0.09   1
  26  20  -6    0.01    0.10   1
  26  20   6    0.14    0.10   1
  -8  26  20   -0.03    0.08   1
   8 -26  20   -0.08    0.10   1
   8  26 -20   -0.26    0.12   1
   8  26  20    0.15    0.10   1
  20  -8  26    0.12    0.10   1
  20   8  26   -0.02    0.11   1
  26  20  -8   -0.19    0.11   1
  26  20   8    0.31    0.11   1
 -10  26  20    0.07    0.09   1
  10 -26  20    0.30    0.11   1
  10  26 -20    0.02    0.13   1
  10  26  20   -0.02    0.12   1
  20 -10  26   -0.06    0.11   1
  20  10  26    0.03    0.11   1
  26 -20  10    0.07    0.11   1
  26  20 -10    0.13    0.11   1
  26  20  10   -0.15    0.11   1
   0 -26  22    0.02    0.09   1
   0  26  22    0.30    0.10   1
  22   0  26   -0.01    0.09   1
  26  22   0    0.18    0.12   1
  -2  26  22   -0.17    0.09   1
   2 -26  22    0.00    0.11   1
   2  26  22   -0.09    0.10   1
  22  -2  26    0.14    0.10   1
  22   2  26    0.06    0.10   1
  26  22  -2    0.03    0.11   1
  26  22   2   -0.10    0.11   1
  -4  26  22   -0.10    0.09   1
   4 -26  22    0.00    0.14   1
   4  26  22    0.23    0.10   1
  22  -4  26    0.14    0.11   1
  22   4  26    0.26    0.12   1
  26  22  -4    0.12    0.12   1
  26  22   4    0.06    0.12   1
  -6  26  22    0.09    0.09   1
   6  26  22    0.16    0.11   1
  22  -6  26    0.20    0.12   1
  22   6  26   -0.07    0.12   1
  26  22  -6    0.10    0.13   1
  26  22   6   -0.16    0.12   1
 -27  -1  -1    0.11    0.05   1
 -27  -1   1    0.06    0.05   1
 -27   1  -1    0.13    0.04   1
  -1  -1  27    0.18    0.06   1
  -1   1  27    0.13    0.06   1
  -1  27  -1    0.26    0.07   1
  -1  27   1    0.15    0.06   1
   1  -1  27    0.14    0.06   1
   1   1  27    0.11    0.06   1
   1  27  -1    0.05    0.06   1
   1  27   1    0.03    0.06   1
  27  -1  -1    0.03    0.02   1
  27  -1   1    0.09    0.03   1
  27   1  -1    0.14    0.03   1
  27   1   1    0.04    0.03   1
 -27  -1  -3    0.00    0.05   1
 -27  -1   3    0.09    0.05   1
 -27   1  -3    0.06    0.05   1
  -3  27  -1    0.16    0.07   1
  -3  27   1    0.00    0.06   1
  -1  -3  27    0.04    0.07   1
  -1   3  27    0.08    0.06   1
   1  -3  27    0.04    0.06   1
   1   3  27    0.01    0.06   1
   3  27  -1    0.18    0.06   1
   3  27   1    0.19    0.07   1
  27  -1   3    0.13    0.03   1
  27   1  -3   -0.01    0.03   1
  27   1   3    0.07    0.03   1
 -27  -1  -5    0.32    0.07   1
 -27   1  -5    0.38    0.06   1
  -5  27  -1    0.40    0.07   1
  -5  27   1    0.32    0.08   1
  -1  -5  27    0.51    0.08   1
  -1   5  27    0.44    0.07   1
   1  -5  27    0.42    0.09   1
   1   5  27    0.36    0.07   1
   5  27  -1    0.53    0.08   1
   5  27   1    0.42    0.07   1
  27  -1   5    0.22    0.05   1
  27   1   5    0.37    0.05   1
 -27  -1  -7   -0.01    0.07   1
 -27   1  -7    0.08    0.07   1
  -7  27  -1    0.11    0.06   1
  -7  27   1    0.01    0.06   1
  -1  -7  27    0.14    0.07   1
  -1   7  27    0.15    0.06   1
   1  -7  27    0.09    0.07   1
   1   7  27   -0.04    0.05   1
   7  27  -1    0.09    0.06   1
   7  27   1    0.04    0.06   1
  27  -1   7    0.02    0.05   1
  27   1   7   -0.02    0.04   1
 -27   1  -9    0.05    0.07   1
  -9  27  -1    0.11    0.07   1
  -9  27   1    0.20    0.07   1
  -1   9  27    0.06    0.07   1
   1  -9  27    0.02    0.07   1
   1   9  27    0.00    0.07   1
   9  27  -1    0.20    0.06   1
   9  27   1    0.16    0.07   1
  27  -1   9    0.09    0.04   1
  27   1   9    0.02    0.05   1
 -11  27  -1    0.16    0.07   1
 -11  27   1    0.04    0.06   1
  -1 -11  27   -0.18    0.06   1
   1 -11  27   -0.06    0.07   1
   1  11  27   -0.12    0.07   1
  11  27  -1    0.03    0.06   1
  11  27   1    0.01    0.07   1
  27  -1  11   -0.09    0.05   1
  27   1  11   -0.08    0.05   1
 -13  27  -1    0.03    0.07   1
 -13  27   1    0.12    0.06   1
  -1 -13  27    0.11    0.08   1
  -1  13  27   -0.07    0.07   1
   1 -13  27    0.09    0.07   1
   1  13  27    0.05    0.07   1
  13  27  -1   -0.07    0.07   1
  13  27   1   -0.10    0.08   1
  27  -1  13    0.05    0.06   1
  27   1  13   -0.02    0.06   1
 -15  27  -1    0.15    0.08   1
 -15  27   1    0.16    0.07   1
  -1 -15  27    0.16    0.08   1
  -1  15  27    0.07    0.07   1
   1 -15  27    0.11    0.08   1
   1  15  27    0.26    0.08   1
  15  27  -1    0.28    0.07   1
  15  27   1    0.23    0.08   1
  27  -1  15    0.15    0.08   1
  27   1  15    0.10    0.08   1
 -17  27  -1    0.26    0.08   1
 -17  27   1    0.24    0.08   1
  -1 -17  27    0.15    0.08   1
  -1  17  27    0.08    0.08   1
   1 -17  27   -0.07    0.09   1
   1  17  27    0.22    0.09   1
  17  27  -1    0.15    0.08   1
  17  27   1    0.24    0.09   1
  27  -1  17    0.06    0.07   1
  27   1  17    0.11    0.08   1
 -19  27   1    0.14    0.08   1
  -1 -19  27    0.18    0.10   1
  -1  19  27   -0.09    0.08   1
   1 -19  27    0.17    0.11   1
   1  19  27   -0.05    0.08   1
  19  27  -1    0.02    0.09   1
  19  27   1   -0.01    0.09   1
  27  -1  19    0.14    0.09   1
  27   1  19    0.02    0.09   1
  -1 -21  27   -0.22    0.10   1
  -1  21  27   -0.12    0.09   1
   1 -21  27   -0.13    0.13   1
   1  21  27   -0.01    0.09   1
  21  27  -1    0.23    0.12   1
  21  27   1    0.17    0.11   1
  27  -1  21    0.05    0.11   1
  27   1  21   -0.04    0.12   1
 -27  -3  -1    0.14    0.05   1
 -27  -3   1    0.10    0.05   1
  -3  -1  27    0.11    0.06   1
  -3   1  27    0.17    0.06   1
  -1  27  -3    0.16    0.06   1
  -1  27   3    0.16    0.06   1
   1  27  -3    0.02    0.06   1
   1  27   3   -0.05    0.06   1
   3  -1  27    0.11    0.07   1
   3   1  27    0.15    0.06   1
  27  -3  -1    0.07    0.03   1
  27  -3   1    0.07    0.05   1
  27  -3   1    0.09    0.03   1
  27   3  -1    0.07    0.03   1
  27   3   1    0.01    0.03   1
 -27  -3  -3    0.49    0.07   1
  -3  -3  27    0.36    0.08   1
  -3   3  27    0.33    0.09   1
  -3  27  -3    0.47    0.07   1
  -3  27   3    0.21    0.07   1
   3  -3  27    0.45    0.09   1
   3   3  27    0.38    0.08   1
   3  27  -3    0.53    0.08   1
   3  27   3    0.48    0.08   1
  27  -3   3    0.34    0.06   1
  27  -3   3    0.37    0.04   1
  27   3  -3    0.38    0.05   1
  27   3   3    0.35    0.05   1
 -27  -3  -5    0.56    0.08   1
  -5  27  -3    0.81    0.09   1
  -5  27   3    0.94    0.09   1
  -3  -5  27    0.78    0.09   1
  -3   5  27    0.70    0.09   1
   3  -5  27    0.85    0.09   1
   3   5  27    0.74    0.09   1
   5  27  -3    0.79    0.10   1
   5  27   3    1.06    0.12   1
  27  -3   5    0.59    0.07   1
  27   3  -5    0.63    0.05   1
  27   3   5    0.62    0.07   1
 -27  -3  -7    0.38    0.07   1
  -7  27  -3    0.43    0.08   1
  -7  27   3    0.45    0.08   1
  -3  -7  27    0.34    0.07   1
  -3   7  27    0.44    0.08   1
   3  -7  27    0.51    0.08   1
   3   7  27    0.40    0.08   1
   7  27  -3    1.02    0.11   1
   7  27   3    0.43    0.08   1
  27  -3   7    0.57    0.06   1
  27   3   7    0.51    0.06   1
 -27   3  -9    0.06    0.07   1
  -9  27  -3   -0.08    0.06   1
  -9  27   3    0.07    0.06   1
  -3  -9  27    0.08    0.07   1
  -3   9  27    0.03    0.06   1
   3  -9  27    0.07    0.07   1
   3   9  27   -0.03    0.07   1
   9  27  -3    0.04    0.07   1
   9  27   3    0.23    0.07   1
  27  -3   9    0.05    0.05   1
  27   3   9   -0.08    0.05   1
 -11  27  -3    0.16    0.07   1
 -11  27   3    0.23    0.06   1
  -3 -11  27    0.11    0.07   1
  -3  11  27   -0.07    0.06   1
   3 -11  27   -0.08    0.06   1
   3  11  27    0.10    0.07   1
  11  27  -3   -0.03    0.06   1
  11  27   3    0.13    0.07   1
  27  -3  11   -0.11    0.05   1
 -13  27  -3    0.40    0.08   1
 -13  27   3    0.26    0.08   1
  -3 -13  27    0.50    0.09   1
  -3  13  27    0.38    0.08   1
   3 -13  27    0.33    0.08   1
   3  13  27    0.07    0.07   1
  13  27  -3    0.22    0.08   1
  13  27   3    0.43    0.08   1
  27  -3  13    0.31    0.07   1
  27   3  13    0.33    0.08   1
 -15  27  -3    0.87    0.11   1
 -15  27   3    0.85    0.09   1
  -3 -15  27    0.78    0.10   1
  -3  15  27    0.65    0.09   1
   3 -15  27    1.03    0.11   1
   3  15  27    0.61    0.09   1
  15  27  -3    0.61    0.09   1
  15  27   3    0.81    0.09   1
  27  -3  15    0.60    0.08   1
  27   3  15    0.78    0.09   1
 -17  27  -3    0.93    0.11   1
 -17  27   3    0.49    0.10   1
  -3 -17  27    0.54    0.10   1
  -3  17  27    0.68    0.09   1
   3 -17  27    0.80    0.11   1
   3  17  27    0.45    0.09   1
  17  27  -3    0.79    0.10   1
  17  27   3    0.71    0.10   1
  27  -3  17    0.59    0.09   1
  27   3  17    0.69    0.09   1
  -3 -19  27    0.05    0.10   1
  -3  19  27    0.23    0.09   1
   3 -19  27    0.34    0.12   1
   3  19  27    0.32    0.10   1
  19  27  -3    0.15    0.09   1
  19  27   3    0.25    0.10   1
  27  -3  19    0.31    0.09   1
  27   3  19    0.21    0.09   1
  -3 -21  27   -0.09    0.11   1
  -3  21  27   -0.18    0.09   1
   3 -21  27    0.10    0.14   1
   3  21  27   -0.05    0.10   1
  21 -27   3    0.10    0.10   1
  21  27  -3    0.00    0.12   1
  21  27   3    0.05    0.12   1
  27  -3  21   -0.05    0.10   1
  27   3  21    0.11    0.11   1
 -27  -5  -1    0.26    0.06   1
 -27  -5   1    0.35    0.06   1
  -5   1  27    0.46    0.07   1
  -1  27  -5    0.32    0.07   1
  -1  27   5    0.38    0.07   1
   1  27  -5    0.41    0.07   1
   1  27   5    0.32    0.07   1
   5  -1  27    0.38    0.07   1
   5   1  27    0.47    0.08   1
  27  -5   1    0.31    0.06   1
  27  -5   1    0.31    0.03   1
  27   5  -1    0.38    0.05   1
  27   5   1    0.23    0.04   1
 -27  -5  -3    0.69    0.08   1
  -5  -3  27    0.68    0.08   1
  -5   3  27    0.74    0.09   1
  -3  27  -5    0.90    0.11   1
  -3  27   5    0.85    0.09   1
   3  27  -5    0.65    0.09   1
   3  27   5    1.05    0.11   1
   5  -3  27    0.86    0.09   1
   5   3  27    0.68    0.08   1
  27  -5   3    0.65    0.06   1
  27  -5   3    0.53    0.06   1
  27   5  -3    0.71    0.06   1
  27   5   3    0.71    0.07   1
 -27  -5  -5    1.06    0.12   1
  -5  -5  27    1.53    0.12   1
  -5   5  27    1.29    0.10   1
  -5  27  -5    1.34    0.12   1
  -5  27   5    1.29    0.12   1
   5  -5  27    1.34    0.13   1
   5   5  27    1.21    0.11   1
   5  27  -5    1.25    0.12   1
   5  27   5    1.01    0.11   1
  27  -5   5    1.07    0.10   1
  27  -5   5    0.92    0.07   1
  27   5  -5    1.10    0.06   1
  27   5   5    1.15    0.09   1
  -7  27  -5    1.46    0.13   1
  -7  27   5    1.24    0.12   1
  -5  -7  27    1.04    0.12   1
  -5   7  27    1.13    0.11   1
   5  -7  27    0.97    0.12   1
   5   7  27    0.96    0.11   1
   7  27  -5    1.13    0.11   1
   7  27   5    1.21    0.12   1
  27  -5   7    0.90    0.11   1
  27  -5   7    0.85    0.08   1
  27   5  -7    0.94    0.05   1
  27   5   7    1.02    0.09   1
  -9  27  -5    0.23    0.08   1
  -9  27   5    0.27    0.07   1
  -5  -9  27    0.22    0.08   1
   5  -9  27    0.12    0.08   1
   5   9  27    0.14    0.07   1
   9  27  -5    0.35    0.07   1
   9  27   5    0.47    0.07   1
  27  -5   9    0.20    0.07   1
  27  -5   9    0.33    0.05   1
  27   5   9    0.30    0.05   1
 -11  27  -5    0.51    0.09   1
 -11  27   5    0.36    0.07   1
  -5 -11  27    0.19    0.08   1
  -5  11  27    0.16    0.07   1
   5 -11  27    0.16    0.07   1
   5  11  27    0.19    0.07   1
  11  27  -5    0.36    0.08   1
  11  27   5    0.32    0.07   1
  27  -5  11    0.23    0.06   1
  27   5  11    0.26    0.07   1
 -13  27  -5    0.60    0.09   1
 -13  27   5    0.55    0.08   1
  -5 -13  27    0.55    0.09   1
  -5  13  27    0.37    0.08   1
   5 -13  27    0.67    0.10   1
   5  13  27    0.68    0.10   1
  13  27  -5    0.35    0.09   1
  13  27   5    0.65    0.09   1
  27  -5  13    0.54    0.08   1
  27   5  13    0.55    0.08   1
 -15  27  -5    1.08    0.10   1
  -5 -15  27    1.24    0.15   1
  -5  15  27    0.95    0.10   1
   5 -15  27    1.14    0.12   1
   5  15  27    0.97    0.11   1
  15  27  -5    1.45    0.14   1
  15  27   5    1.06    0.11   1
  27  -5  15    1.33    0.14   1
  27   5  15    1.03    0.11   1
 -17  27   5    0.94    0.09   1
  -5 -17  27    1.03    0.11   1
  -5  17  27    0.82    0.10   1
   5 -17  27    0.92    0.12   1
   5  17  27    0.85    0.11   1
  17  27  -5    0.76    0.10   1
  17  27   5    0.91    0.11   1
  27  -5  17    0.97    0.11   1
  27   5  17    0.92    0.11   1
  -5 -19  27    0.30    0.10   1
  -5  19  27    0.31    0.08   1
   5 -19  27    0.62    0.12   1
   5  19  27    0.41    0.10   1
  19 -27   5    0.18    0.10   1
  19  27  -5    0.23    0.11   1
  19  27   5    0.49    0.11   1
  27  -5  19    0.30    0.10   1
  27   5  19    0.18    0.10   1
  -5 -21  27   -0.08    0.10   1
  -5  21  27    0.18    0.10   1
   5  21  27   -0.08    0.10   1
  21 -27   5    0.14    0.11   1
  21  27  -5   -0.08    0.12   1
  21  27   5   -0.01    0.12   1
  27  -5  21    0.13    0.11   1
  27   5  21   -0.04    0.11   1
 -27  -7  -1   -0.01    0.06   1
 -27  -7   1    0.17    0.06   1
  -7  -1  27    0.12    0.05   1
  -7   1  27    0.08    0.05   1
  -1  27  -7    0.01    0.06   1
  -1  27   7    0.06    0.07   1
   1  27  -7    0.13    0.06   1
   1  27   7   -0.01    0.07   1
   7  -1  27    0.13    0.07   1
   7   1  27    0.08    0.06   1
  27  -7   1   -0.03    0.03   1
  27   7  -1    0.01    0.04   1
  27   7   1    0.05    0.04   1
 -27  -7  -3    0.49    0.08   1
  -7  -3  27    0.51    0.08   1
  -7   3  27    0.36    0.07   1
  -3  27  -7    0.58    0.09   1
  -3  27   7    0.54    0.07   1
   3  27  -7    0.65    0.08   1
   3  27   7    0.45    0.08   1
   7  -3  27    0.39    0.08   1
   7   3  27    0.39    0.07   1
  27  -7   3    0.43    0.04   1
  27   7  -3    0.48    0.05   1
  27   7   3    0.43    0.06   1
 -27  -7  -5    1.14    0.13   1
  -7  -5  27    1.04    0.11   1
  -7   5  27    0.92    0.10   1
  -5  27  -7    1.17    0.12   1
  -5  27   7    1.16    0.11   1
   5  27  -7    1.28    0.11   1
   5  27   7    0.99    0.12   1
   7  -5  27    1.27    0.12   1
   7   5  27    1.41    0.12   1
  27  -7   5    1.12    0.07   1
  27   7  -5    0.96    0.06   1
  27   7   5    1.05    0.08   1
  -7  -7  27    0.85    0.09   1
  -7   7  27    0.93    0.10   1
  -7  27  -7    0.92    0.10   1
  -7  27   7    0.78    0.09   1
   7  -7  27    0.86    0.10   1
   7   7  27    0.73    0.09   1
   7  27  -7    0.73    0.08   1
   7  27   7    1.01    0.11   1
  27  -7   7    0.78    0.11   1
  27  -7   7    0.82    0.08   1
  27   7  -7    0.79    0.06   1
  27   7   7    0.63    0.07   1
  -9  27  -7    0.05    0.07   1
  -9  27   7    0.05    0.07   1
  -7  -9  27   -0.03    0.07   1
  -7   9  27    0.13    0.05   1
   7  -9  27   -0.03    0.08   1
   7   9  27    0.24    0.07   1
   9  27  -7    0.18    0.07   1
   9  27   7    0.04    0.07   1
  27  -7   9    0.18    0.09   1
  27  -7   9    0.13    0.05   1
  27   7  -9    0.16    0.04   1
 -11  27  -7   -0.04    0.08   1
 -11  27   7    0.24    0.08   1
  -7  11  27   -0.04    0.06   1
   7 -11  27    0.00    0.07   1
   7  11  27   -0.16    0.07   1
  11  27  -7    0.28    0.07   1
  11  27   7    0.05    0.07   1
  27  -7  11    0.00    0.06   1
  27   7  11   -0.06    0.06   1
 -13  27  -7    0.35    0.08   1
 -13  27   7    0.17    0.08   1
  -7 -13  27    0.08    0.08   1
  -7  13  27    0.09    0.08   1
   7 -13  27    0.26    0.09   1
   7  13  27    0.21    0.08   1
  13  27  -7    0.32    0.08   1
  13  27   7    0.09    0.08   1
  27  -7  13    0.14    0.07   1
  27   7  13    0.07    0.08   1
 -15  27  -7    0.53    0.10   1
 -15  27   7    0.55    0.08   1
  -7 -15  27    0.34    0.09   1
  -7  15  27    0.24    0.08   1
   7 -15  27    0.29    0.09   1
   7  15  27    0.54    0.09   1
  15  27  -7    0.68    0.09   1
  15  27   7    0.53    0.09   1
  27  -7  15    0.69    0.09   1
  27   7  15    0.38    0.09   1
 -17  27   7    0.46    0.07   1
  -7 -17  27    0.55    0.10   1
  -7  17  27    0.33    0.08   1
   7 -17  27    0.49    0.11   1
   7  17  27    0.47    0.09   1
  17 -27   7    0.23    0.08   1
  17  27  -7    0.32    0.09   1
  17  27   7    0.61    0.10   1
  27  -7  17    0.32    0.10   1
  27   7  17    0.40    0.09   1
  -7 -19  27    0.09    0.09   1
  -7  19  27    0.06    0.09   1
   7 -19  27   -0.11    0.10   1
   7  19  27   -0.02    0.10   1
  19 -27   7    0.36    0.09   1
  19  27  -7    0.09    0.10   1
  19  27   7    0.05    0.10   1
  27  -7  19    0.27    0.11   1
  27   7  19   -0.08    0.09   1
 -27  -9  -1    0.21    0.07   1
 -27  -9   1    0.18    0.08   1
  -9  -1  27    0.01    0.06   1
  -9   1  27    0.14    0.05   1
  -1  27  -9    0.09    0.07   1
  -1  27   9    0.11    0.06   1
   1  27  -9    0.04    0.07   1
   1  27   9   -0.09    0.06   1
   9  -1  27   -0.05    0.07   1
   9   1  27    0.04    0.06   1
  27  -9   1   -0.03    0.03   1
  27   9  -1   -0.02    0.05   1
  27   9   1    0.08    0.05   1
 -27  -9  -3    0.14    0.08   1
  -9  -3  27    0.39    0.07   1
  -9   3  27    0.14    0.06   1
  -3  27  -9    0.03    0.07   1
  -3  27   9    0.07    0.07   1
   3  27  -9    0.19    0.07   1
   3  27   9    0.02    0.06   1
   9  -3  27    0.28    0.07   1
   9   3  27    0.12    0.06   1
  27  -9   3    0.05    0.03   1
  27   9  -3    0.06    0.05   1
  27   9   3    0.04    0.05   1
  -9   5  27    0.30    0.07   1
  -5  27  -9    0.49    0.08   1
  -5  27   9    0.24    0.06   1
   5  27  -9    0.26    0.07   1
   5  27   9    0.30    0.07   1
   9  -5  27    0.08    0.07   1
   9   5  27    0.17    0.06   1
  27  -9   5    0.31    0.04   1
  27   9  -5    0.33    0.05   1
  27   9   5    0.23    0.05   1
  -9  -7  27    0.04    0.07   1
  -9   7  27    0.07    0.06   1
  -7  27  -9    0.05    0.07   1
  -7  27   9    0.08    0.07   1
   7  27   9    0.03    0.07   1
   9  -7  27    0.05    0.07   1
   9   7  27    0.05    0.07   1
  27  -9   7    0.25    0.05   1
  27   9  -7    0.04    0.04   1
  27   9   7    0.09    0.07   1
  -9  -9  27    0.00    0.07   1
  -9   9  27    0.01    0.06   1
  -9  27  -9    0.12    0.08   1
  -9  27   9    0.12    0.07   1
   9  -9  27    0.22    0.09   1
   9   9  27    0.06    0.07   1
   9  27  -9    0.08    0.07   1
   9  27   9    0.20    0.08   1
  27  -9   9    0.16    0.05   1
  27   9  -9   -0.02    0.04   1
  27   9   9   -0.02    0.06   1
 -11  27  -9   -0.06    0.08   1
 -11  27   9   -0.01    0.07   1
  -9 -11  27    0.00    0.07   1
  -9  11  27   -0.08    0.06   1
   9 -11  27    0.37    0.08   1
   9  11  27    0.06    0.08   1
  11  27  -9    0.02    0.07   1
  11  27   9    0.00    0.07   1
  27  -9  11   -0.07    0.06   1
  27   9  11   -0.11    0.06   1
 -13  27  -9    0.11    0.08   1
  -9 -13  27   -0.12    0.08   1
  -9  13  27   -0.15    0.06   1
   9 -13  27    0.07    0.09   1
   9  13  27    0.00    0.08   1
  13  27  -9    0.03    0.07   1
  13  27   9   -0.19    0.08   1
  27  -9  13   -0.06    0.07   1
  27   9  13   -0.09    0.07   1
 -15  27   9    0.01    0.06   1
  -9 -15  27    0.00    0.08   1
  -9  15  27    0.25    0.08   1
   9 -15  27    0.20    0.09   1
   9  15  27   -0.08    0.08   1
  15  27  -9    0.07    0.08   1
  15  27   9    0.08    0.09   1
  27  -9  15    0.06    0.09   1
  27   9  15    0.02    0.08   1
  -9 -17  27    0.20    0.09   1
  -9  17  27   -0.02    0.07   1
   9 -17  27    0.19    0.10   1
   9  17  27   -0.06    0.09   1
  17 -27   9    0.13    0.09   1
  17  27  -9   -0.07    0.09   1
  17  27   9   -0.09    0.09   1
  27  -9  17   -0.04    0.09   1
  27   9  17    0.17    0.09   1
  -9 -19  27    0.01    0.09   1
  -9  19  27    0.13    0.08   1
   9 -19  27   -0.28    0.12   1
   9  19  27   -0.08    0.11   1
  19 -27   9    0.10    0.10   1
  19  27  -9   -0.09    0.11   1
  19  27   9   -0.08    0.12   1
  27  -9  19   -0.09    0.11   1
  27   9  19    0.09    0.11   1
 -11  -1  27    0.09    0.06   1
 -11   1  27    0.13    0.09   1
 -11   1  27    0.08    0.05   1
  -1  27 -11    0.28    0.07   1
  -1  27  11   -0.10    0.06   1
   1  27 -11    0.03    0.07   1
   1  27  11    0.05    0.07   1
  11   1  27   -0.08    0.07   1
  27 -11   1   -0.07    0.03   1
  27  11  -1    0.15    0.05   1
  27  11   1    0.15    0.05   1
 -11  -3  27    0.10    0.06   1
 -11   3  27    0.21    0.05   1
  -3  27 -11    0.00    0.08   1
  -3  27  11    0.01    0.07   1
   3  27 -11    0.16    0.07   1
   3  27  11    0.19    0.07   1
  11  -3  27    0.04    0.07   1
  11   3  27    0.14    0.07   1
  27 -11   3    0.02    0.03   1
  27  11  -3   -0.03    0.05   1
  27  11   3    0.06    0.06   1
 -11  -5  27    0.51    0.07   1
 -11   5  27    0.33    0.06   1
  -5  27 -11    0.33    0.08   1
  -5  27  11    0.24    0.08   1
   5  27 -11    0.20    0.08   1
   5  27  11    0.21    0.07   1
  11  -5  27    0.31    0.08   1
  11   5  27    0.19    0.07   1
  27 -11   5    0.21    0.05   1
  27  11  -5    0.40    0.06   1
 -11  -7  27    0.01    0.07   1
 -11   7  27    0.04    0.05   1
  -7  27 -11    0.11    0.08   1
   7  27 -11    0.23    0.07   1
   7  27  11    0.11    0.08   1
  11  -7  27    0.31    0.08   1
  11   7  27    0.15    0.07   1
  27 -11   7    0.01    0.05   1
  27  11  -7   -0.05    0.05   1
  27  11   7    0.08    0.06   1
 -11  -9  27   -0.06    0.07   1
 -11   9  27   -0.07    0.05   1
  -9  27 -11    0.22    0.08   1
  -9  27  11   -0.03    0.07   1
   9  27 -11   -0.09    0.07   1
   9  27  11    0.09    0.08   1
  11  -9  27   -0.08    0.07   1
  11   9  27    0.16    0.08   1
  27 -11   9    0.20    0.06   1
  27  11  -9   -0.01    0.05   1
 -11 -11  27    0.20    0.08   1
 -11  11  27   -0.03    0.06   1
 -11  27 -11    0.21    0.09   1
 -11  27  11   -0.01    0.07   1
  11 -11  27    0.10    0.09   1
  11  11  27    0.08    0.09   1
  11  27 -11   -0.05    0.07   1
  11  27  11    0.15    0.08   1
  27 -11  11    0.06    0.06   1
  27  11 -11   -0.03    0.08   1
  27  11  11   -0.10    0.07   1
 -13  27  11   -0.08    0.08   1
 -11 -13  27    0.05    0.08   1
 -11  13  27    0.01    0.06   1
  11 -13  27    0.14    0.10   1
  11  13  27   -0.09    0.09   1
  13  27 -11    0.05    0.09   1
  13  27  11    0.21    0.09   1
  27 -11  13    0.03    0.08   1
  27  11  13   -0.03    0.07   1
 -15  27  11    0.19    0.07   1
 -11 -15  27    0.27    0.09   1
 -11  15  27   -0.07    0.06   1
  11 -15  27    0.23    0.11   1
  11  15  27    0.03    0.09   1
  15 -27  11   -0.02    0.08   1
  15  27 -11    0.03    0.09   1
  15  27  11    0.19    0.11   1
  27 -11  15    0.14    0.09   1
  27  11  15   -0.20    0.08   1
 -11 -17  27    0.08    0.09   1
  11 -17  27    0.25    0.11   1
  11  17  27    0.00    0.10   1
  17 -27  11    0.11    0.09   1
  17  27 -11    0.17    0.11   1
  17  27  11    0.14    0.11   1
  27 -11  17    0.15    0.10   1
  27  11  17   -0.08    0.10   1
 -13  -1  27   -0.13    0.05   1
 -13   1  27    0.14    0.06   1
  -1  27 -13   -0.10    0.08   1
  -1  27  13    0.08    0.07   1
   1  27 -13   -0.01    0.08   1
   1  27  13   -0.02    0.06   1
  13  -1  27    0.14    0.07   1
  13   1  27    0.11    0.07   1
  27  13  -1    0.12    0.06   1
  27  13   1   -0.16    0.05   1
 -13  -3  27    0.33    0.07   1
 -13   3  27    0.36    0.06   1
  -3  27 -13    0.41    0.10   1
  -3  27  13    0.58    0.09   1
   3  27 -13    0.49    0.09   1
   3  27  13    0.30    0.08   1
  13  -3  27    0.40    0.08   1
  13   3  27    0.35    0.08   1
  27 -13   3    0.26    0.04   1
  27  13  -3    0.26    0.06   1
  27  13   3    0.17    0.07   1
 -13  -5  27    0.51    0.07   1
 -13   5  27    0.51    0.07   1
  -5  27 -13    0.55    0.09   1
  -5  27  13    0.43    0.08   1
   5  27 -13    0.65    0.09   1
   5  27  13    0.64    0.09   1
  13  -5  27    0.61    0.10   1
  13   5  27    0.49    0.09   1
  27 -13   5    0.63    0.08   1
  27  13  -5    0.78    0.09   1
  27  13   5    0.44    0.08   1
 -13   7  27    0.11    0.06   1
  -7  27 -13    0.06    0.09   1
  -7  27  13    0.13    0.07   1
   7  27 -13    0.30    0.09   1
   7  27  13    0.07    0.08   1
  13  -7  27    0.32    0.09   1
  13   7  27    0.21    0.08   1
  27 -13   7    0.16    0.06   1
  27  13  -7    0.23    0.06   1
  27  13   7    0.23    0.07   1
 -13  -9  27    0.07    0.08   1
 -13   9  27    0.03    0.06   1
  -9  27 -13    0.28    0.09   1
  -9  27  13    0.08    0.07   1
   9  27 -13    0.12    0.08   1
  13  -9  27   -0.12    0.09   1
  13   9  27   -0.09    0.08   1
  27 -13   9    0.05    0.06   1
  27  13  -9    0.05    0.07   1
  27  13   9    0.10    0.08   1
 -13 -11  27    0.07    0.08   1
 -11  27  13    0.05    0.07   1
  11  27 -13    0.04    0.08   1
  11  27  13   -0.13    0.08   1
  13 -11  27   -0.22    0.09   1
  13  11  27    0.04    0.08   1
  27 -13  11    0.17    0.08   1
  27  13 -11    0.11    0.07   1
  27  13  11   -0.09    0.08   1
 -13 -13  27    0.00    0.09   1
 -13  27  13    0.12    0.08   1
  13 -27  13   -0.12    0.08   1
  13 -13  27    0.07    0.11   1
  13  13  27    0.01    0.09   1
  13  27 -13    0.00    0.09   1
  13  27  13   -0.12    0.11   1
  27 -13  13   -0.06    0.08   1
  27  13  13    0.05    0.09   1
 -13 -15  27    0.00    0.09   1
  13 -15  27    0.19    0.11   1
  13  15  27    0.13    0.10   1
  15 -27  13    0.08    0.09   1
  15  27 -13    0.18    0.11   1
  15  27  13    0.01    0.12   1
  27 -13  15    0.21    0.10   1
  27  13  15    0.37    0.10   1
 -13 -17  27   -0.07    0.10   1
  13 -17  27    0.03    0.15   1
  13  17  27    0.65    0.19   1
  17 -27  13    0.49    0.12   1
  17  27 -13    0.24    0.12   1
  17  27  13    0.01    0.16   1
  27 -13  17    0.44    0.12   1
  27  13  17    0.36    0.12   1
 -15  -1  27    0.09    0.06   1
 -15   1  27    0.10    0.06   1
  -1  27 -15    0.33    0.09   1
  -1  27  15    0.01    0.07   1
   1  27 -15    0.12    0.09   1
   1  27  15    0.19    0.07   1
  15  -1  27    0.05    0.07   1
  15   1  27    0.21    0.07   1
  27  15  -1   -0.02    0.07   1
  27  15   1    0.01    0.07   1
 -15  -3  27    0.99    0.10   1
 -15   3  27    0.63    0.07   1
  -3  27 -15    0.97    0.12   1
  -3  27  15    1.09    0.13   1
   3  27 -15    0.86    0.11   1
   3  27  15    0.51    0.09   1
  15  -3  27    0.63    0.09   1
  15   3  27    0.66    0.09   1
  27  15  -3    0.59    0.12   1
  27  15   3    0.75    0.09   1
 -15  -5  27    1.00    0.09   1
  -5  27 -15    1.32    0.16   1
  -5  27  15    1.34    0.14   1
   5  27 -15    0.99    0.12   1
   5  27  15    1.29    0.14   1
  15  -5  27    1.15    0.14   1
  15   5  27    0.74    0.09   1
  27 -15   5    1.23    0.09   1
  27  15  -5    1.24    0.12   1
  27  15   5    1.64    0.16   1
 -15  -7  27    0.40    0.07   1
  -7  27 -15    0.74    0.12   1
  -7  27  15    0.64    0.10   1
   7  27  15    0.72    0.11   1
  15  -7  27    0.45    0.09   1
  15   7  27    0.48    0.10   1
  27 -15   7    0.54    0.07   1
  27  15  -7    0.36    0.07   1
  27  15   7    0.66    0.10   1
 -15  -9  27    0.00    0.08   1
  -9  27  15   -0.11    0.07   1
   9  27 -15    0.38    0.10   1
   9  27  15   -0.01    0.09   1
  15  -9  27    0.46    0.10   1
  15   9  27    0.00    0.08   1
  27 -15   9    0.09    0.06   1
  27  15  -9    0.10    0.08   1
  27  15   9    0.06    0.08   1
 -15 -11  27    0.25    0.09   1
 -11  27  15    0.03    0.08   1
  11 -27  15    0.01    0.08   1
  11  27 -15    0.46    0.11   1
  11  27  15   -0.07    0.10   1
  15 -11  27    0.10    0.10   1
  15  11  27    0.11    0.10   1
  27 -15  11    0.20    0.08   1
  27  15 -11    0.00    0.08   1
  27  15  11    0.01    0.09   1
 -15 -13  27    0.28    0.09   1
 -13  27  15    0.29    0.09   1
  13 -27  15    0.15    0.10   1
  13  27 -15    0.08    0.11   1
  13  27  15    0.00    0.12   1
  15 -13  27    0.28    0.12   1
  15  13  27    0.08    0.11   1
  27 -15  13    0.20    0.10   1
  27  15  13    0.09    0.09   1
 -15 -15  27    0.52    0.10   1
  15 -27  15    0.28    0.11   1
  15 -15  27    0.26    0.14   1
  15  15  27    0.33    0.15   1
  15  27 -15    0.27    0.13   1
  15  27  15    0.58    0.16   1
  27 -15  15    0.60    0.12   1
  27  15  15    0.25    0.12   1
  -1  27 -17    0.22    0.10   1
  -1  27  17    0.36    0.09   1
   1  27 -17    0.08    0.09   1
   1  27  17    0.30    0.08   1
  17  -1  27    0.21    0.08   1
  17   1  27    0.20    0.08   1
  27  17  -1    0.15    0.08   1
  27  17   1   -0.13    0.09   1
  -3  27 -17    1.01    0.12   1
  -3  27  17    0.48    0.09   1
   3  27 -17    0.84    0.12   1
   3  27  17    0.70    0.10   1
  17  -3  27    0.61    0.09   1
  17   3  27    0.87    0.11   1
  27  17  -3    0.82    0.10   1
  27  17   3    0.62    0.10   1
  -5  27 -17    1.35    0.16   1
  -5  27  17    0.78    0.10   1
   5  27 -17    1.03    0.13   1
   5  27  17    1.05    0.12   1
  17  -5  27    1.02    0.12   1
  17   5  27    0.92    0.11   1
  27  17  -5    0.97    0.11   1
  27  17   5    1.12    0.12   1
 -17  -7  27    0.62    0.08   1
  -7  27  17    0.55    0.09   1
   7  27 -17    0.51    0.11   1
  17  -7  27    0.52    0.11   1
  17   7  27    0.40    0.10   1
  27 -17   7    0.46    0.09   1
  27  17  -7    0.19    0.09   1
  27  17   7    0.29    0.10   1
 -17  -9  27   -0.06    0.08   1
  -9  27  17    0.04    0.08   1
   9 -27  17   -0.08    0.08   1
   9  27 -17    0.33    0.11   1
   9  27  17    0.03    0.10   1
  17  -9  27   -0.08    0.10   1
  17   9  27   -0.14    0.10   1
  27 -17   9    0.16    0.09   1
  27  17  -9   -0.02    0.09   1
  27  17   9    0.00    0.09   1
 -17 -11  27    0.23    0.09   1
 -11  27  17    0.21    0.08   1
  11 -27  17    0.08    0.11   1
  11  27 -17   -0.08    0.11   1
  11  27  17    0.23    0.10   1
  17 -11  27    0.20    0.11   1
  17  11  27   -0.24    0.10   1
  27 -17  11    0.10    0.09   1
  27  17 -11    0.07    0.10   1
  27  17  11    0.22    0.10   1
 -17 -13  27    0.09    0.09   1
  13 -27  17    0.57    0.12   1
  13  27 -17    0.22    0.13   1
  17 -13  27    0.16    0.13   1
  27 -17  13    0.20    0.11   1
  27  17  13    0.47    0.13   1
  -1  27 -19   -0.04    0.10   1
  -1  27  19    0.07    0.09   1
   1  27 -19    0.18    0.11   1
   1  27  19   -0.02    0.08   1
  19  -1  27   -0.08    0.09   1
  19   1  27   -0.08    0.08   1
  27  19  -1    0.15    0.10   1
  27  19   1    0.15    0.10   1
  -3  27  19    0.28    0.08   1
   3  27 -19    0.63    0.11   1
   3  27  19    0.14    0.10   1
  19  -3  27    0.06    0.10   1
  19   3  27    0.11    0.09   1
  27  19  -3    0.17    0.10   1
  27  19   3    0.25    0.11   1
  -5  27  19    0.43    0.09   1
   5 -27  19    0.30    0.09   1
   5  27 -19    0.69    0.13   1
   5  27  19    0.60    0.11   1
  19  -5  27    0.53    0.11   1
  19   5  27    0.35    0.10   1
  27  19  -5    0.33    0.11   1
  27  19   5    0.25    0.10   1
  -7  27  19    0.11    0.09   1
   7 -27  19    0.22    0.10   1
   7  27 -19    0.01    0.11   1
   7  27  19    0.07    0.11   1
  19  -7  27    0.16    0.10   1
  19   7  27    0.00    0.10   1
  27  19  -7   -0.01    0.10   1
  27  19   7    0.10    0.11   1
  -9  27  19    0.04    0.09   1
   9 -27  19    0.05    0.12   1
   9  27 -19   -0.20    0.12   1
   9  27  19   -0.08    0.12   1
  19  -9  27   -0.10    0.12   1
  19   9  27   -0.15    0.11   1
  27  19  -9    0.03    0.11   1
  27  19   9    0.27    0.11   1
  -1  27  21   -0.04    0.09   1
   1 -27  21    0.06    0.12   1
   1  27  21    0.15    0.10   1
  21  -1  27    0.06    0.11   1
  21   1  27   -0.15    0.10   1
  27  21  -1   -0.13    0.12   1
  27  21   1    0.16    0.12   1
  -3  27  21   -0.20    0.08   1
   3 -27  21    0.13    0.16   1
   3  27 -21    0.04    0.14   1
   3  27  21    0.16    0.10   1
  21  -3  27    0.49    0.11   1
  21   3  27   -0.25    0.12   1
  27  21  -3    0.06    0.12   1
  27  21   3   -0.24    0.11   1
  -5  27  21    0.00    0.09   1
   5  27 -21    0.20    0.14   1
   5  27  21   -0.15    0.10   1
  21  -5  27    0.06    0.12   1
  21   5  27    0.10    0.13   1
  27  21  -5    0.03    0.13   1
  27  21   5    0.15    0.12   1
   0   0  28    0.62    0.09   1
   0  28   0    0.55    0.09   1
  28   0   0    0.46    0.04   1
  -2  28   0    0.11    0.07   1
   0  -2  28    0.10    0.07   1
   0   2  28   -0.08    0.05   1
   2  28   0   -0.04    0.06   1
  28   0  -2   -0.02    0.03   1
  28   0   2    0.00    0.03   1
  -4  28   0    0.07    0.07   1
   0  -4  28    0.20    0.07   1
   0   4  28    0.12    0.06   1
   4  28   0    0.18    0.07   1
  28   0   4   -0.02    0.04   1
  -6  28   0    0.04    0.06   1
   0  -6  28    0.03    0.07   1
   0   6  28   -0.04    0.06   1
   6  28   0    0.06    0.07   1
  28   0   6    0.09    0.05   1
 -28   0  -8    0.08    0.11   1
  -8  28   0    0.13    0.07   1
   0  -8  28    0.10    0.07   1
   0   8  28    0.18    0.06   1
   8  28   0    0.04    0.06   1
  28   0   8   -0.05    0.05   1
 -10  28   0    0.19    0.07   1
   0 -10  28    0.48    0.09   1
   0  10  28    0.12    0.07   1
  10  28   0    0.24    0.07   1
  28   0  10    0.07    0.06   1
 -12  28   0    0.05    0.07   1
   0 -12  28   -0.15    0.08   1
  12  28   0   -0.01    0.07   1
  28   0  12    0.00    0.07   1
 -14  28   0    0.06    0.08   1
   0 -14  28   -0.04    0.08   1
   0  14  28    0.06    0.08   1
  14  28   0   -0.13    0.07   1
  28   0  14   -0.09    0.08   1
 -16  28   0    0.14    0.08   1
   0 -16  28   -0.04    0.09   1
   0  16  28    0.00    0.08   1
  16  28   0    0.16    0.08   1
  28   0  16   -0.05    0.08   1
 -18  28   0    0.02    0.09   1
   0 -18  28    0.29    0.11   1
   0  18  28   -0.05    0.09   1
  18  28   0   -0.06    0.10   1
  28   0  18    0.04    0.10   1
   0 -20  28   -0.24    0.12   1
   0  20  28   -0.03    0.09   1
  20  28   0    0.12    0.12   1
  28   0  20   -0.29    0.11   1
  -2   0  28    0.08    0.06   1
   0  28  -2    0.27    0.07   1
   0  28   2    0.20    0.06   1
   2   0  28    0.03    0.07   1
  28  -2   0   -0.01    0.03   1
  28   2   0   -0.01    0.03   1
  -2  -2  28   -0.01    0.06   1
  -2   2  28    0.06    0.06   1
  -2  28  -2   -0.05    0.06   1
  -2  28   2    0.03    0.07   1
   2  -2  28    0.13    0.07   1
   2   2  28   -0.02    0.07   1
   2  28  -2    0.05    0.07   1
   2  28   2   -0.02    0.06   1
  28  -2   2    0.02    0.03   1
  28   2  -2   -0.02    0.03   1
  28   2   2   -0.03    0.04   1
  -4  28  -2    0.22    0.07   1
  -4  28   2    0.38    0.08   1
  -2  -4  28    0.31    0.08   1
  -2   4  28    0.44    0.07   1
   2  -4  28    0.41    0.07   1
   2   4  28    0.27    0.07   1
   4  28  -2    0.34    0.08   1
   4  28   2    0.35    0.07   1
  28  -2   4    0.30    0.04   1
  28   2   4    0.23    0.05   1
 -28  -2  -6    0.22    0.08   1
  -6  28  -2    0.27    0.07   1
  -6  28   2    0.35    0.08   1
  -2  -6  28    0.37    0.07   1
  -2   6  28    0.33    0.07   1
   2  -6  28    0.35    0.08   1
   2   6  28    0.18    0.07   1
   6  28  -2    0.31    0.07   1
   6  28   2    0.08    0.07   1
  28  -2   6    0.29    0.05   1
  -8  28  -2    0.02    0.07   1
  -8  28   2   -0.04    0.06   1
  -2  -8  28   -0.15    0.07   1
  -2   8  28   -0.08    0.06   1
   2  -8  28   -0.09    0.07   1
   2   8  28    0.20    0.07   1
   8  28  -2    0.08    0.07   1
   8  28   2   -0.02    0.07   1
  28  -2   8    0.01    0.05   1
  28   2   8   -0.02    0.05   1
 -10  28  -2    0.09    0.07   1
 -10  28   2    0.17    0.06   1
  -2 -10  28    0.08    0.07   1
  -2  10  28   -0.15    0.06   1
   2 -10  28    0.07    0.08   1
   2  10  28    0.14    0.07   1
  10  28  -2   -0.08    0.07   1
  10  28   2    0.15    0.08   1
  28  -2  10    0.03    0.05   1
 -12  28  -2   -0.04    0.07   1
 -12  28   2   -0.10    0.06   1
  -2 -12  28    0.21    0.09   1
  -2  12  28   -0.07    0.07   1
   2 -12  28    0.02    0.07   1
   2  12  28   -0.03    0.07   1
  12  28  -2   -0.14    0.07   1
  12  28   2    0.09    0.07   1
  28  -2  12   -0.15    0.06   1
  28   2  12   -0.20    0.07   1
 -14  28  -2    0.05    0.08   1
 -14  28   2    0.08    0.07   1
  -2 -14  28    0.15    0.08   1
  -2  14  28    0.01    0.08   1
   2 -14  28   -0.06    0.08   1
   2  14  28    0.16    0.08   1
  14  28  -2   -0.02    0.07   1
  14  28   2    0.12    0.08   1
  28  -2  14    0.07    0.08   1
  28   2  14    0.08    0.08   1
 -16  28  -2    0.25    0.09   1
 -16  28   2    0.15    0.08   1
  -2 -16  28    0.33    0.09   1
  -2  16  28    0.01    0.08   1
   2 -16  28    0.25    0.09   1
   2  16  28    0.31    0.09   1
  16  28  -2    0.23    0.08   1
  16  28   2    0.19    0.10   1
  28  -2  16    0.34    0.09   1
  28   2  16    0.08    0.09   1
 -18  28  -2    0.52    0.09   1
 -18  28   2    0.24    0.08   1
  -2 -18  28    0.29    0.10   1
  -2  18  28    0.14    0.09   1
   2 -18  28    0.11    0.10   1
   2  18  28    0.23    0.10   1
  18  28  -2    0.38    0.10   1
  18  28   2    0.52    0.11   1
  28  -2  18    0.34    0.10   1
  28   2  18    0.37    0.10   1
  -2 -20  28    0.05    0.12   1
  -2  20  28    0.05    0.09   1
   2 -20  28    0.19    0.14   1
   2  20  28    0.12    0.10   1
  20 -28   2    0.15    0.10   1
  20  28  -2    0.18    0.12   1
  20  28   2   -0.08    0.12   1
  28  -2  20   -0.02    0.11   1
  28   2  20   -0.06    0.11   1
  -4   0  28    0.20    0.06   1
   0  28  -4    0.21    0.06   1
   0  28   4    0.16    0.07   1
   4   0  28    0.24    0.07   1
  28  -4   0    0.08    0.03   1
  28   4   0    0.07    0.04   1
  -4  -2  28    0.35    0.07   1
  -4   2  28    0.38    0.07   1
  -2  28  -4    0.25    0.07   1
  -2  28   4    0.60    0.09   1
   2  28  -4    0.25    0.06   1
   2  28   4    0.27    0.07   1
   4  -2  28    0.42    0.08   1
   4   2  28    0.50    0.08   1
  28  -4   2    0.29    0.03   1
  28   4  -2    0.47    0.04   1
  28   4   2    0.34    0.05   1
 -28  -4  -4    0.54    0.10   1
  -4  -4  28    0.73    0.09   1
  -4   4  28    0.65    0.08   1
  -4  28  -4    0.74    0.09   1
  -4  28   4    0.72    0.09   1
   4  -4  28    0.78    0.09   1
   4   4  28    0.61    0.08   1
   4  28  -4    0.77    0.10   1
   4  28   4    0.78    0.10   1
  28  -4   4    0.46    0.05   1
  28   4  -4    0.63    0.05   1
  28   4   4    0.69    0.08   1
 -28  -4  -6    1.05    0.13   1
  -6  28  -4    0.65    0.09   1
  -6  28   4    1.16    0.13   1
  -4  -6  28    0.68    0.09   1
  -4   6  28    0.90    0.11   1
   4  -6  28    0.99    0.10   1
   4   6  28    0.82    0.09   1
   6  28  -4    0.96    0.10   1
   6  28   4    0.99    0.12   1
  28  -4   6    0.85    0.08   1
  28   4   6    0.76    0.07   1
  -8  28  -4    0.32    0.08   1
  -8  28   4    0.48    0.09   1
  -4  -8  28    0.31    0.08   1
  -4   8  28    0.28    0.07   1
   4  -8  28    0.41    0.09   1
   4   8  28    0.49    0.08   1
   8  28  -4    0.35    0.08   1
   8  28   4    0.44    0.08   1
  28  -4   8    0.19    0.05   1
  28   4   8    0.34    0.06   1
 -10  28  -4    0.03    0.07   1
 -10  28   4    0.32    0.07   1
  -4 -10  28    0.09    0.07   1
  -4  10  28    0.15    0.07   1
   4 -10  28    0.22    0.08   1
   4  10  28   -0.09    0.07   1
  10  28  -4   -0.02    0.07   1
  10  28   4   -0.04    0.07   1
  28  -4  10    0.05    0.06   1
 -12  28  -4    0.39    0.09   1
 -12  28   4    0.10    0.07   1
  -4 -12  28    0.01    0.08   1
  -4  12  28    0.34    0.07   1
   4 -12  28    0.07    0.08   1
   4  12  28    0.18    0.08   1
  12  28  -4    0.25    0.09   1
  12  28   4    0.09    0.08   1
  28  -4  12    0.25    0.10   1
  28   4  12    0.30    0.08   1
 -14  28  -4    0.42    0.09   1
 -14  28   4    0.60    0.09   1
  -4 -14  28    0.89    0.11   1
  -4  14  28    0.33    0.09   1
   4 -14  28    0.28    0.09   1
   4  14  28    0.11    0.08   1
  14  28  -4    0.49    0.10   1
  14  28   4    0.51    0.10   1
  28  -4  14    0.62    0.08   1
  28   4  14    0.53    0.09   1
 -16  28  -4    0.92    0.10   1
 -16  28   4    0.64    0.09   1
  -4 -16  28    0.83    0.12   1
  -4  16  28    0.73    0.10   1
   4 -16  28    0.69    0.12   1
   4  16  28    0.69    0.11   1
  16  28  -4    0.79    0.11   1
  16  28   4    0.76    0.11   1
  28  -4  16    1.25    0.15   1
  28   4  16    0.72    0.10   1
 -18  28   4    0.87    0.10   1
  -4 -18  28    0.75    0.13   1
  -4  18  28    0.50    0.10   1
   4 -18  28    0.66    0.12   1
   4  18  28    0.65    0.10   1
  18  28  -4    0.49    0.11   1
  18  28   4    0.80    0.12   1
  28  -4  18    0.63    0.12   1
  28   4  18    0.59    0.11   1
  -4 -20  28   -0.13    0.11   1
  -4  20  28   -0.18    0.09   1
   4  20  28   -0.11    0.10   1
  20 -28   4   -0.08    0.10   1
  20  28  -4   -0.15    0.12   1
  20  28   4   -0.02    0.13   1
  28  -4  20   -0.06    0.11   1
  28   4  20   -0.31    0.12   1
  -6   0  28    0.05    0.06   1
   0  28  -6    0.04    0.06   1
   0  28   6    0.26    0.07   1
   6   0  28    0.11    0.07   1
  28   6   0    0.27    0.05   1
  -6  -2  28    0.28    0.07   1
  -2  28  -6    0.29    0.07   1
  -2  28   6    0.34    0.07   1
   2  28  -6    0.19    0.07   1
   2  28   6    0.54    0.08   1
   6  -2  28    0.35    0.08   1
   6   2  28    0.35    0.07   1
  28  -6   2    0.20    0.03   1
  28   6  -2    0.27    0.04   1
  28   6   2    0.29    0.05   1
 -28  -6  -4    0.93    0.12   1
  -6  -4  28    0.96    0.11   1
  -4  28  -6    0.91    0.11   1
  -4  28   6    0.89    0.10   1
   4  28  -6    0.73    0.09   1
   4  28   6    0.97    0.12   1
   6  -4  28    0.86    0.09   1
   6   4  28    1.16    0.11   1
  28  -6   4    0.72    0.06   1
  28   6  -4    1.00    0.06   1
  28   6   4    0.82    0.07   1
  -6  -6  28    1.08    0.13   1
  -6   6  28    1.24    0.15   1
  -6  28  -6    1.07    0.13   1
  -6  28   6    1.15    0.13   1
   6  -6  28    1.26    0.13   1
   6   6  28    0.93    0.09   1
   6  28  -6    1.10    0.12   1
   6  28   6    0.97    0.11   1
  28  -6   6    0.90    0.08   1
  28   6  -6    0.96    0.06   1
  28   6   6    0.92    0.10   1
  -8  28  -6    0.52    0.08   1
  -8  28   6    0.79    0.09   1
  -6  -8  28    0.55    0.09   1
  -6   8  28    0.55    0.08   1
   6  -8  28    0.46    0.09   1
   6   8  28    0.56    0.08   1
   8  28  -6    0.42    0.08   1
   8  28   6    0.56    0.09   1
  28  -6   8    0.51    0.06   1
  28   6   8    0.48    0.06   1
 -10  28  -6    0.08    0.08   1
 -10  28   6    0.19    0.07   1
  -6 -10  28    0.21    0.08   1
  -6  10  28    0.12    0.07   1
   6 -10  28   -0.01    0.08   1
   6  10  28    0.15    0.08   1
  10  28  -6   -0.06    0.07   1
  10  28   6    0.13    0.08   1
  28  -6  10    0.16    0.06   1
  28   6  10    0.14    0.07   1
 -12  28  -6    0.26    0.09   1
 -12  28   6    0.11    0.07   1
  -6 -12  28    0.06    0.08   1
  -6  12  28    0.11    0.07   1
   6 -12  28    0.33    0.10   1
   6  12  28    0.17    0.08   1
  12  28  -6    0.05    0.08   1
  12  28   6    0.05    0.08   1
  28  -6  12    0.06    0.07   1
  28   6  12    0.07    0.07   1
 -14  28  -6    0.63    0.10   1
 -14  28   6    0.49    0.08   1
  -6 -14  28    0.34    0.09   1
  -6  14  28    0.38    0.08   1
   6 -14  28    0.63    0.11   1
   6  14  28    0.40    0.10   1
  14  28  -6    0.36    0.09   1
  14  28   6    0.44    0.10   1
  28  -6  14    0.61    0.09   1
  28   6  14    0.46    0.08   1
 -16  28  -6    0.90    0.11   1
 -16  28   6    0.80    0.09   1
  -6 -16  28    0.76    0.11   1
  -6  16  28    0.59    0.09   1
   6 -16  28    0.56    0.10   1
   6  16  28    0.41    0.10   1
  16  28  -6    0.91    0.12   1
  16  28   6    0.58    0.10   1
  28  -6  16    0.80    0.11   1
  28   6  16    0.46    0.10   1
  -6 -18  28    0.50    0.11   1
  -6  18  28    0.45    0.10   1
   6 -18  28    0.66    0.13   1
   6  18  28    0.28    0.10   1
  18 -28   6    0.30    0.09   1
  18  28  -6    0.71    0.12   1
  18  28   6    0.71    0.12   1
  28  -6  18    0.68    0.12   1
  28   6  18    0.58    0.12   1
  -8   0  28    0.09    0.06   1
   0  28  -8   -0.05    0.06   1
   0  28   8    0.04    0.07   1
   8   0  28    0.09    0.06   1
  28   8   0    0.15    0.05   1
  -8  -2  28    0.06    0.07   1
  -8   2  28    0.02    0.05   1
  -2  28  -8   -0.04    0.06   1
  -2  28   8   -0.09    0.07   1
   2  28  -8   -0.08    0.06   1
   2  28   8    0.05    0.07   1
   8  -2  28   -0.04    0.07   1
   8   2  28    0.00    0.06   1
  28   8  -2   -0.12    0.04   1
  28   8   2   -0.12    0.05   1
  -8  -4  28    0.42    0.07   1
  -8   4  28    0.24    0.06   1
  -4  28  -8    0.32    0.08   1
  -4  28   8    0.24    0.07   1
   4  28  -8    0.36    0.07   1
   4  28   8    0.44    0.07   1
   8  -4  28    0.45    0.09   1
   8   4  28    0.20    0.07   1
  28  -8   4    0.26    0.04   1
  28   8  -4    0.36    0.05   1
  28   8   4    0.43    0.06   1
  -8  -6  28    0.69    0.09   1
  -8   6  28    0.65    0.07   1
  -6  28  -8    0.47    0.09   1
  -6  28   8    0.61    0.09   1
   6  28  -8    0.47    0.08   1
   6  28   8    0.53    0.09   1
   8  -6  28    0.76    0.10   1
   8   6  28    0.33    0.08   1
  28  -8   6    0.65    0.07   1
  28   8  -6    0.66    0.07   1
  28   8   6    0.53    0.06   1
  -8  -8  28    0.03    0.07   1
  -8   8  28    0.09    0.06   1
  -8  28  -8    0.19    0.09   1
  -8  28   8    0.02    0.08   1
   8  -8  28    0.05    0.08   1
   8   8  28    0.14    0.08   1
   8  28  -8    0.33    0.07   1
   8  28   8    0.22    0.08   1
  28  -8   8    0.29    0.06   1
  28   8   8   -0.11    0.07   1
 -10  28  -8    0.06    0.09   1
 -10  28   8    0.13    0.08   1
  -8 -10  28   -0.02    0.08   1
   8 -10  28   -0.18    0.09   1
   8  10  28   -0.12    0.07   1
  10  28  -8   -0.18    0.08   1
  10  28   8   -0.07    0.08   1
  28  -8  10   -0.10    0.06   1
  28   8  10   -0.09    0.07   1
 -12  28  -8   -0.18    0.08   1
 -12  28   8   -0.08    0.07   1
  -8 -12  28   -0.04    0.08   1
  -8  12  28   -0.04    0.07   1
   8 -12  28    0.07    0.09   1
  12  28  -8    0.02    0.08   1
  12  28   8   -0.11    0.08   1
  28  -8  12    0.04    0.07   1
  28   8  12    0.08    0.07   1
 -14  28  -8    0.47    0.09   1
 -14  28   8    0.26    0.07   1
  -8 -14  28    0.06    0.08   1
  -8  14  28    0.09    0.07   1
   8 -14  28    0.36    0.10   1
   8  14  28    0.08    0.09   1
  14  28  -8    0.11    0.08   1
  14  28   8    0.01    0.09   1
  28  -8  14    0.17    0.08   1
  28   8  14   -0.14    0.08   1
 -16  28   8    0.01    0.08   1
  -8 -16  28    0.02    0.09   1
  -8  16  28    0.04    0.08   1
   8 -16  28    0.32    0.10   1
   8  16  28   -0.03    0.09   1
  16  28  -8    0.21    0.09   1
  16  28   8    0.31    0.10   1
  28  -8  16    0.56    0.11   1
  28   8  16    0.18    0.09   1
  -8 -18  28    0.16    0.11   1
  -8  18  28   -0.13    0.08   1
   8 -18  28    0.08    0.12   1
   8  18  28    0.35    0.11   1
  18 -28   8    0.27    0.11   1
  18  28  -8   -0.01    0.11   1
  18  28   8    0.04    0.11   1
  28  -8  18    0.47    0.12   1
  28   8  18    0.04    0.11   1
 -10   0  28    0.18    0.06   1
   0  28 -10   -0.19    0.07   1
   0  28  10    0.21    0.07   1
  10   0  28    0.15    0.08   1
  28  10   0    0.16    0.06   1
 -10  -2  28    0.12    0.06   1
 -10   2  28    0.05    0.06   1
  -2  28 -10    0.00    0.08   1
  -2  28  10   -0.01    0.07   1
   2  28 -10    0.04    0.07   1
   2  28  10    0.01    0.07   1
  10  -2  28    0.01    0.07   1
  10   2  28   -0.10    0.07   1
  28  10  -2    0.01    0.05   1
  28  10   2   -0.05    0.06   1
 -10  -4  28    0.13    0.07   1
 -10   4  28   -0.02    0.06   1
  -4  28 -10    0.24    0.08   1
  -4  28  10    0.13    0.07   1
   4  28 -10    0.04    0.07   1
   4  28  10   -0.06    0.07   1
  10  -4  28    0.18    0.09   1
  10   4  28   -0.08    0.07   1
  28 -10   4    0.07    0.04   1
  28  10  -4    0.04    0.05   1
  28  10   4    0.04    0.05   1
 -10  -6  28    0.13    0.07   1
 -10   6  28    0.20    0.06   1
  -6  28 -10    0.10    0.08   1
  -6  28  10    0.14    0.07   1
   6  28 -10   -0.09    0.06   1
   6  28  10    0.16    0.07   1
  10  -6  28    0.47    0.09   1
  10   6  28    0.04    0.07   1
  28 -10   6    0.12    0.05   1
  28  10  -6    0.18    0.05   1
  28  10   6    0.13    0.06   1
 -10  -8  28   -0.04    0.07   1
 -10   8  28    0.01    0.06   1
  -8  28 -10   -0.08    0.09   1
  -8  28  10    0.00    0.07   1
   8  28 -10   -0.06    0.07   1
   8  28  10    0.06    0.08   1
  10  -8  28   -0.11    0.09   1
  10   8  28   -0.09    0.07   1
  28 -10   8    0.14    0.05   1
  28  10  -8   -0.04    0.05   1
  28  10   8    0.07    0.07   1
 -10 -10  28    0.12    0.08   1
 -10  10  28   -0.09    0.06   1
 -10  28 -10    0.12    0.08   1
 -10  28  10    0.20    0.08   1
  10 -10  28    0.29    0.09   1
  10  10  28    0.00    0.08   1
  10  28 -10    0.38    0.08   1
  10  28  10    0.12    0.08   1
  28 -10  10    0.13    0.07   1
  28  10  10    0.37    0.09   1
 -12  28 -10    0.14    0.09   1
 -12  28  10   -0.02    0.08   1
 -10 -12  28    0.20    0.08   1
 -10  12  28   -0.07    0.07   1
  10 -12  28    0.09    0.09   1
  10  12  28    0.01    0.09   1
  12  28 -10    0.09    0.08   1
  12  28  10   -0.12    0.08   1
  28 -10  12    0.00    0.08   1
  28  10  12   -0.05    0.08   1
 -14  28  10    0.16    0.07   1
 -10  14  28   -0.11    0.08   1
  10 -14  28   -0.23    0.09   1
  10  14  28    0.02    0.09   1
  14  28  10   -0.15    0.09   1
  28 -10  14    0.01    0.10   1
  28  10  14    0.02    0.09   1
 -10 -16  28   -0.18    0.09   1
 -10  16  28    0.03    0.11   1
  10 -16  28   -0.19    0.10   1
  10  16  28   -0.25    0.10   1
  16 -28  10   -0.08    0.09   1
  16  28 -10   -0.16    0.09   1
  16  28  10    0.00    0.11   1
  28 -10  16   -0.04    0.10   1
  28  10  16   -0.02    0.10   1
 -10 -18  28   -0.11    0.10   1
  10  18  28    0.27    0.16   1
  18 -28  10    0.14    0.12   1
  18  28 -10    0.01    0.11   1
  28 -10  18    0.08    0.12   1
  28  10  18   -0.12    0.11   1
 -12   0  28    0.04    0.06   1
   0  28 -12    0.13    0.08   1
   0  28  12   -0.12    0.07   1
  12   0  28    0.11    0.07   1
  28  12   0    0.17    0.06   1
 -12  -2  28    0.01    0.06   1
  -2  28 -12    0.03    0.09   1
  -2  28  12   -0.07    0.07   1
   2  28 -12    0.14    0.09   1
   2  28  12    0.08    0.07   1
  12  -2  28    0.10    0.07   1
  12   2  28    0.05    0.08   1
  28  12  -2   -0.04    0.06   1
  28  12   2    0.03    0.06   1
 -12  -4  28    0.25    0.07   1
 -12   4  28    0.08    0.05   1
  -4  28 -12   -0.04    0.08   1
  -4  28  12    0.39    0.08   1
   4  28 -12    0.07    0.09   1
   4  28  12    0.30    0.08   1
  12  -4  28    0.10    0.08   1
  12   4  28    0.01    0.07   1
  28  12  -4    0.21    0.06   1
  28  12   4    0.25    0.08   1
 -12  -6  28    0.03    0.07   1
 -12   6  28    0.09    0.06   1
  -6  28 -12    0.38    0.09   1
  -6  28  12    0.59    0.09   1
   6  28 -12    0.18    0.08   1
   6  28  12    0.24    0.08   1
  12  -6  28    0.30    0.09   1
  12   6  28    0.23    0.08   1
  28 -12   6    0.24    0.06   1
  28  12  -6    0.12    0.06   1
  28  12   6    0.02    0.07   1
 -12  -8  28    0.08    0.08   1
 -12   8  28   -0.14    0.05   1
  -8  28 -12   -0.05    0.08   1
  -8  28  12    0.09    0.08   1
   8  28 -12    0.03    0.08   1
   8  28  12    0.27    0.10   1
  12  -8  28    0.19    0.09   1
  12   8  28    0.03    0.08   1
  28 -12   8    0.16    0.06   1
  28  12  -8    0.01    0.06   1
  28  12   8    0.08    0.08   1
 -12 -10  28    0.02    0.08   1
 -12  10  28    0.01    0.06   1
 -10  28 -12    0.18    0.10   1
 -10  28  12   -0.06    0.08   1
  10  28 -12   -0.12    0.08   1
  10  28  12    0.01    0.09   1
  12 -10  28   -0.02    0.09   1
  12  10  28   -0.19    0.08   1
  28 -12  10    0.21    0.07   1
  28  12  10    0.04    0.08   1
 -12 -12  28    0.09    0.09   1
 -12  28  12   -0.02    0.08   1
  12 -12  28    0.18    0.10   1
  12  12  28   -0.04    0.09   1
  12  28 -12    0.15    0.09   1
  12  28  12    0.02    0.09   1
  28 -12  12    0.25    0.09   1
  28  12  12    0.08    0.10   1
 -14  28  12    0.03    0.08   1
 -12 -14  28   -0.02    0.09   1
  12 -14  28   -0.12    0.11   1
  12  14  28   -0.16    0.10   1
  14 -28  12   -0.04    0.09   1
  14  28 -12   -0.01    0.09   1
  14  28  12   -0.06    0.10   1
  28 -12  14    0.02    0.10   1
  28  12  14   -0.02    0.09   1
 -12 -16  28    0.00    0.09   1
  12 -16  28    0.25    0.18   1
  12  16  28    0.24    0.13   1
  16 -28  12    0.14    0.11   1
  16  28 -12    0.22    0.12   1
  16  28  12   -0.11    0.18   1
  28 -12  16    0.26    0.12   1
  28  12  16    0.01    0.11   1
 -14   0  28    0.01    0.05   1
   0  28 -14   -0.14    0.09   1
   0  28  14    0.04    0.08   1
  14   0  28    0.19    0.08   1
  28  14   0    0.08    0.07   1
 -14  -2  28    0.15    0.07   1
 -14   2  28   -0.03    0.06   1
  -2  28 -14    0.22    0.10   1
  -2  28  14    0.03    0.07   1
   2  28 -14    0.39    0.09   1
   2  28  14    0.18    0.08   1
  14  -2  28    0.07    0.07   1
  14   2  28    0.07    0.07   1
  28  14  -2   -0.04    0.07   1
  28  14   2    0.05    0.08   1
 -14  -4  28    0.38    0.07   1
 -14   4  28    0.56    0.07   1
  -4  28  14    0.51    0.08   1
   4  28 -14    1.19    0.14   1
   4  28  14    0.56    0.09   1
  14  -4  28    0.67    0.10   1
  14   4  28    0.58    0.10   1
  28  14  -4    0.62    0.07   1
  28  14   4    0.52    0.09   1
  -6  28 -14    0.39    0.11   1
  -6  28  14    0.50    0.08   1
   6  28 -14    0.41    0.10   1
   6  28  14    0.36    0.09   1
  14  -6  28    0.51    0.10   1
  14   6  28    0.47    0.09   1
  28  14  -6    0.36    0.08   1
  28  14   6    0.55    0.10   1
 -14  -8  28    0.24    0.07   1
  -8  28 -14    0.57    0.10   1
  -8  28  14    0.12    0.08   1
   8  28 -14    0.33    0.09   1
   8  28  14    0.00    0.09   1
  14  -8  28    0.34    0.10   1
  14   8  28    0.10    0.10   1
  28 -14   8    0.13    0.06   1
  28  14  -8    0.11    0.07   1
  28  14   8    0.05    0.08   1
 -14 -10  28    0.12    0.09   1
 -10  28  14    0.15    0.08   1
  10  28 -14   -0.03    0.10   1
  10  28  14    0.29    0.10   1
  14 -10  28   -0.03    0.11   1
  14  10  28   -0.07    0.10   1
  28  14  10    0.11    0.10   1
 -14 -12  28   -0.05    0.09   1
 -12  28  14    0.19    0.08   1
  12 -28  14    0.04    0.09   1
  12  28 -14   -0.09    0.11   1
  12  28  14   -0.11    0.11   1
  14 -12  28    0.11    0.11   1
  14  12  28   -0.26    0.10   1
  28 -14  12    0.01    0.09   1
  28  14  12   -0.01    0.09   1
 -14 -14  28    0.03    0.10   1
  14 -28  14    0.11    0.11   1
  14 -14  28   -0.13    0.13   1
  14  28 -14   -0.23    0.11   1
  14  28  14   -0.15    0.17   1
  28 -14  14    0.12    0.10   1
  28  14  14    0.06    0.11   1
   0  28 -16    0.16    0.11   1
   0  28  16    0.06    0.08   1
  16   0  28    0.08    0.08   1
  28  16   0   -0.03    0.08   1
  -2  28 -16    0.37    0.10   1
  -2  28  16    0.24    0.08   1
   2  28 -16    0.21    0.11   1
   2  28  16    0.38    0.09   1
  16  -2  28    0.43    0.10   1
  16   2  28    0.18    0.08   1
  28  16  -2    0.14    0.09   1
  28  16   2    0.37    0.10   1
 -16  -4  28    0.70    0.10   1
  -4  28 -16    1.31    0.16   1
  -4  28  16    0.80    0.10   1
   4  28 -16    0.85    0.12   1
   4  28  16    0.67    0.10   1
  16  -4  28    0.88    0.11   1
  16   4  28    0.51    0.10   1
  28  16  -4    0.76    0.10   1
  28  16   4    1.74    0.16   1
 -16  -6  28    0.41    0.07   1
  -6  28 -16    0.65    0.12   1
  -6  28  16    0.84    0.10   1
   6  28 -16    0.81    0.12   1
   6  28  16    0.95    0.12   1
  16  -6  28    0.60    0.11   1
  16   6  28    0.56    0.11   1
  28  16  -6    0.56    0.10   1
  28  16   6    0.77    0.11   1
 -16  -8  28    0.35    0.08   1
  -8  28  16    0.32    0.09   1
   8  28 -16    0.21    0.11   1
   8  28  16    0.05    0.10   1
  16  -8  28   -0.06    0.11   1
  16   8  28    0.20    0.09   1
  28  16  -8    0.59    0.11   1
  28  16   8    0.21    0.10   1
 -16 -10  28    0.11    0.09   1
 -10  28  16    0.02    0.08   1
  10 -28  16   -0.04    0.09   1
  10  28 -16   -0.03    0.11   1
  10  28  16    0.11    0.11   1
  16 -10  28   -0.06    0.12   1
  16  10  28   -0.04    0.09   1
  28 -16  10    0.04    0.09   1
  28  16  10   -0.26    0.11   1
 -16 -12  28    0.15    0.10   1
 -12  28  16    0.19    0.11   1
  12 -28  16    0.07    0.11   1
  12  28 -16    0.35    0.13   1
  12  28  16    0.67    0.19   1
  16 -12  28    0.14    0.14   1
  28 -16  12   -0.07    0.11   1
  28  16  12   -0.01    0.11   1
   0  28 -18    0.13    0.10   1
   0  28  18    0.23    0.09   1
  18   0  28    0.00    0.09   1
  28  18   0   -0.11    0.10   1
  -2  28 -18    0.39    0.12   1
  -2  28  18    0.20    0.08   1
   2  28 -18    0.60    0.12   1
   2  28  18    0.59    0.10   1
  18  -2  28    0.51    0.10   1
  18   2  28    0.31    0.10   1
  28  18  -2    0.15    0.11   1
  28  18   2    0.21    0.10   1
  -4  28 -18    0.57    0.13   1
  -4  28  18    0.84    0.10   1
   4  28 -18    1.28    0.15   1
   4  28  18    0.72    0.11   1
  18  -4  28    0.87    0.12   1
  18   4  28    0.55    0.11   1
  28  18  -4    0.75    0.12   1
  28  18   4    0.57    0.12   1
  -6  28  18    0.77    0.10   1
   6  28 -18    0.79    0.14   1
   6  28  18    0.64    0.11   1
  18  -6  28    0.45    0.12   1
  18   6  28    0.39    0.12   1
  28  18  -6    0.59    0.12   1
  28  18   6    0.51    0.12   1
  -8  28  18    0.37    0.09   1
   8 -28  18   -0.04    0.10   1
   8  28 -18    0.26    0.13   1
   8  28  18    0.07    0.13   1
  18  -8  28    0.21    0.12   1
  18   8  28    0.14    0.12   1
  28  18  -8    0.18    0.12   1
  28  18   8    0.17    0.13   1
 -10  28  18   -0.19    0.09   1
  10 -28  18   -0.19    0.12   1
  10  28 -18   -0.09    0.15   1
  18 -10  28    0.28    0.21   1
  28  18  10   -0.01    0.12   1
   0  28 -20   -0.08    0.18   1
   0  28  20    0.04    0.10   1
  20   0  28    0.06    0.10   1
  28  20   0   -0.21    0.11   1
  -2  28  20    0.15    0.09   1
   2  28 -20   -0.29    0.20   1
   2  28  20   -0.06    0.11   1
  20  -2  28    0.13    0.11   1
  20   2  28   -0.13    0.11   1
  28  20  -2   -0.17    0.12   1
  28  20   2   -0.01    0.11   1
  -4  28  20    0.03    0.09   1
   4  28  20    0.23    0.11   1
  20  -4  28   -0.11    0.13   1
  28  20  -4    0.23    0.12   1
  28  20   4    0.12    0.12   1
  -1  -1  29    0.49    0.09   1
  -1   1  29    0.30    0.07   1
  -1  29  -1    0.47    0.09   1
  -1  29   1    0.28    0.09   1
   1  -1  29    0.37    0.08   1
   1   1  29    0.30    0.08   1
   1  29  -1    0.25    0.07   1
   1  29   1    0.38    0.08   1
  29  -1   1    0.35    0.04   1
  29   1  -1    0.33    0.03   1
  29   1   1    0.26    0.04   1
  -3  29  -1    0.10    0.07   1
  -3  29   1   -0.03    0.07   1
  -1  -3  29   -0.17    0.06   1
  -1   3  29   -0.03    0.06   1
   1  -3  29   -0.07    0.07   1
   1   3  29    0.15    0.06   1
   3  29  -1   -0.07    0.07   1
   3  29   1    0.01    0.07   1
  29  -1   3   -0.06    0.04   1
  29   1   3   -0.03    0.04   1
  -5  29  -1    0.12    0.07   1
  -5  29   1    0.05    0.06   1
  -1  -5  29    0.13    0.07   1
  -1   5  29   -0.05    0.06   1
   1  -5  29    0.12    0.09   1
   1   5  29    0.11    0.07   1
   5  29  -1    0.11    0.08   1
   5  29   1    0.17    0.08   1
  29  -1   5   -0.06    0.05   1
  29   1   5   -0.05    0.04   1
  -7  29  -1   -0.01    0.07   1
  -7  29   1   -0.03    0.07   1
  -1  -7  29   -0.09    0.07   1
  -1   7  29   -0.06    0.06   1
   1  -7  29   -0.13    0.07   1
   1   7  29    0.12    0.07   1
   7  29  -1    0.08    0.08   1
   7  29   1   -0.01    0.07   1
  29  -1   7   -0.09    0.05   1
  29   1   7   -0.01    0.05   1
  -9  29  -1    0.27    0.07   1
  -9  29   1    0.12    0.07   1
  -1  -9  29    0.14    0.08   1
  -1   9  29   -0.05    0.07   1
   1  -9  29    0.19    0.09   1
   1   9  29    0.01    0.07   1
   9  29  -1    0.09    0.07   1
   9  29   1    0.05    0.07   1
  29  -1   9   -0.04    0.06   1
  29   1   9   -0.03    0.06   1
 -11  29  -1    0.35    0.08   1
 -11  29   1    0.63    0.09   1
  -1 -11  29    0.34    0.09   1
  -1  11  29    0.37    0.09   1
   1 -11  29    0.37    0.09   1
   1  11  29    0.05    0.07   1
  11  29  -1    0.27    0.08   1
  11  29   1    0.32    0.08   1
  29   1  11    0.12    0.08   1
 -13  29  -1   -0.20    0.08   1
 -13  29   1    0.06    0.08   1
  -1 -13  29    0.03    0.08   1
  -1  13  29   -0.04    0.07   1
   1 -13  29   -0.04    0.08   1
   1  13  29    0.13    0.08   1
  13  29  -1   -0.08    0.08   1
  13  29   1    0.13    0.08   1
  29  -1  13   -0.01    0.08   1
  29   1  13    0.05    0.08   1
 -15  29  -1    0.05    0.08   1
 -15  29   1    0.03    0.08   1
  -1 -15  29   -0.20    0.09   1
  -1  15  29   -0.14    0.08   1
   1  15  29   -0.16    0.08   1
  15  29  -1    0.02    0.08   1
  15  29   1   -0.04    0.08   1
  29  -1  15   -0.07    0.09   1
  29   1  15    0.03    0.09   1
 -17  29  -1    0.00    0.09   1
 -17  29   1    0.03    0.10   1
  -1 -17  29    0.21    0.10   1
  -1  17  29   -0.02    0.08   1
   1 -17  29    0.15    0.11   1
   1  17  29    0.06    0.10   1
  17  29  -1    0.15    0.10   1
  17  29   1    0.14    0.10   1
  29  -1  17   -0.01    0.11   1
  29   1  17    0.06    0.11   1
 -19  29  -1   -0.24    0.09   1
  -1 -19  29    0.03    0.13   1
  -1  19  29   -0.02    0.10   1
   1 -19  29    0.03    0.14   1
   1  19  29   -0.02    0.10   1
  19  29  -1    0.02    0.12   1
  19  29   1    0.05    0.12   1
  29  -1  19    0.03    0.13   1
  29   1  19   -0.14    0.11   1
  -3  -1  29   -0.07    0.06   1
  -3   1  29   -0.02    0.06   1
  -1  29  -3   -0.18    0.06   1
  -1  29   3   -0.01    0.07   1
   1  29  -3   -0.08    0.07   1
   1  29   3    0.09    0.07   1
   3  -1  29   -0.06    0.07   1
   3   1  29    0.04    0.06   1
  29  -3   1    0.00    0.03   1
  29   3  -1    0.03    0.04   1
  29   3   1    0.06    0.04   1
  -3  -3  29    0.16    0.08   1
  -3   3  29    0.28    0.08   1
  -3  29  -3   -0.04    0.06   1
  -3  29   3    0.30    0.08   1
   3  -3  29    0.22    0.07   1
   3   3  29    0.15    0.07   1
   3  29  -3    0.19    0.08   1
   3  29   3    0.06    0.07   1
  29  -3   3    0.04    0.04   1
  29   3  -3    0.08    0.04   1
  29   3   3    0.20    0.05   1
  -5  29  -3    0.56    0.08   1
  -5  29   3    0.48    0.09   1
  -3  -5  29    0.15    0.07   1
  -3   5  29    0.27    0.07   1
   3  -5  29    0.30    0.08   1
   3   5  29    0.43    0.08   1
   5  29  -3    0.35    0.08   1
   5  29   3    0.28    0.08   1
  29  -3   5    0.22    0.05   1
  29   3   5    0.31    0.06   1
  -7  29  -3    0.34    0.08   1
  -7  29   3    0.18    0.07   1
  -3  -7  29    0.28    0.08   1
  -3   7  29    0.09    0.07   1
   3  -7  29    0.28    0.08   1
   3   7  29    0.17    0.07   1
   7  29  -3   -0.09    0.08   1
   7  29   3    0.15    0.07   1
  29  -3   7    0.21    0.05   1
  29   3   7    0.14    0.05   1
  -9  29  -3   -0.10    0.07   1
  -9  29   3    0.19    0.07   1
  -3  -9  29   -0.15    0.08   1
  -3   9  29   -0.14    0.07   1
   3  -9  29    0.02    0.08   1
   3   9  29   -0.11    0.07   1
   9  29  -3   -0.01    0.08   1
   9  29   3   -0.03    0.08   1
  29  -3   9    0.00    0.06   1
  29   3   9   -0.07    0.06   1
 -11  29  -3    0.21    0.08   1
 -11  29   3   -0.05    0.07   1
  -3 -11  29    0.25    0.09   1
  -3  11  29   -0.09    0.07   1
   3 -11  29    0.08    0.08   1
   3  11  29   -0.06    0.08   1
  11  29  -3   -0.09    0.08   1
  11  29   3   -0.04    0.08   1
  29  -3  11   -0.13    0.07   1
  29   3  11   -0.13    0.06   1
 -13  29  -3   -0.06    0.08   1
 -13  29   3    0.13    0.08   1
  -3 -13  29    0.03    0.08   1
  -3  13  29    0.03    0.08   1
   3 -13  29    0.08    0.09   1
   3  13  29   -0.06    0.08   1
  13  29  -3    0.16    0.09   1
  13  29   3   -0.08    0.09   1
  29  -3  13    0.08    0.08   1
  29   3  13    0.02    0.09   1
 -15  29  -3    0.10    0.09   1
 -15  29   3   -0.03    0.08   1
  -3 -15  29    0.15    0.09   1
  -3  15  29    0.03    0.08   1
   3 -15  29    0.38    0.11   1
   3  15  29    0.07    0.09   1
  15  29  -3    0.19    0.10   1
  15  29   3    0.07    0.10   1
  29  -3  15    0.11    0.10   1
  29   3  15    0.01    0.09   1
 -17  29  -3    0.46    0.10   1
 -17  29   3    0.54    0.10   1
  -3 -17  29    0.20    0.11   1
  -3  17  29    0.33    0.10   1
   3 -17  29    0.46    0.12   1
   3  17  29    0.06    0.09   1
  17  29  -3    0.37    0.12   1
  17  29   3    0.38    0.12   1
  29  -3  17    0.42    0.11   1
  29   3  17    0.31    0.11   1
  -5  -1  29   -0.01    0.06   1
  -5   1  29   -0.07    0.06   1
  -1  29  -5    0.00    0.06   1
  -1  29   5    0.03    0.07   1
   1  29  -5    0.02    0.06   1
   1  29   5    0.03    0.06   1
   5  -1  29    0.11    0.07   1
   5   1  29    0.02    0.06   1
  29   5  -1    0.05    0.04   1
  29   5   1    0.02    0.05   1
  -5  -3  29    0.29    0.07   1
  -5   3  29    0.36    0.07   1
  -3  29  -5    0.23    0.07   1
  -3  29   5    0.39    0.07   1
   3  29  -5    0.23    0.08   1
   3  29   5    0.47    0.09   1
   5  -3  29    0.43    0.08   1
   5   3  29    0.33    0.07   1
  29  -5   3    0.21    0.04   1
  29   5  -3    0.26    0.04   1
  29   5   3    0.38    0.05   1
  -5  -5  29    0.87    0.10   1
  -5   5  29    0.56    0.08   1
  -5  29  -5    0.67    0.09   1
  -5  29   5    0.64    0.10   1
   5  -5  29    0.87    0.11   1
   5   5  29    0.44    0.08   1
   5  29  -5    0.53    0.08   1
   5  29   5    0.74    0.10   1
  29  -5   5    0.49    0.05   1
  29   5   5    0.57    0.06   1
  -7  29  -5    0.42    0.08   1
  -7  29   5    0.78    0.10   1
  -5  -7  29    0.63    0.10   1
  -5   7  29    0.61    0.08   1
   5  -7  29    0.71    0.11   1
   5   7  29    0.61    0.09   1
   7  29  -5    0.47    0.09   1
   7  29   5    0.44    0.09   1
  29  -5   7    0.54    0.06   1
  29   5   7    0.55    0.07   1
  -9  29  -5    0.31    0.08   1
  -9  29   5    0.34    0.08   1
  -5  -9  29    0.06    0.08   1
  -5   9  29    0.13    0.08   1
   5  -9  29    0.25    0.09   1
   5   9  29    0.03    0.07   1
   9  29  -5    0.10    0.07   1
   9  29   5   -0.08    0.08   1
  29  -5   9    0.09    0.06   1
  29   5   9    0.12    0.07   1
 -11  29  -5    0.11    0.09   1
 -11  29   5   -0.07    0.07   1
  -5 -11  29   -0.07    0.08   1
  -5  11  29    0.01    0.07   1
   5 -11  29    0.29    0.09   1
   5  11  29    0.04    0.08   1
  11  29  -5   -0.21    0.08   1
  11  29   5    0.04    0.08   1
  29  -5  11    0.12    0.06   1
  29   5  11    0.00    0.07   1
 -13  29  -5    0.31    0.09   1
 -13  29   5    0.15    0.08   1
  -5 -13  29    0.09    0.09   1
  -5  13  29    0.12    0.07   1
   5 -13  29    0.12    0.09   1
   5  13  29    0.11    0.09   1
  13  29  -5    0.16    0.09   1
  13  29   5    0.25    0.10   1
  29  -5  13    0.15    0.08   1
  29   5  13    0.27    0.09   1
 -15  29  -5    0.48    0.10   1
 -15  29   5    0.48    0.09   1
  -5 -15  29    0.56    0.11   1
  -5  15  29    0.18    0.09   1
   5 -15  29    0.56    0.11   1
   5  15  29    0.46    0.10   1
  15  29  -5    0.42    0.11   1
  15  29   5    0.53    0.11   1
  29  -5  15    0.44    0.10   1
  29   5  15    0.30    0.10   1
 -17  29  -5    0.56    0.11   1
 -17  29   5    0.57    0.11   1
  -5 -17  29    0.81    0.12   1
  -5  17  29    0.81    0.11   1
   5 -17  29    0.75    0.12   1
   5  17  29    0.42    0.11   1
  17  29  -5    0.89    0.13   1
  17  29   5    0.67    0.14   1
  29  -5  17    0.71    0.12   1
  29   5  17    0.76    0.13   1
  -7  -1  29   -0.06    0.06   1
  -7   1  29    0.03    0.06   1
  -1  29  -7    0.16    0.07   1
  -1  29   7   -0.09    0.07   1
   1  29  -7   -0.07    0.07   1
   1  29   7   -0.11    0.07   1
   7  -1  29    0.05    0.07   1
   7   1  29    0.10    0.07   1
  29   7  -1    0.03    0.05   1
  29   7   1   -0.05    0.05   1
  -7  -3  29    0.18    0.07   1
  -7   3  29    0.23    0.07   1
  -3  29  -7    0.30    0.09   1
  -3  29   7    0.24    0.07   1
   3  29  -7    0.09    0.07   1
   3  29   7    0.40    0.08   1
   7  -3  29    0.36    0.08   1
   7   3  29    0.07    0.06   1
  29  -7   3    0.02    0.05   1
  29   7  -3    0.10    0.04   1
  29   7   3    0.14    0.05   1
  -7  -5  29    0.55    0.09   1
  -7   5  29    0.51    0.08   1
  -5  29  -7    0.73    0.10   1
  -5  29   7    0.43    0.08   1
   5  29  -7    0.58    0.09   1
   5  29   7    1.08    0.13   1
   7  -5  29    0.51    0.09   1
   7   5  29    0.63    0.09   1
  29  -7   5    0.42    0.05   1
  29   7  -5    0.49    0.06   1
  29   7   5    0.47    0.07   1
  -7  -7  29    0.61    0.09   1
  -7   7  29    0.34    0.07   1
  -7  29  -7    0.24    0.09   1
  -7  29   7    0.52    0.09   1
   7  -7  29    0.43    0.10   1
   7   7  29    0.66    0.09   1
   7  29  -7    0.49    0.09   1
   7  29   7    0.63    0.10   1
  29  -7   7    0.54    0.06   1
  29   7   7    0.48    0.08   1
  -9  29  -7   -0.04    0.09   1
  -9  29   7    0.09    0.08   1
  -7  -9  29   -0.04    0.08   1
  -7   9  29    0.11    0.07   1
   7  -9  29    0.09    0.09   1
   7   9  29    0.11    0.08   1
   9  29  -7    0.34    0.08   1
   9  29   7    0.16    0.09   1
  29  -7   9    0.11    0.05   1
  29   7   9    0.24    0.08   1
 -11  29  -7   -0.19    0.08   1
 -11  29   7   -0.02    0.07   1
  -7 -11  29   -0.18    0.08   1
  -7  11  29    0.03    0.07   1
   7 -11  29    0.10    0.09   1
  11  29  -7    0.26    0.08   1
  11  29   7    0.01    0.09   1
  29  -7  11    0.07    0.07   1
  29   7  11    0.02    0.08   1
 -13  29  -7   -0.15    0.09   1
 -13  29   7    0.21    0.08   1
  -7 -13  29    0.05    0.09   1
  -7  13  29   -0.18    0.07   1
   7 -13  29    0.06    0.09   1
   7  13  29    0.14    0.09   1
  13  29  -7    0.01    0.08   1
  13  29   7    0.20    0.10   1
  29  -7  13    0.27    0.09   1
  29   7  13   -0.05    0.09   1
 -15  29  -7    0.18    0.09   1
 -15  29   7    0.17    0.08   1
  -7 -15  29    0.32    0.10   1
  -7  15  29    0.20    0.09   1
   7 -15  29   -0.09    0.11   1
   7  15  29    0.08    0.10   1
  15  29  -7    0.24    0.10   1
  15  29   7   -0.03    0.10   1
  29  -7  15    0.14    0.10   1
  29   7  15    0.23    0.11   1
  -7 -17  29    0.22    0.11   1
  -7  17  29    0.33    0.09   1
   7 -17  29    0.50    0.15   1
   7  17  29    0.32    0.12   1
  17  29  -7    0.40    0.13   1
  17  29   7    0.39    0.13   1
  29  -7  17    0.35    0.12   1
  29   7  17    0.37    0.12   1
  -9  -1  29    0.00    0.06   1
  -9   1  29    0.03    0.07   1
  -1  29  -9    0.12    0.08   1
  -1  29   9    0.07    0.07   1
   1  29  -9    0.14    0.08   1
   1  29   9    0.04    0.07   1
   9  -1  29   -0.14    0.07   1
   9   1  29   -0.05    0.08   1
  29   9  -1    0.09    0.05   1
  29   9   1    0.06    0.06   1
  -9  -3  29   -0.07    0.06   1
  -9   3  29    0.03    0.11   1
  -3  29  -9   -0.05    0.08   1
  -3  29   9   -0.14    0.07   1
   3  29  -9    0.14    0.07   1
   3  29   9   -0.11    0.08   1
   9  -3  29   -0.01    0.08   1
   9   3  29    0.01    0.07   1
  29   9  -3   -0.04    0.05   1
  29   9   3    0.02    0.06   1
  -9  -5  29    0.22    0.07   1
  -5  29  -9    0.47    0.08   1
  -5  29   9    0.01    0.07   1
   5  29  -9    0.16    0.07   1
   5  29   9    0.13    0.09   1
   9  -5  29    0.21    0.09   1
   9   5  29    0.17    0.08   1
  29  -9   5    0.20    0.05   1
  29   9  -5    0.21    0.05   1
  29   9   5    0.09    0.06   1
  -9  -7  29    0.03    0.08   1
  -7  29  -9   -0.02    0.09   1
  -7  29   9    0.14    0.08   1
   7  29  -9    0.06    0.08   1
   7  29   9    0.21    0.08   1
   9  -7  29    0.18    0.09   1
   9   7  29    0.12    0.08   1
  29  -9   7    0.14    0.05   1
  29   9   7   -0.06    0.07   1
  -9  -9  29   -0.08    0.08   1
  -9   9  29    0.00    0.07   1
  -9  29  -9   -0.13    0.09   1
  -9  29   9   -0.06    0.08   1
   9  -9  29   -0.05    0.09   1
   9   9  29    0.12    0.08   1
   9  29  -9    0.01    0.07   1
   9  29   9    0.00    0.09   1
  29  -9   9    0.07    0.06   1
  29   9   9    0.12    0.08   1
 -11  29  -9    0.19    0.09   1
 -11  29   9    0.13    0.09   1
  -9 -11  29   -0.05    0.08   1
  -9  11  29   -0.09    0.07   1
   9 -11  29   -0.02    0.10   1
   9  11  29   -0.23    0.09   1
  11  29  -9   -0.05    0.08   1
  11  29   9    0.04    0.09   1
  29   9  11    0.34    0.09   1
 -13  29  -9    0.18    0.09   1
 -13  29   9    0.17    0.08   1
  -9 -13  29   -0.09    0.09   1
  -9  13  29   -0.21    0.08   1
   9 -13  29    0.17    0.11   1
   9  13  29    0.02    0.09   1
  13  29  -9   -0.05    0.09   1
  13  29   9   -0.25    0.09   1
  29  -9  13    0.25    0.09   1
  29   9  13   -0.05    0.08   1
 -15  29   9   -0.01    0.08   1
  -9 -15  29   -0.03    0.09   1
  -9  15  29   -0.06    0.08   1
   9 -15  29    0.03    0.11   1
   9  15  29   -0.18    0.10   1
  15  29  -9   -0.08    0.10   1
  15  29   9   -0.07    0.11   1
  29  -9  15    0.12    0.11   1
  29   9  15    0.01    0.10   1
 -11  -1  29    0.05    0.12   1
 -11   1  29    0.22    0.06   1
  -1  29 -11    0.48    0.09   1
  -1  29  11    0.46    0.09   1
   1  29 -11    0.28    0.09   1
   1  29  11    0.32    0.08   1
  11  -1  29    0.09    0.08   1
  11   1  29    0.45    0.09   1
  29  11  -1    0.18    0.06   1
  29  11   1    0.20    0.07   1
 -11  -3  29   -0.08    0.06   1
 -11   3  29   -0.06    0.06   1
  -3  29 -11   -0.06    0.09   1
  -3  29  11   -0.04    0.08   1
   3  29 -11    0.13    0.08   1
   3  29  11    0.05    0.08   1
  11  -3  29    0.32    0.09   1
  11   3  29    0.13    0.07   1
  29  11  -3    0.10    0.11   1
  29  11   3   -0.12    0.07   1
 -11  -5  29    0.02    0.08   1
 -11   5  29   -0.01    0.05   1
  -5  29 -11    0.22    0.09   1
  -5  29  11    0.10    0.08   1
   5  29 -11    0.03    0.08   1
   5  29  11   -0.16    0.08   1
  11  -5  29    0.06    0.09   1
  11   5  29    0.04    0.08   1
  29  11  -5   -0.09    0.06   1
  29  11   5   -0.10    0.07   1
 -11  -7  29   -0.04    0.07   1
 -11   7  29    0.02    0.06   1
  -7  29 -11    0.18    0.09   1
  -7  29  11    0.07    0.07   1
   7  29 -11    0.01    0.08   1
   7  29  11    0.22    0.08   1
  11  -7  29    0.12    0.09   1
  11   7  29    0.23    0.09   1
  29 -11   7    0.07    0.06   1
  29  11   7   -0.09    0.08   1
 -11  -9  29    0.18    0.08   1
 -11   9  29    0.01    0.06   1
  -9  29 -11   -0.01    0.10   1
  -9  29  11   -0.13    0.08   1
   9  29 -11    0.03    0.08   1
   9  29  11    0.00    0.09   1
  11  -9  29    0.35    0.11   1
  11   9  29    0.17    0.08   1
  29 -11   9    0.03    0.07   1
  29  11   9    0.10    0.08   1
 -11 -11  29    0.33    0.09   1
 -11  11  29   -0.06    0.07   1
 -11  29 -11    0.09    0.10   1
 -11  29  11   -0.04    0.09   1
  11 -11  29    0.06    0.10   1
  11  11  29    0.19    0.09   1
  11  29 -11    0.31    0.10   1
  11  29  11    0.10    0.10   1
  29 -11  11    0.32    0.09   1
  29  11  11    0.08    0.09   1
 -13  29  11    0.06    0.08   1
 -11 -13  29    0.11    0.09   1
  11 -13  29    0.15    0.11   1
  11  13  29   -0.14    0.10   1
  13  29 -11    0.11    0.10   1
  13  29  11    0.13    0.10   1
  29 -11  13   -0.01    0.10   1
  29  11  13    0.02    0.10   1
 -11 -15  29   -0.04    0.10   1
  11  15  29   -0.01    0.12   1
  15 -29  11   -0.19    0.09   1
  15  29 -11   -0.05    0.11   1
  29 -11  15    0.13    0.12   1
  29  11  15   -0.06    0.11   1
 -13  -1  29    0.05    0.06   1
 -13   1  29    0.10    0.06   1
  -1  29 -13   -0.05    0.09   1
  -1  29  13   -0.20    0.08   1
   1  29 -13    0.02    0.09   1
   1  29  13    0.12    0.08   1
  13  -1  29    0.13    0.09   1
  13   1  29    0.15    0.08   1
  29  13  -1    0.00    0.07   1
  29  13   1   -0.05    0.08   1
 -13   3  29    0.01    0.07   1
  -3  29 -13    0.23    0.11   1
  -3  29  13    0.06    0.08   1
   3  29 -13    0.18    0.10   1
   3  29  13    0.04    0.08   1
  13  -3  29    0.14    0.09   1
  13   3  29    0.19    0.08   1
  29  13  -3    0.04    0.07   1
  29  13   3    0.08    0.09   1
 -13  -5  29    0.24    0.08   1
 -13   5  29    0.12    0.07   1
  -5  29 -13    0.28    0.11   1
  -5  29  13    0.10    0.08   1
   5  29 -13    0.13    0.10   1
   5  29  13    0.35    0.09   1
  13  -5  29    0.33    0.09   1
  13   5  29    0.02    0.09   1
  29  13  -5    0.12    0.07   1
  29  13   5    0.21    0.09   1
 -13  -7  29    0.01    0.07   1
  -7  29 -13    0.36    0.11   1
  -7  29  13    0.21    0.08   1
   7  29 -13    0.17    0.10   1
   7  29  13    0.38    0.09   1
  13  -7  29    0.21    0.11   1
  13   7  29   -0.14    0.09   1
  29  13   7   -0.10    0.09   1
 -13  -9  29    0.20    0.09   1
  -9  29 -13    0.16    0.10   1
  -9  29  13    0.10    0.08   1
   9  29 -13   -0.24    0.10   1
   9  29  13    0.17    0.09   1
  13  -9  29    0.18    0.11   1
  13   9  29   -0.01    0.09   1
  29 -13   9    0.06    0.13   1
  29  13   9   -0.16    0.09   1
 -13 -11  29   -0.06    0.09   1
 -11  29  13    0.24    0.10   1
  11  29 -13   -0.07    0.09   1
  11  29  13    0.03    0.11   1
  13 -11  29   -0.14    0.11   1
  13  11  29   -0.06    0.10   1
  29 -13  11    0.28    0.09   1
  29  13  11    0.04    0.10   1
 -13 -13  29    0.18    0.10   1
  13 -29  13    0.15    0.10   1
  13 -13  29   -0.04    0.13   1
  13  13  29   -0.12    0.12   1
  13  29 -13    0.07    0.12   1
  13  29  13    0.24    0.19   1
  29 -13  13    0.37    0.12   1
  29  13  13    0.06    0.12   1
  -1  29 -15   -0.17    0.11   1
  -1  29  15   -0.23    0.08   1
   1  29 -15   -0.01    0.10   1
   1  29  15    0.18    0.09   1
  15  -1  29   -0.12    0.09   1
  15   1  29    0.09    0.08   1
  29  15  -1    0.33    0.09   1
  29  15   1   -0.07    0.09   1
 -15  -3  29    0.20    0.07   1
  -3  29 -15    0.11    0.10   1
  -3  29  15    0.03    0.09   1
   3  29 -15    0.33    0.11   1
   3  29  15    0.24    0.09   1
  15  -3  29    0.49    0.10   1
  15   3  29    0.28    0.09   1
  29  15  -3    0.22    0.09   1
  29  15   3   -0.02    0.10   1
 -15  -5  29    0.40    0.08   1
  -5  29 -15    0.25    0.11   1
  -5  29  15    0.32    0.09   1
   5  29 -15    0.47    0.11   1
   5  29  15    0.38    0.09   1
  15  -5  29    0.61    0.12   1
  15   5  29    0.47    0.10   1
  29  15   5    0.22    0.11   1
 -15  -7  29    0.52    0.08   1
  -7  29 -15    0.33    0.11   1
  -7  29  15    0.26    0.09   1
   7  29 -15    0.30    0.11   1
   7  29  15    0.28    0.11   1
  15  -7  29    0.32    0.12   1
  15   7  29    0.00    0.10   1
  29  15   7    0.07    0.10   1
 -15  -9  29    0.11    0.09   1
  -9  29  15    0.16    0.09   1
   9  29 -15    0.08    0.11   1
   9  29  15   -0.13    0.11   1
  15  -9  29   -0.28    0.11   1
  15   9  29   -0.04    0.12   1
  29  15   9    0.01    0.11   1
 -15 -11  29    0.09    0.09   1
 -11  29  15    0.16    0.09   1
  11 -29  15   -0.07    0.10   1
  11  29 -15    0.33    0.13   1
  11  29  15   -0.02    0.17   1
  15 -11  29    0.20    0.17   1
  29  15  11   -0.10    0.12   1
  -1  29 -17   -0.12    0.11   1
  -1  29  17    0.13    0.09   1
   1  29 -17    0.10    0.11   1
   1  29  17    0.10    0.09   1
  17  -1  29    0.29    0.10   1
  17   1  29    0.02    0.09   1
  29  17  -1   -0.04    0.11   1
  29  17   1    0.09    0.11   1
  -3  29 -17    0.26    0.12   1
  -3  29  17    0.46    0.09   1
   3  29 -17    0.29    0.13   1
   3  29  17    0.44    0.10   1
  17  -3  29    0.42    0.12   1
  17   3  29    0.42    0.11   1
  29  17  -3    0.40    0.11   1
  29  17   3    0.36    0.11   1
  -5  29 -17    0.77    0.14   1
  -5  29  17    0.59    0.10   1
   5  29 -17    0.48    0.15   1
   5  29  17    0.51    0.13   1
  17  -5  29    0.75    0.13   1
  17   5  29    0.57    0.12   1
  29  17  -5    0.74    0.12   1
  29  17   5    0.84    0.13   1
  -7  29  17    0.38    0.10   1
   7  29 -17    0.40    0.13   1
   7  29  17    0.74    0.13   1
  17  -7  29    0.39    0.13   1
  17   7  29    0.77    0.20   1
  29  17   7    0.69    0.13   1
  -1  29  19    0.17    0.09   1
   1  29  19    0.18    0.10   1
  29  19  -1   -0.11    0.12   1
  29  19   1    0.12    0.13   1
   0   0  30    1.26    0.13   1
   0  30   0    1.43    0.13   1
  -2  30   0    0.47    0.09   1
   0  -2  30    0.43    0.09   1
   0   2  30    0.39    0.08   1
   2  30   0    0.52    0.09   1
  30   0   2    0.37    0.04   1
  -4  30   0   -0.02    0.07   1
   0  -4  30    0.05    0.07   1
   0   4  30   -0.02    0.07   1
   4  30   0    0.04    0.09   1
  30   0   4   -0.07    0.05   1
  -6  30   0    0.09    0.07   1
   0  -6  30   -0.14    0.08   1
   0   6  30    0.11    0.07   1
   6  30   0    0.16    0.09   1
  30   0   6   -0.12    0.05   1
  -8  30   0    0.20    0.08   1
   0  -8  30    0.13    0.08   1
   0   8  30    0.15    0.07   1
   8  30   0    0.03    0.08   1
  30   0   8    0.25    0.06   1
 -10  30   0    0.45    0.09   1
   0 -10  30    0.63    0.10   1
   0  10  30    0.51    0.09   1
  10  30   0    0.43    0.09   1
 -12  30   0    0.56    0.09   1
   0 -12  30    0.63    0.10   1
   0  12  30    0.56    0.10   1
  12  30   0    0.49    0.09   1
  30   0  12    0.27    0.09   1
 -14  30   0    0.30    0.10   1
   0 -14  30    0.16    0.10   1
   0  14  30    0.16    0.09   1
  14  30   0    0.23    0.10   1
  30   0  14    0.18    0.10   1
 -16  30   0    0.10    0.09   1
   0 -16  30    0.11    0.11   1
   0  16  30   -0.09    0.09   1
  16  30   0    0.08    0.11   1
  30   0  16    0.00    0.10   1
  -2   0  30    0.55    0.08   1
   0  30  -2    0.51    0.09   1
   0  30   2    0.36    0.09   1
   2   0  30    0.46    0.08   1
  30   2   0    0.39    0.05   1
  -2  -2  30    0.19    0.07   1
  -2   2  30    0.34    0.08   1
  -2  30  -2   -0.07    0.07   1
  -2  30   2    0.24    0.08   1
   2  -2  30    0.26    0.07   1
   2   2  30    0.24    0.08   1
   2  30  -2   -0.03    0.08   1
   2  30   2    0.15    0.08   1
  30   2   2    0.11    0.04   1
  -4  30  -2   -0.08    0.07   1
  -4  30   2   -0.12    0.07   1
  -2  -4  30    0.15    0.08   1
  -2   4  30    0.08    0.07   1
   2  -4  30    0.07    0.08   1
   2   4  30    0.04    0.06   1
   4  30  -2    0.03    0.08   1
   4  30   2    0.03    0.07   1
  30  -2   4   -0.07    0.04   1
  30   2   4    0.00    0.05   1
  -6  30  -2    0.18    0.07   1
  -6  30   2   -0.07    0.07   1
  -2  -6  30    0.00    0.07   1
  -2   6  30    0.05    0.07   1
   2  -6  30    0.31    0.08   1
   2   6  30   -0.08    0.07   1
   6  30  -2   -0.13    0.08   1
   6  30   2    0.03    0.07   1
  30  -2   6    0.01    0.05   1
  30   2   6   -0.07    0.05   1
  -8  30  -2   -0.05    0.07   1
  -8  30   2    0.12    0.07   1
  -2  -8  30    0.04    0.08   1
  -2   8  30   -0.14    0.07   1
   2  -8  30    0.10    0.09   1
   2   8  30   -0.05    0.07   1
   8  30  -2   -0.01    0.08   1
   8  30   2   -0.08    0.07   1
  30  -2   8   -0.02    0.05   1
  30   2   8   -0.03    0.06   1
 -10  30  -2    0.28    0.08   1
 -10  30   2    0.27    0.08   1
  -2 -10  30    0.07    0.09   1
  -2  10  30    0.10    0.08   1
   2 -10  30    0.24    0.10   1
   2  10  30    0.26    0.09   1
  10  30  -2    0.35    0.10   1
  10  30   2    0.16    0.08   1
  30  -2  10    0.13    0.06   1
  30   2  10    0.12    0.08   1
 -12  30  -2    0.02    0.08   1
 -12  30   2    0.28    0.09   1
  -2 -12  30    0.38    0.10   1
  -2  12  30    0.05    0.07   1
   2 -12  30    0.22    0.10   1
   2  12  30   -0.06    0.08   1
  12  30  -2    0.30    0.09   1
  12  30   2    0.29    0.09   1
  30  -2  12    0.21    0.09   1
  30   2  12    0.12    0.09   1
 -14  30  -2    0.18    0.09   1
 -14  30   2   -0.10    0.08   1
  -2 -14  30    0.16    0.10   1
  -2  14  30   -0.01    0.08   1
   2 -14  30    0.22    0.10   1
   2  14  30    0.03    0.09   1
  14  30  -2    0.15    0.10   1
  14  30   2    0.04    0.10   1
  30  -2  14   -0.08    0.09   1
  30   2  14    0.06    0.10   1
 -16  30  -2    0.00    0.10   1
 -16  30   2   -0.02    0.09   1
  -2 -16  30    0.43    0.12   1
   2 -16  30    0.22    0.11   1
   2  16  30   -0.25    0.10   1
  16  30  -2   -0.07    0.10   1
  16  30   2    0.03    0.11   1
  30  -2  16   -0.04    0.11   1
  30   2  16    0.02    0.11   1
  -4   0  30    0.03    0.07   1
   0  30  -4    0.12    0.07   1
   0  30   4    0.01    0.07   1
   4   0  30   -0.16    0.07   1
  30   4   0   -0.07    0.04   1
  -4  -2  30    0.10    0.07   1
  -4   2  30    0.01    0.07   1
  -2  30  -4   -0.01    0.07   1
  -2  30   4   -0.12    0.08   1
   2  30  -4    0.01    0.07   1
   2  30   4   -0.05    0.07   1
   4  -2  30   -0.11    0.08   1
   4   2  30    0.06    0.07   1
  30   4   2   -0.08    0.05   1
  -4  -4  30    0.06    0.07   1
  -4   4  30    0.04    0.07   1
  -4  30  -4    0.18    0.08   1
  -4  30   4    0.32    0.09   1
   4  -4  30    0.24    0.09   1
   4   4  30    0.10    0.07   1
   4  30  -4    0.12    0.08   1
   4  30   4    0.11    0.07   1
  30  -4   4   -0.01    0.04   1
  30   4   4    0.14    0.05   1
  -6  30  -4    0.25    0.08   1
  -6  30   4    0.27    0.08   1
  -4  -6  30    0.30    0.08   1
  -4   6  30    0.27    0.07   1
   4  -6  30    0.43    0.09   1
   4   6  30    0.12    0.08   1
   6  30  -4    0.37    0.09   1
   6  30   4    0.41    0.09   1
  30  -4   6    0.06    0.05   1
  30   4   6    0.10    0.06   1
  -8  30  -4    0.14    0.09   1
  -8  30   4    0.08    0.08   1
  -4  -8  30    0.13    0.08   1
  -4   8  30    0.02    0.07   1
   4  -8  30    0.14    0.09   1
   4   8  30    0.03    0.07   1
   8  30  -4   -0.17    0.08   1
   8  30   4   -0.05    0.09   1
  30  -4   8    0.09    0.06   1
  30   4   8    0.04    0.06   1
 -10  30  -4   -0.01    0.08   1
 -10  30   4    0.10    0.07   1
  -4 -10  30   -0.01    0.09   1
  -4  10  30   -0.02    0.08   1
   4 -10  30    0.08    0.10   1
   4  10  30    0.04    0.08   1
  10  30  -4    0.00    0.08   1
  10  30   4    0.07    0.09   1
  30  -4  10   -0.08    0.06   1
  30   4  10    0.04    0.08   1
 -12  30  -4    0.06    0.09   1
 -12  30   4   -0.01    0.08   1
  -4 -12  30    0.24    0.09   1
  -4  12  30   -0.09    0.08   1
   4 -12  30    0.43    0.11   1
   4  12  30    0.09    0.09   1
  12  30  -4    0.09    0.10   1
  12  30   4    0.22    0.10   1
  30  -4  12   -0.20    0.08   1
  30   4  12   -0.05    0.09   1
 -14  30  -4   -0.07    0.09   1
 -14  30   4   -0.12    0.08   1
  -4 -14  30    0.00    0.10   1
  -4  14  30   -0.20    0.08   1
   4 -14  30   -0.21    0.10   1
   4  14  30   -0.05    0.09   1
  14  30  -4    0.06    0.11   1
  14  30   4   -0.27    0.10   1
  30  -4  14   -0.04    0.10   1
  30   4  14   -0.12    0.09   1
 -16  30  -4    0.24    0.10   1
 -16  30   4    0.38    0.09   1
  -4 -16  30    0.43    0.12   1
  -4  16  30    0.06    0.09   1
   4 -16  30    0.05    0.12   1
   4  16  30    0.23    0.11   1
  16  30  -4    0.58    0.11   1
  16  30   4    0.13    0.13   1
  30  -4  16    0.50    0.11   1
  30   4  16    0.33    0.12   1
  -6   0  30    0.09    0.07   1
   0  30  -6    0.04    0.08   1
   0  30   6    0.12    0.07   1
   6   0  30    0.21    0.07   1
  30   6   0    0.03    0.05   1
  -6  -2  30    0.04    0.07   1
  -6   2  30    0.14    0.06   1
  -2  30  -6   -0.11    0.07   1
  -2  30   6    0.17    0.08   1
   2  30  -6   -0.01    0.07   1
   2  30   6    0.18    0.09   1
   6  -2  30   -0.05    0.07   1
  30   6  -2   -0.02    0.07   1
  30   6   2   -0.13    0.05   1
  -6  -4  30    0.41    0.08   1
  -6   4  30    0.10    0.07   1
  -4  30  -6    0.24    0.08   1
  -4  30   6    0.22    0.08   1
   4  30  -6    0.09    0.07   1
   4  30   6    0.36    0.10   1
   6  -4  30    0.36    0.09   1
   6   4  30    0.31    0.08   1
  30   6   4    0.23    0.06   1
  -6  -6  30    0.40    0.08   1
  -6   6  30    0.45    0.08   1
  -6  30  -6    0.56    0.09   1
  -6  30   6    0.45    0.09   1
   6  -6  30    0.56    0.10   1
   6   6  30    0.49    0.08   1
   6  30  -6    0.52    0.09   1
   6  30   6    0.62    0.11   1
  30  -6   6    0.75    0.07   1
  30   6   6    0.39    0.07   1
  -8  30  -6    0.26    0.08   1
  -8  30   6    0.40    0.09   1
  -6  -8  30    0.39    0.09   1
  -6   8  30    0.34    0.08   1
   6  -8  30    0.22    0.09   1
   6   8  30    0.20    0.08   1
   8  30  -6    0.34    0.09   1
   8  30   6   -0.03    0.09   1
  30  -6   8    0.02    0.06   1
  30   6   8    0.17    0.08   1
 -10  30  -6   -0.07    0.09   1
 -10  30   6   -0.10    0.08   1
  -6 -10  30   -0.17    0.08   1
  -6  10  30   -0.15    0.08   1
   6 -10  30   -0.21    0.09   1
   6  10  30    0.06    0.08   1
  10  30  -6   -0.06    0.09   1
  10  30   6   -0.08    0.08   1
  30  -6  10   -0.02    0.06   1
  30   6  10   -0.01    0.08   1
 -12  30  -6   -0.04    0.10   1
 -12  30   6    0.12    0.08   1
  -6 -12  30   -0.12    0.09   1
  -6  12  30   -0.22    0.08   1
   6 -12  30   -0.11    0.10   1
   6  12  30   -0.22    0.09   1
  12  30  -6   -0.05    0.09   1
  12  30   6    0.03    0.10   1
  30  -6  12   -0.01    0.08   1
  30   6  12    0.05    0.10   1
 -14  30  -6    0.01    0.09   1
 -14  30   6   -0.09    0.08   1
  -6 -14  30    0.09    0.10   1
  -6  14  30   -0.09    0.08   1
   6 -14  30   -0.03    0.11   1
   6  14  30   -0.09    0.09   1
  14  30  -6    0.06    0.09   1
  14  30   6    0.28    0.11   1
  30  -6  14    0.09    0.09   1
  30   6  14    0.05    0.10   1
 -16  30  -6    0.48    0.11   1
 -16  30   6    0.49    0.12   1
  -6 -16  30    0.13    0.11   1
  -6  16  30    0.13    0.09   1
   6  16  30    0.04    0.10   1
  16  30  -6    0.12    0.12   1
  16  30   6    0.56    0.20   1
  30  -6  16    0.27    0.12   1
  30   6  16    0.42    0.13   1
  -8   0  30    0.20    0.07   1
   0  30  -8    0.08    0.08   1
   0  30   8    0.38    0.09   1
   8   0  30    0.18    0.08   1
  30   8   0    0.14    0.06   1
  -8  -2  30    0.02    0.07   1
  -8   2  30    0.11    0.07   1
  -2  30  -8   -0.02    0.08   1
  -2  30   8    0.01    0.07   1
   2  30  -8   -0.05    0.07   1
   2  30   8   -0.08    0.08   1
   8  -2  30    0.26    0.09   1
   8   2  30   -0.02    0.08   1
  30   8  -2    0.31    0.06   1
  30   8   2    0.03    0.06   1
  -8  -4  30    0.05    0.08   1
  -8   4  30    0.18    0.07   1
  -4  30  -8    0.07    0.08   1
  -4  30   8    0.31    0.08   1
   4  30  -8    0.05    0.08   1
   4  30   8    0.02    0.08   1
   8   4  30    0.10    0.07   1
  30   8   4   -0.03    0.06   1
  -8  -6  30    0.15    0.08   1
  -8   6  30    0.27    0.07   1
  -6  30  -8    0.26    0.09   1
  -6  30   8    0.19    0.08   1
   6  30  -8    0.18    0.07   1
   6  30   8    0.48    0.09   1
   8   6  30    0.18    0.08   1
  -8  -8  30   -0.02    0.08   1
  -8   8  30    0.13    0.07   1
  -8  30  -8    0.01    0.09   1
  -8  30   8   -0.05    0.08   1
   8  -8  30    0.13    0.10   1
   8  30  -8   -0.19    0.08   1
   8  30   8    0.01    0.09   1
  30  -8   8    0.22    0.07   1
  30   8   8    0.16    0.08   1
 -10  30  -8    0.00    0.09   1
 -10  30   8    0.06    0.09   1
  -8 -10  30   -0.07    0.08   1
  -8  10  30   -0.01    0.07   1
   8 -10  30    0.30    0.11   1
   8  10  30   -0.13    0.08   1
  10  30  -8   -0.07    0.09   1
  10  30   8    0.15    0.10   1
  30  -8  10    0.04    0.06   1
  30   8  10   -0.06    0.09   1
 -12  30  -8    0.05    0.10   1
 -12  30   8    0.03    0.08   1
  -8 -12  30    0.07    0.09   1
  -8  12  30   -0.01    0.08   1
   8 -12  30   -0.16    0.11   1
   8  12  30    0.25    0.11   1
  12  30  -8    0.43    0.10   1
  12  30   8    0.05    0.10   1
  30  -8  12    0.07    0.08   1
  30   8  12   -0.09    0.09   1
 -14  30  -8    0.10    0.10   1
 -14  30   8    0.03    0.09   1
  -8 -14  30   -0.13    0.10   1
  -8  14  30   -0.10    0.09   1
   8 -14  30    0.00    0.13   1
   8  14  30   -0.09    0.10   1
  14  30  -8    0.11    0.10   1
  14  30   8    0.20    0.12   1
  30  -8  14   -0.06    0.10   1
  30   8  14    0.07    0.11   1
 -10   0  30    0.39    0.08   1
   0  30 -10    0.48    0.10   1
   0  30  10    0.31    0.08   1
  10   0  30    0.31    0.09   1
  30  10   0    0.39    0.07   1
 -10  -2  30    0.23    0.07   1
 -10   2  30    0.21    0.07   1
  -2  30 -10    0.46    0.10   1
  -2  30  10    0.21    0.09   1
   2  30 -10    0.26    0.09   1
   2  30  10    0.14    0.08   1
  10  -2  30    0.13    0.08   1
  10   2  30    0.37    0.08   1
  30  10  -2    0.16    0.06   1
  30  10   2    0.28    0.07   1
 -10  -4  30   -0.10    0.07   1
 -10   4  30    0.03    0.07   1
  -4  30 -10    0.12    0.09   1
  -4  30  10    0.05    0.07   1
   4  30  10    0.25    0.09   1
  10  -4  30   -0.25    0.09   1
  10   4  30   -0.12    0.07   1
 -10  -6  30   -0.21    0.07   1
  -6  30  10    0.00    0.08   1
   6  30 -10    0.16    0.09   1
   6  30  10   -0.23    0.09   1
  10  -6  30    0.19    0.10   1
  10   6  30   -0.18    0.08   1
  30  10   6   -0.07    0.08   1
 -10  -8  30   -0.04    0.08   1
 -10   8  30   -0.09    0.07   1
  -8  30 -10    0.02    0.10   1
  -8  30  10    0.05    0.09   1
   8  30 -10    0.12    0.08   1
   8  30  10    0.22    0.10   1
  10  -8  30    0.05    0.12   1
  10   8  30    0.00    0.09   1
  30  10   8    0.06    0.09   1
 -10 -10  30    0.31    0.09   1
 -10  10  30    0.27    0.08   1
 -10  30 -10    0.28    0.10   1
 -10  30  10    0.20    0.09   1
  10 -10  30    0.32    0.11   1
  10  10  30    0.22    0.10   1
  10  30 -10    0.39    0.10   1
  10  30  10    0.30    0.11   1
  30 -10  10    0.30    0.08   1
  30  10  10    0.29    0.10   1
 -12  30 -10    0.23    0.11   1
 -12  30  10    0.19    0.09   1
 -10 -12  30    0.25    0.10   1
 -10  12  30    0.35    0.10   1
  10 -12  30    0.41    0.14   1
  10  12  30    0.11    0.11   1
  12  30 -10    0.18    0.10   1
  12  30  10    0.23    0.12   1
  30 -10  12    0.18    0.10   1
  30  10  12    0.18    0.11   1
 -14  30  10    0.15    0.10   1
 -10 -14  30   -0.01    0.10   1
  10  14  30   -0.24    0.12   1
  14  30 -10   -0.07    0.11   1
  30 -10  14    0.16    0.12   1
  30  10  14   -0.04    0.11   1
 -12   0  30    0.22    0.08   1
   0  30 -12    0.67    0.12   1
   0  30  12    0.56    0.10   1
  12   0  30    0.47    0.10   1
  30  12   0    0.50    0.08   1
 -12  -2  30    0.17    0.07   1
 -12   2  30    0.13    0.07   1
  -2  30 -12    0.18    0.10   1
  -2  30  12    0.20    0.09   1
   2  30 -12    0.34    0.11   1
   2  30  12    0.39    0.10   1
  12  -2  30    0.37    0.10   1
  12   2  30    0.21    0.09   1
  30  12  -2    0.24    0.08   1
  30  12   2    0.27    0.09   1
 -12  -4  30    0.14    0.08   1
  -4  30 -12   -0.18    0.11   1
  -4  30  12    0.05    0.08   1
   4  30 -12   -0.05    0.10   1
   4  30  12    0.21    0.09   1
  12  -4  30   -0.01    0.10   1
  12   4  30    0.04    0.08   1
  30  12   4   -0.06    0.09   1
 -12  -6  30   -0.21    0.08   1
 -12   6  30   -0.07    0.07   1
  -6  30  12    0.08    0.08   1
   6  30 -12   -0.07    0.10   1
   6  30  12    0.01    0.09   1
  12   6  30    0.02    0.09   1
  30  12   6   -0.09    0.09   1
 -12  -8  30    0.18    0.09   1
  -8  30 -12    0.17    0.10   1
  -8  30  12    0.04    0.08   1
   8  30 -12    0.37    0.11   1
   8  30  12    0.11    0.09   1
  12  -8  30    0.02    0.10   1
  12   8  30   -0.20    0.10   1
  30  12   8    0.02    0.10   1
 -12 -10  30    0.32    0.10   1
 -10  30 -12    0.45    0.11   1
 -10  30  12    0.08    0.10   1
  10  30 -12    0.22    0.11   1
  10  30  12    0.40    0.11   1
  12 -10  30    0.10    0.13   1
  12  10  30    0.13    0.10   1
  30  12  10    0.28    0.11   1
 -12 -12  30    0.26    0.11   1
 -12  30  12    0.30    0.10   1
  12  12  30    0.53    0.16   1
  12  30 -12    0.57    0.13   1
  30  12  12    0.34    0.13   1
   0  30 -14    0.27    0.11   1
   0  30  14    0.15    0.09   1
  14   0  30    0.37    0.10   1
  30  14   0    0.42    0.10   1
  -2  30 -14    0.16    0.12   1
  -2  30  14   -0.05    0.08   1
   2  30 -14    0.18    0.11   1
   2  30  14    0.14    0.09   1
  14  -2  30    0.07    0.10   1
  14   2  30    0.30    0.09   1
  30  14  -2   -0.03    0.09   1
  30  14   2    0.13    0.09   1
 -14  -4  30    0.00    0.07   1
  -4  30 -14    0.28    0.11   1
  -4  30  14   -0.06    0.08   1
   4  30 -14    0.11    0.11   1
   4  30  14    0.12    0.09   1
  14  -4  30   -0.21    0.09   1
  14   4  30    0.22    0.10   1
  30  14  -4   -0.04    0.13   1
  30  14   4    0.11    0.11   1
 -14  -6  30   -0.02    0.08   1
  -6  30 -14   -0.03    0.12   1
  -6  30  14   -0.15    0.09   1
   6  30 -14    0.33    0.12   1
   6  30  14    0.11    0.10   1
  14  -6  30   -0.21    0.11   1
  14   6  30    0.29    0.10   1
  30  14   6   -0.05    0.11   1
 -14  -8  30    0.11    0.09   1
  -8  30 -14    0.42    0.11   1
  -8  30  14    0.04    0.09   1
   8  30 -14   -0.07    0.12   1
   8  30  14    0.12    0.12   1
  14  -8  30    0.10    0.13   1
  14   8  30    0.16    0.12   1
  30  14   8   -0.05    0.11   1
 -14 -10  30    0.04    0.10   1
 -10  30  14    0.42    0.11   1
  10  30 -14    0.02    0.13   1
  30  14  10   -0.01    0.12   1
   0  30 -16   -0.11    0.12   1
   0  30  16   -0.21    0.09   1
  16   0  30   -0.15    0.10   1
  30  16   0   -0.03    0.11   1
  -2  30 -16   -0.01    0.12   1
  -2  30  16   -0.01    0.08   1
   2  30 -16    0.10    0.14   1
   2  30  16    0.14    0.10   1
  16  -2  30   -0.14    0.11   1
  16   2  30   -0.18    0.10   1
  30  16  -2    0.05    0.11   1
  30  16   2    0.29    0.12   1
  -4  30 -16    0.49    0.15   1
  -4  30  16    0.20    0.09   1
   4  30 -16    0.20    0.14   1
   4  30  16    0.53    0.11   1
  16  -4  30    0.52    0.14   1
  16   4  30    0.18    0.12   1
  30  16  -4    0.36    0.15   1
  30  16   4    0.23    0.12   1
  -6  30 -16    0.52    0.14   1
  -6  30  16    0.36    0.10   1
   6  30 -16    0.29    0.16   1
   6  30  16    0.65    0.13   1
  30  16   6    0.25    0.13   1
  -1  -1  31    1.17    0.13   1
  -1   1  31    0.79    0.09   1
  -1  31  -1    0.90    0.10   1
  -1  31   1    0.97    0.10   1
   1  -1  31    0.90    0.11   1
   1   1  31    0.85    0.11   1
   1  31  -1    0.70    0.11   1
   1  31   1    0.47    0.09   1
  -3  31  -1    0.35    0.08   1
  -3  31   1    0.08    0.09   1
  -1  -3  31    0.30    0.09   1
  -1   3  31    0.30    0.08   1
   1  -3  31    0.49    0.09   1
   1   3  31    0.38    0.08   1
   3  31  -1    0.55    0.10   1
   3  31   1    0.29    0.09   1
  -5  31  -1    0.22    0.08   1
  -5  31   1   -0.20    0.07   1
  -1  -5  31   -0.02    0.08   1
  -1   5  31    0.07    0.07   1
   1  -5  31    0.00    0.08   1
   1   5  31   -0.09    0.07   1
   5  31  -1   -0.14    0.08   1
   5  31   1    0.12    0.08   1
  31  -1   5   -0.01    0.06   1
  31   1   5   -0.02    0.06   1
  -7  31  -1    0.09    0.08   1
  -7  31   1    0.19    0.08   1
  -1  -7  31    0.16    0.09   1
  -1   7  31    0.09    0.07   1
   1  -7  31    0.22    0.10   1
   1   7  31    0.06    0.08   1
   7  31  -1    0.27    0.10   1
   7  31   1    0.14    0.09   1
  31  -1   7    0.04    0.06   1
  31   1   7    0.02    0.06   1
  -9  31  -1    0.46    0.10   1
  -9  31   1    0.52    0.09   1
  -1  -9  31    0.50    0.10   1
  -1   9  31    0.29    0.08   1
   1  -9  31    0.40    0.10   1
   1   9  31    0.44    0.09   1
   9  31  -1    0.33    0.10   1
   9  31   1    0.43    0.09   1
  31  -1   9    0.28    0.07   1
  31   1   9    0.51    0.09   1
 -11  31  -1    0.69    0.11   1
 -11  31   1    0.44    0.10   1
  -1 -11  31    0.62    0.12   1
  -1  11  31    0.49    0.09   1
   1 -11  31    0.87    0.12   1
   1  11  31    0.42    0.10   1
  11  31  -1    0.67    0.11   1
  11  31   1    0.70    0.11   1
  31  -1  11    0.51    0.09   1
  31   1  11    0.53    0.10   1
 -13  31  -1    0.71    0.11   1
 -13  31   1    0.74    0.11   1
  -1 -13  31    0.70    0.12   1
  -1  13  31    0.19    0.09   1
   1 -13  31    0.70    0.12   1
   1  13  31    0.71    0.11   1
  13  31  -1    0.74    0.12   1
  13  31   1    0.31    0.11   1
  31  -1  13    0.42    0.11   1
  31   1  13    0.31    0.11   1
 -15  31  -1    0.23    0.11   1
 -15  31   1   -0.08    0.10   1
  -1 -15  31    0.12    0.11   1
  -1  15  31   -0.16    0.09   1
   1 -15  31    0.00    0.12   1
   1  15  31   -0.26    0.09   1
  15  31  -1   -0.04    0.11   1
  15  31   1    0.10    0.13   1
  31  -1  15   -0.15    0.11   1
  31   1  15   -0.18    0.12   1
  -3  -1  31    0.29    0.08   1
  -3   1  31    0.16    0.08   1
  -1  31  -3    0.27    0.08   1
  -1  31   3    0.41    0.09   1
   1  31  -3    0.08    0.08   1
   1  31   3    0.23    0.09   1
   3  -1  31    0.37    0.09   1
   3   1  31    0.20    0.09   1
  -3  -3  31    0.10    0.08   1
  -3   3  31    0.01    0.08   1
  -3  31  -3    0.14    0.08   1
  -3  31   3    0.11    0.09   1
   3  -3  31    0.20    0.09   1
   3   3  31    0.04    0.08   1
   3  31  -3    0.09    0.08   1
   3  31   3    0.07    0.08   1
  31   3   3    0.05    0.05   1
  -5  31  -3    0.12    0.08   1
  -5  31   3    0.02    0.09   1
  -3  -5  31    0.09    0.08   1
  -3   5  31    0.05    0.08   1
   3  -5  31    0.19    0.09   1
   3   5  31   -0.07    0.07   1
   5  31  -3   -0.04    0.09   1
   5  31   3    0.56    0.11   1
  31   3   5    0.00    0.06   1
  -7  31  -3    0.06    0.08   1
  -7  31   3    0.01    0.08   1
  -3  -7  31   -0.05    0.08   1
  -3   7  31    0.01    0.07   1
   3  -7  31   -0.02    0.09   1
   3   7  31   -0.07    0.07   1
   7  31  -3    0.08    0.09   1
   7  31   3   -0.02    0.08   1
  31  -3   7   -0.02    0.06   1
  31   3   7    0.02    0.07   1
  -9  31  -3    0.06    0.09   1
  -9  31   3    0.29    0.08   1
  -3  -9  31    0.20    0.09   1
  -3   9  31    0.24    0.09   1
   3  -9  31    0.13    0.10   1
   3   9  31    0.02    0.08   1
   9  31  -3    0.28    0.10   1
   9  31   3    0.02    0.09   1
  31  -3   9   -0.06    0.07   1
  31   3   9   -0.02    0.08   1
 -11  31  -3    0.33    0.09   1
 -11  31   3    0.40    0.09   1
  -3 -11  31    0.29    0.10   1
  -3  11  31    0.24    0.09   1
   3 -11  31    0.22    0.11   1
   3  11  31    0.19    0.09   1
  11  31  -3    0.42    0.11   1
  11  31   3    0.33    0.10   1
  31  -3  11    0.24    0.09   1
  31   3  11    0.03    0.09   1
 -13  31  -3    0.34    0.10   1
 -13  31   3    0.21    0.09   1
  -3 -13  31    0.09    0.10   1
  -3  13  31    0.07    0.09   1
   3 -13  31    0.32    0.12   1
   3  13  31    0.27    0.10   1
  13  31  -3   -0.10    0.11   1
  13  31   3    0.05    0.11   1
  31  -3  13    0.21    0.11   1
  31   3  13    0.21    0.11   1
 -15  31  -3    0.21    0.10   1
 -15  31   3    0.25    0.10   1
  -3 -15  31    0.09    0.11   1
  -3  15  31   -0.19    0.09   1
   3 -15  31   -0.01    0.14   1
   3  15  31   -0.15    0.10   1
  15  31  -3   -0.27    0.12   1
  15  31   3    0.00    0.15   1
  31  -3  15   -0.14    0.11   1
  31   3  15   -0.26    0.12   1
  -5  -1  31    0.04    0.07   1
  -5   1  31    0.09    0.08   1
  -1  31  -5    0.28    0.08   1
  -1  31   5    0.07    0.08   1
   1  31  -5    0.00    0.08   1
   1  31   5   -0.17    0.08   1
   5  -1  31   -0.05    0.07   1
   5   1  31    0.13    0.08   1
  -5  -3  31    0.09    0.08   1
  -5   3  31    0.05    0.07   1
  -3  31  -5    0.08    0.08   1
  -3  31   5    0.14    0.09   1
   3  31  -5   -0.12    0.08   1
   3  31   5   -0.15    0.08   1
   5  -3  31   -0.02    0.08   1
   5   3  31    0.13    0.07   1
  31   5   3    0.00    0.06   1
  -5  -5  31    0.39    0.09   1
  -5   5  31    0.22    0.08   1
  -5  31  -5    0.20    0.08   1
  -5  31   5    0.64    0.10   1
   5  -5  31    0.34    0.10   1
   5   5  31    0.17    0.08   1
   5  31  -5    0.27    0.09   1
   5  31   5    0.35    0.08   1
  31   5   5    0.22    0.07   1
  -7  31  -5    0.15    0.09   1
  -7  31   5    0.11    0.09   1
  -5  -7  31    0.16    0.08   1
  -5   7  31    0.05    0.08   1
   5  -7  31    0.19    0.10   1
   5   7  31    0.19    0.09   1
   7  31  -5    0.13    0.09   1
   7  31   5    0.14    0.09   1
  31   5   7    0.17    0.07   1
  -9  31  -5   -0.05    0.08   1
  -9  31   5   -0.04    0.08   1
  -5  -9  31    0.17    0.09   1
  -5   9  31   -0.06    0.08   1
   5  -9  31    0.24    0.11   1
   5   9  31   -0.05    0.09   1
   9  31  -5   -0.17    0.09   1
   9  31   5   -0.02    0.10   1
  31  -5   9   -0.04    0.07   1
  31   5   9   -0.06    0.08   1
 -11  31  -5    0.11    0.09   1
 -11  31   5    0.16    0.08   1
  -5 -11  31    0.13    0.10   1
  -5  11  31   -0.12    0.08   1
   5 -11  31   -0.08    0.11   1
   5  11  31   -0.06    0.09   1
  11  31  -5   -0.08    0.10   1
  11  31   5    0.20    0.11   1
  31  -5  11   -0.02    0.09   1
  31   5  11   -0.01    0.10   1
 -13  31  -5    0.07    0.10   1
 -13  31   5   -0.07    0.09   1
  -5 -13  31    0.01    0.10   1
  -5  13  31   -0.22    0.09   1
   5 -13  31    0.35    0.13   1
   5  13  31   -0.07    0.10   1
  13  31  -5   -0.23    0.11   1
  13  31   5   -0.18    0.12   1
  31  -5  13   -0.03    0.11   1
  31   5  13   -0.16    0.10   1
  -7  -1  31    0.13    0.08   1
  -7   1  31    0.22    0.08   1
  -1  31  -7    0.19    0.08   1
  -1  31   7    0.06    0.08   1
   1  31  -7    0.00    0.08   1
   1  31   7   -0.03    0.08   1
   7  -1  31    0.00    0.09   1
   7   1  31    0.27    0.09   1
  31   7   1    0.13    0.07   1
  -7  -3  31   -0.03    0.08   1
  -7   3  31    0.07    0.07   1
  -3  31  -7   -0.13    0.08   1
  -3  31   7    0.18    0.08   1
   3  31  -7    0.13    0.08   1
   3  31   7   -0.06    0.09   1
   7  -3  31    0.21    0.09   1
   7   3  31    0.06    0.08   1
  31   7   3    0.01    0.06   1
  -7  -5  31    0.33    0.09   1
  -7   5  31    0.07    0.08   1
  -5  31  -7    0.30    0.10   1
  -5  31   7    0.06    0.09   1
   5  31  -7    0.31    0.09   1
   5  31   7    0.25    0.10   1
   7  -5  31    0.11    0.09   1
   7   5  31    0.16    0.08   1
  31   7   5    0.12    0.07   1
  -7  -7  31   -0.02    0.08   1
  -7   7  31   -0.11    0.08   1
  -7  31  -7    0.18    0.10   1
  -7  31   7    0.07    0.09   1
   7  -7  31    0.09    0.10   1
   7   7  31    0.10    0.08   1
   7  31  -7    0.07    0.09   1
   7  31   7    0.19    0.10   1
  31   7   7    0.08    0.08   1
  -9  31  -7   -0.02    0.10   1
  -9  31   7    0.02    0.09   1
  -7  -9  31    0.18    0.09   1
  -7   9  31   -0.22    0.08   1
   7  -9  31   -0.21    0.10   1
   7   9  31   -0.05    0.08   1
   9  31  -7    0.04    0.09   1
   9  31   7    0.01    0.10   1
  31   7   9   -0.02    0.10   1
 -11  31  -7    0.45    0.11   1
 -11  31   7    0.18    0.09   1
  -7 -11  31    0.07    0.10   1
  -7  11  31   -0.07    0.08   1
   7 -11  31   -0.01    0.11   1
   7  11  31    0.44    0.11   1
  11  31  -7    0.12    0.11   1
  11  31   7    0.24    0.11   1
  31   7  11    0.17    0.10   1
 -13  31  -7    0.01    0.11   1
 -13  31   7    0.11    0.09   1
  -7 -13  31    0.03    0.10   1
  -7  13  31   -0.03    0.09   1
   7 -13  31   -0.04    0.15   1
   7  13  31   -0.10    0.11   1
  13  31  -7    0.29    0.12   1
  13  31   7   -0.38    0.18   1
  31  -7  13    0.07    0.11   1
  31   7  13   -0.22    0.11   1
  -9  -1  31    0.29    0.08   1
  -9   1  31    0.32    0.08   1
  -1  31  -9    0.47    0.10   1
  -1  31   9    0.50    0.09   1
   1  31  -9    0.08    0.09   1
   1  31   9    0.48    0.11   1
   9  -1  31    0.58    0.10   1
   9   1  31    0.39    0.09   1
  31   9   1    0.34    0.07   1
  -9  -3  31    0.08    0.08   1
  -9   3  31    0.08    0.07   1
  -3  31  -9    0.18    0.10   1
  -3  31   9    0.11    0.08   1
   3  31  -9    0.17    0.10   1
   3  31   9   -0.05    0.09   1
   9  -3  31   -0.05    0.10   1
   9   3  31    0.18    0.09   1
  31   9   3    0.11    0.07   1
  -9  -5  31    0.16    0.08   1
  -9   5  31    0.03    0.07   1
  -5  31  -9   -0.01    0.10   1
  -5  31   9   -0.06    0.08   1
   5  31  -9    0.17    0.08   1
   5  31   9    0.20    0.09   1
   9  -5  31    0.33    0.11   1
   9   5  31    0.03    0.09   1
  31   9   5   -0.12    0.08   1
  -9   7  31   -0.05    0.08   1
  -7  31  -9   -0.02    0.10   1
  -7  31   9   -0.04    0.09   1
   7  31  -9    0.01    0.09   1
   7  31   9    0.20    0.09   1
   9  -7  31    0.33    0.11   1
   9   7  31    0.05    0.09   1
  31   9   7    0.14    0.09   1
  -9  -9  31   -0.15    0.09   1
  -9  31  -9    0.45    0.11   1
  -9  31   9    0.07    0.10   1
   9  -9  31    0.39    0.13   1
   9   9  31    0.35    0.10   1
   9  31  -9   -0.14    0.09   1
   9  31   9    0.40    0.11   1
  31   9   9    0.31    0.11   1
 -11  31  -9    0.24    0.11   1
 -11  31   9    0.52    0.10   1
  -9 -11  31    0.31    0.10   1
  -9  11  31    0.09    0.08   1
   9 -11  31    0.27    0.13   1
   9  11  31    0.17    0.11   1
  11  31  -9    0.15    0.11   1
  11  31   9    0.51    0.13   1
  31   9  11    0.23    0.12   1
 -11  -1  31    0.69    0.09   1
 -11   1  31    0.51    0.09   1
  -1  31 -11    0.70    0.12   1
  -1  31  11    0.63    0.11   1
   1  31 -11    0.58    0.11   1
   1  31  11    0.68    0.11   1
  11  -1  31    0.70    0.11   1
  11   1  31    0.52    0.09   1
  31  11   1    0.54    0.08   1
 -11  -3  31    0.27    0.09   1
 -11   3  31    0.39    0.08   1
  -3  31 -11    0.49    0.12   1
  -3  31  11    0.36    0.10   1
   3  31 -11    0.38    0.12   1
   3  31  11    0.23    0.10   1
  11  -3  31    0.31    0.11   1
  11   3  31    0.22    0.09   1
  31  11   3    0.30    0.10   1
 -11  -5  31    0.12    0.08   1
 -11   5  31    0.08    0.07   1
  -5  31 -11   -0.08    0.10   1
  -5  31  11    0.15    0.08   1
   5  31 -11   -0.19    0.10   1
   5  31  11    0.09    0.10   1
  11  -5  31   -0.26    0.10   1
  11   5  31   -0.09    0.09   1
  31  11   5    0.03    0.10   1
 -11  -7  31    0.08    0.09   1
 -11   7  31    0.10    0.09   1
  -7  31 -11    0.42    0.12   1
  -7  31  11   -0.14    0.09   1
   7  31 -11    0.03    0.11   1
   7  31  11    0.19    0.11   1
  11  -7  31    0.31    0.12   1
  31  11   7    0.08    0.10   1
 -11  -9  31    0.41    0.11   1
  -9  31 -11    0.71    0.12   1
  -9  31  11    0.34    0.10   1
   9  31 -11    0.38    0.13   1
   9  31  11    0.45    0.12   1
  11  -9  31    0.78    0.15   1
  11   9  31    0.05    0.10   1
  31  11   9    0.45    0.12   1
 -11 -11  31    0.60    0.11   1
 -11  31 -11    0.54    0.13   1
 -11  31  11    0.63    0.12   1
  11  31 -11    0.54    0.14   1
  31  11  11    0.48    0.13   1
 -13  -1  31    0.55    0.09   1
  -1  31 -13    0.51    0.12   1
  -1  31  13    0.41    0.10   1
   1  31 -13    0.61    0.13   1
   1  31  13    0.52    0.11   1
  13  -1  31    0.57    0.12   1
  13   1  31    0.59    0.12   1
  31  13  -1    0.69    0.14   1
  31  13   1    0.46    0.11   1
 -13  -3  31    0.45    0.08   1
  -3  31  13    0.12    0.09   1
   3  31 -13   -0.03    0.11   1
   3  31  13    0.69    0.12   1
  13  -3  31    0.26    0.12   1
  13   3  31    0.03    0.10   1
  31  13   3    0.19    0.11   1
 -13  -5  31   -0.03    0.09   1
  -5  31 -13    0.01    0.12   1
  -5  31  13    0.22    0.09   1
   5  31 -13   -0.13    0.12   1
   5  31  13    0.11    0.11   1
  13  -5  31    0.19    0.13   1
  13   5  31    0.04    0.10   1
  31  13   5   -0.06    0.11   1
 -13  -7  31    0.11    0.09   1
  -7  31 -13    0.02    0.12   1
  -7  31  13    0.12    0.09   1
   7  31 -13    0.23    0.14   1
   7  31  13    0.05    0.13   1
  13  -7  31    0.21    0.16   1
  13   7  31    0.06    0.13   1
  31  13   7   -0.02    0.11   1
  -1  31  15   -0.05    0.10   1
   1  31 -15    0.60    0.23   1
   1  31  15    0.23    0.11   1
  31  15  -1   -0.18    0.14   1
  31  15   1   -0.16    0.11   1
  -3  31  15   -0.14    0.09   1
   3  31  15    0.10    0.11   1
  31  15   3   -0.11    0.11   1
   0   0  32    0.89    0.11   1
   0  32   0    1.15    0.11   1
  -2  32   0    0.66    0.10   1
   0  -2  32    0.66    0.09   1
   0   2  32    0.66    0.09   1
   2  32   0    0.71    0.12   1
  -4  32   0    0.06    0.08   1
   0  -4  32    0.06    0.09   1
   0   4  32    0.18    0.08   1
   4  32   0    0.05    0.10   1
  -6  32   0    0.09    0.08   1
   0  -6  32    0.27    0.10   1
   0   6  32    0.10    0.08   1
   6  32   0    0.20    0.11   1
  -8  32   0    0.43    0.09   1
   0  -8  32    0.31    0.10   1
   0   8  32    0.25    0.10   1
   8  32   0    0.52    0.12   1
  32   0   8    0.27    0.10   1
 -10  32   0    0.42    0.10   1
   0 -10  32    0.71    0.12   1
   0  10  32    0.47    0.10   1
  10  32   0    0.63    0.12   1
  32   0  10    0.49    0.10   1
 -12  32   0    1.37    0.12   1
   0 -12  32    1.00    0.13   1
   0  12  32    0.81    0.11   1
  12  32   0    0.84    0.13   1
  32   0  12    0.92    0.13   1
  -2   0  32    0.61    0.09   1
   0  32  -2    0.73    0.10   1
   0  32   2    0.74    0.11   1
   2   0  32    0.54    0.10   1
  -2  -2  32    0.36    0.09   1
  -2   2  32    0.52    0.09   1
  -2  32  -2    0.47    0.09   1
  -2  32   2    0.39    0.10   1
   2  -2  32    0.28    0.09   1
   2   2  32    0.64    0.10   1
   2  32  -2    0.36    0.09   1
   2  32   2    0.44    0.10   1
  -4  32  -2    0.06    0.09   1
  -4  32   2    0.03    0.08   1
  -2  -4  32    0.10    0.09   1
  -2   4  32   -0.11    0.07   1
   2  -4  32    0.40    0.10   1
   2   4  32    0.06    0.08   1
   4  32  -2    0.06    0.10   1
   4  32   2    0.25    0.10   1
  -6  32  -2   -0.03    0.09   1
  -6  32   2   -0.17    0.08   1
  -2  -6  32    0.25    0.09   1
  -2   6  32    0.17    0.08   1
   2  -6  32    0.06    0.10   1
   2   6  32   -0.05    0.08   1
   6  32  -2    0.10    0.09   1
   6  32   2    0.02    0.08   1
  -8  32  -2    0.38    0.09   1
  -8  32   2    0.25    0.09   1
  -2  -8  32    0.12    0.10   1
  -2   8  32    0.08    0.09   1
   2  -8  32    0.33    0.10   1
   2   8  32    0.20    0.09   1
   8  32   2    0.26    0.09   1
  32   2   8    0.15    0.08   1
 -10  32  -2    0.52    0.11   1
 -10  32   2    0.66    0.11   1
  -2 -10  32    0.41    0.12   1
  -2  10  32    0.28    0.09   1
   2  10  32    0.44    0.10   1
  10  32  -2    0.81    0.13   1
  10  32   2    0.51    0.10   1
  32  -2  10    0.54    0.12   1
  32   2  10    0.55    0.11   1
 -12  32  -2    0.63    0.11   1
 -12  32   2    0.88    0.11   1
  -2 -12  32    0.61    0.11   1
  -2  12  32    0.48    0.10   1
   2 -12  32    0.79    0.14   1
   2  12  32    0.36    0.11   1
  12  32  -2    1.02    0.15   1
  12  32   2    0.87    0.14   1
  32  -2  12    0.56    0.12   1
  32   2  12    0.33    0.12   1
  -4   0  32    0.22    0.08   1
   0  32  -4    0.01    0.08   1
   0  32   4    0.13    0.10   1
   4   0  32    0.02    0.08   1
  -4  -2  32    0.13    0.08   1
  -4   2  32    0.22    0.08   1
  -2  32  -4    0.15    0.08   1
  -2  32   4    0.28    0.09   1
   2  32  -4    0.17    0.09   1
   2  32   4    0.10    0.09   1
   4  -2  32    0.40    0.09   1
   4   2  32    0.25    0.09   1
  -4  -4  32    0.19    0.08   1
  -4   4  32    0.18    0.08   1
  -4  32  -4   -0.03    0.08   1
  -4  32   4    0.21    0.09   1
   4  -4  32    0.23    0.10   1
   4   4  32    0.07    0.08   1
   4  32  -4   -0.12    0.08   1
   4  32   4    0.12    0.09   1
  -6  32  -4    0.21    0.10   1
  -6  32   4    0.04    0.09   1
  -4  -6  32    0.12    0.09   1
  -4   6  32    0.09    0.08   1
   4  -6  32    0.22    0.11   1
   4   6  32    0.06    0.08   1
   6  32  -4    0.01    0.10   1
   6  32   4    0.10    0.09   1
  32   4   6    0.04    0.08   1
  -8  32  -4    0.21    0.10   1
  -8  32   4    0.18    0.09   1
  -4  -8  32   -0.15    0.09   1
  -4   8  32    0.06    0.09   1
   4  -8  32    0.42    0.11   1
   4   8  32   -0.05    0.09   1
   8  32  -4   -0.03    0.10   1
   8  32   4   -0.03    0.10   1
  32   4   8   -0.04    0.09   1
 -10  32  -4    0.20    0.10   1
 -10  32   4    0.19    0.09   1
  -4 -10  32    0.11    0.10   1
  -4  10  32   -0.01    0.09   1
   4 -10  32    0.41    0.12   1
   4  10  32   -0.10    0.10   1
  10  32  -4    0.20    0.12   1
  10  32   4   -0.05    0.10   1
  32   4  10    0.12    0.09   1
 -12  32  -4    0.12    0.11   1
 -12  32   4    0.20    0.10   1
  -4 -12  32    0.22    0.12   1
  -4  12  32   -0.01    0.09   1
   4 -12  32    0.52    0.15   1
   4  12  32   -0.06    0.11   1
  12  32  -4   -0.31    0.12   1
  12  32   4   -0.10    0.19   1
  32  -4  12    0.15    0.14   1
  32   4  12    0.18    0.11   1
  -6   0  32   -0.02    0.08   1
   0  32  -6    0.09    0.09   1
   0  32   6   -0.10    0.08   1
   6   0  32    0.24    0.08   1
  -6  -2  32    0.09    0.08   1
  -6   2  32    0.01    0.08   1
  -2  32  -6    0.23    0.09   1
  -2  32   6   -0.14    0.09   1
   2  32  -6   -0.23    0.08   1
   2  32   6   -0.16    0.09   1
   6   2  32    0.20    0.09   1
  -6  -4  32    0.06    0.08   1
  -6   4  32    0.19    0.08   1
  -4  32  -6    0.23    0.09   1
  -4  32   6    0.10    0.09   1
   4  32  -6    0.05    0.09   1
   4  32   6    0.05    0.09   1
   6   4  32    0.17    0.08   1
  -6  -6  32    0.27    0.09   1
  -6   6  32    0.26    0.08   1
  -6  32  -6    0.13    0.10   1
  -6  32   6   -0.07    0.10   1
   6  -6  32    0.13    0.10   1
   6   6  32   -0.19    0.08   1
   6  32  -6    0.19    0.10   1
   6  32   6    0.29    0.10   1
  -8  32  -6   -0.02    0.10   1
  -8  32   6    0.04    0.09   1
  -6  -8  32   -0.21    0.08   1
  -6   8  32   -0.08    0.08   1
   6  -8  32    0.02    0.12   1
   6   8  32    0.20    0.10   1
   8  32  -6   -0.06    0.10   1
   8  32   6    0.02    0.11   1
  32   6   8   -0.09    0.09   1
 -10  32  -6    0.13    0.11   1
 -10  32   6    0.17    0.09   1
  -6 -10  32    0.01    0.10   1
  -6  10  32   -0.23    0.08   1
   6 -10  32   -0.01    0.13   1
   6  10  32    0.25    0.11   1
  10  32  -6    0.51    0.11   1
  10  32   6    0.23    0.13   1
  32   6  10    0.18    0.11   1
 -12  32  -6    0.17    0.11   1
 -12  32   6    0.11    0.10   1
  -6 -12  32    0.03    0.11   1
  -6  12  32   -0.07    0.10   1
   6  12  32    0.11    0.11   1
  32   6  12    0.37    0.11   1
  -8   0  32    0.30    0.08   1
   0  32  -8    0.45    0.10   1
   0  32   8    0.24    0.09   1
   8   0  32    0.41    0.10   1
  -8  -2  32    0.15    0.08   1
  -8   2  32    0.41    0.09   1
  -2  32  -8    0.29    0.10   1
  -2  32   8    0.29    0.09   1
   2  32  -8    0.49    0.11   1
   2  32   8    0.19    0.09   1
   8  -2  32    0.15    0.10   1
   8   2  32    0.31    0.09   1
  -8  -4  32   -0.16    0.08   1
  -8   4  32    0.22    0.08   1
  -4  32  -8    0.11    0.10   1
  -4  32   8   -0.07    0.09   1
   4  32  -8    0.02    0.10   1
   4  32   8   -0.01    0.10   1
   8  -4  32    0.29    0.11   1
   8   4  32   -0.08    0.08   1
  32   8   4    0.10    0.08   1
  -8  -6  32    0.03    0.09   1
  -8   6  32   -0.04    0.08   1
  -6  32  -8    0.09    0.11   1
  -6  32   8   -0.12    0.10   1
   6  32  -8   -0.09    0.09   1
   6  32   8   -0.01    0.11   1
   8  -6  32    0.13    0.11   1
   8   6  32   -0.11    0.09   1
  32   8   6    0.00    0.09   1
  -8  -8  32    0.02    0.09   1
  -8   8  32   -0.03    0.09   1
  -8  32  -8   -0.02    0.11   1
  -8  32   8    0.08    0.10   1
   8  -8  32    0.31    0.12   1
   8   8  32   -0.21    0.10   1
   8  32  -8    0.13    0.10   1
   8  32   8   -0.05    0.11   1
  32   8   8   -0.05    0.10   1
 -10  32  -8    0.30    0.11   1
 -10  32   8    0.14    0.09   1
  -8 -10  32    0.14    0.10   1
  -8  10  32    0.00    0.09   1
   8 -10  32    0.44    0.21   1
   8  10  32    0.11    0.12   1
  10  32  -8    0.08    0.12   1
  32   8  10    0.31    0.11   1
 -10   0  32    0.86    0.10   1
   0  32 -10    1.02    0.14   1
   0  32  10    0.72    0.11   1
  10   0  32    0.75    0.12   1
 -10  -2  32    0.55    0.10   1
 -10   2  32    0.41    0.09   1
  -2  32 -10    0.57    0.12   1
  -2  32  10    0.57    0.10   1
   2  32 -10    0.00    0.12   1
   2  32  10    0.56    0.11   1
  10  -2  32    0.76    0.11   1
  10   2  32    0.56    0.11   1
 -10  -4  32    0.11    0.09   1
 -10   4  32    0.07    0.08   1
  -4  32 -10    0.26    0.12   1
  -4  32  10    0.51    0.10   1
   4  32 -10   -0.09    0.11   1
   4  32  10    0.05    0.11   1
  10  -4  32    0.19    0.11   1
  10   4  32    0.11    0.10   1
  32  10   4    0.21    0.10   1
 -10  -6  32    0.24    0.09   1
 -10   6  32    0.07    0.08   1
  -6  32 -10    0.01    0.11   1
  -6  32  10    0.13    0.10   1
   6  32 -10   -0.14    0.10   1
   6  32  10    0.53    0.12   1
  10  -6  32    0.26    0.12   1
  10   6  32    0.00    0.11   1
  32  10   6    0.15    0.11   1
 -10  -8  32    0.21    0.10   1
  -8  32 -10    0.46    0.12   1
  -8  32  10    0.11    0.10   1
   8  32 -10    0.14    0.16   1
   8  32  10    0.20    0.15   1
  10   8  32    0.23    0.12   1
  32  10   8    0.31    0.11   1
 -12   0  32    1.19    0.15   1
   0  32 -12    1.79    0.20   1
   0  32  12    1.05    0.13   1
 -12  -2  32    0.88    0.10   1
  -2  32 -12    0.84    0.15   1
  -2  32  12    1.13    0.13   1
   2  32 -12    0.81    0.15   1
   2  32  12    0.67    0.11   1
  12  -2  32    0.61    0.14   1
  12   2  32    0.75    0.12   1
 -12  -4  32    0.05    0.09   1
  -4  32 -12   -0.10    0.14   1
  -4  32  12    0.45    0.09   1
   4  32 -12    0.06    0.24   1
   4  32  12    0.16    0.11   1
  12   4  32    0.05    0.18   1
  32  12   4    0.08    0.13   1
 -12  -6  32    0.24    0.10   1
  -6  32 -12    0.39    0.15   1
  -6  32  12    0.23    0.10   1
   6  32  12    0.35    0.15   1
  32  12   6    0.22    0.13   1
  -1  -1  33    0.82    0.11   1
  -1   1  33    0.72    0.10   1
  -1  33  -1    0.76    0.11   1
  -1  33   1    0.86    0.12   1
   1  -1  33    0.80    0.11   1
   1   1  33    0.80    0.11   1
   1  33  -1    0.97    0.12   1
  -3  33  -1    0.30    0.09   1
  -3  33   1    0.14    0.09   1
  -1  -3  33    0.36    0.10   1
  -1   3  33    0.31    0.09   1
   1  -3  33    0.04    0.09   1
   1   3  33    0.30    0.09   1
   3  33  -1    0.20    0.10   1
   3  33   1    0.12    0.11   1
  -5  33  -1    0.25    0.09   1
  -5  33   1    0.14    0.09   1
  -1  -5  33   -0.05    0.09   1
  -1   5  33    0.15    0.09   1
   1  -5  33    0.02    0.09   1
   1   5  33    0.16    0.09   1
   5  33  -1    0.13    0.11   1
   5  33   1    0.26    0.11   1
  -7  33  -1    0.48    0.10   1
  -7  33   1    0.22    0.09   1
  -1  -7  33    0.25    0.10   1
  -1   7  33    0.18    0.10   1
   1  -7  33    0.14    0.11   1
   1   7  33    0.39    0.09   1
   7  33  -1    0.36    0.13   1
   7  33   1    0.28    0.12   1
  -9  33  -1    0.51    0.12   1
  -9  33   1    0.60    0.11   1
  -1  -9  33    0.25    0.11   1
  -1   9  33    0.19    0.09   1
   1  -9  33    0.73    0.12   1
   1   9  33    0.19    0.10   1
   9  33  -1    0.48    0.14   1
   9  33   1    0.59    0.14   1
  -3  -1  33    0.27    0.09   1
  -3   1  33    0.35    0.09   1
  -1  33  -3    0.08    0.09   1
  -1  33   3    0.31    0.11   1
   1  33  -3    0.15    0.10   1
   1  33   3    0.17    0.11   1
   3  -1  33    0.14    0.09   1
   3   1  33    0.20    0.10   1
  -3  -3  33   -0.13    0.08   1
  -3   3  33   -0.10    0.07   1
  -3  33  -3    0.19    0.10   1
  -3  33   3    0.07    0.10   1
   3  -3  33    0.10    0.10   1
   3   3  33    0.14    0.09   1
   3  33  -3    0.11    0.10   1
   3  33   3   -0.20    0.10   1
  -5  33  -3    0.07    0.09   1
  -5  33   3   -0.01    0.09   1
  -3  -5  33    0.18    0.09   1
  -3   5  33    0.00    0.09   1
   3  -5  33    0.24    0.11   1
   3   5  33   -0.04    0.09   1
   5  33  -3   -0.03    0.10   1
   5  33   3   -0.03    0.10   1
  -7  33  -3    0.01    0.09   1
  -7  33   3    0.16    0.09   1
  -3  -7  33   -0.03    0.10   1
  -3   7  33   -0.07    0.09   1
   3   7  33    0.19    0.09   1
   7  33  -3    0.05    0.11   1
   7  33   3   -0.03    0.10   1
  -9  33  -3    0.27    0.11   1
  -9  33   3    0.11    0.09   1
  -3  -9  33   -0.26    0.10   1
  -3   9  33    0.06    0.09   1
   3  -9  33    0.47    0.12   1
   3   9  33   -0.03    0.09   1
   9  33  -3    0.34    0.18   1
   9  33   3    0.17    0.15   1
  -5  -1  33    0.10    0.08   1
  -5   1  33    0.14    0.09   1
  -1  33  -5    0.05    0.09   1
  -1  33   5    0.21    0.10   1
   1  33  -5    0.17    0.10   1
   1  33   5    0.35    0.10   1
   5  -1  33    0.21    0.10   1
   5   1  33    0.09    0.10   1
  -5  -3  33    0.11    0.09   1
  -5   3  33    0.01    0.08   1
  -3  33  -5    0.04    0.10   1
  -3  33   5    0.32    0.11   1
   3  33  -5    0.19    0.10   1
   3  33   5   -0.09    0.09   1
   5  -3  33    0.02    0.10   1
   5   3  33    0.12    0.09   1
  -5  -5  33    0.05    0.08   1
  -5   5  33    0.01    0.08   1
  -5  33  -5    0.65    0.13   1
  -5  33   5    0.23    0.10   1
   5  -5  33    0.20    0.12   1
   5   5  33   -0.07    0.09   1
   5  33  -5    0.08    0.10   1
   5  33   5    0.29    0.11   1
  -7  33  -5    0.02    0.11   1
  -7  33   5   -0.06    0.09   1
  -5  -7  33    0.32    0.10   1
  -5   7  33   -0.14    0.09   1
   5  -7  33    0.15    0.12   1
   5   7  33    0.17    0.09   1
   7  33  -5    0.10    0.11   1
   7  33   5    0.26    0.11   1
  -9  33  -5    0.22    0.11   1
  -9  33   5    0.14    0.10   1
  -5  -9  33   -0.09    0.10   1
  -5   9  33   -0.18    0.09   1
   5  -9  33   -0.21    0.14   1
   5   9  33   -0.12    0.09   1
  -7  -1  33    0.36    0.09   1
  -7   1  33   -0.02    0.08   1
  -1  33  -7    0.13    0.10   1
  -1  33   7    0.49    0.11   1
   1  33  -7    0.12    0.10   1
   1  33   7    0.04    0.10   1
   7  -1  33    0.23    0.10   1
   7   1  33    0.36    0.10   1
  -7  -3  33    0.24    0.10   1
  -7   3  33   -0.04    0.08   1
  -3  33  -7    0.12    0.10   1
  -3  33   7    0.03    0.10   1
   3  33  -7   -0.21    0.09   1
   3  33   7    0.18    0.11   1
   7  -3  33    0.09    0.11   1
   7   3  33   -0.07    0.09   1
  -7  -5  33    0.05    0.08   1
  -7   5  33   -0.11    0.08   1
  -5  33   7    0.09    0.10   1
   5  33  -7    0.08    0.11   1
   5  33   7    0.23    0.12   1
   7  -5  33    0.21    0.12   1
   7   5  33    0.21    0.11   1
  -7  -7  33    0.06    0.09   1
  -7   7  33   -0.01    0.09   1
  -7  33  -7    0.00    0.11   1
  -7  33   7    0.11    0.10   1
   7  -7  33   -0.20    0.13   1
   7   7  33    0.05    0.10   1
   7  33   7    0.19    0.13   1
  -9  -1  33    0.45    0.09   1
  -9   1  33    0.37    0.10   1
  -1  33   9    0.48    0.11   1
   1  33  -9    0.51    0.14   1
   1  33   9    0.45    0.10   1
   9  -1  33    0.37    0.12   1
   9   1  33    0.70    0.13   1
  -9  -3  33    0.22    0.09   1
  -9   3  33    0.12    0.09   1
  -3  33  -9    0.16    0.13   1
  -3  33   9    0.24    0.10   1
   3  33  -9    0.02    0.15   1
   3  33   9    0.11    0.11   1
   9  -3  33   -0.08    0.12   1
   9   3  33    0.23    0.11   1
  -9  -5  33    0.18    0.10   1
  -9   5  33    0.21    0.08   1
  -5  33  -9   -0.19    0.13   1
  -5  33   9   -0.07    0.11   1
   5  33   9    0.17    0.13   1
   9   5  33   -0.13    0.11   1
   0   0  34    1.00    0.12   1
   0  34   0    1.12    0.14   1
  -2  34   0    0.07    0.11   1
   0  -2  34    0.60    0.10   1
   0   2  34    0.48    0.10   1
   2  34   0    0.07    0.12   1
  -4  34   0    0.11    0.10   1
   0  -4  34    0.09    0.10   1
   0   4  34    0.15    0.10   1
   4  34   0    0.17    0.11   1
  -6  34   0    0.27    0.11   1
   0  -6  34    0.34    0.11   1
   0   6  34    0.17    0.09   1
  -2   0  34    0.40    0.10   1
   0  34  -2    0.18    0.11   1
   0  34   2    0.24    0.11   1
   2   0  34    0.49    0.11   1
  -2  -2  34    0.16    0.10   1
  -2   2  34    0.01    0.09   1
  -2  34  -2    0.13    0.11   1
  -2  34   2   -0.12    0.11   1
   2  -2  34   -0.05    0.10   1
   2   2  34    0.06    0.10   1
   2  34  -2   -0.03    0.11   1
   2  34   2   -0.21    0.12   1
  -4  34  -2   -0.05    0.09   1
  -4  34   2    0.09    0.10   1
  -2  -4  34   -0.08    0.10   1
  -2   4  34    0.00    0.09   1
   2  -4  34    0.26    0.11   1
   2   4  34   -0.12    0.09   1
   4  34  -2   -0.20    0.11   1
   4  34   2   -0.32    0.12   1
  -6  34  -2   -0.09    0.10   1
  -6  34   2   -0.02    0.10   1
  -2  -6  34    0.29    0.11   1
  -2   6  34   -0.06    0.09   1
   2  -6  34   -0.17    0.11   1
   2   6  34   -0.13    0.10   1
  -4   0  34    0.23    0.09   1
   0  34  -4    0.09    0.11   1
   0  34   4    0.15    0.12   1
   4   0  34    0.11    0.10   1
  -4  -2  34    0.00    0.09   1
  -4   2  34   -0.09    0.09   1
  -2  34  -4    0.01    0.11   1
  -2  34   4    0.15    0.11   1
   2  34  -4   -0.13    0.11   1
   2  34   4    0.12    0.12   1
   4  -2  34   -0.03    0.11   1
   4   2  34   -0.04    0.09   1
  -4  -4  34    0.20    0.10   1
  -4   4  34   -0.05    0.09   1
  -4  34  -4    0.06    0.11   1
  -4  34   4    0.02    0.11   1
   4  -4  34    0.01    0.11   1
   4   4  34   -0.05    0.09   1
   4  34  -4    0.27    0.17   1
   4  34   4   -0.18    0.11   1
  -6  34  -4   -0.10    0.11   1
  -6  34   4    0.13    0.10   1
  -4  -6  34   -0.15    0.10   1
  -4   6  34    0.25    0.09   1
   4  -6  34   -0.06    0.13   1
   4   6  34   -0.06    0.11   1
  -6   0  34   -0.04    0.09   1
   0  34  -6    0.04    0.12   1
   0  34   6    0.08    0.11   1
   6   0  34    0.05    0.12   1
  -6  -2  34    0.18    0.09   1
  -6   2  34    0.15    0.09   1
  -2  34  -6    0.05    0.12   1
  -2  34   6   -0.10    0.11   1
   2  34   6    0.09    0.12   1
   6  -2  34    0.10    0.11   1
   6   2  34    0.06    0.11   1
  -6  -4  34    0.39    0.10   1
  -6   4  34    0.10    0.09   1
  -4  34  -6    0.38    0.13   1
  -4  34   6    0.29    0.12   1
   4  34   6    0.01    0.20   1
   6  -4  34    0.22    0.14   1
   6   4  34   -0.11    0.12   1
   0   0   0    0.00    0.00   0
;
_shelx_hkl_checksum              12275
_shelx_fab_file
;
0 2 2 -256.2878 -1.7956
0 4 0 -566.5741 -0.5989
0 4 2 147.5968 -2.2973
0 4 4 184.5315 0.5867
0 6 0 219.8226 -0.2100
0 6 2 -97.6901 -0.8974
0 6 4 6.8636 -0.6863
0 6 6 78.2543 1.8790
0 8 0 166.0440 -1.2963
0 8 2 -42.2711 -0.6012
0 8 4 -73.3401 -0.2382
0 8 6 -4.5829 -0.7661
0 8 8 32.2194 -0.7225
0 10 0 -52.6716 0.1156
0 10 2 47.6600 -0.9892
0 10 4 -33.7169 -1.8182
0 10 6 -39.0318 -2.5137
0 10 8 23.0116 -3.2913
0 10 10 34.7190 -3.4547
0 12 0 -19.4432 -0.0814
0 12 2 19.7616 -0.8110
0 12 4 15.3505 -1.4946
0 12 6 -2.9095 -1.7423
0 12 8 -9.8493 -2.9804
0 12 10 -4.7010 -3.7031
0 12 12 -0.6559 -2.5195
0 14 0 -38.2791 -1.1265
0 14 2 -10.3972 0.0349
0 14 4 28.5430 -0.3464
0 14 6 25.2898 -0.0234
0 14 8 -25.1627 -1.3116
0 14 10 -15.2455 -2.3447
0 14 12 8.8190 -2.8031
0 14 14 5.5005 -1.2538
0 16 0 4.6963 -1.8226
0 16 2 0.5132 0.0270
0 16 4 -7.1618 0.6965
0 16 6 -8.2004 1.0672
0 16 8 8.6360 -0.0365
0 16 10 -1.0736 -1.4873
0 16 12 4.4234 -1.9550
0 16 14 -3.9636 -0.4488
0 16 16 1.6327 0.0807
0 18 0 32.0144 -1.1043
0 18 2 4.8611 -0.5900
0 18 4 -23.1091 0.2292
0 18 6 -6.4334 0.4345
0 18 8 12.9388 -0.5190
0 18 10 13.3324 -2.0202
0 18 12 -9.2028 -2.1242
0 18 14 -22.4893 -0.8288
0 18 16 7.6952 -0.0062
0 18 18 26.4663 -0.4001
0 20 0 5.3909 -0.4597
0 20 2 -3.4649 -1.4195
0 20 4 -1.0267 -1.0921
0 20 6 -2.8806 -1.1272
0 20 8 0.8739 -1.8310
0 20 10 -0.2020 -3.1885
0 20 12 -11.3130 -2.6632
0 20 14 -1.5002 -1.4318
0 20 16 4.9386 -1.1587
0 20 18 -1.7509 -1.7305
0 20 20 -10.0227 -2.6384
0 22 0 -10.9262 0.2951
0 22 2 -3.6260 -1.5163
0 22 4 17.2651 -1.6157
0 22 6 -0.5416 -1.9215
0 22 8 -13.6076 -2.4137
0 22 10 -7.7577 -3.5858
0 22 12 14.5927 -2.7707
0 22 14 16.8810 -1.4757
0 22 16 -3.1686 -1.4144
0 22 18 -22.7243 -1.8438
0 22 20 -0.8685 -2.6791
0 22 22 8.6709 -2.9340
0 24 0 -4.8918 0.1750
0 24 2 1.1150 -0.7924
0 24 4 14.5236 -0.9176
0 24 6 3.3429 -1.0458
0 24 8 -17.1593 -1.5343
0 24 10 -12.2625 -2.5283
0 24 12 12.7603 -1.9713
0 24 14 2.5784 -1.1598
0 24 16 -8.1781 -0.7259
0 24 18 2.4927 -1.0241
0 24 20 0.1114 -1.7987
0 24 22 14.3345 -2.4418
0 24 24 -36.3203 -1.8494
0 26 0 -2.1256 -1.1216
0 26 2 3.3883 -0.0531
0 26 4 -11.8072 0.3908
0 26 6 6.4744 0.4841
0 26 8 13.6201 -0.2155
0 26 10 8.6048 -1.2087
0 26 12 -21.8010 -1.2578
0 26 14 -8.6167 -0.8664
0 26 16 -1.7893 -0.0066
0 26 18 -7.9909 -0.0537
0 26 20 16.5738 -0.6591
0 26 22 -20.7752 -1.5962
0 28 0 19.6593 -1.3562
0 28 2 4.6885 -0.0140
0 28 4 2.3138 0.3833
0 28 6 -17.2177 0.6805
0 28 8 13.6611 -0.1613
0 28 10 6.7583 -1.2187
0 28 12 -7.1006 -1.3104
0 28 14 23.6593 -0.6596
0 28 16 4.1087 0.4241
0 28 18 10.1369 0.1727
0 28 20 -26.6459 -0.9444
0 30 0 35.4512 -1.1091
0 30 2 1.1749 -0.4438
0 30 4 -27.6441 -0.5760
0 30 6 8.6611 -0.1321
0 30 8 12.3601 -1.3018
0 30 10 3.3139 -2.5545
0 30 12 12.7809 -2.2213
0 30 14 2.5799 -1.1825
0 30 16 12.4151 0.0679
0 32 0 0.5113 -0.9935
0 32 2 -5.8678 -1.1522
0 32 4 1.6361 -1.1001
0 32 6 0.9254 -0.7372
0 32 8 -17.3594 -2.1158
0 32 10 -6.5691 -3.4066
0 32 12 15.9276 -3.1710
0 34 0 -45.7672 -0.4121
0 34 2 7.3168 -1.2984
0 34 4 -4.0580 -1.6734
0 34 6 0.9328 -1.7138
1 3 1 -20.8882 0.9107
1 3 3 194.4804 -0.9316
1 5 1 -36.5013 0.5706
1 5 3 -25.6968 -0.0108
1 5 5 40.1950 2.2130
1 7 1 -4.0072 1.3885
1 7 3 -32.7726 0.3406
1 7 5 7.6897 -2.1684
1 7 7 -2.5132 -0.1277
1 9 1 49.6590 -0.3370
1 9 3 -0.5729 1.2252
1 9 5 -50.3220 1.1041
1 9 7 8.0771 0.9983
1 9 9 31.4702 -3.1579
1 11 1 -1.5361 -1.0147
1 11 3 7.6762 1.0649
1 11 5 -7.8064 2.3972
1 11 7 -4.3923 3.3683
1 11 9 0.2311 2.0957
1 11 11 1.9371 -3.2905
1 13 1 -29.9348 0.5353
1 13 3 3.4404 0.5284
1 13 5 31.9010 0.6401
1 13 7 -3.6444 1.9738
1 13 9 -13.1114 3.5272
1 13 11 -6.3648 1.0629
1 13 13 10.2548 -2.3833
1 15 1 -10.4009 2.2727
1 15 3 9.2320 -0.3615
1 15 5 15.7572 -1.6743
1 15 7 1.9632 -1.3138
1 15 9 -13.3796 1.7286
1 15 11 1.5108 2.2673
1 15 13 10.8645 -0.1447
1 15 15 -0.3851 -0.4294
1 17 1 19.7120 1.8339
1 17 3 -14.5753 0.1512
1 17 5 -19.2090 -1.1292
1 17 7 3.2176 -1.5258
1 17 9 8.0639 0.6910
1 17 11 0.2765 1.7777
1 17 13 2.7024 -0.1481
1 17 15 -11.0295 -0.9364
1 17 17 -4.3528 -0.2456
1 19 1 9.3127 0.5824
1 19 3 -12.4015 0.5971
1 19 5 -8.2536 0.2084
1 19 7 4.3015 -0.1597
1 19 9 12.7628 1.2815
1 19 11 7.3046 2.5465
1 19 13 -11.5086 1.3749
1 19 15 5.4668 -0.6048
1 19 17 2.3807 -0.3871
1 19 19 7.3841 -1.3614
1 21 1 -4.5217 -0.3810
1 21 3 7.8703 1.1014
1 21 5 4.2043 1.1382
1 21 7 1.7719 0.8463
1 21 9 -3.7420 1.3427
1 21 11 -5.1725 2.7971
1 21 13 9.9370 2.7340
1 21 15 0.0993 1.1405
1 21 17 0.9098 1.1773
1 21 19 -9.4813 0.7790
1 21 21 4.7493 -2.7229
1 23 1 -16.8021 -0.2320
1 23 3 12.3195 1.0356
1 23 5 11.9990 1.2495
1 23 7 -1.0461 1.2413
1 23 9 -8.6730 1.0729
1 23 11 -6.7506 1.8389
1 23 13 5.1407 1.5175
1 23 15 4.6347 0.7156
1 23 17 -6.4398 1.1082
1 23 19 -12.0614 2.6785
1 23 21 7.1269 1.4851
1 23 23 12.8100 -2.5369
1 25 1 -8.8648 1.0240
1 25 3 2.3075 0.5790
1 25 5 6.6353 0.0095
1 25 7 0.6789 0.2069
1 25 9 6.9938 0.5938
1 25 11 7.0700 0.7461
1 25 13 -3.9889 0.3533
1 25 15 -13.8163 -0.2855
1 25 17 6.4060 -0.0635
1 25 19 23.9306 1.7781
1 25 21 2.3265 1.9581
1 25 23 -14.9771 -0.8446
1 27 1 6.9958 1.6103
1 27 3 -1.9856 -0.1519
1 27 5 -16.2206 -1.1447
1 27 7 0.4579 -0.6409
1 27 9 8.1135 0.4526
1 27 11 -3.8988 0.5422
1 27 13 -8.7078 0.0295
1 27 15 8.6045 -0.1041
1 27 17 2.2188 -0.8476
1 27 19 2.9240 -0.0264
1 27 21 -13.7437 0.4360
1 29 1 0.6061 0.9278
1 29 3 -5.1717 -0.4221
1 29 5 0.4562 -0.8287
1 29 7 -5.0386 -0.0383
1 29 9 -19.9536 1.6303
1 29 11 6.4711 1.2195
1 29 13 -15.0793 0.7675
1 29 15 0.2688 0.0963
1 29 17 -4.6574 -0.7211
1 29 19 -9.7962 -1.3089
1 31 1 -7.1517 -0.1837
1 31 3 3.1990 0.4536
1 31 5 4.3532 1.1608
1 31 7 -5.9891 1.4710
1 31 9 10.4539 2.5538
1 31 11 -0.4869 0.9090
1 31 13 -0.6970 0.2240
1 31 15 -39.0986 0.1555
1 33 1 -4.9330 0.2109
1 33 3 3.3044 1.2762
1 33 5 29.4186 1.2850
1 33 7 1.9314 0.2117
1 33 9 -7.8832 -1.0751
2 2 2 -66.9401 1.6048
2 4 2 -39.8043 1.0690
2 4 4 -72.0680 1.3193
2 6 2 108.7467 1.6461
2 6 4 25.4099 -1.1438
2 6 6 -74.6209 2.8680
2 8 2 11.0877 -0.1097
2 8 4 -15.2276 0.1865
2 8 6 -2.8222 0.0454
2 8 8 13.5017 -1.8062
2 10 2 -60.0519 -3.5018
2 10 4 -4.6837 -0.1416
2 10 6 36.1270 1.8308
2 10 8 3.6192 0.6242
2 10 10 -18.1034 -6.5802
2 12 2 -11.0199 -3.1793
2 12 4 12.0639 -0.4604
2 12 6 15.3750 1.9428
2 12 8 -7.8110 2.1621
2 12 10 -4.7340 -1.9095
2 12 12 -2.1544 -5.5462
2 14 2 8.7600 0.2380
2 14 4 16.1493 -0.6642
2 14 6 -17.0619 -0.3992
2 14 8 -11.7729 0.8446
2 14 10 -1.9909 1.1072
2 14 12 3.1331 -1.0337
2 14 14 7.4395 -1.3708
2 16 2 2.6254 2.1418
2 16 4 0.6910 0.2762
2 16 6 -7.4319 -1.3629
2 16 8 -2.4989 -0.7457
2 16 10 4.1365 1.2493
2 16 12 3.2537 1.1420
2 16 14 2.2980 0.8624
2 16 16 4.9340 0.9530
2 18 2 0.4891 0.7419
2 18 4 -0.2285 0.4308
2 18 6 2.5910 -0.2564
2 18 8 2.9276 -0.4443
2 18 10 6.9549 0.4655
2 18 12 -3.9553 0.7145
2 18 14 -10.4902 0.0563
2 18 16 -5.5633 0.2173
2 18 18 11.2016 -0.2858
2 20 2 5.1091 -1.7182
2 20 4 -8.0931 -0.3981
2 20 6 -1.6043 0.6188
2 20 8 2.5035 -0.1983
2 20 10 0.0785 -0.6279
2 20 12 -6.8781 -0.2423
2 20 14 -9.8199 0.0936
2 20 16 8.8666 -0.0237
2 20 18 -3.4465 -0.6024
2 20 20 2.7789 -3.6147
2 22 2 -0.7764 -2.9250
2 22 4 0.2044 -0.5343
2 22 6 -5.2679 1.1243
2 22 8 -1.3871 -0.1324
2 22 10 2.4989 -1.5874
2 22 12 2.5803 -1.0143
2 22 14 8.6676 0.3042
2 22 16 -5.0749 0.4039
2 22 18 13.7567 0.4078
2 22 20 6.5392 -1.4707
2 22 22 -5.7824 -4.8205
2 24 2 3.8474 -1.2973
2 24 4 -11.6237 0.3452
2 24 6 -0.4892 1.1549
2 24 8 2.3810 0.3227
2 24 10 -0.2179 -1.3631
2 24 12 -9.0419 -1.0317
2 24 14 4.7119 -0.0715
2 24 16 13.5806 0.3335
2 24 18 5.6280 0.9589
2 24 20 -4.0714 0.7526
2 24 22 -4.8775 -0.9682
2 24 24 -0.4302 -2.0468
2 26 2 -6.1767 1.2140
2 26 4 0.7956 0.6002
2 26 6 0.8260 0.0666
2 26 8 -5.8307 -0.0564
2 26 10 -8.6565 0.0272
2 26 12 13.8864 0.2829
2 26 14 -0.5577 0.3405
2 26 16 -6.2221 0.6305
2 26 18 -11.5533 0.4442
2 26 20 8.4440 0.6830
2 26 22 0.1847 -0.3462
2 28 2 7.7824 1.3262
2 28 4 -18.5384 -0.0203
2 28 6 8.5685 -0.6684
2 28 8 12.0925 -0.1117
2 28 10 -1.4355 0.3420
2 28 12 8.8881 0.8634
2 28 14 11.3646 0.8186
2 28 16 -1.5332 0.1814
2 28 18 -2.2566 -0.1592
2 28 20 -13.6732 0.1176
2 30 2 0.0406 -0.4778
2 30 4 4.9377 -0.5992
2 30 6 -1.7043 -0.1798
2 30 8 8.6440 0.2535
2 30 10 7.7294 -0.5364
2 30 12 -3.0436 -0.4682
2 30 14 6.1719 -0.3004
2 30 16 12.3620 0.3573
2 32 2 -16.5058 -2.2292
2 32 4 22.0296 -0.2733
2 32 6 1.5831 1.1469
2 32 8 -12.0544 0.6594
2 32 10 -0.3824 -1.2586
2 32 12 6.5488 -2.5053
2 34 2 -8.9396 -1.6042
2 34 4 -6.0560 -0.5397
2 34 6 -14.1423 0.5940
3 3 3 -220.0664 -0.4024
3 5 3 34.4822 1.2377
3 5 5 -50.7953 3.6274
3 7 3 51.4973 1.6035
3 7 5 -18.5374 -2.5518
3 7 7 3.7796 0.9868
3 9 3 -3.3985 -0.3945
3 9 5 56.7357 -1.1470
3 9 7 2.2166 0.0898
3 9 9 -31.2000 -1.5230
3 11 3 -13.4084 -2.1833
3 11 5 -0.7575 -0.7453
3 11 7 -1.8046 1.1953
3 11 9 -3.8861 1.1564
3 11 11 5.5370 -1.9653
3 13 3 2.0303 -0.0344
3 13 5 -33.1027 -0.5115
3 13 7 -4.8934 0.1842
3 13 9 25.7360 0.4750
3 13 11 1.3575 -0.3243
3 13 13 -1.8029 -0.9343
3 15 3 -2.8646 2.0662
3 15 5 -13.0480 -0.2321
3 15 7 6.7155 -1.9911
3 15 9 10.2351 -0.9351
3 15 11 -4.7197 0.3815
3 15 13 -7.0927 0.1239
3 15 15 1.5281 -0.1575
3 17 3 -3.2284 2.7054
3 17 5 17.7761 0.4258
3 17 7 2.6807 -1.8969
3 17 9 -16.0407 -1.5349
3 17 11 2.8719 -0.1871
3 17 13 -0.1497 -0.4584
3 17 15 3.2757 -0.1393
3 17 17 -5.3221 -0.1098
3 19 3 8.8280 0.1055
3 19 5 7.3316 0.1800
3 19 7 -0.6725 -0.4936
3 19 9 -12.8926 -0.3514
3 19 11 0.1158 -0.2190
3 19 13 19.3183 -0.5921
3 19 15 0.7376 -0.8774
3 19 17 -0.0336 -0.4617
3 19 19 -1.4870 -0.4813
3 21 3 -3.6508 -1.7617
3 21 5 -0.1700 -0.4235
3 21 7 7.4771 0.3179
3 21 9 2.3698 0.1308
3 21 11 -4.5573 -0.3261
3 21 13 -10.0267 -0.4105
3 21 15 3.9368 -0.4002
3 21 17 4.6579 -0.0751
3 21 19 -6.8747 -0.1858
3 21 21 -9.2198 -0.9871
3 23 3 1.3508 -1.5392
3 23 5 -10.4814 -0.3461
3 23 7 -7.3927 0.6059
3 23 9 14.6344 -0.0218
3 23 11 6.1218 -0.5987
3 23 13 -5.0189 -0.6972
3 23 15 -16.3302 -0.2933
3 23 17 -24.6383 -0.1597
3 23 19 7.0058 0.3538
3 23 21 -7.9062 -0.1925
3 23 23 1.1860 -1.1719
3 25 3 5.7682 0.8069
3 25 5 6.4868 -0.1501
3 25 7 -0.0462 -0.3675
3 25 9 -0.1372 -0.2838
3 25 11 -2.8271 -0.4220
3 25 13 3.6137 -0.5065
3 25 15 4.8723 -0.7742
3 25 17 -5.8713 -0.4963
3 25 19 -21.9941 -0.1586
3 25 21 12.0364 0.0323
3 25 23 14.5839 -1.0183
3 27 3 4.6551 2.2312
3 27 5 15.2093 -0.2450
3 27 7 -5.9702 -1.2312
3 27 9 -20.0882 -0.9701
3 27 11 8.2378 -0.1613
3 27 13 -2.4851 -0.1261
3 27 15 -7.2809 -0.2260
3 27 17 12.6187 -0.9840
3 27 19 2.4711 -0.6532
3 27 21 -1.6493 0.1011
3 29 3 -0.0917 1.1917
3 29 5 4.5609 -0.4531
3 29 7 -12.5832 -1.0329
3 29 9 16.3230 -0.2979
3 29 11 -18.1235 0.0995
3 29 13 -14.2573 0.1810
3 29 15 -15.7271 -0.9818
3 29 17 10.3940 -0.3222
3 31 3 5.0449 -0.7761
3 31 5 -10.9318 -0.3400
3 31 7 4.4023 -0.3524
3 31 9 -17.3603 0.4187
3 31 11 -6.5982 0.2157
3 31 13 -3.0780 -0.4510
3 31 15 16.0869 0.1589
3 33 3 7.6422 -1.1249
3 33 5 -16.6372 -0.5213
3 33 7 13.0410 -0.2389
3 33 9 -3.7051 -1.0332
4 4 4 -24.3925 -1.7117
4 6 4 -26.6247 2.1163
4 6 6 3.2919 3.9687
4 8 4 52.7316 0.9534
4 8 6 12.4874 -1.5865
4 8 8 -42.0622 1.4094
4 10 4 29.0260 -1.8799
4 10 6 6.3179 -0.6149
4 10 8 -28.0781 2.3370
4 10 10 -6.5523 0.2232
4 12 4 -2.5338 -2.3958
4 12 6 -6.5051 -0.3367
4 12 8 12.5107 1.4824
4 12 10 7.4914 1.2849
4 12 12 2.4226 0.8112
4 14 4 -43.6818 0.8819
4 14 6 -6.9985 0.0549
4 14 8 27.8418 -0.0475
4 14 10 11.8747 0.7708
4 14 12 -8.2500 1.0107
4 14 14 -15.3834 1.3630
4 16 4 0.2043 3.1844
4 16 6 7.9865 0.1426
4 16 8 -1.0845 -1.4825
4 16 10 4.5237 -0.0836
4 16 12 -6.3970 1.0709
4 16 14 -7.7815 1.2181
4 16 16 11.4686 1.6405
4 18 4 28.9603 1.6484
4 18 6 13.2409 0.7206
4 18 8 -20.1203 -0.3633
4 18 10 -13.8205 -0.1206
4 18 12 -2.2893 0.2913
4 18 14 15.9373 -0.2357
4 18 16 3.1702 0.7832
4 18 18 -22.6284 1.7946
4 20 4 7.2397 -2.0155
4 20 6 -3.0167 0.5810
4 20 8 0.4560 1.0527
4 20 10 -3.4686 0.6331
4 20 12 6.9858 -0.1603
4 20 14 -0.9875 -0.3871
4 20 16 -9.3735 0.1350
4 20 18 8.3811 0.9957
4 20 20 -20.2705 1.0621
4 22 4 -20.7857 -3.1610
4 22 6 -8.4453 0.4697
4 22 8 14.6546 1.3243
4 22 10 7.4287 0.6829
4 22 12 -4.2555 -0.1834
4 22 14 -3.2313 0.1809
4 22 16 18.3262 0.2171
4 22 18 16.1157 0.5289
4 22 20 0.9150 0.1897
4 22 22 1.1375 0.5555
4 24 4 -10.8831 -0.7913
4 24 6 -3.8871 0.2128
4 24 8 5.9450 0.9745
4 24 10 9.7894 0.4397
4 24 12 5.1372 -0.0322
4 24 14 -4.8878 0.3560
4 24 16 0.1446 0.1720
4 24 18 0.0658 0.2945
4 24 20 31.0219 0.0366
4 24 22 -12.5375 0.4594
4 24 24 0.3837 1.0781
4 26 4 -2.9196 2.1219
4 26 6 0.5984 -0.1057
4 26 8 -1.2301 -0.3922
4 26 10 -4.0730 0.5862
4 26 12 -8.1077 0.3529
4 26 14 10.3708 0.0836
4 26 16 7.7714 0.1567
4 26 18 3.6425 -0.0098
4 26 20 -20.7341 0.3510
4 26 22 4.8941 0.5601
4 28 4 15.4740 2.3127
4 28 6 9.5386 -0.3748
4 28 8 -8.5427 -0.7105
4 28 10 8.8605 0.4228
4 28 12 13.6865 1.0154
4 28 14 0.3283 0.5613
4 28 16 -10.6354 -0.7685
4 28 18 -12.2614 -0.1123
4 28 20 36.5090 1.0744
4 30 4 15.6556 -0.0844
4 30 6 5.4888 -0.4216
4 30 8 -6.3981 0.0925
4 30 10 -6.4755 0.2486
4 30 12 25.0046 0.7925
4 30 14 14.8687 0.4252
4 30 16 -4.3683 0.6440
4 32 4 -39.0137 -1.7615
4 32 6 -4.7168 0.3292
4 32 8 36.3973 1.2299
4 32 10 15.2521 0.3278
4 32 12 -14.6059 -0.5345
4 34 4 5.5958 0.0817
4 34 6 0.0137 1.8393
5 5 5 -50.4244 -2.5036
5 7 5 29.7785 2.7651
5 7 7 2.5988 2.7407
5 9 5 35.8189 -0.1669
5 9 7 -28.8050 -1.8501
5 9 9 -6.5531 1.0174
5 11 5 -13.2033 -2.1804
5 11 7 -7.6394 -1.9283
5 11 9 6.6458 1.3733
5 11 11 2.4277 0.6581
5 13 5 -31.8124 -0.9506
5 13 7 21.5719 -0.9991
5 13 9 -4.9519 -0.3454
5 13 11 2.8153 0.5934
5 13 13 -3.8331 2.1259
5 15 5 -9.2981 2.4991
5 15 7 7.6778 0.3793
5 15 9 10.4358 -0.9697
5 15 11 -0.7963 -0.3547
5 15 13 -9.3312 1.0022
5 15 15 -8.7289 1.8899
5 17 5 4.7735 2.5268
5 17 7 -10.5584 1.2652
5 17 9 -2.0680 -0.7345
5 17 11 -4.0398 -0.4217
5 17 13 10.2742 0.2079
5 17 15 9.2324 1.1967
5 17 17 -10.6052 1.8072
5 19 5 9.3813 -0.4196
5 19 7 -8.3154 1.1440
5 19 9 -8.2247 0.1733
5 19 11 -9.9713 -0.4438
5 19 13 20.8651 -0.4084
5 19 15 12.6347 -0.2492
5 19 17 -4.2606 0.7810
5 19 19 -10.1368 1.9222
5 21 5 5.4019 -3.2558
5 21 7 -10.5138 0.1308
5 21 9 1.3890 0.3816
5 21 11 3.8534 -0.2992
5 21 13 -2.2599 -0.3634
5 21 15 -8.7647 -0.3542
5 21 17 -9.7600 -0.0477
5 21 19 16.8100 0.5260
5 21 21 -0.5530 1.5679
5 23 5 -1.0687 -2.2066
5 23 7 8.9116 0.1486
5 23 9 -4.3746 0.3191
5 23 11 -0.7969 -0.2216
5 23 13 -20.1024 -0.0355
5 23 15 -14.6794 0.3433
5 23 17 16.1910 -0.2391
5 23 19 4.3757 -0.2605
5 23 21 -8.7841 -0.5110
5 23 23 -39.9537 1.1637
5 25 5 -7.0510 1.0150
5 25 7 -2.3955 0.1053
5 25 9 -7.1343 0.1510
5 25 11 8.8476 -0.1317
5 25 13 3.7630 0.0738
5 25 15 13.3408 0.4861
5 25 17 -7.3456 0.2573
5 25 19 -23.2215 -0.2944
5 25 21 -13.5458 -0.5077
5 25 23 40.0468 -0.0267
5 27 5 6.5063 2.7648
5 27 7 -3.6887 0.0543
5 27 9 4.1185 -0.5757
5 27 11 -12.5661 -0.1341
5 27 13 1.0041 0.1991
5 27 15 2.5173 1.0237
5 27 17 -0.5547 -0.1258
5 27 19 -6.1684 0.0274
5 27 21 21.9305 0.5792
5 29 5 -11.1389 1.3957
5 29 7 -0.1827 -0.4164
5 29 9 -4.7326 -0.3604
5 29 11 0.0784 0.0173
5 29 13 -7.2219 0.2821
5 29 15 -14.7956 0.0573
5 29 17 -3.4109 0.7446
5 31 5 6.1994 -1.0209
5 31 7 3.8760 -0.7945
5 31 9 -6.0721 0.2817
5 31 11 -19.3431 1.2754
5 31 13 -19.7220 0.1507
5 33 5 -10.0896 -0.9465
5 33 7 -20.8628 0.8435
5 33 9 -7.5138 0.1565
6 6 6 64.0282 -3.5329
6 8 6 -9.9189 1.3287
6 8 8 -18.8971 1.0111
6 10 6 -15.3291 -0.9545
6 10 8 1.0964 -0.2451
6 10 10 -8.0060 1.6201
6 12 6 5.3011 -1.6954
6 12 8 13.4234 -1.7047
6 12 10 4.6424 1.1623
6 12 12 -4.0180 1.5189
6 14 6 3.0891 0.7414
6 14 8 6.6184 -1.3465
6 14 10 9.5292 -1.0936
6 14 12 -8.5859 -0.0508
6 14 14 -5.9513 1.6244
6 16 6 1.2777 2.4846
6 16 8 2.3807 -0.3888
6 16 10 0.1309 -1.3956
6 16 12 -1.4243 -1.1416
6 16 14 -1.4434 -0.4373
6 16 16 1.3040 0.6404
6 18 6 -6.2983 0.7380
6 18 8 -4.3496 0.2251
6 18 10 -2.1989 -0.5992
6 18 12 1.3630 -0.7486
6 18 14 3.8300 -1.2499
6 18 16 4.7082 -0.3129
6 18 18 -8.9243 1.2407
6 20 6 6.7614 -2.2805
6 20 8 -2.5610 0.2287
6 20 10 5.5162 0.6399
6 20 12 2.4417 0.1222
6 20 14 -1.0095 -0.8251
6 20 16 -10.1649 -0.8603
6 20 18 -10.5473 0.3539
6 20 20 19.3983 2.4001
6 22 6 14.4293 -2.7571
6 22 8 4.0015 -0.0936
6 22 10 9.9503 0.9212
6 22 12 6.8309 0.6558
6 22 14 -8.5120 -0.2277
6 22 16 3.3030 -0.9801
6 22 18 -1.1293 -0.9464
6 22 20 4.1147 0.1173
6 22 22 12.0006 2.3140
6 24 6 2.2435 -1.0584
6 24 8 9.4589 -0.4014
6 24 10 -7.2397 0.0265
6 24 12 -8.9890 0.1537
6 24 14 5.5234 0.0389
6 24 16 9.9852 -0.3460
6 24 18 17.0080 -0.7168
6 24 20 -22.8115 -0.6034
6 24 22 3.2053 0.2022
6 24 24 11.9265 1.1454
6 26 6 -7.2267 1.6119
6 26 8 4.7152 -0.5626
6 26 10 -3.9571 -0.2784
6 26 12 4.9123 -0.6770
6 26 14 -3.8468 -0.7289
6 26 16 -13.3844 -0.1454
6 26 18 -4.1064 -0.2927
6 26 20 7.5311 0.1008
6 26 22 0.6513 -0.3463
6 28 6 7.4205 1.9408
6 28 8 -9.6888 -0.8695
6 28 10 -5.8714 -0.6014
6 28 12 8.2465 -0.4654
6 28 14 7.1296 -0.3307
6 28 16 2.0605 -0.3636
6 28 18 0.1398 0.9684
6 30 6 -9.7864 -0.0531
6 30 8 -2.2034 -0.9548
6 30 10 18.5774 -0.2762
6 30 12 4.3842 0.1629
6 30 14 7.3100 0.0026
6 30 16 8.5985 0.7033
6 32 6 -0.1045 -1.0988
6 32 8 11.9031 0.0729
6 32 10 14.0174 0.5092
6 32 12 9.5450 -0.7004
7 7 7 -5.3957 -1.9649
7 9 7 15.7786 0.5125
7 9 9 11.3221 1.4498
7 11 7 -0.6414 -1.5318
7 11 9 1.0997 1.0888
7 11 11 -2.4537 0.4199
7 13 7 -13.9643 -0.0798
7 13 9 -7.0939 -0.6664
7 13 11 6.3980 0.2158
7 13 13 -5.2548 1.0108
7 15 7 -6.5696 2.9290
7 15 9 -5.7138 -0.2516
7 15 11 -7.9483 -1.4517
7 15 13 7.2395 -0.4316
7 15 15 12.0706 1.3642
7 17 7 -0.7271 2.9541
7 17 9 2.9685 0.5028
7 17 11 -7.9178 -0.6085
7 17 13 6.4092 -0.3319
7 17 15 3.3486 0.7389
7 17 17 1.2034 1.2834
7 19 7 0.0185 -0.1202
7 19 9 -2.1240 0.3908
7 19 11 9.8961 0.1816
7 19 13 0.4852 0.1017
7 19 15 -9.6895 -0.1162
7 19 17 -5.3528 0.0627
7 19 19 2.7420 1.2027
7 21 7 -0.5257 -2.4852
7 21 9 -6.3888 0.2214
7 21 11 1.2552 0.9041
7 21 13 -4.9828 0.7088
7 21 15 -7.3134 -0.4373
7 21 17 -14.5704 -1.1520
7 21 19 25.3265 -0.0653
7 21 21 10.5399 2.1919
7 23 7 -0.6816 -1.6138
7 23 9 -9.3821 0.1862
7 23 11 -2.6929 0.6619
7 23 13 -3.9795 1.0961
7 23 15 5.7841 0.1659
7 23 17 6.4127 -0.9667
7 23 19 -23.5758 -0.7457
7 23 21 -14.7953 0.3354
7 23 23 32.4012 1.6335
7 25 7 -1.8983 1.0155
7 25 9 5.1236 0.2036
7 25 11 -5.9999 -0.3746
7 25 13 1.8976 0.1972
7 25 15 10.8445 0.4047
7 25 17 20.1141 0.3378
7 25 19 4.1899 -0.1468
7 25 21 -22.1120 0.2533
7 25 23 -28.6404 -0.0627
7 27 7 -6.2681 2.8978
7 27 9 7.2349 -0.0617
7 27 11 3.8121 -1.0828
7 27 13 8.6269 -0.2773
7 27 15 1.6940 0.6589
7 27 17 -6.2498 0.7329
7 27 19 4.3800 0.7458
7 29 7 18.7099 1.5562
7 29 9 6.7195 -0.2541
7 29 11 -18.7212 -0.6388
7 29 13 -4.8545 -0.1625
7 29 15 -5.5573 0.1470
7 29 17 -7.4169 1.0411
7 31 7 -10.9164 -0.7753
7 31 9 -3.7437 0.0760
7 31 11 7.8462 1.6948
7 31 13 -17.1961 -0.5898
7 33 7 -19.2086 -0.2659
8 8 8 20.2870 -1.3838
8 10 8 19.5286 -1.5670
8 10 10 1.7337 0.0764
8 12 8 -6.2682 -2.1972
8 12 10 -9.6820 1.4988
8 12 12 1.3379 -0.6389
8 14 8 -17.2995 0.3338
8 14 10 -8.0641 -0.0793
8 14 12 6.7283 -0.0919
8 14 14 -4.2183 -0.1454
8 16 8 -5.2411 2.5952
8 16 10 8.6110 0.1912
8 16 12 -7.1326 -0.8012
8 16 14 10.8452 -1.1071
8 16 16 -8.0675 -0.5856
8 18 8 30.6886 0.8993
8 18 10 5.0741 0.1846
8 18 12 0.5893 0.1747
8 18 14 -17.8585 -0.0904
8 18 16 -1.5401 -0.0795
8 18 18 8.2462 -0.0578
8 20 8 -3.5568 -1.4846
8 20 10 7.2092 0.2409
8 20 12 2.7612 1.1046
8 20 14 7.2212 0.5974
8 20 16 -0.0692 -0.0157
8 20 18 2.5508 -0.2370
8 20 20 3.7288 0.6590
8 22 8 2.3851 -2.6360
8 22 10 -5.4085 -0.2569
8 22 12 -0.1853 0.9561
8 22 14 7.5884 0.6590
8 22 16 12.9077 0.1136
8 22 18 7.9852 -0.8187
8 22 20 -11.1499 -0.2313
8 22 22 -4.3018 1.1877
8 24 8 -9.4390 -0.9114
8 24 10 -1.8230 -0.1364
8 24 12 5.8001 0.2629
8 24 14 -6.7895 0.4058
8 24 16 -0.1063 0.4438
8 24 18 -17.8997 -0.5426
8 24 20 11.9804 -0.2022
8 24 22 24.7803 0.4653
8 26 8 -2.1165 1.4277
8 26 10 -1.4495 0.3540
8 26 12 -5.9700 -0.6945
8 26 14 -13.2397 -0.0478
8 26 16 -17.2619 0.9221
8 26 18 21.6536 0.2798
8 26 20 -7.6493 0.0259
8 28 8 1.1987 1.6565
8 28 10 10.6112 0.4391
8 28 12 1.3900 -1.0811
8 28 14 -10.2203 -0.6688
8 28 16 4.1259 0.6447
8 28 18 -4.8256 0.7113
8 30 8 -2.6535 -0.5672
8 30 10 -7.8474 0.5165
8 30 12 3.5184 0.0949
8 30 14 31.2743 0.3288
8 32 8 -10.9003 -1.8745
8 32 10 -13.0178 -0.7003
9 9 9 5.5145 1.1590
9 11 9 4.0143 -2.8677
9 11 11 -3.9308 -0.6705
9 13 9 -4.0391 -1.7366
9 13 11 1.5118 1.1272
9 13 13 9.8812 -1.6891
9 15 9 -11.3021 1.1509
9 15 11 -6.0268 -0.2592
9 15 13 16.7045 -1.4174
9 15 15 5.5228 -1.7159
9 17 9 -3.8430 2.1593
9 17 11 -0.6784 -0.1205
9 17 13 -10.4417 -0.5164
9 17 15 1.2507 -0.9542
9 17 17 8.2664 -1.5377
9 19 9 11.1475 0.0864
9 19 11 1.6855 -0.4093
9 19 13 -15.0617 0.0956
9 19 15 -11.4659 0.0577
9 19 17 4.1869 -0.7013
9 19 19 23.4587 -1.5296
9 21 9 -6.4764 -1.6776
9 21 11 -2.4619 -0.4700
9 21 13 -0.0690 0.2907
9 21 15 3.0898 0.0440
9 21 17 -0.9751 -0.3126
9 21 19 -23.8210 -0.5618
9 21 21 -2.7857 -0.1850
9 23 9 -1.4845 -1.3699
9 23 11 -0.8870 -0.5361
9 23 13 11.6314 0.2336
9 23 15 1.8372 -0.1092
9 23 17 -18.1637 0.2580
9 23 19 -7.9274 0.0437
9 23 21 13.0622 0.3880
9 23 23 -9.5735 -1.0680
9 25 9 4.8796 0.6627
9 25 11 5.4913 -0.1602
9 25 13 4.9610 -0.4097
9 25 15 -2.5742 -0.3667
9 25 17 -0.2949 0.2294
9 25 19 13.6057 -0.2117
9 25 21 5.5490 -0.7035
9 27 9 8.0937 1.7727
9 27 11 -5.0880 -0.0992
9 27 13 -8.8302 -0.5366
9 27 15 4.8045 -0.9171
9 27 17 20.1935 0.2287
9 27 19 6.6307 -0.4153
9 29 9 -12.8574 0.1186
9 29 11 -4.3970 -0.0938
9 29 13 4.1746 -0.2195
9 29 15 11.4094 0.3841
9 31 9 8.1992 -2.6769
9 31 11 3.4106 -0.3641
10 10 10 14.2706 2.6056
10 12 10 -4.4815 -2.6413
10 12 12 1.5991 -2.0907
10 14 10 -2.2489 -0.5256
10 14 12 0.2088 1.5218
10 14 14 4.9661 -1.5386
10 16 10 -2.5685 2.1787
10 16 12 8.7901 1.3757
10 16 14 -11.2013 -0.8477
10 16 16 -16.2084 -1.4351
10 18 10 12.6978 1.3749
10 18 12 -2.8938 0.5297
10 18 14 -10.9737 0.5968
10 18 16 6.5329 -0.2056
10 18 18 10.2871 -2.0500
10 20 10 -0.8663 -0.8791
10 20 12 -5.6179 -0.4063
10 20 14 -0.0639 0.8904
10 20 16 20.2297 1.0336
10 20 18 0.9150 -0.2729
10 20 20 -21.8498 -1.7259
10 22 10 -5.0264 -1.7868
10 22 12 1.9689 -1.2268
10 22 14 11.6684 -0.0306
10 22 16 9.2881 0.7086
10 22 18 -16.3012 0.3296
10 22 20 3.7959 -0.2785
10 22 22 9.3312 -0.9765
10 24 10 -9.7858 -0.0438
10 24 12 4.6369 -0.5813
10 24 14 19.1936 -0.4317
10 24 16 -34.0438 0.0404
10 24 18 9.2326 0.3869
10 24 20 9.4319 0.5745
10 24 22 -3.3249 -0.0313
10 26 10 5.4707 1.9190
10 26 12 9.5961 0.6859
10 26 14 -9.9112 0.2804
10 26 16 -11.7023 -0.4042
10 26 18 -18.2693 0.1406
10 26 20 4.2987 -0.5657
10 28 10 12.5588 1.1723
10 28 12 -15.1546 0.5333
10 28 14 -23.8847 -0.4329
10 28 16 23.5473 0.3006
10 28 18 18.1281 -0.2762
10 30 10 4.0472 -1.6909
10 30 12 4.7888 0.3341
10 30 14 -6.1663 0.1082
11 11 11 -8.9515 3.1103
11 13 11 -1.4493 -1.3175
11 13 13 -3.5810 -1.3433
11 15 11 15.0464 0.3960
11 15 13 0.7785 0.4998
11 15 15 5.5898 -1.7276
11 17 11 4.0827 1.6452
11 17 13 2.0521 1.7899
11 17 15 -8.4658 -0.8168
11 17 17 10.8158 -1.7273
11 19 11 -6.6313 -0.0472
11 19 13 -8.0544 0.9782
11 19 15 4.7864 1.0509
11 19 17 5.4435 -0.2038
11 19 19 8.9443 -2.2225
11 21 11 -2.1803 -1.7288
11 21 13 3.5761 -0.5022
11 21 15 -6.9550 0.8036
11 21 17 1.6439 1.0751
11 21 19 -6.6657 0.4681
11 21 21 9.3247 -1.4696
11 23 11 -13.1679 -1.0009
11 23 13 12.5325 -0.5813
11 23 15 5.0220 0.1216
11 23 17 -3.4776 1.2526
11 23 19 3.2060 1.6142
11 23 21 2.3214 0.8388
11 23 23 -5.3831 -2.6271
11 25 11 0.1871 1.4867
11 25 13 0.1824 0.0069
11 25 15 10.5993 -0.4901
11 25 17 -4.9335 -0.6948
11 25 19 3.8283 0.3979
11 25 21 8.6006 -0.6573
11 27 11 9.6138 2.2304
11 27 13 -7.7546 0.9353
11 27 15 -0.9739 -1.2334
11 27 17 5.9598 -0.1484
11 29 11 -0.9175 -0.2947
11 29 13 -7.4401 0.0113
11 29 15 12.6667 1.0125
11 31 11 -8.7886 -3.7353
12 12 12 -11.0183 1.7117
12 14 12 8.1216 -0.3367
12 14 14 -8.2667 -1.1452
12 16 12 13.8738 0.9244
12 16 14 -11.8333 -0.5219
12 16 16 -8.5321 -0.5149
12 18 12 -9.6288 0.1153
12 18 14 16.4489 0.8666
12 18 16 -5.1806 -0.4841
12 18 18 -14.8146 -1.4206
12 20 12 -2.4533 -1.9542
12 20 14 0.0028 0.2008
12 20 16 1.9978 0.9310
12 20 18 -3.8990 0.0081
12 20 20 -4.3715 -1.9791
12 22 12 1.2628 -2.3067
12 22 14 -7.8747 -0.6771
12 22 16 2.5331 0.6605
12 22 18 0.4795 0.5118
12 22 20 0.0074 -0.7274
12 22 22 -12.5316 -2.0480
12 24 12 -2.6515 0.0849
12 24 14 -8.7947 -0.5458
12 24 16 -11.0397 -0.2081
12 24 18 10.5522 0.3300
12 24 20 -7.8704 0.0726
12 24 22 1.1597 -0.5430
12 26 12 -19.0867 2.0497
12 26 14 -3.7116 0.0483
12 26 16 13.5005 -1.7356
12 26 18 -4.1630 0.0784
12 28 12 28.1655 0.8984
12 28 14 8.9525 -1.2222
12 28 16 -19.4974 1.0681
12 30 12 8.1102 -2.0622
13 13 13 5.3562 0.7293
13 15 13 -14.7402 0.6644
13 15 15 -13.3070 0.2895
13 17 13 2.3648 1.9183
13 17 15 10.5827 -0.7652
13 17 17 -2.0888 0.7301
13 19 13 15.7543 0.2714
13 19 15 15.0616 0.4936
13 19 17 -5.5078 0.0785
13 19 19 -16.2999 -0.3997
13 21 13 0.5622 -2.0880
13 21 15 -3.6794 -0.1610
13 21 17 5.5984 0.7110
13 21 19 15.1811 0.8355
13 21 21 -7.5555 -0.7308
13 23 13 -12.2951 -0.8936
13 23 15 0.7046 -0.2377
13 23 17 8.5644 -0.0106
13 23 19 10.1545 0.0313
13 23 21 -2.8384 -1.1240
13 25 13 1.5345 1.2084
13 25 15 12.6447 0.0561
13 25 17 3.6262 -1.8825
13 25 19 -13.8369 0.1786
13 27 13 14.5396 2.0955
13 27 15 7.6372 -0.5852
13 27 17 -14.5475 1.0946
13 29 13 4.4279 -0.0948
14 14 14 9.8347 -0.1096
14 16 14 6.1234 1.8135
14 16 16 20.2114 1.6541
14 18 14 1.6092 1.3799
14 18 16 -8.1524 -1.1920
14 18 18 -16.4591 1.0813
14 20 14 1.3058 -0.6853
14 20 16 -15.5959 0.0649
14 20 18 -0.6958 0.6892
14 20 20 2.7580 0.8398
14 22 14 5.1432 -1.8795
14 22 16 -30.8268 0.1241
14 22 18 21.6240 0.4932
14 22 20 1.4017 1.0108
14 22 22 5.4130 -0.4738
14 24 14 -58.4948 -0.0434
14 24 16 44.0340 0.3736
14 24 18 -5.8198 -0.4622
14 24 20 13.6170 -0.4290
14 26 14 4.2859 1.7473
14 26 16 -0.4311 0.1323
14 26 18 4.5023 1.4919
14 28 14 43.8203 1.0801
15 15 15 -1.3960 -1.4466
15 17 15 4.8309 2.0768
15 17 17 -5.4675 2.1750
15 19 15 -2.8986 0.4280
15 19 17 1.5293 -1.3577
15 19 19 7.6862 1.4965
15 21 15 11.7837 -1.6155
15 21 17 7.5102 -1.1013
15 21 19 -2.1201 0.3883
15 21 21 1.7992 0.2541
15 23 15 8.9178 -1.3844
15 23 17 1.7659 -0.3429
15 23 19 -10.5139 -0.1126
15 23 21 -23.9545 -0.4934
15 25 15 -12.9593 1.0799
15 25 17 -4.7881 0.4514
15 27 15 4.9198 2.2872
16 16 16 6.6365 -2.4331
16 18 16 -18.7739 1.4765
16 18 18 6.8817 1.8061
16 20 16 -0.4760 0.1604
16 20 18 4.4971 -0.5266
16 20 20 -21.9562 2.1140
16 22 16 5.6940 -1.2538
16 22 18 -7.1853 -1.6635
16 22 20 18.8991 0.0752
16 24 16 -14.6204 0.4140
16 24 18 5.3743 0.3698
16 26 16 4.3324 2.9040
17 17 17 0.8049 -2.2795
17 19 17 26.7052 0.7055
17 19 19 -0.2216 1.5048
17 21 17 2.6122 0.1403
17 21 19 -3.1619 -0.0717
17 21 21 -5.6273 -0.4662
17 23 17 -11.9002 0.8606
17 23 19 1.7344 -0.4076
17 25 17 -4.2495 2.7896
18 18 18 19.9499 -1.1389
18 20 18 -47.3796 0.0142
18 20 20 38.3092 0.1702
18 22 18 -1.5157 -1.0542
18 22 20 -19.4940 -1.0249
19 19 19 16.6292 0.3153
19 21 19 11.2016 -2.2193
20 20 20 -28.4454 -1.5769
0 0 0 0.0 0.0
;
_shelx_fab_checksum              19425
_olex2_submission_special_instructions 'No special instructions were received'
loop_
_space_group_symop_operation_xyz
'x, y, z'
'-y, x, z'
'-x, -y, z'
'y, -x, z'
'x, -z, y'
'x, -y, -z'
'x, z, -y'
'z, y, -x'
'-x, y, -z'
'-z, y, x'
'z, x, y'
'y, z, x'
'-y, -z, x'
'z, -x, -y'
'-y, z, -x'
'-z, -x, y'
'-z, x, -y'
'y, -z, -x'
'y, x, -z'
'-y, -x, -z'
'-x, z, y'
'-x, -z, -y'
'z, -y, x'
'-z, -y, -x'
'x, y+1/2, z+1/2'
'-y, x+1/2, z+1/2'
'-x, -y+1/2, z+1/2'
'y, -x+1/2, z+1/2'
'x, -z+1/2, y+1/2'
'x, -y+1/2, -z+1/2'
'x, z+1/2, -y+1/2'
'z, y+1/2, -x+1/2'
'-x, y+1/2, -z+1/2'
'-z, y+1/2, x+1/2'
'z, x+1/2, y+1/2'
'y, z+1/2, x+1/2'
'-y, -z+1/2, x+1/2'
'z, -x+1/2, -y+1/2'
'-y, z+1/2, -x+1/2'
'-z, -x+1/2, y+1/2'
'-z, x+1/2, -y+1/2'
'y, -z+1/2, -x+1/2'
'y, x+1/2, -z+1/2'
'-y, -x+1/2, -z+1/2'
'-x, z+1/2, y+1/2'
'-x, -z+1/2, -y+1/2'
'z, -y+1/2, x+1/2'
'-z, -y+1/2, -x+1/2'
'x+1/2, y, z+1/2'
'-y+1/2, x, z+1/2'
'-x+1/2, -y, z+1/2'
'y+1/2, -x, z+1/2'
'x+1/2, -z, y+1/2'
'x+1/2, -y, -z+1/2'
'x+1/2, z, -y+1/2'
'z+1/2, y, -x+1/2'
'-x+1/2, y, -z+1/2'
'-z+1/2, y, x+1/2'
'z+1/2, x, y+1/2'
'y+1/2, z, x+1/2'
'-y+1/2, -z, x+1/2'
'z+1/2, -x, -y+1/2'
'-y+1/2, z, -x+1/2'
'-z+1/2, -x, y+1/2'
'-z+1/2, x, -y+1/2'
'y+1/2, -z, -x+1/2'
'y+1/2, x, -z+1/2'
'-y+1/2, -x, -z+1/2'
'-x+1/2, z, y+1/2'
'-x+1/2, -z, -y+1/2'
'z+1/2, -y, x+1/2'
'-z+1/2, -y, -x+1/2'
'x+1/2, y+1/2, z'
'-y+1/2, x+1/2, z'
'-x+1/2, -y+1/2, z'
'y+1/2, -x+1/2, z'
'x+1/2, -z+1/2, y'
'x+1/2, -y+1/2, -z'
'x+1/2, z+1/2, -y'
'z+1/2, y+1/2, -x'
'-x+1/2, y+1/2, -z'
'-z+1/2, y+1/2, x'
'z+1/2, x+1/2, y'
'y+1/2, z+1/2, x'
'-y+1/2, -z+1/2, x'
'z+1/2, -x+1/2, -y'
'-y+1/2, z+1/2, -x'
'-z+1/2, -x+1/2, y'
'-z+1/2, x+1/2, -y'
'y+1/2, -z+1/2, -x'
'y+1/2, x+1/2, -z'
'-y+1/2, -x+1/2, -z'
'-x+1/2, z+1/2, y'
'-x+1/2, -z+1/2, -y'
'z+1/2, -y+1/2, x'
'-z+1/2, -y+1/2, -x'
'-x, -y, -z'
'y, -x, -z'
'x, y, -z'
'-y, x, -z'
'-x, z, -y'
'-x, y, z'
'-x, -z, y'
'-z, -y, x'
'x, -y, z'
'z, -y, -x'
'-z, -x, -y'
'-y, -z, -x'
'y, z, -x'
'-z, x, y'
'y, -z, x'
'z, x, -y'
'z, -x, y'
'-y, z, x'
'-y, -x, z'
'y, x, z'
'x, -z, -y'
'x, z, y'
'-z, y, -x'
'z, y, x'
'-x, -y+1/2, -z+1/2'
'y, -x+1/2, -z+1/2'
'x, y+1/2, -z+1/2'
'-y, x+1/2, -z+1/2'
'-x, z+1/2, -y+1/2'
'-x, y+1/2, z+1/2'
'-x, -z+1/2, y+1/2'
'-z, -y+1/2, x+1/2'
'x, -y+1/2, z+1/2'
'z, -y+1/2, -x+1/2'
'-z, -x+1/2, -y+1/2'
'-y, -z+1/2, -x+1/2'
'y, z+1/2, -x+1/2'
'-z, x+1/2, y+1/2'
'y, -z+1/2, x+1/2'
'z, x+1/2, -y+1/2'
'z, -x+1/2, y+1/2'
'-y, z+1/2, x+1/2'
'-y, -x+1/2, z+1/2'
'y, x+1/2, z+1/2'
'x, -z+1/2, -y+1/2'
'x, z+1/2, y+1/2'
'-z, y+1/2, -x+1/2'
'z, y+1/2, x+1/2'
'-x+1/2, -y, -z+1/2'
'y+1/2, -x, -z+1/2'
'x+1/2, y, -z+1/2'
'-y+1/2, x, -z+1/2'
'-x+1/2, z, -y+1/2'
'-x+1/2, y, z+1/2'
'-x+1/2, -z, y+1/2'
'-z+1/2, -y, x+1/2'
'x+1/2, -y, z+1/2'
'z+1/2, -y, -x+1/2'
'-z+1/2, -x, -y+1/2'
'-y+1/2, -z, -x+1/2'
'y+1/2, z, -x+1/2'
'-z+1/2, x, y+1/2'
'y+1/2, -z, x+1/2'
'z+1/2, x, -y+1/2'
'z+1/2, -x, y+1/2'
'-y+1/2, z, x+1/2'
'-y+1/2, -x, z+1/2'
'y+1/2, x, z+1/2'
'x+1/2, -z, -y+1/2'
'x+1/2, z, y+1/2'
'-z+1/2, y, -x+1/2'
'z+1/2, y, x+1/2'
'-x+1/2, -y+1/2, -z'
'y+1/2, -x+1/2, -z'
'x+1/2, y+1/2, -z'
'-y+1/2, x+1/2, -z'
'-x+1/2, z+1/2, -y'
'-x+1/2, y+1/2, z'
'-x+1/2, -z+1/2, y'
'-z+1/2, -y+1/2, x'
'x+1/2, -y+1/2, z'
'z+1/2, -y+1/2, -x'
'-z+1/2, -x+1/2, -y'
'-y+1/2, -z+1/2, -x'
'y+1/2, z+1/2, -x'
'-z+1/2, x+1/2, y'
'y+1/2, -z+1/2, x'
'z+1/2, x+1/2, -y'
'z+1/2, -x+1/2, y'
'-y+1/2, z+1/2, x'
'-y+1/2, -x+1/2, z'
'y+1/2, x+1/2, z'
'x+1/2, -z+1/2, -y'
'x+1/2, z+1/2, y'
'-z+1/2, y+1/2, -x'
'z+1/2, y+1/2, x'
loop_
_atom_site_label
_atom_site_type_symbol
_atom_site_fract_x
_atom_site_fract_y
_atom_site_fract_z
_atom_site_U_iso_or_equiv
_atom_site_adp_type
_atom_site_occupancy
_atom_site_site_symmetry_order
_atom_site_calc_flag
_atom_site_refinement_flags_posn
_atom_site_refinement_flags_adp
_atom_site_refinement_flags_occupancy
_atom_site_disorder_assembly
_atom_site_disorder_group
Zr3 Zr 0.5000 0.5000 0.90757(3) 0.0107(3) Uani 1 8 d S T P . .
C1 C 0.5000 0.61770(19) 0.88230(19) 0.0304(17) Uani 1 4 d S T P . .
C2 C 0.5000 0.6564(2) 0.8436(2) 0.047(2) Uani 1 4 d DS T P . .
C5 C 0.5000 0.7305(2) 0.7695(2) 0.065(3) Uani 1 4 d DS T P . .
O1 O 0.5000 0.57162(14) 0.86675(15) 0.0327(9) Uani 1 2 d S T P . .
O2 O 0.4545(2) 0.5455(2) 0.9545(2) 0.057(3) Uani 1 6 d S T P . .
H2 H 0.4330 0.5670 0.9330 0.086 Uiso 1 6 calc RS T P . .
C3 C 0.5000 0.7064(3) 0.8566(3) 0.111(4) Uani 1 2 d DS TU P . .
C4 C 0.5000 0.7430(3) 0.8198(2) 0.123(5) Uani 1 2 d DS TU P . .
C6 C 0.5000 0.7204(8) 0.9084(5) 0.118(15) Uani 0.04 2 d DS TU P . .
H6 H 0.5000 0.6955 0.9337 0.142 Uiso 0.04 2 calc RS T P . .
C7 C 0.5000 0.7954(5) 0.8323(6) 0.127(15) Uani 0.04 2 d DS TU P . .
C36 C 0.5000 0.7718(9) 0.9214(7) 0.127(18) Uani 0.04 2 d DS TU P . .
H36 H 0.5000 0.7813 0.9556 0.153 Uiso 0.04 2 calc RS T P . .
C11 C 0.5000 0.8092(8) 0.8837(8) 0.131(18) Uani 0.04 2 d DS TU P . .
H11 H 0.5000 0.8435 0.8928 0.157 Uiso 0.04 2 calc RS T P . .
loop_
_atom_site_aniso_label
_atom_site_aniso_U_11
_atom_site_aniso_U_22
_atom_site_aniso_U_33
_atom_site_aniso_U_23
_atom_site_aniso_U_13
_atom_site_aniso_U_12
Zr3 0.0120(4) 0.0120(4) 0.0082(5) 0.000 0.000 0.000
C1 0.045(5) 0.023(2) 0.023(2) 0.011(3) 0.000 0.000
C2 0.078(7) 0.032(3) 0.032(3) 0.011(4) 0.000 0.000
C5 0.122(10) 0.036(3) 0.036(3) 0.015(4) 0.000 0.000
O1 0.036(2) 0.028(2) 0.034(2) 0.0189(17) 0.000 0.000
O2 0.057(3) 0.057(3) 0.057(3) -0.041(3) 0.041(3) -0.041(3)
C3 0.258(14) 0.032(4) 0.041(4) 0.020(3) 0.000 0.000
C4 0.284(16) 0.039(5) 0.046(5) 0.017(4) 0.000 0.000
C6 0.27(4) 0.04(3) 0.044(9) 0.014(13) 0.000 0.000
C7 0.29(4) 0.034(8) 0.06(3) 0.021(13) 0.000 0.000
C36 0.29(5) 0.04(3) 0.05(2) 0.010(16) 0.000 0.000
C11 0.29(5) 0.04(2) 0.06(3) 0.011(16) 0.000 0.000
loop_
_atom_type_symbol
_atom_type_description
_atom_type_scat_dispersion_real
_atom_type_scat_dispersion_imag
_atom_type_scat_source
C C 0.0033 0.0016 'International Tables Vol C Tables 4.2.6.8 and 6.1.1.4'
H H 0.0000 0.0000 'International Tables Vol C Tables 4.2.6.8 and 6.1.1.4'
O O 0.0106 0.0060 'International Tables Vol C Tables 4.2.6.8 and 6.1.1.4'
Zr Zr -2.9673 0.5597 'International Tables Vol C Tables 4.2.6.8 and 6.1.1.4'
loop_
_geom_angle_atom_site_label_1
_geom_angle_atom_site_label_2
_geom_angle_atom_site_label_3
_geom_angle
_geom_angle_site_symmetry_1
_geom_angle_site_symmetry_3
_geom_angle_publ_flag
Zr3 Zr3 Zr3 60.000(1) 56_456 125_646 ?
Zr3 Zr3 Zr3 60.000(1) 152_665 125_646 ?
Zr3 Zr3 Zr3 90.0 29_565 125_646 ?
Zr3 Zr3 Zr3 60.000(1) 29_565 56_456 ?
Zr3 Zr3 Zr3 90.000(2) 152_665 56_456 ?
Zr3 Zr3 Zr3 60.000(1) 29_565 152_665 ?
O1 Zr3 Zr3 164.68(11) 3_665 29_565 ?
O1 Zr3 Zr3 164.68(11) . 125_646 ?
O1 Zr3 Zr3 110.50(7) . 56_456 ?
O1 Zr3 Zr3 110.50(7) 2_655 29_565 ?
O1 Zr3 Zr3 74.68(11) 2_655 56_456 ?
O1 Zr3 Zr3 110.50(7) 4_565 29_565 ?
O1 Zr3 Zr3 110.50(7) 2_655 125_646 ?
O1 Zr3 Zr3 74.68(11) . 29_565 ?
O1 Zr3 Zr3 110.50(7) 3_665 56_456 ?
O1 Zr3 Zr3 110.50(7) 3_665 152_665 ?
O1 Zr3 Zr3 110.50(7) 4_565 125_646 ?
O1 Zr3 Zr3 164.68(11) 2_655 152_665 ?
O1 Zr3 Zr3 74.68(11) 3_665 125_646 ?
O1 Zr3 Zr3 74.68(11) 4_565 152_665 ?
O1 Zr3 Zr3 110.50(7) . 152_665 ?
O1 Zr3 Zr3 164.68(11) 4_565 56_456 ?
O1 Zr3 O1 120.6(2) 2_655 4_565 ?
O1 Zr3 O1 75.80(10) 3_665 2_655 ?
O1 Zr3 O1 75.80(10) 3_665 4_565 ?
O1 Zr3 O1 120.6(2) 3_665 . ?
O1 Zr3 O1 75.80(10) 4_565 . ?
O1 Zr3 O1 75.80(10) 2_655 . ?
O2 Zr3 Zr3 89.2(2) 3_665 29_565 ?
O2 Zr3 Zr3 34.83(13) 3_665 152_665 ?
O2 Zr3 Zr3 34.83(13) 4_565 29_565 ?
O2 Zr3 Zr3 89.2(2) 2_655 29_565 ?
O2 Zr3 Zr3 34.82(13) 2_655 56_456 ?
O2 Zr3 Zr3 34.82(13) 4_565 152_665 ?
O2 Zr3 Zr3 34.83(13) 2_655 125_646 ?
O2 Zr3 Zr3 34.83(13) . 56_456 ?
O2 Zr3 Zr3 89.2(2) 2_655 152_665 ?
O2 Zr3 Zr3 89.2(2) . 125_646 ?
O2 Zr3 Zr3 34.83(13) . 29_565 ?
O2 Zr3 Zr3 89.2(2) 4_565 125_646 ?
O2 Zr3 Zr3 34.82(13) 3_665 125_646 ?
O2 Zr3 Zr3 89.2(2) 4_565 56_456 ?
O2 Zr3 Zr3 89.2(2) 3_665 56_456 ?
O2 Zr3 Zr3 89.2(2) . 152_665 ?
O2 Zr3 O1 78.2(2) . . ?
O2 Zr3 O1 78.2(2) . 2_655 ?
O2 Zr3 O1 78.2(2) 4_565 4_565 ?
O2 Zr3 O1 78.2(2) 4_565 . ?
O2 Zr3 O1 142.01(5) 3_665 2_655 ?
O2 Zr3 O1 142.02(5) 3_665 . ?
O2 Zr3 O1 142.02(4) 2_655 4_565 ?
O2 Zr3 O1 142.01(4) 2_655 . ?
O2 Zr3 O1 142.02(4) 4_565 2_655 ?
O2 Zr3 O1 142.01(5) . 3_665 ?
O2 Zr3 O1 142.01(5) . 4_565 ?
O2 Zr3 O1 142.01(4) 4_565 3_665 ?
O2 Zr3 O1 78.2(2) 3_665 4_565 ?
O2 Zr3 O1 78.2(2) 3_665 3_665 ?
O2 Zr3 O1 78.2(2) 2_655 3_665 ?
O2 Zr3 O1 78.2(2) 2_655 2_655 ?
O2 Zr3 O2 69.6(3) . 4_565 ?
O2 Zr3 O2 107.7(5) . 3_665 ?
O2 Zr3 O2 69.6(3) 4_565 3_665 ?
O2 Zr3 O2 107.7(5) 4_565 2_655 ?
O2 Zr3 O2 69.6(3) 3_665 2_655 ?
O2 Zr3 O2 69.6(3) . 2_655 ?
O1 C1 C2 116.4(3) . . ?
O1 C1 C2 116.4(3) 141_566 . ?
O1 C1 O1 127.3(6) . 141_566 ?
C3 C2 C1 120.3(4) 46_666 . ?
C3 C2 C1 120.3(4) . . ?
C3 C2 C3 119.3(8) . 46_666 ?
C4 C5 C5 121.0(4) . 121_666 ?
C4 C5 C5 121.0(4) 46_666 121_666 ?
C4 C5 C4 117.9(8) 46_666 . ?
C1 O1 Zr3 131.7(4) . . ?
Zr3 O2 Zr3 110.3(3) 29_565 56_456 ?
Zr3 O2 Zr3 110.3(3) 56_456 . ?
Zr3 O2 Zr3 110.3(3) 29_565 . ?
Zr3 O2 H2 108.6 56_456 . ?
Zr3 O2 H2 108.6 . . ?
Zr3 O2 H2 108.6 29_565 . ?
C2 C3 C4 120.2(7) . . ?
C2 C3 C6 119.8(10) . . ?
C4 C3 C6 120.1(10) . . ?
C5 C4 C3 121.2(6) . . ?
C5 C4 C7 117.4(9) . . ?
C3 C4 C7 121.4(8) . . ?
C3 C6 H6 120.3 . . ?
C36 C6 C3 119.3(13) . . ?
C36 C6 H6 120.3 . . ?
C7 C7 C4 121.6(7) 21_655 . ?
C7 C7 C11 120.0(10) 21_655 . ?
C11 C7 C4 118.4(12) . . ?
C6 C36 H36 119.8 . . ?
C6 C36 C11 120.5(14) . . ?
C11 C36 H36 119.8 . . ?
C7 C11 H11 119.8 . . ?
C36 C11 C7 120.3(14) . . ?
C36 C11 H11 119.8 . . ?
loop_
_geom_bond_atom_site_label_1
_geom_bond_atom_site_label_2
_geom_bond_distance
_geom_bond_site_symmetry_2
_geom_bond_publ_flag
Zr3 Zr3 3.5005(11) 125_646 ?
Zr3 Zr3 3.5005(11) 56_456 ?
Zr3 Zr3 3.5005(11) 152_665 ?
Zr3 Zr3 3.5005(11) 29_565 ?
Zr3 O1 2.207(3) 2_655 ?
Zr3 O1 2.207(3) 3_665 ?
Zr3 O1 2.207(3) 4_565 ?
Zr3 O1 2.208(3) . ?
Zr3 O2 2.132(3) 2_655 ?
Zr3 O2 2.132(3) 4_565 ?
Zr3 O2 2.132(3) . ?
Zr3 O2 2.132(3) 3_665 ?
C1 C2 1.467(11) . ?
C1 O1 1.302(5) . ?
C1 O1 1.302(5) 141_566 ?
C2 C3 1.384(8) . ?
C2 C3 1.384(8) 46_666 ?
C5 C5 1.475(16) 121_666 ?
C5 C4 1.389(8) 46_666 ?
C5 C4 1.389(8) . ?
O2 Zr3 2.132(3) 56_456 ?
O2 Zr3 2.132(3) 29_565 ?
O2 H2 1.0000 . ?
C3 C4 1.391(9) . ?
C3 C6 1.436(14) . ?
C4 C7 1.442(13) . ?
C6 H6 0.9500 . ?
C6 C36 1.420(16) . ?
C7 C7 1.40(3) 21_655 ?
C7 C11 1.425(16) . ?
C36 H36 0.9500 . ?
C36 C11 1.422(17) . ?
C11 H11 0.9500 . ?
loop_
_geom_torsion_atom_site_label_1
_geom_torsion_atom_site_label_2
_geom_torsion_atom_site_label_3
_geom_torsion_atom_site_label_4
_geom_torsion
_geom_torsion_site_symmetry_1
_geom_torsion_site_symmetry_2
_geom_torsion_site_symmetry_3
_geom_torsion_site_symmetry_4
_geom_torsion_publ_flag
C1 C2 C3 C4 180.000(2) . . . . ?
C1 C2 C3 C6 0.000(6) . . . . ?
C2 C1 O1 Zr3 180.000(2) . . . . ?
C2 C3 C4 C5 0.000(4) . . . . ?
C2 C3 C4 C7 180.000(6) . . . . ?
C2 C3 C6 C36 180.000(7) . . . . ?
C5 C5 C4 C3 180.000(3) 121_666 . . . ?
C5 C5 C4 C7 0.000(6) 121_666 . . . ?
C5 C4 C7 C7 0.000(2) . . . 21_655 ?
C5 C4 C7 C11 180.000(7) . . . . ?
O1 C1 C2 C3 0.000(3) . . . 46_666 ?
O1 C1 C2 C3 180.000(3) 141_566 . . 46_666 ?
O1 C1 C2 C3 0.000(3) 141_566 . . . ?
O1 C1 C2 C3 180.000(3) . . . . ?
O1 C1 O1 Zr3 0.000(2) 141_566 . . . ?
C3 C2 C3 C4 0.000(3) 46_666 . . . ?
C3 C2 C3 C6 180.000(8) 46_666 . . . ?
C3 C4 C7 C7 180.000(5) . . . 21_655 ?
C3 C4 C7 C11 0.000(8) . . . . ?
C3 C6 C36 C11 0.000(17) . . . . ?
C4 C5 C4 C3 0.000(4) 46_666 . . . ?
C4 C5 C4 C7 180.000(6) 46_666 . . . ?
C4 C3 C6 C36 0.000(8) . . . . ?
C4 C7 C11 C36 0.000(12) . . . . ?
C6 C3 C4 C5 180.000(3) . . . . ?
C6 C3 C4 C7 0.000(6) . . . . ?
C6 C36 C11 C7 0.000(9) . . . . ?
C7 C7 C11 C36 180.000(8) 21_655 . . . ?
loop_
_smtbx_masks_void_nr
_smtbx_masks_void_average_x
_smtbx_masks_void_average_y
_smtbx_masks_void_average_z
_smtbx_masks_void_volume
_smtbx_masks_void_count_electrons
_smtbx_masks_void_content
1 -0.226 -0.209 -0.924 9811.0 233.7 '6 C3H7NO'
