#------------------------------------------------------------------------------
#$Date: 2020-03-04 03:33:32 +0200 (Wed, 04 Mar 2020) $
#$Revision: 248695 $
#$URL: file:///home/coder/svn-repositories/cod/cif/4/51/74/4517403.cif $
#------------------------------------------------------------------------------
#
# This file is available in the Crystallography Open Database (COD),
# http://www.crystallography.net/
#
# All data on this site have been placed in the public domain by the
# contributors.
#
data_4517403
loop_
_publ_author_name
'Refn, Vanja E.'
'Kubus, Mariusz'
'Mossin, Susanne'
'Larsen, Ren\'e Wugt'
'Pedersen, Kasper S.'
_publ_section_title
;
 A Redox-Innocent Uranium(IV)-Quinoid Metal-Organic Framework.
;
_journal_issue                   7
_journal_name_full               'ACS omega'
_journal_page_first              3462
_journal_page_last               3466
_journal_paper_doi               10.1021/acsomega.9b03727
_journal_volume                  5
_journal_year                    2020
_chemical_formula_moiety         'C6 H2 Cl2 O5 U0.5, 2(H2 O)'
_chemical_formula_sum            'C6 H6 Cl2 O7 U0.5'
_chemical_formula_weight         380.02
_space_group_crystal_system      monoclinic
_space_group_IT_number           15
_space_group_name_Hall           '-C 2yc'
_space_group_name_H-M_alt        'C 1 2/c 1'
_atom_sites_solution_hydrogens   difmap
_atom_sites_solution_primary     iterative
_audit_creation_date             2019-02-21
_audit_creation_method
;
Olex2 1.2
(compiled May 18 2018 14:05:52 for OlexSys, GUI svn.r5506)
;
_cell_angle_alpha                90
_cell_angle_beta                 95.847(3)
_cell_angle_gamma                90
_cell_formula_units_Z            8
_cell_length_a                   13.7293(4)
_cell_length_b                   11.3630(4)
_cell_length_c                   12.5175(4)
_cell_measurement_reflns_used    6974
_cell_measurement_temperature    119.99(10)
_cell_measurement_theta_max      29.4390
_cell_measurement_theta_min      3.8710
_cell_volume                     1942.65(11)
_computing_cell_refinement       'CrysAlisPro 1.171.39.46 (Rigaku OD, 2018)'
_computing_data_collection       'CrysAlisPro 1.171.39.46 (Rigaku OD, 2018)'
_computing_data_reduction        'CrysAlisPro 1.171.39.46 (Rigaku OD, 2018)'
_computing_molecular_graphics    'Olex2 (Dolomanov et al., 2009)'
_computing_publication_material  'Olex2 (Dolomanov et al., 2009)'
_computing_structure_refinement  'ShelXL (Sheldrick, 2015)'
_computing_structure_solution
;
Superflip (Palatinus & Chapuis, 2007;Palatinus & van der Lee, 2008;
Palatinus et al., 2012)
;
_diffrn_ambient_environment      N~2~
_diffrn_ambient_temperature      119.99(10)
_diffrn_detector                 'CCD plate'
_diffrn_detector_area_resol_mean 5.3073
_diffrn_detector_type            Atlas
_diffrn_measured_fraction_theta_full 0.999
_diffrn_measured_fraction_theta_max 0.897
_diffrn_measurement_details
;
List of Runs (angles in degrees, time in seconds):

  # Type    Start    End  Width  t~exp~   \w     \q     \k     \f   Frames
--------------------------------------------------------------------------
  1  \w    -17.00  87.00   1.00   34.16    --   10.79  77.00 120.00  104
  2  \w    -28.00  61.00   1.00   34.16    --  -11.73  57.00   0.00   89
  3  \w    -20.00   5.00   1.00   34.16    --  -11.73 -99.00-180.00   25
  4  \w    -32.00  -5.00   1.00   34.16    --  -11.73 -19.00 -30.00   27
  5  \w    -87.00  21.00   1.00   34.16    --  -11.73 -77.00-120.00  108
;
_diffrn_measurement_device       'four-circle diffractometer'
_diffrn_measurement_device_type  'SuperNova, Dual, Cu at home/near, Atlas'
_diffrn_measurement_method       '\w scans'
_diffrn_orient_matrix_type
'CrysAlisPro convention (1999,Acta A55,543-557)'
_diffrn_orient_matrix_UB_11      0.0323828000
_diffrn_orient_matrix_UB_12      0.0103201000
_diffrn_orient_matrix_UB_13      -0.0396945000
_diffrn_orient_matrix_UB_21      -0.0252290000
_diffrn_orient_matrix_UB_22      -0.0426532000
_diffrn_orient_matrix_UB_23      -0.0336536000
_diffrn_orient_matrix_UB_31      -0.0318411000
_diffrn_orient_matrix_UB_32      0.0443521000
_diffrn_orient_matrix_UB_33      -0.0231732000
_diffrn_radiation_monochromator  mirror
_diffrn_radiation_probe          x-ray
_diffrn_radiation_type           MoK\a
_diffrn_radiation_wavelength     0.71073
_diffrn_reflns_av_R_equivalents  0.0282
_diffrn_reflns_av_unetI/netI     0.0249
_diffrn_reflns_Laue_measured_fraction_full 0.999
_diffrn_reflns_Laue_measured_fraction_max 0.897
_diffrn_reflns_limit_h_max       18
_diffrn_reflns_limit_h_min       -13
_diffrn_reflns_limit_k_max       13
_diffrn_reflns_limit_k_min       -14
_diffrn_reflns_limit_l_max       17
_diffrn_reflns_limit_l_min       -17
_diffrn_reflns_number            9176
_diffrn_reflns_point_group_measured_fraction_full 0.999
_diffrn_reflns_point_group_measured_fraction_max 0.897
_diffrn_reflns_theta_full        25.242
_diffrn_reflns_theta_max         29.494
_diffrn_reflns_theta_min         2.760
_diffrn_source                   'micro-focus sealed X-ray tube'
_diffrn_source_type              'SuperNova (Mo) X-ray Source'
_exptl_absorpt_coefficient_mu    8.980
_exptl_absorpt_correction_T_max  1.00000
_exptl_absorpt_correction_T_min  0.62339
_exptl_absorpt_correction_type   multi-scan
_exptl_absorpt_process_details
;
CrysAlisPro 1.171.39.46 (Rigaku Oxford Diffraction, 2018)
Empirical absorption correction using spherical harmonics,
 implemented in SCALE3 ABSPACK scaling algorithm.
;
_exptl_crystal_colour            'clear blackish black'
_exptl_crystal_colour_lustre     clear
_exptl_crystal_colour_modifier   blackish
_exptl_crystal_colour_primary    black
_exptl_crystal_density_diffrn    2.599
_exptl_crystal_description       block
_exptl_crystal_F_000             1424
_exptl_crystal_size_max          0.2
_exptl_crystal_size_mid          0.1
_exptl_crystal_size_min          0.1
_refine_diff_density_max         1.528
_refine_diff_density_min         -0.656
_refine_diff_density_rms         0.125
_refine_ls_extinction_method     none
_refine_ls_goodness_of_fit_ref   1.041
_refine_ls_hydrogen_treatment    constr
_refine_ls_matrix_type           full
_refine_ls_number_parameters     148
_refine_ls_number_reflns         2437
_refine_ls_number_restraints     0
_refine_ls_restrained_S_all      1.041
_refine_ls_R_factor_all          0.0201
_refine_ls_R_factor_gt           0.0183
_refine_ls_shift/su_max          0.000
_refine_ls_shift/su_mean         0.000
_refine_ls_structure_factor_coef Fsqd
_refine_ls_weighting_details
'w=1/[\s^2^(Fo^2^)+(0.0226P)^2^+4.4107P] where P=(Fo^2^+2Fc^2^)/3'
_refine_ls_weighting_scheme      calc
_refine_ls_wR_factor_gt          0.0435
_refine_ls_wR_factor_ref         0.0442
_reflns_Friedel_coverage         0.000
_reflns_number_gt                2323
_reflns_number_total             2437
_reflns_threshold_expression     'I > 2\s(I)'
_cod_data_source_file            ao9b03727_si_002.cif
_cod_data_source_block           exp_1124_u120k
_cod_depositor_comments
'Adding full bibliography for 4517403--4517404.cif.'
_cod_original_cell_volume        1942.64(11)
_cod_original_formula_sum        'C6 H6 Cl2 O7 U0.50'
_cod_database_code               4517403
_shelx_shelxl_version_number     2018/3
_chemical_oxdiff_formula         'U Cl2 C4 H4 O2'
_shelx_space_group_comment
;
The symmetry employed for this shelxl refinement is uniquely defined
by the following loop, which should always be used as a source of
symmetry information in preference to the above space-group names.
They are only intended as comments.
;
_shelx_estimated_absorpt_t_max   0.467
_shelx_estimated_absorpt_t_min   0.267
_reflns_odcompleteness_completeness 99.90
_reflns_odcompleteness_iscentric 1
_reflns_odcompleteness_theta     26.32
_olex2_refinement_description
;
1. Fixed Uiso
 At 1.5 times of:
  All O(H,H) groups
2.a Free rotating group:
 O6(H6A,H6B), O7(H7A,H7B)
2.b Rotating group:
 O5(H5A,H5B)
;
_shelx_res_file
;
TITL CF solution in C2/c
    exp_1124_u120k.res
    created by SHELXL-2018/3 at 11:20:09 on 21-Feb-2019
CELL 0.71073 13.72934 11.36296 12.51747 90 95.8474 90
ZERR 8 0.00042 0.00039 0.00038 0 0.0028 0
LATT 7
SYMM -X,+Y,0.5-Z
SFAC C H Cl O U
UNIT 48 48 16 56 4

L.S. 4
PLAN  25
SIZE 0.2 0.1 0.1
BOND
fmap 2
acta
REM <olex2.extras>
REM <HklSrc "%./exp_1124_U120K.hkl">
REM </olex2.extras>

WGHT    0.022600    4.410700
FVAR       0.78925
U1    5    0.500000    0.230939    0.250000    10.50000    0.00777    0.01494 =
         0.00805    0.00000   -0.00250    0.00000
CL2   3    0.297387    0.397051    0.562023    11.00000    0.01476    0.02951 =
         0.01898   -0.00634    0.00600   -0.00817
CL1   3    0.900980    0.233496    0.323506    11.00000    0.01560    0.04293 =
         0.01542    0.00142    0.00203    0.00421
O3    4    0.408995    0.331323    0.376301    11.00000    0.01163    0.01804 =
         0.01370   -0.00380    0.00012   -0.00324
O2    4    0.561508    0.197011    0.440446    11.00000    0.01118    0.02728 =
         0.01554    0.00470   -0.00424   -0.00413
O4    4    0.577383    0.412008    0.329275    11.00000    0.01281    0.02002 =
         0.01204   -0.00298    0.00211   -0.00094
O5    4    0.429123    0.060143    0.327056    11.00000    0.01627    0.02168 =
         0.02769    0.00420   -0.00835   -0.00347
AFIX   7
H5A   2    0.473984    0.007493    0.345057    11.00000   -1.50000
H5B   2    0.384954    0.028533    0.280876    11.00000   -1.50000
AFIX   6

O6    4    0.769150    0.459867    0.217502    11.00000    0.02189    0.03090 =
         0.03283   -0.00255   -0.00057   -0.00616
H6A   2    0.779428    0.386086    0.217000    11.00000   -1.50000
H6B   2    0.712319    0.473028    0.236090    11.00000   -1.50000
AFIX   0

C5    1    0.819468    0.243883    0.419132    11.00000    0.01292    0.02203 =
         0.01154    0.00144    0.00018    0.00164
AFIX   6
O7    4    0.430813    0.082841    0.578470    11.00000    0.03451    0.05883 =
         0.05024    0.02004    0.00743    0.00493
H7A   2    0.449633    0.136403    0.537853    11.00000   -1.50000
H7B   2    0.368903    0.085672    0.578072    11.00000   -1.50000
AFIX   0

C1    1    0.719599    0.225841    0.389502    11.00000    0.01380    0.01489 =
         0.01158    0.00052   -0.00214    0.00289
C3    1    0.447251    0.409873    0.438770    11.00000    0.01035    0.01556 =
         0.01286   -0.00111   -0.00191   -0.00121
O1    4    0.681017    0.211661    0.295333    11.00000    0.01404    0.02608 =
         0.01285   -0.00218   -0.00360    0.00327
C2    1    0.648218    0.225613    0.474932    11.00000    0.01203    0.01662 =
         0.01292    0.00327   -0.00147    0.00039
C4    1    0.544958    0.458970    0.409476    11.00000    0.00951    0.01671 =
         0.01310    0.00198   -0.00048    0.00075
C6    1    0.406984    0.452817    0.527805    11.00000    0.01021    0.01796 =
         0.01375   -0.00208    0.00120   -0.00307
HKLF 4




REM  CF solution in C2/c
REM wR2 = 0.0442, GooF = S = 1.041, Restrained GooF = 1.041 for all data
REM R1 = 0.0183 for 2323 Fo > 4sig(Fo) and 0.0201 for all 2437 data
REM 148 parameters refined using 0 restraints

END

WGHT      0.0226      4.4106

REM Highest difference peak  1.528,  deepest hole -0.656,  1-sigma level  0.125
Q1    1   0.5000  0.3042  0.2500  10.50000  0.05    1.53
Q2    1   0.5000  0.1571  0.2500  10.50000  0.05    1.07
Q3    1   0.4569  0.2314  0.1967  11.00000  0.05    0.91
Q4    1   0.5599  0.1779  0.2286  11.00000  0.05    0.56
Q5    1   0.4294  0.3206  0.3367  11.00000  0.05    0.56
Q6    1   0.4897  0.0827  0.2922  11.00000  0.05    0.52
Q7    1   0.3821  0.2970  0.3949  11.00000  0.05    0.49
Q8    1   0.2644  0.4513  0.5174  11.00000  0.05    0.46
Q9    1   0.8302  0.2532  0.4701  11.00000  0.05    0.45
Q10   1   0.5242  0.3864  0.2863  11.00000  0.05    0.44
Q11   1   0.4729  0.1393  0.3834  11.00000  0.05    0.41
Q12   1   0.4315  0.0751  0.3830  11.00000  0.05    0.41
Q13   1   0.2741  0.3409  0.6295  11.00000  0.05    0.41
Q14   1   0.4214  0.5037  0.5469  11.00000  0.05    0.41
Q15   1   0.4174  0.3790  0.3800  11.00000  0.05    0.40
Q16   1   0.5568  0.4667  0.3352  11.00000  0.05    0.40
Q17   1   0.4234  0.1520  0.3511  11.00000  0.05    0.39
Q18   1   0.5000  0.3940  0.2500  10.50000  0.05    0.38
Q19   1   0.9135  0.3216  0.3277  11.00000  0.05    0.38
Q20   1   0.4185  0.4570  0.4828  11.00000  0.05    0.38
Q21   1   0.3579  0.1627  0.3996  11.00000  0.05    0.38
Q22   1   0.4353  0.4068  0.5000  11.00000  0.05    0.38
Q23   1   0.8501  0.2348  0.3856  11.00000  0.05    0.38
Q24   1   0.6676  0.1568  0.2880  11.00000  0.05    0.37
Q25   1   0.6886  0.2099  0.4343  11.00000  0.05    0.36
;
_shelx_res_checksum              36081
_shelx_hkl_file
;
 -13   1   2 289.400 57.6462   5
 -13  -1   2 448.295 52.8820   5
 -13   1   3 16193.0 430.076   5
 -13  -1   3 16390.7 378.029   5
 -13  -1   4 430.876 69.6033   5
 -13   1   4 339.440 69.2327   5
 -13  -1   5 22843.4 547.884   5
 -13   1   5 22557.3 573.735   5
 -13  -1   6 2219.28 167.591   5
 -13   1   6 2313.91 179.725   5
 -13   3   2 1120.76 124.257   5
 -13   3   3 21256.8 584.079   5
 -13   3   4 3619.32 232.019   5
 -12   0   1 19.4541 25.6380   5
 -12   0   2 18247.6 394.295   5
 -12   0   3 6.22091 37.1007   5
 -12   0   4 11689.9 345.876   5
 -12   0   5 50.6722 53.9403   5
 -12   0   6 4763.39 241.974   5
 -12   2   1 859.266 93.5628   5
 -12   2   2 6449.76 266.034   5
 -12  -2   2 6984.66 188.441   5
 -12   2   3 6446.62 266.993   5
 -12  -2   3 6211.50 209.348   5
 -12  -2   4 15270.6 389.059   5
 -12   2   4 15087.9 447.045   5
 -12  -2   5 281.845 63.5113   5
 -12   2   5 214.547 74.4880   5
 -12  -2   6 14709.8 432.691   5
 -12   2   6 14718.6 475.676   5
 -12  -4  -1 9979.18 314.285   2
 -12  -4   0 20395.2 512.118   2
 -12   4   1 618.870 96.4848   5
 -12  -4   1 542.984 85.4264   2
 -12  -4   1 781.481 58.7147   5
 -12  -4   1 616.647 43.6736   5
 -12  -4   2 3165.82 130.033   5
 -12   4   2 3122.21 195.764   1
 -12  -4   2 2864.95 192.693   2
 -12   4   2 3160.55 213.737   5
 -12  -4   3 3883.39 164.935   5
 -12   4   3 2797.85 185.205   1
 -12   4   3 2865.32 215.995   5
 -12   4   4 16830.6 542.171   5
 -12   4   4 16148.7 468.613   1
 -12  -4   4 17172.1 417.694   5
 -12   4   5 2858.83 182.503   1
 -12  -4   5 3138.07 176.894   5
 -12  -4   6 7654.48 302.243   5
 -12   4   6 7583.73 304.900   1
 -12  -6   0 6395.41 306.705   2
 -12  -6   1 6170.00 308.444   2
 -12  -6   1 5542.36 222.552   5
 -12  -6   2 9658.49 343.503   5
 -12   6   3 4270.33 207.984   1
 -12  -8   2 3443.02 229.803   5
 -12  -8   3 10724.8 437.630   5
 -12  -8   4 1073.55 150.509   5
 -12 -10   6 1218.22 191.156   5
 -11   1   1 10980.9 298.775   5
 -11   1   1 10937.2 393.607   1
 -11  -1   1 10764.5 219.894   5
 -11  -1   2 126.734 34.7043   5
 -11   1   2 236.059 53.5145   5
 -11   1   2 104.604 57.0679   1
 -11  -1   3 48763.0 808.187   5
 -11   1   3 48481.2 989.607   1
 -11   1   3 47865.1 852.099   5
 -11   1   4 6152.32 299.711   1
 -11   1   4 6163.58 248.675   5
 -11  -1   4 6623.95 238.159   5
 -11   1   5 19090.4 567.707   1
 -11  -1   5 19434.2 482.652   5
 -11   1   5 20188.3 511.210   5
 -11   1   6 58.7483 50.3663   5
 -11  -1   6 64.9864 48.8099   5
 -11   1   6 0.86761 55.3097   1
 -11  -1   7 17757.4 505.879   5
 -11   3   0 488.023 86.2016   1
 -11  -3   1 13036.7 279.501   5
 -11   3   1 14033.6 423.731   1
 -11   3   1 13049.6 409.619   5
 -11  -3   1 13424.6 247.647   5
 -11   3   2 2500.24 173.188   5
 -11  -3   2 2706.53 117.004   5
 -11   3   2 2551.27 173.332   1
 -11   3   3 18955.7 508.697   1
 -11  -3   3 18957.8 407.699   5
 -11   3   3 19294.9 526.948   5
 -11   3   4 12846.1 420.357   5
 -11  -3   4 12823.2 341.892   5
 -11   3   4 12412.1 399.150   1
 -11   3   5 24089.3 601.607   1
 -11  -3   5 24944.8 555.003   5
 -11   3   5 26144.2 652.331   5
 -11  -3   6 551.640 83.9064   5
 -11   3   6 492.217 91.2680   1
 -11   3   7 21278.1 566.644   1
 -11   3   8 1478.19 144.444   1
 -11  -5  -3 13306.1 368.906   2
 -11  -5  -2 4125.21 201.416   2
 -11  -5  -1 4810.47 226.800   2
 -11  -5  -1 3455.21 80.5450   5
 -11  -5  -1 4009.23 88.3225   5
 -11  -5   0 2491.13 171.604   2
 -11  -5   0 2557.57 95.0001   5
 -11  -5   0 2488.75 108.386   5
 -11   5   1 9550.13 331.512   1
 -11  -5   1 9102.25 288.353   5
 -11  -5   1 9237.46 351.950   2
 -11  -5   1 9177.19 233.283   5
 -11   5   1 9534.12 396.376   5
 -11   5   2 12392.4 367.309   1
 -11  -5   2 12380.1 431.846   2
 -11   5   2 11353.6 449.553   5
 -11  -5   2 12160.4 304.522   5
 -11   5   3 28463.2 615.453   1
 -11   5   3 28502.7 763.492   5
 -11  -5   3 28747.3 569.941   5
 -11   5   4 1736.89 126.235   1
 -11  -5   4 1748.15 127.612   5
 -11  -5   5 13796.1 402.642   5
 -11  -5   6 6705.04 285.313   5
 -11  -7  -1 4734.19 264.810   2
 -11  -7  -1 3976.63 172.134   5
 -11  -7   0 5535.01 229.469   5
 -11  -7   3 7704.91 345.892   5
 -11  -9   0 5844.71 284.133   5
 -11  -9   1 1691.81 171.316   5
 -11  -9   2 6773.34 354.183   5
 -11  -9   3 3763.88 272.176   5
 -11  -9   4 16001.5 595.783   5
 -11  -9   5 4069.92 305.469   5
 -11 -11   4 3129.11 288.013   5
 -11 -11   5 418.208 136.205   5
 -11 -11   6 8690.09 505.746   5
 -11 -11   7 1700.61 239.902   5
 -10   0  -2 25423.2 610.549   3
 -10   0  -1 4.91451 48.1508   1
 -10   0  -1-6.86715 48.5946   3
 -10   0   0 53485.0 1038.21   1
 -10   0   0 53495.6 1010.12   3
 -10   0   1 31.7893 49.4213   1
 -10   0   1 65.2491 50.0034   3
 -10   0   1 22.6044 35.4242   5
 -10   0   2 36403.3 780.687   3
 -10   0   2 35339.5 615.719   5
 -10   0   2 36357.3 801.866   1
 -10   0   3 44.7997 43.8850   1
 -10   0   3-5.08407 30.7572   5
 -10   0   4 13862.3 467.547   1
 -10   0   4 14583.8 378.528   5
 -10   0   5 32.0352 38.8640   5
 -10   0   5-41.8193 65.8862   1
 -10   0   6 7736.30 350.245   1
 -10   0   6 8310.08 308.586   5
 -10   0   7 52.1089 60.8191   1
 -10   0   7 58.7137 51.7352   5
 -10  -2  -5 6507.40 276.513   3
 -10  -2  -4 16317.9 466.483   3
 -10  -2  -3 236.967 66.1471   3
 -10  -2  -2 42502.8 862.362   3
 -10  -2  -1 2689.09 182.690   3
 -10   2  -1 2956.98 185.516   1
 -10  -2   0 39814.9 827.216   3
 -10   2   0 38770.4 802.294   1
 -10  -2   1 4811.11 127.634   5
 -10  -2   1 5038.61 272.503   1
 -10   2   1 4748.00 207.699   5
 -10   2   1 4570.84 228.233   1
 -10   2   2 46602.4 848.141   5
 -10   2   2 47209.7 908.302   1
 -10  -2   2 47634.3 736.106   5
 -10  -2   2 45428.3 990.673   1
 -10  -2   3 118.102 37.1778   5
 -10   2   3 40.1279 39.3349   5
 -10   2   3 101.148 49.8605   1
 -10   2   4 6611.96 265.014   5
 -10   2   4 6225.19 275.587   1
 -10  -2   4 6293.17 223.824   5
 -10   2   5 7034.74 289.570   5
 -10  -2   5 7133.82 256.770   5
 -10   2   5 6872.47 294.027   1
 -10  -2   6 6259.58 255.891   5
 -10   2   6 5856.41 274.023   1
 -10   2   6 6380.12 284.962   5
 -10   2   7-11.5158 58.5814   1
 -10  -2   7 60.3984 44.4176   5
 -10   2   8 8526.08 354.273   1
 -10   2   9 669.796 112.317   1
 -10  -4  -7 3613.81 205.759   3
 -10  -4  -6 6890.12 291.510   3
 -10  -4  -5 416.237 54.1828   2
 -10  -4  -5 442.423 80.1417   3
 -10  -4  -4 13586.5 433.902   3
 -10  -4  -4 13451.8 319.424   2
 -10  -4  -3 21396.3 452.695   2
 -10  -4  -2 22258.2 485.766   2
 -10  -4  -1 7563.25 262.972   2
 -10   4  -1 7389.54 291.579   1
 -10  -4   0 15308.6 299.379   5
 -10  -4   0 14698.3 263.934   5
 -10  -4   0 14298.1 402.814   2
 -10   4   0 15435.1 428.041   1
 -10   4   1 817.279 96.0480   1
 -10   4   1 932.793 126.497   5
 -10  -4   1 1184.54 119.059   2
 -10  -4   1 1162.77 72.4133   5
 -10  -4   1 1093.76 92.9050   5
 -10  -4   2 35768.4 619.398   5
 -10   4   2 37512.0 722.771   1
 -10  -4   2 36875.0 780.261   2
 -10   4   2 35702.7 811.881   5
 -10   4   3 9919.32 364.654   5
 -10  -4   3 10296.5 366.006   2
 -10  -4   3 10178.2 262.933   5
 -10   4   4 13602.0 451.229   5
 -10  -4   4 12909.0 448.108   2
 -10  -4   4 12874.6 349.600   5
 -10   4   5 172.374 65.0282   5
 -10  -4   5 177.439 52.8941   5
 -10  -4   6 3631.32 197.724   5
 -10  -6  -5 3722.86 132.389   5
 -10  -6  -4 12251.9 374.243   2
 -10  -6  -4 11967.2 260.236   5
 -10  -6  -3 12612.0 390.881   2
 -10  -6  -3 12367.5 270.680   5
 -10  -6  -2 9588.20 347.142   2
 -10  -6  -2 9620.93 242.636   5
 -10  -6  -1 12159.1 401.616   2
 -10  -6  -1 11382.2 296.817   5
 -10  -6   0 18182.2 522.538   2
 -10  -6   0 17825.1 445.269   5
 -10   6   1 8320.29 393.259   5
 -10  -6   1 8708.56 324.557   5
 -10  -6   1 9063.34 364.554   2
 -10  -6   2 11553.5 429.950   2
 -10   6   2 11451.8 479.223   5
 -10   6   4 5666.68 204.509   1
 -10   6   5 817.718 76.1171   1
 -10   6   6 7430.28 220.270   1
 -10  -8   0 10582.6 382.327   5
 -10  -8   1 22485.7 631.548   5
 -10  -8   2 5608.03 307.117   5
 -10  -8   3 6194.94 333.645   5
 -10 -10  -1 14519.6 493.279   5
 -10 -10   0 1172.51 152.607   5
 -10 -10   1 13973.0 530.052   5
 -10 -10   2 4321.72 307.395   5
 -10 -10   3 6374.95 379.412   5
 -10 -10   4 2229.75 237.390   5
 -10 -10   5 3054.05 283.448   5
 -10 -12   2 698.689 163.419   5
 -10 -12   3 11457.6 557.616   5
 -10 -12   4 224.323 125.667   5
 -10 -12   5 2259.95 275.517   5
 -10 -12   6-7.46078 107.064   5
 -10 -12   7 5315.72 424.544   5
  -9  -1  -4 439.769 72.7522   3
  -9   1  -3 42291.1 853.577   1
  -9  -1  -3 42258.5 880.146   1
  -9  -1  -3 41733.0 817.319   3
  -9  -1  -2 222.581 62.1418   1
  -9   1  -2 227.916 60.7253   1
  -9  -1  -2 156.370 51.6852   3
  -9  -1  -1 8600.06 337.819   1
  -9  -1  -1 8955.52 319.164   3
  -9   1  -1 8763.85 319.728   1
  -9   1   0 3.62535 24.3051   5
  -9   1   0 33.6120 44.1762   1
  -9  -1   0 14.4464 38.5350   3
  -9  -1   0-1.74557 44.0290   1
  -9   1   1 17192.4 378.937   5
  -9  -1   1 17444.3 311.085   5
  -9   1   1 17989.3 474.068   1
  -9  -1   1 17569.3 502.570   1
  -9  -1   1 17991.9 472.534   3
  -9   1   1 17736.5 471.734   3
  -9   1   2 5267.23 241.681   3
  -9  -1   2 5155.77 162.702   5
  -9  -1   2 5300.83 262.533   1
  -9  -1   2 5373.08 244.869   3
  -9   1   2 4937.85 183.561   5
  -9   1   2 4935.70 232.389   1
  -9  -1   3 9848.95 339.789   3
  -9   1   3 10155.7 345.874   3
  -9  -1   3 9387.83 359.681   1
  -9   1   3 9255.52 333.889   1
  -9   1   3 10250.1 290.827   5
  -9  -1   3 9499.17 260.107   5
  -9   1   4 460.821 71.2595   5
  -9  -1   4 308.945 58.2299   5
  -9   1   4 306.020 70.6666   1
  -9   1   4 364.812 71.7842   3
  -9  -1   4 398.301 82.2007   1
  -9  -1   4 410.861 76.5655   3
  -9  -1   5 9063.25 334.366   3
  -9   1   5 9284.91 312.839   5
  -9  -1   5 9646.22 383.627   1
  -9   1   5 9210.61 346.250   1
  -9  -1   5 9703.54 299.804   5
  -9   1   5 9381.00 337.483   3
  -9   1   6 4838.34 238.175   5
  -9  -1   6 5317.51 251.884   3
  -9  -1   6 5109.18 226.812   5
  -9   1   6 5113.71 259.471   1
  -9   1   6 5429.84 250.305   3
  -9  -1   6 5302.37 285.548   1
  -9  -1   7 42940.2 978.700   1
  -9  -1   7 44046.2 866.010   5
  -9   1   7 43200.1 875.363   3
  -9   1   7 43386.0 919.492   1
  -9   1   7 45016.3 896.081   5
  -9   1   8 183.044 79.1874   1
  -9   1   8-68.7418 48.6490   3
  -9   1   9 25118.2 689.615   1
  -9  -3  -8 4201.27 141.885   2
  -9  -3  -7 36938.1 735.901   3
  -9  -3  -7 37021.4 579.124   2
  -9  -3  -6 1454.25 72.1146   2
  -9  -3  -6 1530.95 126.947   3
  -9  -3  -5 24759.8 418.272   2
  -9  -3  -5 24857.9 576.220   3
  -9  -3  -4 6934.21 274.960   3
  -9  -3  -4 6477.00 176.269   2
  -9  -3  -3 14889.9 430.837   3
  -9  -3  -3 14710.0 315.107   2
  -9  -3  -2 4610.10 256.386   1
  -9  -3  -2 4623.51 169.482   2
  -9   3  -2 5190.96 236.339   1
  -9   3  -1 49530.2 888.438   1
  -9  -3  -1 46043.7 792.931   2
  -9  -3  -1 46616.2 990.512   1
  -9  -3   0 114.633 64.8298   1
  -9   3   0 127.740 53.7898   5
  -9  -3   0 142.507 25.7379   5
  -9   3   0 69.4560 45.3588   1
  -9  -3   0 116.475 46.4505   2
  -9  -3   0 103.111 19.3039   5
  -9   3   1 7417.29 280.004   5
  -9  -3   1 7573.71 252.496   2
  -9  -3   1 7837.25 329.265   1
  -9  -3   1 7609.91 161.421   5
  -9   3   2 724.075 89.8483   5
  -9  -3   2 847.885 66.5301   5
  -9  -3   2 835.785 115.125   1
  -9  -3   2 737.602 94.9149   2
  -9  -3   3 9635.61 262.803   5
  -9  -3   3 9629.76 341.280   2
  -9   3   3 9638.82 332.071   5
  -9  -3   3 10158.1 400.148   1
  -9  -3   4 519.417 67.3955   5
  -9   3   4 517.624 80.1389   5
  -9  -3   4 561.317 97.9263   2
  -9  -3   4 419.756 95.6547   1
  -9  -3   5 30970.1 629.293   5
  -9   3   5 32191.2 714.049   5
  -9  -3   6 1915.62 139.955   5
  -9   3   6 2210.14 173.048   5
  -9  -3   7 10210.8 355.178   5
  -9   3   9 24139.7 601.598   1
  -9   3  10 586.500 99.6938   1
  -9  -5  -7 22305.2 543.104   3
  -9  -5  -6 14783.6 319.947   5
  -9  -5  -6 14272.2 377.355   2
  -9  -5  -6 14345.8 427.501   3
  -9  -5  -5 15266.4 311.353   5
  -9  -5  -5 15560.2 391.948   2
  -9  -5  -4 4297.23 192.210   2
  -9  -5  -4 4359.05 134.205   5
  -9  -5  -3 21294.7 489.716   2
  -9  -5  -3 20922.1 368.925   5
  -9  -5  -2 15454.1 309.589   5
  -9  -5  -2 16666.9 425.770   2
  -9  -5  -1 6050.08 252.716   2
  -9  -5  -1 5894.02 188.012   5
  -9  -5   0 3965.73 209.272   2
  -9  -5   0 3786.60 178.999   5
  -9  -5   1 4191.98 209.637   5
  -9  -5   1 4339.48 229.315   2
  -9   5   1 4290.08 261.803   5
  -9   5   2 123.055 70.9173   5
  -9  -5   2 136.672 58.3924   2
  -9   5   3 3976.47 168.286   1
  -9  -5   3 4072.10 239.784   2
  -9   5   3 3624.29 238.532   5
  -9   5   4 5526.79 291.039   5
  -9  -5   4 5114.99 278.677   2
  -9   5   4 5148.49 190.660   1
  -9   5   5 14006.6 340.375   1
  -9  -5   5 15426.1 420.004   5
  -9   5   6 5370.95 191.791   1
  -9  -5   6 5910.17 259.598   5
  -9   5   7 16998.9 379.918   1
  -9   5   8 7809.13 241.223   1
  -9  -7  -5 10309.5 371.980   2
  -9  -7  -4 6888.36 299.350   2
  -9  -7  -4 6784.11 238.216   5
  -9  -7  -3 13802.2 364.530   5
  -9  -7  -3 14886.0 456.465   2
  -9  -7  -2 8172.05 332.826   2
  -9  -7  -2 7507.00 266.422   5
  -9  -7  -1 7105.28 316.247   2
  -9  -7   0 4074.16 243.006   2
  -9  -7   2 8453.64 362.864   5
  -9  -9  -5 3921.99 211.948   5
  -9  -9  -4 15050.2 446.320   5
  -9  -9  -3 963.900 113.178   5
  -9  -9  -2 5969.72 283.744   5
  -9  -9  -1 3800.64 239.184   5
  -9  -9   0 5781.85 310.532   5
  -9  -9   1 1982.39 199.302   5
  -9  -9   2 9627.46 441.639   5
  -9  -9   3 774.094 139.806   5
  -9  -9   4 1488.40 187.405   5
  -9 -11  -3 216.182 93.7422   5
  -9 -11  -2 8959.09 405.144   5
  -9 -11  -1 1412.17 170.149   5
  -9 -11   0 8741.91 423.460   5
  -9 -11   1 417.637 122.113   5
  -9 -11   2 4652.34 334.579   5
  -9 -11   3 346.256 121.577   5
  -9 -11   4 5393.07 382.928   5
  -9 -11   5 2282.21 263.766   5
  -9 -11   6 13025.6 624.667   5
  -9 -11   7 313.745 134.308   5
  -9 -13   0 5491.30 367.165   5
  -9 -13   1 289.758 130.908   5
  -9 -13   2 2957.21 290.675   5
  -9 -13   3-46.7562 121.172   5
  -9 -13   4 6204.35 444.642   5
  -9 -13   5 92.7087 112.243   5
  -8   0  -9 4.62165 21.2606   2
  -8   0  -5 16.4271 48.0782   1
  -8   0  -4 14470.8 429.250   1
  -8   0  -3 31.0129 41.2934   1
  -8   0  -2 48260.2 869.072   3
  -8   0  -1-0.87707 34.0037   3
  -8   0   0 1398.11 65.6668   5
  -8   0   0 1435.00 114.220   3
  -8   0   1 72.6755 48.1307   3
  -8   0   1 0.31270 17.7915   5
  -8   0   2 59420.2 1013.23   3
  -8   0   2 56561.5 873.073   5
  -8   0   3 19.7386 38.4718   3
  -8   0   3 31.8053 30.0560   5
  -8   0   4 81346.1 1321.95   3
  -8   0   4 80818.7 1245.10   5
  -8   0   5 2.36838 38.5704   3
  -8   0   5-7.23556 34.3855   5
  -8   0   5 24.3914 39.1389   1
  -8   0   6 5197.39 226.829   5
  -8   0   6 5222.52 263.157   1
  -8   0   6 5465.55 240.167   3
  -8   0   7 2.22765 37.0131   3
  -8   0   7 39.3131 46.9721   5
  -8   0   8 39468.3 899.668   1
  -8   0   8 40677.0 809.274   3
  -8   0   9 117.905 72.6359   1
  -8   0   9-22.9284 42.8303   3
  -8   0  10 8719.29 326.028   3
  -8   0  11 118.170 57.3310   3
  -8   2  -9 2117.60 88.5820   2
  -8  -2  -9 2070.25 109.681   2
  -8  -2  -8 27623.8 467.389   2
  -8  -2  -8 27967.3 481.253   2
  -8  -2  -7 2947.06 104.313   2
  -8  -2  -7 3080.62 102.982   2
  -8  -2  -6 4916.06 123.321   2
  -8  -2  -6 4899.52 121.621   2
  -8  -2  -6 4797.76 202.074   3
  -8  -2  -5 1526.96 143.075   1
  -8  -2  -5 1442.06 54.4446   2
  -8  -2  -5 1438.25 112.537   3
  -8  -2  -4 10121.0 316.406   3
  -8  -2  -4 9725.06 182.313   2
  -8  -2  -4 10789.8 373.414   1
  -8  -2  -3 153.824 51.6676   1
  -8   2  -3 313.132 68.5698   1
  -8  -2  -3 196.183 27.9639   2
  -8  -2  -3 238.910 56.3728   3
  -8  -2  -2 11438.5 343.525   3
  -8   2  -2 11583.7 350.553   1
  -8  -2  -2 12220.0 397.589   1
  -8  -2  -2 10895.9 237.704   2
  -8  -2  -1 3023.47 120.537   2
  -8  -2  -1 3665.13 182.902   3
  -8  -2   0 31479.7 432.351   5
  -8   2   0 31159.9 612.887   5
  -8  -2   0 30950.0 565.059   2
  -8  -2   0 30596.8 461.725   5
  -8   2   1 89.2582 36.9797   5
  -8  -2   1 87.5513 23.9242   5
  -8  -2   1 141.627 48.8301   2
  -8  -2   2 46640.9 715.835   5
  -8  -2   2 45843.3 827.705   2
  -8   2   2 47196.4 811.543   5
  -8  -2   3 6492.11 201.411   5
  -8   2   3 6866.17 243.284   5
  -8  -2   3 6816.55 300.579   1
  -8   2   3 6900.41 254.143   1
  -8  -2   4 32706.5 761.048   1
  -8   2   4 31798.0 657.341   1
  -8   2   4 33936.2 669.109   5
  -8  -2   4 32869.3 609.050   5
  -8  -2   5 2855.91 206.834   1
  -8  -2   5 2700.24 150.246   5
  -8   2   5 2944.91 172.733   5
  -8   2   6 32318.7 701.953   5
  -8  -2   6 32137.9 658.080   5
  -8  -2   6 30872.5 777.449   1
  -8  -2   7 1717.07 135.272   5
  -8  -2   7 1973.80 182.945   1
  -8   2   7 1600.11 143.372   5
  -8   2   9 1154.63 131.333   1
  -8   2  10 12601.3 447.356   1
  -8   2  11 129.624 66.8130   1
  -8  -4  -8 14680.7 376.063   3
  -8  -4  -8 14718.3 366.148   2
  -8  -4  -7 1853.58 129.960   3
  -8  -4  -7 1758.27 115.355   2
  -8  -4  -6 6871.43 225.896   2
  -8  -4  -6 6891.43 258.576   3
  -8  -4  -5 949.845 82.7822   2
  -8  -4  -5 1083.16 67.6726   5
  -8  -4  -4 15085.5 364.861   2
  -8  -4  -4 15217.9 491.346   1
  -8  -4  -4 16073.9 293.021   5
  -8  -4  -3 16875.1 512.572   1
  -8  -4  -3 16863.2 295.001   5
  -8  -4  -3 16389.4 385.768   2
  -8  -4  -2 7457.42 325.804   1
  -8  -4  -2 6938.35 237.917   2
  -8  -4  -2 7277.51 168.079   5
  -8  -4  -1 2727.93 107.918   5
  -8  -4  -1 2645.25 150.277   2
  -8  -4  -1 2906.62 203.310   1
  -8  -4   0 33225.6 624.331   5
  -8  -4   0 34699.9 676.196   2
  -8  -4   0 34108.4 783.020   1
  -8   4   0 33980.1 759.244   5
  -8  -4   1 6641.25 307.619   1
  -8   4   1 6139.40 281.577   5
  -8  -4   1 6759.61 260.609   2
  -8  -4   2 28479.4 638.372   2
  -8   4   2 28066.0 669.024   5
  -8   4   2 28441.5 550.363   1
  -8  -4   2 28338.9 713.488   1
  -8  -4   3 3495.05 203.946   2
  -8   4   3 3323.42 198.341   5
  -8   4   3 3057.19 144.028   1
  -8  -4   3 3201.15 218.704   1
  -8   4   4 22346.6 569.850   5
  -8  -4   4 20859.1 617.847   1
  -8  -4   4 20998.7 565.883   2
  -8   4   4 20766.9 439.454   1
  -8   4   5 4863.97 249.992   5
  -8   4   5 4081.10 169.222   1
  -8  -4   5 4408.28 251.612   2
  -8  -4   5 4186.50 196.290   5
  -8   4   6 28426.4 561.860   1
  -8  -4   6 28938.2 640.095   5
  -8   4   6 31667.2 732.818   5
  -8  -4   7 5277.30 248.795   5
  -8   4   7 4851.71 197.580   1
  -8   4   8 3562.69 174.158   1
  -8   4   9 2145.65 142.966   1
  -8  -6  -9 11130.0 351.867   5
  -8  -6  -8 19842.2 478.269   5
  -8  -6  -7 4675.15 228.164   2
  -8  -6  -6 5097.86 238.348   2
  -8  -6  -5 3369.21 190.769   2
  -8  -6  -5 3303.94 155.933   5
  -8  -6  -4 3676.30 159.956   5
  -8  -6  -4 3789.08 201.990   2
  -8  -6  -3 2367.66 130.161   5
  -8  -6  -3 2107.79 153.921   2
  -8  -6  -2 22444.5 546.400   2
  -8  -6  -2 20528.2 463.043   5
  -8  -6  -1 4003.26 194.615   5
  -8  -6  -1 3863.77 211.686   2
  -8  -6   0 3529.27 207.509   2
  -8  -6   0 3047.29 189.602   5
  -8  -6   1 7824.76 326.726   2
  -8   6   1 7424.38 364.952   5
  -8   6   2 9704.77 413.926   5
  -8  -6   2 8971.18 362.657   2
  -8  -6   3 7720.87 340.402   2
  -8   6   3 8152.86 378.194   5
  -8   6   6 7016.26 164.890   1
  -8   6   7 10552.6 202.630   1
  -8  -8  -8 4707.88 239.978   5
  -8  -8  -7 10729.8 357.577   5
  -8  -8  -6 806.148 99.4224   5
  -8  -8  -5 2705.40 173.119   5
  -8  -8  -4 1848.28 141.338   5
  -8  -8  -3 8101.72 308.516   5
  -8  -8  -2 7293.67 301.788   5
  -8  -8  -1 7777.17 334.675   5
  -8  -8   0 8006.00 359.486   5
  -8  -8   1 14841.1 521.880   5
  -8  -8   2 5902.51 323.814   5
  -8  -8   3 20043.5 632.248   5
  -8 -10  -6 2221.68 185.331   5
  -8 -10  -5 3250.56 221.974   5
  -8 -10  -4 2714.65 208.004   5
  -8 -10  -3 8364.92 370.472   5
  -8 -10  -2 178.549 77.8063   5
  -8 -10  -1 7797.71 378.799   5
  -8 -10   0 5315.50 326.883   5
  -8 -10   1 9280.05 448.121   5
  -8 -10   2 3317.26 278.677   5
  -8 -10   3 13677.3 574.076   5
  -8 -10   4 1142.49 184.381   5
  -8 -10   5 10467.5 524.554   5
  -8 -12  -4 222.478 111.038   5
  -8 -12  -3 5022.30 324.056   5
  -8 -12  -2 247.030 94.7117   5
  -8 -12  -1 5424.47 346.947   5
  -8 -12   0 243.549 102.447   5
  -8 -12   1 12174.0 559.876   5
  -8 -12   2 267.547 115.862   5
  -8 -12   3 6650.73 432.906   5
  -8 -12   4 555.315 155.663   5
  -8 -12   5 13742.7 668.014   5
  -8 -12   6 161.931 128.179   5
  -8 -12   7 6776.41 488.657   5
  -8 -14  -1 7089.30 434.977   5
  -8 -14   0 441.407 141.413   5
  -8 -14   1 8612.84 503.922   5
  -8 -14   2 304.572 140.082   5
  -8 -14   3 4682.96 391.975   5
  -7   1 -10 1000.35 86.2912   2
  -7  -1 -10 985.850 89.3667   2
  -7  -1  -9 7227.52 223.025   2
  -7   1  -9 7371.70 211.864   2
  -7   1  -8 640.801 54.6953   2
  -7  -1  -8 555.425 54.8800   2
  -7  -1  -7 13330.1 267.108   2
  -7   1  -7 13532.4 246.866   2
  -7  -1  -6 366.629 29.1738   2
  -7  -1  -6 362.242 31.0947   2
  -7  -1  -5 48906.8 930.397   1
  -7  -1  -4 166.493 48.4581   1
  -7  -1  -4 142.296 38.3574   3
  -7  -1  -3 46927.9 812.305   3
  -7  -1  -2 15.5390 27.9681   3
  -7  -1  -1 29058.3 582.070   3
  -7  -1   0 3277.57 162.039   3
  -7   1   0 3336.59 163.503   1
  -7   1   0 3289.86 164.957   3
  -7   1   0 2903.18 127.300   5
  -7  -1   1 32527.8 496.690   5
  -7  -1   1 33527.3 642.010   3
  -7   1   1 32527.9 636.247   1
  -7   1   1 32270.9 638.954   3
  -7   1   1 32594.2 554.776   5
  -7   1   2 3536.01 172.214   3
  -7  -1   2 3414.86 120.499   5
  -7   1   2 3430.41 170.196   1
  -7  -1   2 3392.29 169.261   3
  -7   1   2 3597.93 143.283   5
  -7   1   3 25810.8 504.704   5
  -7   1   3 26576.5 551.266   3
  -7  -1   3 25023.5 469.879   5
  -7   1   3 25638.1 551.085   1
  -7   1   4 404.776 62.0863   5
  -7  -1   4 366.049 55.9704   5
  -7   1   4 355.418 59.4150   1
  -7   1   4 349.432 58.8930   3
  -7   1   5 32836.0 521.200   3
  -7   1   5 32520.0 548.428   1
  -7   1   5 33221.6 524.657   5
  -7  -1   5 32327.1 484.630   5
  -7  -1   6 1058.21 124.023   1
  -7  -1   6 1026.69 100.280   5
  -7   1   6 1040.46 106.180   5
  -7   1   6 1173.03 104.613   3
  -7  -1   7 19559.7 555.236   1
  -7  -1   7 19212.1 487.087   5
  -7  -1   7 18682.6 470.004   3
  -7   1   7 18576.4 461.759   3
  -7   1   7 19324.2 506.073   5
  -7   1   8 712.646 104.536   1
  -7  -1   8 812.362 103.070   5
  -7  -1   8 917.742 125.141   1
  -7   1   8 795.346 89.5058   3
  -7  -1   8 665.643 84.6705   3
  -7  -1   9 34291.5 710.684   3
  -7   1   9 34906.2 702.223   3
  -7   1   9 34821.1 795.656   1
  -7  -1   9 35145.2 849.428   1
  -7   1  10 2331.68 191.742   1
  -7  -1  10 2330.99 159.755   3
  -7   1  11 25141.2 700.056   1
  -7  -1  11 25601.8 594.162   3
  -7   3 -10 2056.39 128.993   2
  -7   3  -9 19472.6 425.469   2
  -7   3  -8 470.973 57.6682   2
  -7  -3  -7 4309.27 162.982   2
  -7  -3  -7 4167.75 172.189   3
  -7   3  -7 4286.84 147.326   2
  -7  -3  -6 540.643 56.6912   2
  -7  -3  -6 581.477 91.8914   1
  -7  -3  -6 506.318 64.8030   3
  -7  -3  -5 11667.2 279.410   2
  -7  -3  -5 12387.2 331.380   3
  -7  -3  -5 12522.3 403.190   1
  -7  -3  -4 2400.12 85.8513   5
  -7  -3  -4 2039.59 103.685   2
  -7  -3  -4 2108.25 160.180   1
  -7  -3  -3 66055.8 1178.09   1
  -7  -3  -3 67726.5 896.433   5
  -7  -3  -3 66232.2 988.635   2
  -7  -3  -2 8180.31 154.793   5
  -7  -3  -2 7916.78 221.309   2
  -7  -3  -2 8295.03 317.997   1
  -7  -3  -1 25157.1 595.533   1
  -7  -3  -1 24077.6 469.366   2
  -7  -3  -1 23353.6 377.872   5
  -7  -3   0 8457.74 229.062   5
  -7   3   0 8823.20 304.716   5
  -7  -3   0 8664.90 260.300   2
  -7   3   0 8707.60 259.783   1
  -7  -3   1 38571.1 720.361   2
  -7   3   1 39801.5 765.406   5
  -7   3   1 39604.1 690.243   1
  -7  -3   2 5175.95 217.182   2
  -7   3   2 5206.48 218.925   5
  -7   3   2 4904.07 182.670   1
  -7   3   3 31025.9 634.248   5
  -7   3   3 29638.4 557.514   1
  -7  -3   3 29797.7 646.773   2
  -7   3   4 3354.92 180.992   5
  -7  -3   4 3104.29 149.964   5
  -7  -3   4 3234.08 191.952   2
  -7   3   4 3235.82 148.426   1
  -7  -3   5 1303.25 133.092   2
  -7   3   5 1270.45 95.2141   1
  -7  -3   5 1393.93 143.594   1
  -7   3   5 1220.18 116.952   5
  -7  -3   5 1213.03 101.543   5
  -7  -3   6 3851.88 191.771   5
  -7  -3   6 3869.29 243.702   1
  -7   3   6 4093.87 223.033   5
  -7  -3   6 3788.37 229.678   2
  -7   3   6 3778.95 173.721   1
  -7   3   7 19071.4 459.602   1
  -7  -3   7 19921.8 509.301   5
  -7  -3   7 19116.8 594.419   1
  -7   3   7 20122.4 548.031   5
  -7   3   8 4715.79 219.479   1
  -7   3  11 17609.2 521.815   1
  -7   5 -10 1192.51 114.164   2
  -7  -5  -9 8687.95 304.986   5
  -7  -5  -8 9851.85 315.765   5
  -7  -5  -8 10870.5 337.608   2
  -7  -5  -8 10504.3 299.980   3
  -7  -5  -7 5267.86 222.692   2
  -7  -5  -6 786.630 77.5785   5
  -7  -5  -6 794.585 89.5310   2
  -7  -5  -6 659.839 98.8416   1
  -7  -5  -5 22306.0 510.085   2
  -7  -5  -5 22970.1 458.818   5
  -7  -5  -5 22813.9 608.278   1
  -7  -5  -4 12559.9 358.574   2
  -7  -5  -4 12541.2 304.475   5
  -7  -5  -4 12745.7 431.982   1
  -7  -5  -3 29370.5 611.197   2
  -7  -5  -3 31024.6 720.483   1
  -7  -5  -3 28832.9 536.133   5
  -7  -5  -2 14493.3 342.049   5
  -7  -5  -2 14972.6 471.270   1
  -7  -5  -2 14857.2 395.579   2
  -7  -5  -1 15120.0 384.894   5
  -7  -5  -1 15576.3 484.892   1
  -7  -5  -1 15153.4 410.099   2
  -7  -5   0 1562.03 126.648   2
  -7  -5   0 1720.31 157.409   1
  -7   5   0 1416.42 147.149   5
  -7  -5   0 1417.11 121.803   5
  -7  -5   1 22264.8 550.480   2
  -7  -5   1 21903.6 537.140   5
  -7   5   1 22532.1 618.014   5
  -7  -5   1 22600.5 607.715   1
  -7   5   2 11304.1 410.413   5
  -7  -5   2 11531.5 420.718   1
  -7  -5   2 11482.6 384.282   2
  -7  -5   3 7468.75 343.251   1
  -7  -5   3 7069.33 301.821   2
  -7   5   3 7278.12 321.258   5
  -7   5   3 7002.42 192.704   1
  -7  -5   4 2709.71 212.006   1
  -7   5   4 3426.25 217.025   5
  -7  -5   4 2994.73 207.150   2
  -7   5   4 2968.37 112.770   1
  -7   5   5 15242.9 301.468   1
  -7   5   5 17100.2 514.446   5
  -7  -5   5 16757.4 521.829   2
  -7   5   6 6076.62 165.651   1
  -7   5   7 18068.8 343.995   1
  -7   5   8 17218.9 348.795   1
  -7   5   9 18462.1 386.071   1
  -7  -7 -10 5190.62 259.458   5
  -7  -7  -9 2007.22 158.299   5
  -7  -7  -8 4643.72 235.104   5
  -7  -7  -7 6724.13 272.240   5
  -7  -7  -7 7217.58 309.296   2
  -7  -7  -6 4439.62 240.597   2
  -7  -7  -6 3845.36 196.054   5
  -7  -7  -5 13316.6 429.470   2
  -7  -7  -4 17412.4 552.589   1
  -7  -7  -4 18363.2 515.235   2
  -7  -7  -3 4447.02 242.281   2
  -7  -7  -3 4620.99 269.848   1
  -7  -7  -2 8037.88 329.312   2
  -7  -7  -2 7754.94 354.822   1
  -7  -7  -1 27006.6 726.507   1
  -7  -7  -1 28186.9 674.881   2
  -7  -7   0 10129.7 383.197   2
  -7  -7   0 10204.0 408.034   1
  -7  -7   1 3754.96 232.397   2
  -7   7   1 3603.90 266.954   5
  -7  -7   2 10136.0 399.190   2
  -7  -7   2 10530.9 409.699   5
  -7  -9  -9 1802.47 172.460   5
  -7  -9  -8 1131.95 131.047   5
  -7  -9  -7 439.814 90.3558   5
  -7  -9  -6 9569.68 369.772   5
  -7  -9  -5 2990.97 204.791   5
  -7  -9  -4 12756.9 437.878   5
  -7  -9  -3 6742.46 321.731   5
  -7  -9  -2 10163.1 408.616   5
  -7  -9  -1 4269.63 273.232   5
  -7  -9   0 19086.0 624.698   5
  -7  -9   1 7756.83 395.392   5
  -7  -9   2 9513.03 445.680   5
  -7  -9   3 2542.87 240.861   5
  -7  -9   4 13604.3 561.855   5
  -7 -11  -7 635.039 116.257   5
  -7 -11  -6 6863.40 358.358   5
  -7 -11  -5 1821.31 188.098   5
  -7 -11  -4 13665.8 519.676   5
  -7 -11  -3 1454.73 175.729   5
  -7 -11  -2 10432.8 461.991   5
  -7 -11  -1-40.3274 78.5672   5
  -7 -11   0 5997.19 365.284   5
  -7 -11   1 769.490 154.693   5
  -7 -11   2 6176.09 397.391   5
  -7 -11   3 481.111 139.847   5
  -7 -11   4 8284.65 479.712   5
  -7 -11   5 83.1882 103.245   5
  -7 -11   6 7129.88 462.399   5
  -7 -13  -5 208.142 103.739   5
  -7 -13  -4 11399.0 524.398   5
  -7 -13  -3 239.295 116.247   5
  -7 -13  -2 8398.50 456.111   5
  -7 -13  -1 403.645 132.763   5
  -7 -13   0 8852.99 486.987   5
  -7 -13   1 32.0571 94.8284   5
  -7 -13   2 8505.67 507.565   5
  -7 -13   3 71.7907 112.416   5
  -7 -13   4 5736.76 439.308   5
  -7 -13   5-8.52195 118.080   5
  -7 -13   6 4727.54 428.319   5
  -6   0 -12 7510.29 295.504   2
  -6   0 -10 26041.8 554.694   2
  -6   0  -9 27.8927 30.5094   2
  -6   0  -8 24263.3 466.978   2
  -6   0  -7 25.1172 27.3108   2
  -6   0  -6 34169.8 519.192   2
  -6   0  -3-23.7237 35.7093   3
  -6   0  -2 1924.52 114.471   3
  -6   0  -1-8.18728 27.3069   3
  -6   0   0 1324.58 57.3091   5
  -6   0   0 1359.22 97.0199   3
  -6   0   1 47.7458 20.1022   5
  -6   0   1 63.3886 34.3871   3
  -6   0   1 10.0254 34.1936   1
  -6   0   2 81862.0 1285.84   1
  -6   0   2 84335.3 1259.77   3
  -6   0   2 83097.3 1172.60   5
  -6   0   3 17.5485 30.9516   3
  -6   0   3 60.7980 29.6279   5
  -6   0   3 70.2188 35.7140   1
  -6   0   4 52460.2 844.162   5
  -6   0   4 51438.5 864.789   3
  -6   0   4 50535.6 916.758   1
  -6   0   5 26.9435 32.5391   5
  -6   0   5 35.6567 33.4632   3
  -6   0   5 30.4368 49.5081   1
  -6   0   6 77123.4 1238.75   5
  -6   0   6 77174.5 1206.94   3
  -6   0   7 52.6045 49.0899   5
  -6   0   7 40.9666 32.3681   3
  -6   0   8 46251.1 940.875   1
  -6   0   8 47652.6 913.494   5
  -6   0   8 45938.9 825.885   3
  -6   0   9 40.3650 41.2144   3
  -6   0   9-39.1407 56.0002   1
  -6   0  10 6558.65 247.891   3
  -6   0  10 7041.97 334.900   1
  -6   0  11 23.3238 39.5219   3
  -6   2 -12 14967.6 430.455   2
  -6  -2 -12 14627.2 453.081   2
  -6  -2 -11 128.843 57.7996   2
  -6   2  -9 4936.05 194.070   2
  -6  -2  -9 4912.31 206.808   2
  -6   2  -8 27589.3 523.391   2
  -6   2  -7 111.273 33.4456   2
  -6  -2  -6 30786.6 563.510   3
  -6   2  -6 31754.5 516.116   2
  -6  -2  -6 32379.2 685.052   1
  -6  -2  -5 3606.13 123.240   2
  -6   2  -5 3966.57 112.013   2
  -6  -2  -5 3879.01 200.646   1
  -6  -2  -5 3909.90 158.212   3
  -6  -2  -4 31757.9 504.863   2
  -6  -2  -4 31063.6 578.286   3
  -6  -2  -4 33822.4 675.880   1
  -6  -2  -3 3130.78 172.828   1
  -6  -2  -3 3062.10 105.259   2
  -6  -2  -2 21855.4 379.039   2
  -6  -2  -1 1565.58 83.0244   2
  -6   2  -1 1672.66 105.686   1
  -6   2   0 57238.8 936.625   5
  -6   2   0 56935.7 908.012   1
  -6  -2   0 57126.9 874.426   2
  -6   2   1 22656.4 454.977   5
  -6  -2   1 21811.9 445.163   2
  -6  -2   1 21746.5 362.286   5
  -6   2   1 22222.6 445.398   1
  -6   2   2 42826.3 726.431   1
  -6  -2   2 43086.8 764.388   2
  -6  -2   2 43812.3 670.564   5
  -6   2   2 44680.3 742.791   5
  -6  -2   3 321.233 65.3145   2
  -6   2   3 429.743 54.9661   1
  -6   2   3 426.247 60.7975   5
  -6  -2   3 418.652 50.3296   5
  -6   2   4 76617.8 1166.98   1
  -6  -2   4 77201.5 1262.01   2
  -6  -2   4 75406.4 1154.79   5
  -6   2   4 76708.5 1206.04   5
  -6  -2   5 626.962 69.3260   5
  -6   2   5 595.660 69.4779   1
  -6   2   5 571.738 74.1233   5
  -6   2   6 32405.8 681.710   5
  -6  -2   6 31785.3 736.724   1
  -6   2   6 31615.2 636.107   1
  -6  -2   6 31682.8 642.185   5
  -6   2   7 10901.5 364.567   5
  -6  -2   7 11005.5 349.278   5
  -6  -2   7 11381.1 408.339   1
  -6   2   7 10560.7 337.561   1
  -6  -2   8 15129.6 497.409   1
  -6   2   8 14382.5 416.894   1
  -6  -2   8 15124.2 441.496   5
  -6   2  10 11297.6 397.440   1
  -6   2  11 2411.48 188.347   1
  -6   2  12 7301.06 346.679   1
  -6  -2  12 7041.84 274.245   3
  -6  -4 -12 13107.9 459.712   2
  -6   4 -11 1759.59 143.971   2
  -6  -4  -9 5774.34 240.743   5
  -6   4  -8 19030.3 443.163   2
  -6  -4  -8 17865.9 380.374   3
  -6  -4  -7 4606.15 174.238   3
  -6  -4  -7 5370.26 250.729   1
  -6   4  -7 4667.94 186.445   2
  -6  -4  -6 28202.5 559.685   2
  -6  -4  -6 28592.5 546.198   5
  -6   4  -6 29213.0 543.337   2
  -6  -4  -6 28573.7 654.250   1
  -6  -4  -5 1260.59 85.4750   5
  -6  -4  -5 1203.68 92.1077   2
  -6  -4  -5 1267.05 122.797   1
  -6  -4  -4 6762.59 226.267   2
  -6  -4  -4 7118.80 287.216   1
  -6  -4  -4 6929.98 198.243   5
  -6  -4  -3 1701.38 141.953   1
  -6  -4  -3 1604.48 106.067   2
  -6  -4  -3 1501.46 85.3635   5
  -6  -4  -2 18111.7 357.850   5
  -6  -4  -2 17635.8 484.138   1
  -6  -4  -2 17384.1 404.034   2
  -6  -4  -1 3316.59 194.237   1
  -6  -4  -1 3648.38 166.132   2
  -6  -4  -1 3066.29 141.805   5
  -6   4   0 24371.7 598.947   5
  -6  -4   0 23681.1 515.303   5
  -6  -4   0 23554.9 511.827   2
  -6  -4   0 24528.3 587.875   1
  -6  -4   1 7713.24 269.186   2
  -6   4   1 7411.70 208.301   1
  -6   4   1 7552.41 300.297   5
  -6  -4   1 7678.03 301.737   1
  -6  -4   2 18728.7 473.497   2
  -6   4   2 19275.8 369.878   1
  -6   4   2 20036.0 507.563   5
  -6   4   3 19071.1 360.897   1
  -6  -4   3 19697.1 501.760   2
  -6   4   3 19960.2 504.670   5
  -6   4   4 45247.0 858.107   5
  -6  -4   4 43390.6 871.501   2
  -6   4   4 41526.1 655.597   1
  -6  -4   5 6255.82 303.736   1
  -6   4   5 6078.07 173.377   1
  -6  -4   5 5876.29 276.843   2
  -6   4   5 6271.09 274.572   5
  -6   4   6 19891.8 393.650   1
  -6  -4   6 21925.9 595.195   2
  -6  -4   6 21133.2 609.127   1
  -6   4   6 21261.7 560.414   5
  -6   4   7 6404.43 204.967   1
  -6  -4   7 6938.47 283.865   5
  -6   4   8 23896.5 493.886   1
  -6   4   9 10692.2 319.182   1
  -6   4  10 12098.7 362.262   1
  -6   6 -11 3181.75 205.349   2
  -6  -6 -11 3102.89 209.278   5
  -6   6 -10 10915.2 379.066   2
  -6  -6 -10 10736.4 381.613   5
  -6   6  -9 5316.26 251.780   2
  -6  -6  -9 5534.16 253.723   5
  -6   6  -8 17859.7 474.132   2
  -6  -6  -8 17563.8 466.478   5
  -6  -6  -8 17363.9 487.369   2
  -6  -6  -7 18650.5 491.145   2
  -6   6  -7 16781.0 450.115   2
  -6  -6  -7 18373.2 518.783   1
  -6  -6  -7 18144.8 458.056   5
  -6  -6  -6 18414.0 483.735   2
  -6  -6  -6 18103.8 515.736   1
  -6  -6  -5 8305.33 336.579   1
  -6  -6  -5 8424.51 306.551   2
  -6  -6  -4 13559.0 404.218   2
  -6  -6  -4 13523.5 442.234   1
  -6  -6  -3 10907.9 353.617   2
  -6  -6  -3 10370.0 318.592   5
  -6  -6  -3 11088.1 394.542   1
  -6  -6  -2 3129.21 173.177   5
  -6  -6  -2 3345.59 212.052   1
  -6  -6  -2 3536.81 198.463   2
  -6  -6  -1 13888.8 448.149   1
  -6  -6  -1 14306.8 417.372   2
  -6  -6  -1 13614.0 416.187   5
  -6   6   0 8381.16 375.211   5
  -6  -6   0 7936.90 328.322   1
  -6  -6   0 7332.84 314.600   5
  -6  -6   0 7529.23 297.080   2
  -6   6   1 4031.14 255.359   5
  -6  -6   1 3915.06 218.663   2
  -6  -6   1 4024.63 240.014   1
  -6  -6   2 11844.9 433.570   1
  -6  -6   2 12299.3 413.015   2
  -6   6   2 12543.9 460.390   5
  -6   6   3 26091.3 698.029   5
  -6  -6   3 26268.0 661.730   2
  -6  -6   3 24973.7 677.223   1
  -6  -6   4 14972.7 511.461   1
  -6  -6   4 15128.9 498.482   2
  -6   6   4 15734.1 519.808   5
  -6  -8 -11 5592.03 300.440   5
  -6  -8 -10 6131.41 307.801   5
  -6   8 -10 6993.24 329.223   2
  -6  -8  -9 10631.0 402.572   5
  -6   8  -9 12381.0 433.951   2
  -6  -8  -8 4840.34 255.043   5
  -6  -8  -7 1825.31 157.067   5
  -6  -8  -6 6604.09 312.091   1
  -6  -8  -6 6683.18 296.117   5
  -6  -8  -5 16345.0 513.877   1
  -6  -8  -5 16302.8 481.380   5
  -6  -8  -4 3699.53 239.712   1
  -6  -8  -4 3775.59 219.441   5
  -6  -8  -3 7724.86 340.382   2
  -6  -8  -3 7035.23 332.906   1
  -6  -8  -3 7292.68 315.104   5
  -6  -8  -2 1694.25 164.807   1
  -6  -8  -2 1472.26 150.560   5
  -6  -8  -2 1630.14 156.856   2
  -6  -8  -1 2510.50 201.090   5
  -6  -8  -1 2265.96 190.010   1
  -6  -8   0 13917.9 506.576   5
  -6  -8   0 14229.5 489.284   1
  -6  -8   1 27908.1 731.751   1
  -6  -8   1 28378.0 771.262   5
  -6  -8   2 3268.37 249.067   5
  -6  -8   3 12269.2 487.586   5
  -6 -10 -10 692.853 123.956   5
  -6 -10  -9 7989.41 380.010   5
  -6 -10  -8 1027.52 144.971   5
  -6 -10  -7 9085.54 396.962   5
  -6 -10  -6 5327.07 302.253   5
  -6 -10  -5 13469.5 498.695   5
  -6 -10  -4 56.5430 68.8288   5
  -6 -10  -3 7307.79 365.247   5
  -6 -10  -2 1575.72 179.548   5
  -6 -10  -1 7715.12 393.807   5
  -6 -10   0 242.917 94.7677   5
  -6 -10   1 10092.8 480.438   5
  -6 -10   2 16.3091 73.8066   5
  -6 -10   3 20092.1 713.968   5
  -6 -10   4 4083.16 323.929   5
  -6 -10   5 16922.6 678.395   5
  -6 -12  -8 1153.35 167.191   5
  -6 -12  -7 12726.6 534.873   5
  -6 -12  -6 556.483 133.294   5
  -6 -12  -5 8534.46 436.293   5
  -6 -12  -4 310.997 106.982   5
  -6 -12  -3 4702.20 327.989   5
  -6 -12  -2 127.037 94.8679   5
  -6 -12  -1 8930.44 471.930   5
  -6 -12   0 237.100 109.991   5
  -6 -12   1 2999.73 292.324   5
  -6 -12   2 215.334 119.076   5
  -6 -12   3 14448.2 658.196   5
  -6 -12   4 1030.25 189.123   5
  -6 -12   5 12602.9 646.805   5
  -6 -12   6 213.064 135.671   5
  -6 -12   7 6491.19 484.163   5
  -6 -12   8 325.926 146.761   5
  -6 -14  -5 6059.69 410.312   5
  -6 -14  -4 26.1035 95.2173   5
  -6 -14  -3 3276.80 303.320   5
  -6 -14  -2 852.648 172.895   5
  -6 -14  -1 4896.30 376.837   5
  -6 -14   0 268.109 129.428   5
  -6 -14   1 9758.79 558.041   5
  -6 -14   2 31.3425 106.354   5
  -6 -14   3 5497.11 435.291   5
  -5   1 -13 23892.6 626.676   2
  -5  -1 -13 24688.3 655.532   2
  -5   1 -12 739.754 103.198   2
  -5  -1 -12 526.038 94.4799   2
  -5  -1 -11 10915.1 373.377   2
  -5   1 -11 11697.5 369.483   2
  -5   1  -9 19168.3 444.681   2
  -5  -1  -9 18811.5 450.942   2
  -5  -1  -8 1425.91 104.744   2
  -5   1  -8 1473.83 101.503   2
  -5   1  -7 18723.4 383.241   2
  -5  -1  -7 18613.9 396.290   2
  -5  -1  -6 1962.05 97.7400   2
  -5   1  -6 2195.22 96.8185   2
  -5   1  -5 25318.6 408.926   2
  -5  -1  -5 25756.6 552.048   1
  -5  -1  -4 4701.08 196.981   1
  -5  -1  -4 4931.80 163.668   3
  -5   1  -4 5039.15 108.583   2
  -5  -1  -3 77483.0 1017.83   2
  -5  -1  -3 77516.3 1132.43   3
  -5  -1  -2 8903.50 160.573   2
  -5  -1  -2 9209.19 239.734   3
  -5  -1  -1 69832.0 948.418   2
  -5  -1   0 341.177 20.6207   5
  -5  -1   0 348.328 37.7983   2
  -5   1   0 372.188 50.1718   1
  -5   1   0 307.026 45.7259   3
  -5   1   0 350.556 41.6183   5
  -5   1   1 46057.1 691.657   5
  -5   1   1 44601.7 748.394   3
  -5   1   1 46468.6 745.080   1
  -5  -1   1 44881.0 714.147   2
  -5  -1   1 44288.9 638.939   5
  -5  -1   2 5269.18 185.108   2
  -5  -1   2 5023.92 142.083   5
  -5   1   2 5357.65 184.457   3
  -5   1   2 5300.63 181.510   1
  -5   1   2 5385.55 165.055   5
  -5   1   3 84755.4 1242.38   3
  -5  -1   3 82418.9 1193.94   5
  -5   1   3 85071.6 1232.37   5
  -5   1   3 84623.9 1251.53   1
  -5   1   4 90.0680 32.0873   3
  -5  -1   4 74.4648 33.7278   5
  -5   1   4 138.780 48.5685   1
  -5   1   4 104.056 36.5110   5
  -5  -1   4 138.513 57.2975   1
  -5   1   5 10771.4 311.041   1
  -5  -1   5 10419.4 292.061   5
  -5  -1   5 10853.4 344.466   1
  -5   1   5 10548.5 282.215   3
  -5   1   5 10522.3 304.305   5
  -5   1   6 343.404 50.4957   3
  -5   1   6 373.483 66.1013   1
  -5   1   6 324.956 59.6813   5
  -5  -1   6 371.444 60.1126   5
  -5   1   7 13304.3 293.442   3
  -5   1   7 13899.5 359.298   1
  -5   1   7 14094.3 370.400   5
  -5  -1   7 13562.1 353.283   5
  -5   1   8 8605.54 322.428   5
  -5   1   8 8232.17 252.563   3
  -5  -1   8 9040.28 322.107   5
  -5  -1   8 9109.83 352.491   1
  -5   1   9 6147.76 288.436   1
  -5  -1   9 12990.2 432.041   1
  -5  -1  10 49.1216 55.2487   1
  -5  -1  10 78.1460 37.8407   3
  -5   1  10 53.2918 53.0219   1
  -5  -1  11 9846.58 293.871   3
  -5   1  11 10015.6 397.597   1
  -5  -1  12 700.277 80.5763   3
  -5  -3 -13 10903.0 430.323   2
  -5   3 -13 11395.0 416.155   2
  -5   3 -12 1234.94 130.247   2
  -5  -3 -12 1261.70 143.283   2
  -5  -3 -11 16335.0 493.529   2
  -5   3 -11 17082.3 474.117   2
  -5   3  -8 5388.56 211.820   2
  -5  -3  -7 2928.32 119.323   3
  -5   3  -7 3262.92 151.072   2
  -5  -3  -6 2039.10 104.093   3
  -5   3  -6 2039.45 110.082   2
  -5  -3  -6 2129.32 144.304   1
  -5  -3  -6 2059.35 114.217   5
  -5   3  -5 21166.3 409.215   2
  -5  -3  -5 21494.2 412.677   5
  -5  -3  -5 20955.4 498.741   1
  -5  -3  -4 3718.14 142.014   2
  -5   3  -4 3883.55 135.035   2
  -5  -3  -4 3915.49 133.639   5
  -5  -3  -4 4134.45 195.280   1
  -5  -3  -3 36148.3 560.286   5
  -5  -3  -3 35392.7 599.833   2
  -5  -3  -3 35128.9 697.187   1
  -5  -3  -2 7309.46 209.829   2
  -5  -3  -2 7215.94 261.371   1
  -5  -3  -2 6929.67 171.601   5
  -5  -3  -1 82457.5 1278.66   1
  -5  -3  -1 79095.2 1163.98   2
  -5  -3  -1 77282.3 1129.72   5
  -5   3   0 11778.2 356.772   5
  -5  -3   0 9506.30 263.779   2
  -5   3   0 11849.9 266.739   1
  -5  -3   0 9555.96 263.237   5
  -5   3   1 123976. 1672.79   1
  -5   3   1 124601. 1808.48   5
  -5  -3   1 121924. 1752.91   2
  -5  -3   2 25449.6 530.299   2
  -5   3   2 25436.4 438.891   1
  -5   3   2 25706.6 531.482   5
  -5   3   3 34916.8 566.712   1
  -5  -3   3 35642.1 696.891   2
  -5   3   3 37088.1 685.812   5
  -5   3   4 775.230 83.4770   5
  -5   3   4 678.255 55.7235   1
  -5  -3   4 656.149 86.7890   2
  -5   3   5 13534.7 388.539   5
  -5   3   5 13430.6 299.116   1
  -5  -3   5 13163.9 409.662   2
  -5   3   6 157.461 42.9686   1
  -5  -3   6 133.997 48.7010   2
  -5  -3   6 165.051 56.7904   1
  -5  -3   6 193.134 55.6659   5
  -5   3   6 141.683 55.9711   5
  -5  -3   7 9422.63 377.520   2
  -5   3   7 9656.50 283.500   1
  -5   3   7 10174.8 358.187   5
  -5  -3   7 9624.43 330.739   5
  -5  -3   7 10293.2 395.179   1
  -5  -3   8 4421.96 230.875   5
  -5  -3   8 4483.09 268.527   1
  -5   3   8 4548.44 200.199   1
  -5   3   9 6010.97 246.933   1
  -5   3  11 27253.2 655.549   1
  -5   3  12 1670.41 157.111   1
  -5   5 -12 2092.84 180.001   2
  -5  -5 -11 8852.66 355.079   5
  -5   5 -11 8834.37 354.221   2
  -5  -5 -10 5700.47 269.988   5
  -5   5 -10 5740.72 268.365   2
  -5  -5  -9 9618.44 227.175   3
  -5  -5  -9 9630.92 339.539   5
  -5   5  -9 9779.35 341.748   2
  -5  -5  -8 2580.84 160.194   5
  -5  -5  -7 14659.7 423.773   1
  -5  -5  -6 13171.6 394.291   1
  -5  -5  -5 20950.6 484.731   2
  -5  -5  -5 21256.6 464.281   5
  -5  -5  -5 21106.7 522.187   1
  -5   5  -5 21145.2 473.017   2
  -5  -5  -4 4096.41 188.604   2
  -5  -5  -4 3938.94 171.917   5
  -5  -5  -4 4150.61 212.157   1
  -5  -5  -3 11420.2 332.285   2
  -5  -5  -3 11877.7 375.501   1
  -5  -5  -3 11232.2 308.762   5
  -5  -5  -2 4731.14 199.709   5
  -5  -5  -2 5402.74 245.344   1
  -5  -5  -2 5190.00 214.736   2
  -5  -5  -1 42727.1 784.004   2
  -5  -5  -1 38878.7 783.031   5
  -5  -5  -1 42706.0 831.894   1
  -5  -5   0 37971.7 754.095   2
  -5  -5   0 40651.5 813.852   1
  -5   5   0 42247.0 887.426   5
  -5  -5   0 39879.5 806.024   5
  -5  -5   1 26023.9 603.371   5
  -5  -5   1 25633.0 582.374   2
  -5  -5   1 25718.5 615.546   1
  -5   5   1 27468.3 673.595   5
  -5  -5   2 8885.38 315.340   2
  -5   5   2 8613.00 344.392   5
  -5  -5   2 8974.76 342.582   1
  -5  -5   3 13858.4 421.143   2
  -5   5   3 14553.4 444.165   5
  -5  -5   3 13439.0 439.045   1
  -5  -5   4 9353.98 371.141   1
  -5  -5   4 10004.8 362.970   2
  -5   5   4 9560.41 353.064   5
  -5   5   5 6845.85 300.296   5
  -5  -5   5 6399.95 306.286   1
  -5  -5   5 6721.68 305.376   2
  -5   5   6 10224.0 384.655   5
  -5  -5   6 10101.4 395.799   2
  -5  -5   6 10125.4 405.158   1
  -5   5   7 7060.49 263.500   4
  -5   5   7 6358.27 138.360   1
  -5   5   8 743.093 54.3223   1
  -5   5   8 749.906 95.0029   4
  -5   5   9 13607.9 434.734   4
  -5   5   9 13865.1 312.543   1
  -5   5  10 4973.05 190.526   1
  -5   5  11 6055.54 192.958   1
  -5  -7 -13 8483.97 394.328   5
  -5   7 -12 4181.90 268.770   2
  -5  -7 -12 3557.19 246.749   5
  -5  -7 -11 2121.84 187.626   5
  -5   7 -11 2212.44 191.331   2
  -5   7 -10 4212.27 250.443   2
  -5  -7 -10 4179.23 246.066   5
  -5  -7  -9 4567.35 252.327   5
  -5   7  -9 4761.29 259.459   2
  -5   7  -8 4230.05 234.896   2
  -5  -7  -8 4524.57 239.113   5
  -5  -7  -7 13017.7 430.966   2
  -5  -7  -7 13361.8 411.463   1
  -5  -7  -7 12826.2 408.928   5
  -5   7  -7 13350.7 421.894   2
  -5  -7  -6 6980.45 298.195   2
  -5   7  -6 6508.17 278.887   2
  -5  -7  -6 5888.68 265.690   5
  -5  -7  -6 6055.42 274.401   1
  -5  -7  -5 290.534 75.0615   2
  -5  -7  -5 319.391 74.0763   5
  -5  -7  -5 280.877 68.5139   1
  -5  -7  -4 20532.3 539.167   2
  -5  -7  -4 20519.9 548.292   1
  -5  -7  -4 19063.6 509.785   5
  -5  -7  -3 9547.36 355.524   2
  -5  -7  -3 10309.3 373.275   1
  -5  -7  -2 24000.4 604.162   2
  -5  -7  -2 22817.1 599.162   1
  -5  -7  -1 21638.0 581.678   1
  -5  -7  -1 22567.4 582.694   2
  -5  -7   0 20568.4 552.798   2
  -5  -7   0 19567.5 551.274   1
  -5  -7   1 9746.99 376.442   1
  -5  -7   1 9625.01 373.201   2
  -5  -7   1 9508.36 393.145   5
  -5   7   1 9834.02 431.658   5
  -5  -7   2 20244.0 574.924   2
  -5  -7   2 20078.2 591.804   5
  -5   7   2 21033.5 643.133   5
  -5  -7   2 19867.0 578.019   1
  -5  -7   3 31832.7 771.859   2
  -5   7   3 31908.8 832.159   5
  -5  -7   3 31108.5 772.201   1
  -5   7   4 5798.32 189.056   4
  -5  -7   4 5945.51 314.397   1
  -5   7   7 5469.42 234.017   4
  -5   7   8 8589.45 321.238   4
  -5   7   9 8612.13 339.760   4
  -5   7  10 3646.77 232.835   4
  -5   7  11 2636.59 213.502   4
  -5   7  12 10381.4 441.835   4
  -5  -9 -12 8315.70 404.957   5
  -5  -9 -11 3546.08 261.090   5
  -5   9 -11 3900.07 269.243   2
  -5  -9 -10 5717.28 316.086   5
  -5   9 -10 6263.85 332.650   2
  -5   9  -9 2543.31 209.936   2
  -5  -9  -9 2449.28 206.632   5
  -5  -9  -8 6533.18 325.610   5
  -5   9  -8 7673.32 351.316   2
  -5  -9  -7 237.187 81.1417   5
  -5  -9  -6 5053.20 281.331   5
  -5  -9  -6 5285.34 261.233   1
  -5  -9  -5 3608.82 226.158   1
  -5  -9  -5 3967.76 248.628   5
  -5  -9  -4 9807.78 386.313   1
  -5  -9  -4 10469.6 418.536   5
  -5  -9  -3 2082.16 188.483   5
  -5  -9  -3 2218.49 186.070   1
  -5  -9  -2 21313.4 652.410   5
  -5  -9  -2 22672.0 626.796   1
  -5  -9  -1 6180.42 344.422   5
  -5  -9  -1 5973.54 303.349   1
  -5  -9   0 11055.2 477.167   5
  -5  -9   0 11410.1 429.871   1
  -5  -9   1 7232.79 391.557   5
  -5  -9   1 7638.37 354.952   1
  -5  -9   2 30201.5 851.189   5
  -5  -9   3 1609.00 194.306   5
  -5   9   3 1876.81 92.6319   4
  -5   9   4 8813.88 246.541   4
  -5  -9   4 9640.54 460.320   5
  -5   9   6 2431.87 148.883   4
  -5   9   7 662.856 90.9638   4
  -5   9   8 8449.98 326.757   4
  -5   9   9 2615.40 192.254   4
  -5   9  10 2515.92 202.237   4
  -5   9  11 2840.28 226.410   4
  -5   9  12 8699.33 411.577   4
  -5 -11 -10 6123.81 364.653   5
  -5 -11  -9 78.6702 80.8060   5
  -5 -11  -8 3819.41 283.599   5
  -5 -11  -7 190.992 88.0140   5
  -5 -11  -6 10706.3 473.564   5
  -5 -11  -5 1059.24 158.958   5
  -5 -11  -4 7040.30 387.397   5
  -5 -11  -3 172.591 93.0709   5
  -5 -11  -2 11581.5 517.055   5
  -5 -11  -1 1543.35 198.045   5
  -5 -11   0 20942.8 737.163   5
  -5 -11   1 175.344 83.9670   5
  -5 -11   2 7465.63 451.943   5
  -5 -11   3 340.170 123.589   5
  -5 -11   4 18437.1 733.788   5
  -5 -11   5 3390.61 321.813   5
  -5 -11   6 8920.76 523.976   5
  -5  11   6 8288.67 288.605   4
  -5  11   7 45.9646 55.0818   4
  -5  11   8 4583.46 242.314   4
  -5  11   9 751.156 121.857   4
  -5 -13  -8 2343.19 250.811   5
  -5 -13  -7 73.9292 104.080   5
  -5 -13  -6 7635.74 447.328   5
  -5 -13  -5 1375.44 202.815   5
  -5 -13  -4 5630.09 384.200   5
  -5 -13  -3 252.478 119.081   5
  -5 -13  -2 8878.69 487.602   5
  -5 -13  -1 45.4123 112.891   5
  -5 -13   0 13543.3 621.161   5
  -5 -13   1 618.112 169.919   5
  -5 -13   2 8704.21 524.789   5
  -5 -13   3 1288.37 213.553   5
  -5 -13   4 4386.09 387.174   5
  -5 -13   5 130.700 135.015   5
  -5 -13   6 5025.28 436.057   5
  -4   0 -14 1262.06 152.064   2
  -4   0 -13 47.3826 67.8338   2
  -4   0 -12 12348.7 428.326   2
  -4   0 -11 49.4943 50.8868   2
  -4   0  -8 26934.8 547.065   2
  -4   0  -7 26.5433 36.2840   2
  -4   0  -6 101723. 1429.97   2
  -4   0  -5 10.3264 21.7592   2
  -4   0  -4 94979.6 1259.74   2
  -4   0  -2 83479.8 1176.18   3
  -4   0  -1 12.1611 24.3096   3
  -4   0   0 25718.4 368.288   5
  -4   0   0 26295.4 454.758   3
  -4   0   1 23.7082 23.8294   3
  -4   0   1 8.44407 15.3421   5
  -4   0   2 13996.3 323.492   1
  -4   0   2 13896.4 269.488   5
  -4   0   2 14158.7 302.726   3
  -4   0   3 36.5361 22.8091   5
  -4   0   3 19.6281 24.9291   3
  -4   0   3 53.8816 37.4975   1
  -4   0   4 20389.3 409.295   5
  -4   0   4 20344.3 442.139   1
  -4   0   4 20396.8 396.058   3
  -4   0   5 32.5510 27.4607   3
  -4   0   5 22.3963 37.0897   1
  -4   0   5 22.0540 30.2637   5
  -4   0   6 60374.9 984.548   5
  -4   0   6 56408.7 898.091   3
  -4   0   6 59861.5 1005.94   1
  -4   0   7 4.10498 24.8625   3
  -4   0   7 30.4382 36.8309   5
  -4   0   8 34274.5 601.451   3
  -4   0   8 34695.5 732.350   5
  -4   0   9 74.2953 38.3066   3
  -4   0  10 22094.5 441.210   3
  -4   0  11-23.4962 33.8333   3
  -4   2 -14 11570.5 444.380   2
  -4  -2 -14 11487.7 466.151   2
  -4  -2 -13 563.650 112.574   2
  -4   2 -13 470.595 97.8201   2
  -4  -2 -12 3998.66 245.046   2
  -4   2 -12 3772.63 225.022   2
  -4   2 -11 211.483 69.2021   2
  -4  -2 -11 220.365 67.7602   2
  -4  -2 -10 21854.6 561.138   2
  -4   2 -10 22495.2 544.001   2
  -4   2  -8 32857.3 637.027   2
  -4   2  -7 8110.81 248.912   2
  -4  -2  -6 31870.2 581.461   5
  -4  -2  -6 32521.9 506.936   3
  -4   2  -6 31837.8 569.154   2
  -4  -2  -5 2881.59 148.461   1
  -4  -2  -5 2780.89 117.882   5
  -4  -2  -5 2710.35 102.534   3
  -4   2  -5 2606.78 112.256   2
  -4  -2  -4 62408.8 1006.92   1
  -4  -2  -4 64395.3 909.089   5
  -4   2  -4 62057.1 903.250   2
  -4  -2  -3 2356.00 85.8134   5
  -4  -2  -3 2445.52 129.914   1
  -4   2  -3 2467.18 87.4976   2
  -4  -2  -2 40257.7 631.126   2
  -4  -2  -2 42367.9 594.510   5
  -4  -2  -2 43498.8 730.848   1
  -4  -2  -1 13994.2 249.237   5
  -4   2  -1 14635.6 302.880   1
  -4  -2  -1 13932.6 278.602   2
  -4   2   0 11695.8 300.002   5
  -4  -2   0 11533.2 255.605   2
  -4   2   0 11873.7 253.474   1
  -4   2   1 747.031 67.7772   5
  -4  -2   1 642.608 59.0340   2
  -4   2   1 759.790 53.9632   1
  -4   2   2 14195.7 278.378   1
  -4  -2   2 14247.7 334.471   2
  -4   2   2 14287.7 319.561   5
  -4   2   3 2350.02 98.0093   1
  -4   2   3 2279.70 119.339   5
  -4  -2   3 2337.11 131.742   2
  -4  -2   4 13978.3 379.129   2
  -4   2   4 14024.0 303.883   1
  -4   2   4 14578.9 355.601   5
  -4   2   5 425.475 70.7548   5
  -4   2   5 570.155 60.5839   1
  -4  -2   5 628.394 85.5278   2
  -4  -2   5 555.621 68.4149   5
  -4   2   6 46902.9 855.985   5
  -4  -2   6 45965.4 821.398   5
  -4  -2   6 46515.8 899.896   2
  -4   2   6 45401.5 776.736   1
  -4  -2   7 225.227 57.0252   5
  -4   2   7 272.782 53.1624   1
  -4   2   7 204.908 55.9950   5
  -4   2   8 39201.3 805.028   5
  -4   2   8 36856.8 725.590   1
  -4  -2   8 37247.0 775.504   5
  -4   4 -14 9170.84 405.365   2
  -4  -4 -14 8876.94 425.837   2
  -4   4 -13 723.998 115.881   2
  -4  -4 -13 763.001 131.963   2
  -4   4 -12 1964.32 173.000   2
  -4   4 -11 1894.09 160.216   2
  -4  -4 -10 13097.0 418.546   5
  -4   4 -10 13144.8 417.152   2
  -4   4  -9 13916.9 410.078   2
  -4  -4  -9 13485.3 405.226   5
  -4  -4  -8 25804.2 561.037   5
  -4  -4  -8 23938.8 402.509   3
  -4   4  -6 27005.3 559.677   2
  -4  -4  -6 27952.4 579.683   1
  -4   4  -5 18259.5 418.372   2
  -4  -4  -5 19393.6 446.840   1
  -4  -4  -5 18474.0 412.715   5
  -4  -4  -4 68730.1 1053.00   5
  -4  -4  -4 69071.2 1112.06   1
  -4   4  -4 68570.2 1057.43   2
  -4  -4  -3 3983.10 164.717   2
  -4  -4  -3 4572.60 194.840   1
  -4  -4  -3 4067.34 159.875   5
  -4  -4  -2 31360.9 632.043   1
  -4  -4  -2 31483.9 586.937   2
  -4  -4  -2 31308.8 573.924   5
  -4  -4  -1 895.815 88.4469   1
  -4  -4  -1 750.000 81.8550   5
  -4  -4  -1 943.523 83.5923   2
  -4   4   0 18804.0 494.996   5
  -4  -4   0 18165.6 443.335   1
  -4  -4   0 17715.0 410.019   2
  -4  -4   0 17419.2 439.874   5
  -4  -4   1 31666.0 629.070   2
  -4   4   1 32486.8 688.017   5
  -4  -4   1 33084.8 667.778   1
  -4   4   2 38635.2 752.177   5
  -4  -4   2 37225.7 716.414   2
  -4   4   3 10707.2 182.371   1
  -4   4   3 10535.8 336.382   5
  -4  -4   3 10911.9 338.210   2
  -4  -4   4 605.430 84.3097   2
  -4   4   4 693.877 33.1634   1
  -4   4   4 712.195 87.2883   5
  -4   4   4 701.931 64.4181   4
  -4  -4   5 707.591 92.6581   2
  -4   4   5 563.740 37.3831   1
  -4   4   5 554.464 62.8639   4
  -4   4   5 655.348 90.2024   5
  -4  -4   6 36713.6 802.238   2
  -4   4   6 37776.0 774.529   5
  -4   4   6 35571.1 563.240   1
  -4   4   7 15517.2 414.400   4
  -4   4   7 15493.1 330.158   1
  -4   4   7 16642.3 480.697   5
  -4  -4   7 16707.1 521.978   1
  -4  -4   7 15512.7 498.786   2
  -4   4   8 38065.1 665.048   1
  -4   4   8 37663.9 765.419   4
  -4   4   9 1055.94 92.3060   1
  -4   4   9 1092.30 119.617   4
  -4   4  10 9420.86 369.009   4
  -4   4  10 9276.30 305.271   1
  -4   4  11 964.963 131.999   4
  -4   4  12 19022.9 603.203   4
  -4   4  13 3518.18 188.094   1
  -4   6 -13 1671.48 177.891   2
  -4  -6 -13 1758.33 183.965   5
  -4  -6 -12 4963.07 286.618   5
  -4   6 -12 4865.51 286.112   2
  -4   6 -11 2047.43 181.600   2
  -4  -6 -11 1723.28 164.605   5
  -4   6 -10 5195.69 274.537   2
  -4  -6 -10 5286.18 272.722   5
  -4  -6  -9 11418.6 392.643   5
  -4   6  -9 12413.3 418.815   2
  -4   6  -8 10717.9 373.016   2
  -4  -6  -8 10159.5 358.924   5
  -4  -6  -7 11314.7 345.813   1
  -4   6  -7 11531.9 373.782   2
  -4  -6  -7 10857.1 359.043   5
  -4  -6  -6 39321.2 751.388   1
  -4  -6  -6 37221.8 763.540   5
  -4   6  -6 39243.2 777.638   2
  -4  -6  -5 12695.3 369.342   1
  -4  -6  -5 12849.9 388.032   2
  -4  -6  -4 9478.12 320.267   1
  -4  -6  -4 8931.09 314.893   2
  -4  -6  -3 24200.7 573.338   1
  -4  -6  -3 25252.8 569.263   2
  -4  -6  -2 13113.8 394.994   1
  -4  -6  -2 13410.5 392.145   2
  -4  -6  -1 2109.29 170.418   5
  -4  -6  -1 2152.87 151.917   1
  -4  -6  -1 2361.18 157.417   2
  -4  -6   0 12792.7 398.882   2
  -4  -6   0 12488.3 391.498   1
  -4   6   0 13324.7 467.558   5
  -4   6   1 7290.23 337.347   5
  -4  -6   1 7138.65 293.750   1
  -4  -6   1 6824.17 281.949   2
  -4   6   2 7225.22 330.752   5
  -4  -6   2 6586.18 287.071   1
  -4  -6   2 7107.35 295.006   2
  -4   6   2 6693.41 162.040   4
  -4  -6   3 2175.26 168.698   2
  -4   6   3 1849.08 167.475   5
  -4  -6   3 1861.89 159.630   1
  -4   6   3 2051.59 97.5383   4
  -4   6   4 15972.7 504.201   5
  -4  -6   4 16019.5 499.067   2
  -4  -6   4 16237.0 499.552   1
  -4   6   4 15570.0 347.943   4
  -4  -6   5 3548.48 229.034   2
  -4  -6   5 3245.18 222.707   1
  -4   6   5 3377.71 223.252   5
  -4   6   7 23791.1 548.291   4
  -4   6   8 19754.5 516.236   4
  -4   6   9 4794.89 248.871   4
  -4   6  10 14755.1 475.665   4
  -4   6  10 12807.1 238.873   1
  -4   6  11 11058.7 434.299   4
  -4   6  12 1570.87 174.158   4
  -4   6  13 5331.17 331.470   4
  -4   6  14 5416.80 347.771   4
  -4  -8 -14 1666.49 204.552   5
  -4  -8 -13 2486.38 237.442   5
  -4   8 -12 2371.40 212.785   2
  -4  -8 -12 2154.18 202.468   5
  -4  -8 -11 6658.73 342.816   5
  -4   8 -11 7035.65 357.528   2
  -4   8 -10 2490.04 205.374   2
  -4  -8 -10 2115.32 193.901   5
  -4  -8  -9 5535.85 296.844   5
  -4   8  -9 5565.22 299.637   2
  -4   8  -8 4654.46 265.080   2
  -4  -8  -8 4337.11 255.503   5
  -4  -8  -7 15115.8 412.412   1
  -4   8  -7 15395.0 487.643   2
  -4  -8  -7 14419.7 479.850   5
  -4  -8  -6 10018.1 335.188   1
  -4  -8  -6 10257.0 391.526   5
  -4   8  -6 9962.93 376.629   2
  -4  -8  -5 22440.7 609.340   5
  -4  -8  -5 21930.2 545.545   1
  -4  -8  -4 1786.86 164.189   5
  -4  -8  -4 1799.05 148.992   1
  -4  -8  -3 19060.9 538.355   2
  -4  -8  -3 16171.0 521.510   5
  -4  -8  -3 17189.7 495.208   1
  -4  -8  -2 7114.20 302.134   1
  -4  -8  -2 6283.48 317.972   5
  -4  -8  -2 6772.75 311.185   2
  -4  -8  -1 28644.6 709.418   2
  -4  -8  -1 28063.7 673.611   1
  -4  -8  -1 26917.6 742.015   5
  -4  -8   0 5946.27 336.742   5
  -4  -8   0 6518.66 309.674   2
  -4  -8   0 5759.41 279.384   1
  -4   8   1 4398.53 107.641   4
  -4  -8   1 4756.61 258.864   1
  -4  -8   1 5033.09 310.140   5
  -4   8   2 2522.85 97.3416   4
  -4  -8   2 3095.42 235.730   5
  -4  -8   2 2492.07 194.201   1
  -4   8   3 5413.38 170.903   4
  -4  -8   3 5562.74 296.288   1
  -4  -8   3 5728.61 327.702   5
  -4   8   4 10889.7 284.156   4
  -4   8   6 3874.88 187.856   4
  -4   8   7 11423.2 360.660   4
  -4   8   8 7933.37 315.539   4
  -4   8   9 10301.6 382.434   4
  -4   8  10 7212.87 333.245   4
  -4   8  11 7202.23 355.438   4
  -4   8  12 1423.89 176.798   4
  -4   8  13 5418.93 337.631   4
  -4   8  14 1892.99 223.334   4
  -4 -10 -12 151.471 94.1563   5
  -4  10 -12 423.412 129.126   2
  -4  10 -11 7565.63 397.172   2
  -4 -10 -11 6234.31 368.747   5
  -4  10 -10 467.438 119.554   2
  -4 -10 -10 758.599 147.518   5
  -4 -10  -9 8699.15 417.852   5
  -4  10  -9 9366.53 427.963   2
  -4  10  -8 1033.77 140.439   2
  -4 -10  -8 1061.30 151.752   5
  -4 -10  -7 14991.5 554.083   5
  -4 -10  -6 552.578 110.916   5
  -4 -10  -5 9734.60 353.845   1
  -4 -10  -5 9612.06 433.906   5
  -4 -10  -4 8264.13 337.390   1
  -4 -10  -4 8396.63 406.484   5
  -4 -10  -3 12401.8 435.837   1
  -4 -10  -3 12151.0 499.145   5
  -4 -10  -2 2811.92 245.203   5
  -4 -10  -2 2704.20 201.929   1
  -4 -10  -1 12083.1 512.109   5
  -4 -10  -1 11336.4 425.490   1
  -4 -10   0 564.221 106.587   1
  -4 -10   0 887.055 154.794   5
  -4  10   1 3953.84 108.089   4
  -4 -10   1 4239.85 316.851   5
  -4  10   2 4288.16 138.048   4
  -4 -10   2 4589.24 330.833   5
  -4  10   3 9892.72 255.919   4
  -4 -10   3 11010.7 523.630   5
  -4 -10   4 221.461 96.2524   5
  -4 -10   5 14514.8 621.999   5
  -4  10   6 4722.07 219.964   4
  -4  10   7 12998.2 403.879   4
  -4  10   8 4142.83 233.450   4
  -4  10   9 7475.06 336.729   4
  -4  10  10 480.424 98.7795   4
  -4  10  11 8044.10 386.840   4
  -4  10  12 2204.85 216.450   4
  -4  10  13 4800.86 333.298   4
  -4 -12 -10 530.355 140.335   5
  -4 -12  -9 8260.41 456.126   5
  -4 -12  -8-73.0320 90.4299   5
  -4 -12  -7 8285.64 456.156   5
  -4 -12  -6-15.9315 91.2239   5
  -4 -12  -5 10760.8 521.297   5
  -4 -12  -4 50.5309 89.2106   5
  -4 -12  -3 14335.3 601.537   5
  -4 -12  -2-118.520 99.6869   5
  -4 -12  -1 7653.11 443.371   5
  -4 -12   0-28.9067 87.6626   5
  -4 -12   1 7486.82 456.629   5
  -4 -12   2 30.5067 112.598   5
  -4 -12   3 7184.07 468.221   5
  -4 -12   4 2300.16 271.801   5
  -4 -12   5 6222.96 456.999   5
  -4 -12   6 203.091 132.166   5
  -4 -12   7 19516.7 844.641   5
  -4 -12   8 696.831 199.398   5
  -4 -14  -5 7382.85 470.414   5
  -4 -14  -4 24.1454 111.610   5
  -4 -14  -3 5590.04 416.620   5
  -4 -14  -2 188.521 119.803   5
  -4 -14  -1 9692.24 541.742   5
  -4 -14   0-36.0979 105.352   5
  -4 -14   1 5995.97 438.716   5
  -4 -14   2 235.292 134.260   5
  -4 -14   3 5750.61 457.433   5
  -3   1 -15 10135.9 450.003   2
  -3  -1 -15 10159.8 457.072   2
  -3  -1 -14 1639.88 181.469   2
  -3   1 -14 1950.30 194.377   2
  -3   1 -13 11261.2 433.706   2
  -3  -1 -13 10878.5 434.481   2
  -3  -1 -12 491.564 98.9547   2
  -3   1 -12 386.474 95.3505   2
  -3  -1 -11 44782.4 933.516   2
  -3   1 -11 45701.3 924.048   2
  -3   1 -10 3266.28 191.786   2
  -3  -1 -10 2866.96 190.573   2
  -3   1  -8 213.908 54.8586   2
  -3  -1  -8 168.620 47.4204   2
  -3   1  -7 17864.9 407.597   2
  -3   1  -6 1664.92 99.4907   2
  -3   1  -5 22088.4 411.772   2
  -3  -1  -4 23864.1 458.683   1
  -3  -1  -4 23913.3 406.002   5
  -3  -1  -4 23068.0 376.077   3
  -3   1  -4 23661.0 396.774   2
  -3  -1  -3 15213.2 270.602   5
  -3  -1  -3 15729.0 277.587   3
  -3   1  -3 15172.1 259.568   2
  -3  -1  -3 15877.0 331.217   1
  -3  -1  -2 181.378 18.9050   5
  -3   1  -2 185.026 18.1898   2
  -3  -1  -1 46642.6 641.490   2
  -3  -1   0 2808.57 88.5165   2
  -3   1   0 2834.21 101.226   5
  -3  -1   1 79164.8 1101.21   2
  -3   1   1 79052.3 1086.53   1
  -3   1   1 78734.4 1080.35   5
  -3  -1   2 759.738 49.0350   5
  -3   1   2 744.238 60.8595   5
  -3   1   2 885.199 62.6029   3
  -3  -1   2 835.465 65.3644   2
  -3   1   2 992.268 62.3146   1
  -3  -1   3 30020.8 508.826   5
  -3   1   3 30997.5 499.551   3
  -3  -1   3 30878.8 562.932   2
  -3   1   3 30863.1 511.113   1
  -3   1   3 30436.4 527.086   5
  -3   1   4 15704.1 347.430   5
  -3   1   4 16459.7 335.230   1
  -3   1   4 15446.8 304.108   3
  -3  -1   4 15301.4 339.500   5
  -3  -1   4 15823.9 375.927   1
  -3  -1   5 98749.5 1438.49   5
  -3   1   5 98125.5 1447.00   5
  -3   1   5 97513.7 1354.51   3
  -3   1   6 445.771 45.2225   3
  -3  -1   6 458.234 67.4361   5
  -3   1   6 342.377 56.8611   5
  -3   1   7 34882.0 699.037   5
  -3  -1   7 35115.4 697.710   5
  -3  -1   8 94.2769 44.2498   5
  -3   1   8 39.0445 36.6593   5
  -3  -1  11 27503.6 499.496   3
  -3  -1  12 2853.06 120.729   3
  -3   3 -15 6148.24 347.078   2
  -3  -3 -15 5893.14 359.967   2
  -3   3 -14 1368.09 162.842   2
  -3  -3 -14 1138.89 163.110   2
  -3   3 -13 19486.4 589.902   2
  -3  -3 -13 18720.2 610.636   2
  -3   3 -12 2590.66 197.863   2
  -3  -3 -12 2477.71 203.334   2
  -3   3 -11 23792.1 612.497   2
  -3  -3 -10 4157.21 223.171   5
  -3   3 -10 4223.15 222.560   2
  -3   3  -9 32454.3 690.271   2
  -3  -3  -9 33170.4 692.522   5
  -3  -3  -8 2237.33 140.807   5
  -3  -3  -7 38052.2 541.943   3
  -3   3  -7 38113.9 708.543   2
  -3  -3  -6 3789.43 163.623   5
  -3   3  -6 3990.12 169.124   2
  -3   3  -5 6883.69 217.576   2
  -3  -3  -5 6846.72 214.730   5
  -3  -3  -5 6588.12 214.943   1
  -3   3  -4 4263.76 155.428   2
  -3  -3  -4 4299.11 165.685   1
  -3  -3  -4 4323.96 154.354   5
  -3  -3  -3 45353.3 748.185   1
  -3   3  -3 45246.6 713.940   2
  -3  -3  -3 44830.1 708.160   5
  -3  -3  -2 3827.64 137.902   5
  -3   3  -2 4012.12 138.089   2
  -3  -3  -2 4119.37 144.615   2
  -3  -3  -2 4245.89 165.018   1
  -3  -3  -1 13094.1 297.317   2
  -3  -3  -1 12998.1 307.655   5
  -3  -3  -1 13608.8 325.465   1
  -3  -3   0 9349.06 262.392   5
  -3  -3   0 8857.76 242.311   2
  -3  -3   0 9303.02 261.780   1
  -3   3   0 9259.18 289.324   5
  -3   3   1 34747.0 644.014   5
  -3  -3   1 33807.7 606.314   2
  -3   3   2 24856.0 360.825   1
  -3   3   2 25456.7 506.666   5
  -3  -3   2 24892.0 501.934   2
  -3   3   2 25155.7 401.311   4
  -3   3   3 53682.9 901.431   5
  -3   3   3 55366.0 811.439   4
  -3  -3   3 54955.9 923.837   2
  -3   3   3 54303.1 729.731   1
  -3   3   4 1273.89 104.693   5
  -3  -3   4 1336.58 109.818   2
  -3   3   4 1288.20 83.3027   4
  -3   3   4 1192.27 56.7281   1
  -3   3   5 28159.1 537.437   4
  -3   3   5 28815.9 470.014   1
  -3  -3   5 28995.3 628.785   2
  -3   3   5 28475.0 599.163   5
  -3   3   6 15243.1 322.017   1
  -3  -3   6 15343.4 449.359   2
  -3   3   6 15125.5 415.646   5
  -3   3   7 24589.2 588.419   5
  -3   3   7 24862.4 548.280   4
  -3  -3   7 25446.7 632.123   2
  -3  -3   8 1245.32 119.263   5
  -3   3   8 1069.20 119.425   5
  -3   3   8 1005.85 105.574   4
  -3  -3   8 1206.07 130.679   2
  -3   3   9 9763.90 350.945   4
  -3   3  10 3523.53 217.245   4
  -3   3  11 10079.6 400.838   4
  -3   3  12 3693.34 253.965   4
  -3   3  13 15162.5 552.762   4
  -3   3  14 758.496 111.011   1
  -3  -5 -15 4052.25 310.379   2
  -3   5 -14 3539.69 260.646   2
  -3   5 -13 10833.9 449.846   2
  -3  -5 -12 9992.25 408.925   5
  -3   5 -12 10598.3 422.563   2
  -3   5 -11 15512.1 501.993   2
  -3  -5 -11 15362.1 492.728   5
  -3   5 -10 6850.07 308.058   2
  -3  -5 -10 6463.16 294.676   5
  -3   5  -9 9506.28 352.734   2
  -3  -5  -9 9344.51 345.845   5
  -3   5  -8 19410.7 511.059   2
  -3  -5  -8 18869.9 499.043   5
  -3  -5  -7 17177.3 441.496   5
  -3   5  -7 13733.0 411.905   2
  -3  -5  -6 6888.66 232.859   1
  -3  -5  -5 11224.3 306.565   1
  -3  -5  -4 209.296 42.6598   1
  -3  -5  -4 296.654 60.2482   5
  -3   5  -4 248.062 52.0704   2
  -3  -5  -3 5517.21 221.820   5
  -3  -5  -3 5671.41 217.538   1
  -3   5  -3 5899.89 218.058   2
  -3  -5  -3 5787.91 219.130   2
  -3  -5  -2 11378.4 320.471   2
  -3  -5  -2 10873.3 313.361   1
  -3  -5  -2 10359.8 328.933   5
  -3  -5  -1 32377.4 639.086   2
  -3  -5  -1 28536.6 660.814   5
  -3  -5  -1 32091.5 626.737   1
  -3  -5   0 2231.94 141.954   1
  -3   5   0 2349.61 173.901   5
  -3  -5   0 2520.68 174.207   5
  -3  -5   0 2129.81 143.626   2
  -3  -5   1 33605.8 679.906   1
  -3  -5   1 34094.5 690.271   2
  -3  -5   1 34777.6 726.401   5
  -3   5   1 34262.6 489.775   4
  -3   5   1 33935.9 756.072   5
  -3   5   2 17444.1 310.808   4
  -3  -5   2 17106.9 450.666   1
  -3  -5   2 17241.0 452.454   2
  -3   5   2 17875.9 493.054   5
  -3   5   3 41845.7 661.299   4
  -3  -5   3 41675.9 822.456   2
  -3  -5   3 41635.1 826.535   1
  -3   5   3 43711.2 855.290   5
  -3   5   4 28740.7 656.723   5
  -3  -5   4 28632.7 660.759   1
  -3   5   4 28031.5 515.781   4
  -3  -5   4 28522.7 660.253   2
  -3   5   5 26893.4 630.445   5
  -3  -5   5 25686.9 642.396   1
  -3   5   5 24789.8 508.139   4
  -3  -5   5 26284.2 644.687   2
  -3   5   6 2598.69 182.926   5
  -3  -5   6 2629.35 191.032   2
  -3   5   7 14311.5 251.777   1
  -3   5   7 13414.1 228.739   1
  -3  -5   7 13764.3 473.428   2
  -3   5   7 13706.0 384.895   4
  -3   5   7 14856.8 471.995   5
  -3   5   8 3726.25 202.094   4
  -3   5   8 3778.45 132.430   1
  -3   5   8 3646.22 112.732   1
  -3   5   9 9024.86 219.579   1
  -3   5   9 9719.18 355.291   4
  -3   5   9 9271.94 254.082   1
  -3   5  10 4457.54 158.505   1
  -3   5  10 4250.53 245.539   4
  -3   5  11 9785.72 404.199   4
  -3   5  11 9809.65 271.292   1
  -3   5  12 2570.17 212.930   4
  -3   5  12 2315.48 134.675   1
  -3   5  13 8747.88 416.592   4
  -3   5  14 6475.52 377.788   4
  -3  -7 -14 5726.83 351.767   5
  -3   7 -14 6071.76 365.226   2
  -3   7 -13 3710.05 280.398   2
  -3  -7 -13 3425.38 261.586   5
  -3  -7 -12 5188.08 307.424   5
  -3   7 -12 5970.56 331.537   2
  -3  -7 -11 11950.3 458.691   5
  -3   7 -11 12899.2 480.359   2
  -3   7 -10 15123.6 513.289   2
  -3  -7 -10 14660.0 494.406   5
  -3  -7  -9 10272.9 397.239   5
  -3   7  -9 10122.4 398.132   2
  -3   7  -8 7854.53 336.830   2
  -3  -7  -8 7566.40 329.362   5
  -3   7  -7 10389.5 380.544   2
  -3  -7  -7 9997.00 373.977   5
  -3  -7  -6 5400.52 264.144   5
  -3   7  -6 5472.39 262.936   2
  -3  -7  -6 5661.17 214.848   1
  -3   7  -5 7406.67 299.193   2
  -3  -7  -5 7131.23 253.582   1
  -3  -7  -5 7954.92 312.049   2
  -3  -7  -5 7295.29 309.721   5
  -3  -7  -4 19089.6 504.272   2
  -3  -7  -4 17282.5 504.038   5
  -3   7  -4 18887.0 495.692   2
  -3  -7  -4 17707.1 447.378   1
  -3  -7  -3 1700.91 129.058   1
  -3  -7  -3 1589.97 146.332   5
  -3  -7  -3 1911.90 146.510   2
  -3  -7  -2 12995.1 379.101   1
  -3   7  -2 11893.3 197.087   4
  -3  -7  -2 10207.8 398.246   5
  -3  -7  -2 12674.7 399.474   2
  -3  -7  -1 8160.92 293.687   1
  -3  -7  -1 8056.82 317.731   2
  -3  -7   0 10383.8 414.567   5
  -3  -7   0 10222.2 350.665   1
  -3  -7   0 10806.3 378.556   2
  -3  -7   1 23879.1 590.718   1
  -3  -7   1 25037.4 632.318   2
  -3  -7   1 25249.6 696.479   5
  -3   7   1 26363.8 717.796   5
  -3   7   2 11844.5 462.288   5
  -3  -7   2 11496.5 397.889   1
  -3  -7   2 11369.1 438.355   5
  -3  -7   2 12261.5 420.647   2
  -3   7   3 12391.9 471.363   5
  -3  -7   3 12457.2 424.587   1
  -3  -7   3 12462.1 438.468   2
  -3   7   4 4630.05 178.252   4
  -3  -7   4 4961.44 267.844   1
  -3  -7   4 4843.68 275.669   2
  -3   7   4 4849.31 290.371   5
  -3  -7   5 24013.3 670.669   1
  -3   7   6 18332.4 448.457   4
  -3   7   7 2179.41 151.862   4
  -3   7   8 6275.63 276.036   4
  -3   7   9 486.917 93.4537   4
  -3   7  10 6119.42 303.115   4
  -3   7  11 8802.18 386.848   4
  -3   7  12 10837.8 454.991   4
  -3   7  13 1151.29 163.956   4
  -3   7  14 4333.86 313.546   4
  -3  -9 -13 2243.87 226.356   5
  -3   9 -13 2906.60 259.416   2
  -3   9 -12 9413.39 450.284   2
  -3  -9 -12 8588.20 428.713   5
  -3   9 -11 2254.92 219.252   2
  -3  -9 -11 2311.13 219.894   5
  -3   9 -10 17944.6 604.561   2
  -3  -9 -10 17055.1 587.269   5
  -3   9  -9 516.818 107.022   2
  -3  -9  -9 653.810 121.295   5
  -3  -9  -8 7872.30 377.704   5
  -3   9  -8 7601.48 360.744   2
  -3   9  -7 3256.44 231.021   2
  -3  -9  -7 3108.84 237.543   5
  -3  -9  -6 6107.44 232.705   1
  -3   9  -6 6172.54 308.982   2
  -3  -9  -6 5554.25 310.106   5
  -3  -9  -5 1890.88 184.907   5
  -3  -9  -5 1514.67 121.946   1
  -3  -9  -4 8678.84 398.668   5
  -3  -9  -4 9177.67 323.093   1
  -3  -9  -3 2340.19 209.813   5
  -3  -9  -3 2466.92 172.362   1
  -3   9  -3 2520.10 84.5324   4
  -3  -9  -2 5992.21 271.936   1
  -3   9  -2 5490.60 125.327   4
  -3  -9  -2 5136.41 314.239   5
  -3  -9  -1 5909.70 343.100   5
  -3  -9  -1 5823.34 275.280   1
  -3  -9   0 16786.7 609.199   5
  -3  -9   0 16955.3 504.007   1
  -3  -9   1 5145.04 332.605   5
  -3  -9   1 4909.82 268.077   1
  -3  -9   2 18427.5 641.510   5
  -3  -9   2 16949.8 534.507   1
  -3  -9   3 9919.52 407.004   1
  -3  -9   3 9226.94 449.113   5
  -3  -9   4 11917.7 520.289   5
  -3   9   5 2626.92 149.711   4
  -3   9   6 33109.4 684.562   4
  -3   9   7 4717.91 232.871   4
  -3   9   8 2951.63 197.961   4
  -3   9   9 2452.03 188.832   4
  -3   9  10 4885.45 280.806   4
  -3   9  11 355.745 100.205   4
  -3   9  12 9261.66 435.488   4
  -3   9  13 3550.09 280.110   4
  -3  11 -11 365.536 118.757   2
  -3 -11 -11 333.370 124.055   5
  -3  11 -10 10157.7 480.505   2
  -3 -11 -10 9003.74 468.772   5
  -3 -11  -9 0.32637 79.1937   5
  -3  11  -9 119.779 81.0062   2
  -3  11  -8 13236.4 525.762   2
  -3 -11  -8 11147.8 515.375   5
  -3 -11  -7 1305.99 179.595   5
  -3 -11  -6 7538.31 413.848   5
  -3 -11  -5-106.533 99.9897   5
  -3 -11  -4 2520.16 238.391   5
  -3 -11  -3 1363.74 188.917   5
  -3 -11  -3 1513.65 150.027   1
  -3 -11  -2 20589.5 583.347   1
  -3 -11  -2 20469.9 720.600   5
  -3 -11  -1 3465.40 230.627   1
  -3 -11  -1 3941.78 304.694   5
  -3 -11   0 7138.33 341.085   1
  -3 -11   0 8074.75 444.300   5
  -3 -11   1 102.675 87.1635   5
  -3 -11   2 9718.53 511.491   5
  -3 -11   3 2898.06 288.362   5
  -3 -11   4 25006.2 875.806   5
  -3 -11   5 1084.65 195.318   5
  -3  11   5 851.422 96.2902   4
  -3  11   6 5844.53 257.715   4
  -3 -11   6 6945.25 457.331   5
  -3  11   7 150.136 65.2134   4
  -3  11   8 4881.06 261.348   4
  -3  11   9 729.814 117.300   4
  -3  11  10 4782.83 290.997   4
  -3  11  11 82.8895 75.8692   4
  -3  11  12 5189.24 336.377   4
  -3 -13  -8 6883.67 444.501   5
  -3 -13  -7 57.9609 105.635   5
  -3 -13  -6 4753.71 366.553   5
  -3 -13  -5-67.4989 102.070   5
  -3 -13  -4 4489.42 358.889   5
  -3 -13  -3 467.955 125.067   5
  -3 -13  -2 10074.6 534.484   5
  -3 -13  -1 107.563 112.621   5
  -3 -13   0 7672.02 472.754   5
  -3 -13   1 678.593 165.648   5
  -3 -13   2 14695.1 686.047   5
  -3 -13   3-2.35603 126.306   5
  -3 -13   4 10740.4 608.616   5
  -3 -13   5 991.834 218.380   5
  -3 -13   6 8472.53 566.177   5
  -2   0 -16 14495.3 584.429   2
  -2   0 -15 192.365 96.1699   2
  -2   0 -14 19565.3 633.765   2
  -2   0 -13 27.2428 66.6729   2
  -2   0 -12 17435.1 547.108   2
  -2   0 -11 57.4494 64.6738   2
  -2   0 -10 15931.5 464.056   2
  -2   0  -7 72.8940 41.5343   2
  -2   0  -6 2909.85 137.024   2
  -2   0  -5-3.19720 25.2302   2
  -2   0  -4 82684.2 1153.87   2
  -2   0  -3 28.6353 20.1080   2
  -2   0  -1 13.4803 11.6651   3
  -2   0   0 70629.3 948.648   3
  -2   0   1 23.6526 12.4169   5
  -2   0   2 52080.3 737.877   5
  -2   0   3 12.1060 20.6097   5
  -2   0   4 897.607 68.6832   5
  -2   0   5 36.7988 31.4642   5
  -2   0   6 47644.6 822.660   5
  -2   0   7 44.1971 37.1380   5
  -2   0   7 24.2703 19.0358   3
  -2   0   8 32555.3 680.820   5
  -2   0   8 33165.2 499.816   3
  -2   0   9 28.8594 48.1067   5
  -2   0   9 67.0004 53.7967   4
  -2   0   9 5.90825 17.4862   3
  -2   2 -16 15558.0 598.982   2
  -2  -2 -16 15092.8 608.789   2
  -2  -2 -15 1844.05 211.192   2
  -2   2 -15 2179.28 217.478   2
  -2   2 -14 13517.1 513.131   2
  -2  -2 -14 13600.0 531.259   2
  -2  -2 -13 3292.50 246.999   2
  -2   2 -13 3366.71 237.980   2
  -2   2 -12 9095.21 376.708   2
  -2  -2 -12 8778.64 386.766   2
  -2   2 -11 1475.10 145.259   2
  -2  -2 -11 1355.44 145.071   2
  -2   2 -10 14258.7 439.789   2
  -2   2  -9 2495.22 165.767   2
  -2  -2  -9 2454.11 159.299   5
  -2  -2  -8 18559.2 455.549   5
  -2   2  -7 272.638 53.0574   2
  -2  -2  -6 27453.6 520.880   5
  -2   2  -6 25386.6 522.284   2
  -2   2  -5 2140.55 111.487   2
  -2  -2  -5 1906.02 104.193   5
  -2  -2  -4 66596.6 979.185   1
  -2   2  -4 66118.7 978.816   2
  -2  -2  -4 65974.8 974.378   5
  -2  -2  -3 58305.0 871.956   1
  -2   2  -3 60129.7 863.736   2
  -2  -2  -3 58407.8 859.056   5
  -2  -2  -2 109007. 1491.77   1
  -2   2  -2 110022. 1466.71   2
  -2  -2  -2 108879. 1462.71   5
  -2  -2  -1 3447.40 122.292   1
  -2  -2  -1 3165.50 108.793   5
  -2  -2  -1 2937.60 102.469   2
  -2  -2   0 35892.1 572.064   5
  -2   2   0 35837.9 610.947   5
  -2  -2   0 34974.0 558.754   2
  -2   2   1 5373.90 107.070   4
  -2   2   1 5170.64 100.960   1
  -2  -2   1 5132.19 153.990   2
  -2   2   1 5357.87 163.125   5
  -2   2   2 30911.1 464.391   4
  -2  -2   2 29846.9 530.359   2
  -2   2   2 30750.8 525.328   5
  -2   2   3 8146.50 194.630   4
  -2   2   3 8233.54 226.491   5
  -2   2   3 8128.50 160.343   1
  -2  -2   3 7950.91 236.181   2
  -2   2   4 50933.3 837.394   5
  -2  -2   4 51879.7 868.232   2
  -2   2   4 51744.4 799.706   4
  -2  -2   5 1458.49 115.974   2
  -2   2   5 1399.36 94.8510   4
  -2   2   5 1273.19 99.5761   5
  -2  -2   6 35904.2 676.423   5
  -2   2   6 36299.3 692.992   5
  -2  -2   6 34771.5 722.259   2
  -2   2   7 4563.00 214.625   5
  -2  -2   7 5057.25 218.123   5
  -2   2   8 28380.1 643.751   5
  -2  -2   8 27722.6 631.214   5
  -2   2   8 28762.0 626.588   4
  -2   2   9 4352.73 234.577   5
  -2   2   9 4867.31 236.652   4
  -2   2  10 46548.7 948.630   4
  -2   2  11 2642.28 198.625   4
  -2   2  12 17604.6 568.710   4
  -2   2  13 1842.96 188.165   4
  -2   2  14 7609.39 400.689   4
  -2   2  15 200.164 80.4970   1
  -2  -4 -16 11749.9 551.339   2
  -2   4 -15 2958.68 254.206   2
  -2  -4 -15 2684.86 260.699   2
  -2   4 -14 8702.47 414.608   2
  -2  -4 -14 8285.85 425.423   2
  -2   4 -13 1786.22 181.721   2
  -2  -4 -12 13929.0 482.381   5
  -2   4 -12 13695.6 484.048   2
  -2   4 -11 11951.7 429.520   2
  -2  -4 -11 11862.3 422.792   5
  -2  -4 -10 5461.58 265.878   5
  -2   4 -10 5345.06 267.068   2
  -2   4  -9 816.005 107.659   2
  -2  -4  -9 899.793 107.889   5
  -2   4  -8 8034.67 299.346   2
  -2  -4  -8 7718.62 288.491   5
  -2  -4  -7 2552.96 154.465   5
  -2  -4  -5 17303.0 411.400   5
  -2   4  -5 17975.9 425.268   2
  -2  -4  -5 17792.5 371.158   1
  -2  -4  -4 39194.2 702.960   5
  -2  -4  -4 39603.3 651.010   1
  -2   4  -4 39725.8 710.990   2
  -2  -4  -3 4816.58 185.427   5
  -2   4  -3 4664.92 181.090   2
  -2   4  -3 5094.99 130.393   4
  -2  -4  -3 4768.83 166.230   1
  -2   4  -2 40612.9 692.336   2
  -2  -4  -2 38873.5 712.266   5
  -2  -4  -2 40570.7 692.906   2
  -2   4  -2 41394.9 561.414   4
  -2  -4  -2 40456.9 677.797   1
  -2  -4  -1 450.800 58.7983   2
  -2  -4  -1 451.221 54.4169   1
  -2  -4  -1 478.355 67.2015   5
  -2   4   0 30428.8 646.313   5
  -2  -4   0 29185.2 567.227   2
  -2  -4   0 29225.8 623.358   5
  -2  -4   0 28992.6 549.471   1
  -2  -4   1 16300.5 391.911   2
  -2  -4   1 16615.2 385.508   1
  -2   4   1 16428.3 431.803   5
  -2   4   2 8501.76 281.798   5
  -2  -4   2 7984.94 262.020   1
  -2  -4   2 8146.46 264.776   2
  -2  -4   3 4899.27 208.074   2
  -2   4   3 5031.85 213.665   5
  -2   4   4 21078.1 417.669   4
  -2   4   4 21318.9 496.917   5
  -2  -4   4 21753.7 513.857   2
  -2   4   5 15822.1 367.671   4
  -2   4   5 16918.1 437.168   5
  -2   4   5 15688.9 245.497   1
  -2  -4   5 16375.6 451.199   2
  -2  -4   6 18932.6 507.064   2
  -2   4   6 18213.4 476.850   5
  -2   4   6 17290.8 300.098   1
  -2   4   7 3717.43 185.552   4
  -2   4   7 3568.63 119.394   1
  -2  -4   7 3620.89 219.249   2
  -2   4   7 3930.68 214.545   5
  -2   4   8 13691.0 441.391   5
  -2   4   8 13840.6 406.821   4
  -2  -4   8 13691.8 469.754   2
  -2   4   8 13471.2 294.656   1
  -2   4   9 4041.44 157.341   1
  -2   4   9 4279.03 231.448   4
  -2   4  10 50412.8 841.390   1
  -2   4  10 50892.1 1018.29   4
  -2   4  11 11823.4 439.565   4
  -2   4  11 11827.3 331.811   1
  -2   4  12 13615.2 492.784   4
  -2   4  12 12664.3 371.554   1
  -2   4  13 1985.42 145.903   1
  -2   4  13 1636.33 180.443   4
  -2   4  14 7583.59 401.543   4
  -2   4  15 2807.73 264.460   4
  -2   6 -15 4536.94 325.624   2
  -2  -6 -14 8990.54 432.775   5
  -2   6 -14 8561.57 428.411   2
  -2  -6 -13 4702.84 297.042   5
  -2   6 -13 4188.52 286.806   2
  -2  -6 -12 8053.76 375.602   5
  -2   6 -12 8322.62 388.322   2
  -2  -6 -11 7065.43 337.933   5
  -2   6 -11 7019.74 344.852   2
  -2  -6 -10 3063.54 213.019   5
  -2   6 -10 2388.68 197.967   2
  -2   6  -9 3189.00 217.370   2
  -2  -6  -9 2840.58 195.203   5
  -2  -6  -8 7948.72 322.710   5
  -2   6  -8 7914.92 329.196   2
  -2   6  -7 4789.27 244.708   2
  -2  -6  -7 4672.62 238.785   5
  -2  -6  -6 7586.06 301.577   5
  -2   6  -6 7338.80 297.506   2
  -2  -6  -5 15201.0 343.369   1
  -2  -6  -5 14886.6 433.822   5
  -2   6  -5 16138.5 442.685   2
  -2   6  -5 15033.4 327.884   4
  -2  -6  -4 26625.6 510.421   1
  -2   6  -4 26072.0 451.075   4
  -2   6  -3 20938.1 361.538   4
  -2  -6  -3 21825.8 512.979   2
  -2  -6  -3 21370.9 456.885   1
  -2  -6  -2 24096.2 552.313   2
  -2  -6  -2 24343.5 510.900   1
  -2  -6  -1 21115.6 510.958   2
  -2  -6  -1 20605.7 469.221   1
  -2  -6   0 15025.8 424.352   2
  -2  -6   0 14780.0 390.648   1
  -2  -6   1 21255.1 505.573   1
  -2  -6   1 22519.3 551.609   2
  -2   6   1 21855.7 606.679   5
  -2  -6   2 36739.5 772.726   2
  -2  -6   2 36367.4 738.116   1
  -2   6   2 36567.5 826.973   5
  -2   6   3 3888.06 232.187   5
  -2  -6   3 4093.41 225.624   2
  -2  -6   3 4246.85 218.723   1
  -2   6   4 8924.73 355.838   5
  -2  -6   4 8697.49 345.168   2
  -2   6   5 21225.6 590.055   5
  -2  -6   5 21659.1 596.856   2
  -2   6   6 3705.46 180.348   4
  -2   6   6 3671.49 233.271   5
  -2  -6   6 3974.30 248.094   2
  -2   6   7 2302.81 153.345   4
  -2   6   8 9929.14 350.432   4
  -2   6   8 10324.7 199.949   1
  -2   6   9 13521.8 276.770   1
  -2   6   9 13869.0 439.216   4
  -2   6  10 15260.1 491.110   4
  -2   6  10 15070.4 325.469   1
  -2   6  11 18066.3 566.744   4
  -2   6  11 17683.3 386.625   1
  -2   6  12 12928.8 492.559   4
  -2   6  13 1353.38 177.107   4
  -2   6  14 6090.20 372.741   4
  -2   8 -14 4334.92 318.395   2
  -2  -8 -14 4075.05 309.909   5
  -2   8 -13 8409.99 432.173   2
  -2  -8 -13 8129.36 416.901   5
  -2  -8 -12 1521.07 181.889   5
  -2   8 -12 1269.21 170.907   2
  -2  -8 -11 2690.06 227.375   5
  -2   8 -11 2782.37 238.864   2
  -2  -8 -10 1372.31 165.052   5
  -2   8 -10 1497.94 174.166   2
  -2   8  -9 9011.02 396.362   2
  -2  -8  -9 8824.45 390.769   5
  -2   8  -8 7284.18 345.305   2
  -2  -8  -8 7179.48 345.501   5
  -2  -8  -7 5926.29 310.764   5
  -2   8  -7 6173.02 305.238   2
  -2  -8  -6 5066.19 281.568   5
  -2   8  -6 5035.13 185.725   4
  -2  -8  -6 5242.93 184.947   1
  -2   8  -6 4931.95 266.805   2
  -2  -8  -5 6188.95 314.998   5
  -2   8  -5 6720.06 200.329   4
  -2   8  -5 6799.89 309.597   2
  -2  -8  -5 6682.87 221.182   1
  -2  -8  -4 10344.1 303.841   1
  -2   8  -4 10741.3 383.172   2
  -2  -8  -4 10020.2 403.734   5
  -2   8  -4 10128.1 244.516   4
  -2  -8  -3 34150.8 757.592   2
  -2  -8  -3 32000.7 651.875   1
  -2  -8  -2 17640.0 454.531   1
  -2  -8  -2 15312.8 540.719   5
  -2  -8  -2 17752.9 518.985   2
  -2  -8  -1 5604.31 281.637   2
  -2  -8  -1 5208.81 308.847   5
  -2  -8  -1 5388.79 239.256   1
  -2  -8   0 1631.40 156.451   2
  -2  -8   0 1533.52 132.928   1
  -2  -8   0 1745.59 184.037   5
  -2   8   1 8302.20 406.267   5
  -2  -8   1 9284.52 376.099   2
  -2  -8   1 8049.18 316.580   1
  -2  -8   1 8644.40 407.987   5
  -2  -8   2 12028.9 480.692   5
  -2  -8   2 11549.7 398.741   1
  -2   8   2 11160.4 470.795   5
  -2  -8   2 11892.4 439.740   2
  -2  -8   3 9748.29 426.459   5
  -2  -8   3 8909.71 364.936   1
  -2  -8   4 8706.93 372.961   1
  -2   8   7 25531.0 602.879   4
  -2   8   8 7416.41 309.933   4
  -2   8   9 13447.7 453.642   4
  -2   8  10 5511.43 296.718   4
  -2   8  11 10991.6 450.155   4
  -2   8  12 3131.28 252.243   4
  -2   8  13 11175.2 493.274   4
  -2  10 -13 4943.85 349.034   2
  -2 -10 -12 1383.52 194.624   5
  -2  10 -12 1303.23 180.610   2
  -2  10 -11 6918.94 395.346   2
  -2 -10 -11 7084.97 406.642   5
  -2  10 -10 56.3542 70.9760   2
  -2 -10 -10 250.720 107.668   5
  -2 -10  -9 7849.01 410.867   5
  -2  10  -9 8032.82 401.573   2
  -2 -10  -8 305.764 106.370   5
  -2  10  -8 417.539 102.541   2
  -2  10  -7 7419.79 368.029   2
  -2 -10  -7 6670.85 374.320   5
  -2 -10  -6 2169.29 218.133   5
  -2  10  -6 2823.36 223.238   2
  -2 -10  -5 8159.04 418.757   5
  -2 -10  -5 8969.59 271.818   1
  -2 -10  -4 2194.60 145.722   1
  -2 -10  -4 2100.30 213.160   5
  -2  10  -4 2204.98 106.891   4
  -2 -10  -3 18379.1 648.950   5
  -2 -10  -3 19897.5 511.432   1
  -2 -10  -2 6031.73 268.152   1
  -2 -10  -2 5685.90 349.086   5
  -2 -10  -1 14134.0 575.898   5
  -2 -10  -1 13138.0 427.146   1
  -2 -10   0 4143.44 237.737   1
  -2 -10   0 4399.77 318.861   5
  -2 -10   1 15665.3 614.403   5
  -2 -10   1 14294.2 476.942   1
  -2 -10   2 235.202 92.7009   1
  -2 -10   2 156.171 85.3351   5
  -2 -10   3 11544.5 544.123   5
  -2 -10   4 974.881 177.767   5
  -2 -10   5 13053.6 590.996   5
  -2  10   7 9186.88 348.517   4
  -2  10   8 738.894 112.466   4
  -2  10   9 10306.8 410.673   4
  -2  10  10 5134.86 299.257   4
  -2  10  11 9399.36 430.254   4
  -2  10  12 263.020 112.668   4
  -2 -12 -10 330.530 144.458   5
  -2  12 -10 385.020 138.953   2
  -2  12  -9 2064.39 225.512   2
  -2 -12  -9 2197.07 251.752   5
  -2 -12  -8 286.752 122.562   5
  -2 -12  -7 6470.26 415.405   5
  -2 -12  -6 23.2166 98.3095   5
  -2 -12  -5 9013.26 481.959   5
  -2 -12  -4-4.80000 91.4555   5
  -2 -12  -3 10825.8 531.201   5
  -2 -12  -2 3036.24 288.736   5
  -2 -12  -1 18876.8 726.446   5
  -2 -12   0 710.013 160.296   5
  -2 -12   1 9731.88 523.674   5
  -2 -12   2 175.100 117.640   5
  -2 -12   3 6111.28 431.733   5
  -2 -12   4 568.739 162.160   5
  -2 -12   5 11220.8 611.793   5
  -2 -12   6 30.4118 107.822   5
  -2  12   7 2904.94 202.851   4
  -2 -12   7 3679.71 368.298   5
  -2  12   8 171.960 81.2437   4
  -2 -12   8 83.0309 137.285   5
  -2  12   9 11397.1 452.732   4
  -2  12  10 189.016 94.6547   4
  -2  12  11 11852.8 505.457   4
  -2 -14  -5 5684.43 421.254   5
  -2 -14  -4 62.7334 109.582   5
  -2 -14  -3 13272.8 647.618   5
  -2 -14  -2-64.0236 115.950   5
  -2 -14  -1 5039.54 404.077   5
  -2 -14   0 188.643 122.180   5
  -2 -14   1 4858.33 406.862   5
  -2 -14   2 218.724 150.295   5
  -2 -14   3 8959.91 567.812   5
  -1  -1 -17 9078.13 487.886   2
  -1   1 -17 8503.44 465.825   2
  -1   1 -16 216.378 112.939   2
  -1  -1 -16 124.157 97.1050   2
  -1   1 -15 5634.04 347.998   2
  -1  -1 -15 5530.02 349.723   2
  -1  -1 -14 34.0877 79.7232   2
  -1   1 -14 105.922 90.2534   2
  -1  -1 -13 10245.3 438.264   2
  -1   1 -13 10666.1 442.163   2
  -1   1 -12 771.163 119.333   2
  -1  -1 -12 720.766 118.154   2
  -1   1 -11 23412.2 629.791   2
  -1  -1 -11 24168.2 646.396   2
  -1  -1 -10 582.910 95.8226   2
  -1   1 -10 600.122 95.7632   2
  -1  -1  -9 29700.3 677.576   2
  -1   1  -9 30505.9 675.662   2
  -1   1  -7 40267.2 749.015   2
  -1   1  -6 1095.25 90.4839   2
  -1  -1  -6 1136.57 87.0173   5
  -1  -1  -5 28354.0 517.918   5
  -1   1  -5 28986.7 530.280   2
  -1  -1  -4 314.779 41.6639   5
  -1   1  -4 323.366 42.5688   2
  -1  -1  -3 14608.8 273.395   5
  -1   1  -3 14180.2 279.721   2
  -1  -1  -2 10695.9 200.875   1
  -1   1   2 2829.47 95.7165   5
  -1  -1   2 2645.63 100.944   2
  -1   1   3 69865.4 1002.93   5
  -1  -1   3 70016.5 1030.47   2
  -1  -1   4 9301.70 236.198   5
  -1  -1   4 9117.29 253.684   2
  -1   1   4 8963.33 234.171   5
  -1  -1   5 79405.8 1193.63   5
  -1   1   5 80440.9 1194.60   5
  -1   1   6 40.6138 35.0112   5
  -1  -1   6 85.3601 38.6642   5
  -1   1   7 42066.4 776.459   5
  -1  -1   7 41038.5 773.466   5
  -1  -1   7 42527.3 772.187   4
  -1   1   8 4045.86 200.528   5
  -1  -1   8 3861.19 197.866   5
  -1  -1   8 4247.64 204.470   4
  -1   1   9 38108.7 794.423   5
  -1  -1   9 38113.2 790.724   5
  -1   1   9 36240.9 777.817   4
  -1  -1   9 37750.9 779.713   4
  -1   1  10 2193.17 172.854   4
  -1   1  11 5888.45 294.040   4
  -1  -1  11 5697.68 134.424   3
  -1   1  12-33.2129 67.3992   4
  -1   1  13 5728.92 329.108   4
  -1   1  14 219.402 100.108   4
  -1   1  15 14992.9 531.795   1
  -1   1  16 47.7959 96.2865   1
  -1   3 -16 129.835 87.8955   2
  -1  -3 -16 323.007 124.073   2
  -1  -3 -15 7507.93 420.372   2
  -1   3 -15 6522.82 374.174   2
  -1   3 -14 1340.76 169.356   2
  -1  -3 -14 998.749 159.856   2
  -1   3 -13 4465.67 280.330   2
  -1  -3 -13 4038.56 283.162   2
  -1   3 -12 4662.00 275.478   2
  -1  -3 -11 9210.26 363.017   5
  -1   3 -11 8882.83 369.175   2
  -1  -3 -10 1167.51 123.080   5
  -1   3 -10 1691.78 151.440   2
  -1   3  -9 42012.1 857.043   2
  -1  -3  -9 42827.5 845.854   5
  -1  -3  -8 2928.06 171.047   5
  -1   3  -8 3131.00 180.442   2
  -1   3  -6 11411.1 326.751   2
  -1  -3  -5 70120.8 1090.83   5
  -1   3  -5 70619.4 1047.82   4
  -1   3  -5 69706.6 1105.15   2
  -1  -3  -4 10127.0 270.489   5
  -1   3  -4 10189.5 276.702   2
  -1   3  -4 10412.6 237.564   4
  -1   3  -3 19139.5 393.613   2
  -1   3  -3 19343.1 331.790   4
  -1  -3  -3 19093.0 390.013   5
  -1  -3  -3 18549.2 328.977   1
  -1   3  -2 1396.99 87.8280   2
  -1  -3  -2 1480.80 70.6953   1
  -1   3  -2 1518.51 59.4718   4
  -1  -3  -2 1414.19 87.8754   5
  -1  -3  -1 7869.15 189.072   1
  -1  -3  -1 7500.22 203.498   2
  -1  -3   0 4991.36 165.502   2
  -1   3   0 4757.93 196.096   5
  -1  -3   0 4832.32 152.361   1
  -1  -3   1 105569. 1492.80   1
  -1   3   1 107383. 1557.02   5
  -1  -3   1 108018. 1518.52   2
  -1  -3   2 5513.01 188.277   2
  -1   3   2 5793.71 193.882   5
  -1  -3   3 31741.5 604.737   2
  -1   3   3 33229.4 598.806   5
  -1   3   4 17210.8 274.194   1
  -1   3   4 17674.0 402.591   5
  -1  -3   4 17280.7 413.254   2
  -1  -3   5 98135.5 1511.83   2
  -1   3   5 97963.2 1480.45   5
  -1   3   5 97072.1 1310.20   1
  -1   3   6 7386.37 268.139   5
  -1   3   6 7470.86 187.840   1
  -1  -3   6 7703.13 286.542   2
  -1   3   7 88928.4 1395.98   4
  -1  -3   7 89381.6 1480.22   2
  -1   3   7 88064.0 1266.00   1
  -1   3   7 90529.1 1436.19   5
  -1   3   8 1244.99 119.264   4
  -1   3   8 1554.38 98.6111   1
  -1  -3   8 1500.23 139.581   2
  -1   3   8 1250.28 126.342   5
  -1   3   9 19607.8 521.356   4
  -1   3   9 19422.4 432.761   1
  -1   3  10 3345.36 168.517   1
  -1   3  10 3210.30 209.702   4
  -1   3  11 8302.83 360.931   4
  -1   3  11 9025.15 303.380   1
  -1   3  12 50.8361 62.1071   4
  -1   3  12 179.788 58.9184   1
  -1   3  13 4590.26 298.298   4
  -1   3  13 4633.15 240.417   1
  -1   3  14 1076.88 127.531   1
  -1   3  14 877.606 149.778   4
  -1   3  15 3852.96 246.547   1
  -1   3  15 4017.75 305.471   4
  -1  -5 -16 2388.96 262.431   2
  -1   5 -16 2818.52 265.260   2
  -1   5 -15 4100.14 305.464   2
  -1  -5 -15 3747.24 312.032   2
  -1   5 -14 3705.86 283.370   2
  -1  -5 -13 8221.66 389.169   5
  -1   5 -13 8160.12 396.026   2
  -1   5 -12 1619.91 173.282   2
  -1  -5 -12 1966.26 184.361   5
  -1   5 -11 16574.5 537.872   2
  -1  -5 -11 16941.7 531.380   5
  -1   5 -10 13917.3 467.751   2
  -1  -5 -10 13786.1 453.115   5
  -1   5  -9 13240.8 439.105   2
  -1  -5  -9 13201.4 426.533   5
  -1   5  -8 2888.19 189.011   2
  -1  -5  -8 2896.74 187.497   5
  -1  -5  -7 20068.9 512.436   5
  -1   5  -7 20535.4 526.527   2
  -1   5  -7 20657.3 458.657   4
  -1  -5  -6 2832.73 171.397   5
  -1   5  -6 2816.21 138.618   4
  -1   5  -6 1781.53 139.962   2
  -1   5  -5 30613.2 547.996   4
  -1  -5  -4 18468.9 349.428   1
  -1   5  -4 18866.8 365.099   4
  -1   5  -3 17625.2 429.920   2
  -1  -5  -3 17839.3 352.112   1
  -1  -5  -3 17539.4 447.108   5
  -1  -5  -2 1016.93 101.613   5
  -1  -5  -2 1020.04 75.1365   1
  -1   5  -2 1021.19 93.2964   2
  -1  -5  -2 1067.88 94.6623   2
  -1  -5  -1 10127.9 352.139   5
  -1  -5  -1 11329.0 279.430   1
  -1  -5  -1 10778.9 318.872   2
  -1  -5   0 22023.2 502.326   2
  -1   5   0 22339.0 570.988   5
  -1  -5   0 22915.1 459.175   1
  -1   5   1 37334.2 787.945   5
  -1  -5   1 36761.8 720.913   2
  -1  -5   1 36995.3 674.243   1
  -1  -5   2 33888.0 693.778   2
  -1   5   2 33764.8 729.312   5
  -1   5   3 38473.2 782.120   5
  -1  -5   3 37628.5 761.654   2
  -1  -5   4 14835.7 430.249   2
  -1   5   4 15364.0 434.080   5
  -1  -5   5 16721.5 478.350   2
  -1   5   5 17659.4 474.213   5
  -1   5   5 16659.8 271.893   1
  -1   5   6 25142.4 412.826   1
  -1   5   6 27475.4 633.146   5
  -1  -5   6 27140.0 657.540   2
  -1   5   7 17749.8 338.561   1
  -1  -5   7 18238.7 541.661   2
  -1   5   7 18696.8 524.991   5
  -1   5   8 2498.59 167.342   4
  -1   5   8 2319.10 111.022   1
  -1  -5   8 2616.78 202.858   2
  -1   5   9 10526.8 374.016   4
  -1   5   9 10419.7 274.348   1
  -1   5  10 6893.79 312.628   4
  -1   5  10 6597.25 225.246   1
  -1   5  11 6117.78 230.364   1
  -1   5  11 6184.30 315.682   4
  -1   5  12 3951.70 265.803   4
  -1   5  12 4068.25 197.952   1
  -1   5  13 6310.74 355.119   4
  -1   5  14 508.303 131.810   4
  -1   7 -15 232.343 102.712   2
  -1   7 -14 2950.48 265.348   2
  -1  -7 -14 2896.37 257.340   5
  -1   7 -13 5740.75 353.785   2
  -1  -7 -13 5228.83 329.538   5
  -1  -7 -12 5088.15 314.522   5
  -1   7 -12 5471.04 330.934   2
  -1  -7 -11 5947.06 323.391   5
  -1   7 -11 5647.27 323.686   2
  -1   7 -10 6570.52 340.495   2
  -1  -7 -10 6997.58 339.801   5
  -1   7  -9 6942.86 335.263   2
  -1  -7  -9 6293.98 314.008   5
  -1   7  -8 7907.84 276.900   4
  -1  -7  -8 7788.86 343.206   5
  -1   7  -8 8120.64 356.461   2
  -1  -7  -7 14330.2 476.803   5
  -1   7  -7 14824.2 472.902   2
  -1   7  -7 14374.3 374.569   4
  -1   7  -6 11754.1 400.803   2
  -1   7  -6 11000.8 302.021   4
  -1  -7  -6 10792.8 399.422   5
  -1  -7  -5 5596.37 276.270   5
  -1  -7  -5 5515.07 165.027   1
  -1   7  -5 4972.39 181.339   4
  -1   7  -5 5324.25 258.022   2
  -1   7  -4 11527.1 381.545   2
  -1  -7  -4 11474.8 276.176   1
  -1  -7  -4 10922.1 398.397   5
  -1   7  -3 7982.46 305.888   2
  -1  -7  -3 8448.82 314.471   2
  -1  -7  -3 7243.16 327.458   5
  -1  -7  -3 7606.63 237.154   1
  -1  -7  -2 6338.63 224.165   1
  -1   7  -2 6538.79 269.959   2
  -1  -7  -2 6271.03 272.458   2
  -1  -7  -2 5729.34 293.932   5
  -1  -7  -1 4419.75 193.540   1
  -1  -7  -1 4534.34 270.174   5
  -1  -7  -1 4816.98 238.780   2
  -1  -7   0 18030.8 503.256   2
  -1  -7   0 16508.5 422.302   1
  -1  -7   0 16823.3 554.986   5
  -1  -7   1 3473.91 183.916   1
  -1   7   1 4024.34 255.392   5
  -1  -7   1 3724.58 220.702   2
  -1  -7   1 3829.98 248.164   5
  -1  -7   2 18677.3 536.434   2
  -1   7   2 18406.6 574.215   5
  -1  -7   2 18876.7 487.619   1
  -1  -7   2 18181.4 572.931   5
  -1   7   3 40230.7 918.352   5
  -1  -7   3 39353.1 870.414   2
  -1   7   4 15846.9 528.522   5
  -1  -7   4 15359.6 501.881   2
  -1  -7   5 22966.4 646.760   2
  -1   7   5 22212.5 646.610   5
  -1   7   8 16198.8 277.701   1
  -1   7   9 21141.7 377.807   1
  -1   7   9 21115.6 581.269   4
  -1   7  10 7637.58 210.094   1
  -1   7  10 7569.21 343.816   4
  -1   7  11 1792.17 179.083   4
  -1   7  12 2685.75 228.014   4
  -1   7  13 2541.33 234.012   4
  -1   7  14 2833.63 257.609   4
  -1  -9 -13 1099.17 184.681   5
  -1   9 -13 1044.58 175.187   2
  -1  -9 -12 9019.12 457.844   5
  -1   9 -12 9356.38 463.524   2
  -1  -9 -11 1460.67 186.294   5
  -1   9 -11 1727.75 204.758   2
  -1  -9 -10 4825.93 316.049   5
  -1   9 -10 4477.03 303.454   2
  -1  -9  -9 5419.71 328.829   5
  -1   9  -9 5298.42 323.974   2
  -1  -9  -8 20044.0 654.282   5
  -1   9  -8 21625.1 653.715   2
  -1   9  -7 6555.92 243.032   4
  -1  -9  -7 7015.10 366.275   5
  -1   9  -7 6703.64 340.994   2
  -1   9  -6 16086.6 523.662   2
  -1   9  -6 14856.4 372.749   4
  -1  -9  -6 14331.6 536.881   5
  -1   9  -5 7967.41 241.947   4
  -1   9  -5 8116.24 356.543   2
  -1  -9  -5 7522.76 379.674   5
  -1  -9  -5 7535.38 207.568   1
  -1   9  -4 7421.25 333.083   2
  -1  -9  -4 6767.19 220.812   1
  -1  -9  -4 6078.49 342.069   5
  -1  -9  -3 4759.77 304.483   5
  -1  -9  -3 5302.48 214.899   1
  -1  -9  -2 7075.91 378.717   5
  -1  -9  -2 7894.98 284.645   1
  -1  -9  -1 167.089 79.6950   5
  -1  -9  -1 213.459 61.2863   1
  -1  -9   0 12779.5 396.341   1
  -1  -9   0 12889.5 534.950   5
  -1  -9   1 3205.17 197.472   1
  -1  -9   1 3514.32 273.051   5
  -1  -9   2 10119.0 379.033   1
  -1  -9   2 9834.18 469.078   5
  -1  -9   3 3277.96 221.768   1
  -1  -9   3 2826.91 249.238   5
  -1  -9   4 25183.3 693.764   1
  -1  -9   4 24737.9 778.761   5
  -1   9   9 1359.46 148.406   4
  -1   9  10 7268.88 352.918   4
  -1   9  11 907.942 148.970   4
  -1   9  12 534.722 118.775   4
  -1   9  13 1581.67 193.641   4
  -1 -11 -11 587.090 150.424   5
  -1  11 -11 505.776 136.055   2
  -1 -11 -10 9502.88 502.647   5
  -1  11 -10 10821.2 503.845   2
  -1 -11  -9 1798.29 222.315   5
  -1  11  -9 2455.44 236.432   2
  -1 -11  -8 8367.84 460.545   5
  -1  11  -8 9201.91 443.601   2
  -1 -11  -7-80.6654 99.7238   5
  -1  11  -7 269.943 104.230   2
  -1  11  -6 6362.32 354.894   2
  -1 -11  -6 5070.21 355.257   5
  -1 -11  -5 452.556 119.567   5
  -1 -11  -4 9065.30 468.037   5
  -1 -11  -3 1327.15 191.533   5
  -1 -11  -2 6708.29 279.079   1
  -1 -11  -2 6112.23 393.174   5
  -1 -11  -1 306.085 84.6314   1
  -1 -11  -1 369.191 133.610   5
  -1 -11   0 13582.4 590.583   5
  -1 -11   0 12215.2 432.068   1
  -1 -11   1 1866.89 230.543   5
  -1 -11   1 1965.98 177.029   1
  -1 -11   2 19321.5 593.602   1
  -1 -11   2 19613.1 749.351   5
  -1 -11   3 284.096 124.214   5
  -1 -11   4 13107.8 612.796   5
  -1 -11   5-5.47704 95.6079   5
  -1 -11   6 15905.2 706.104   5
  -1 -11   7 2820.78 309.223   5
  -1  11   9 245.997 90.8105   4
  -1  11  10 7885.57 389.961   4
  -1  11  11 159.779 98.9859   4
  -1  11  12 4076.07 308.677   4
  -1 -13  -7 110.346 122.428   5
  -1 -13  -6 8095.81 493.560   5
  -1 -13  -5-35.1039 102.556   5
  -1 -13  -4 12713.6 611.750   5
  -1 -13  -3 7.80158 108.338   5
  -1 -13  -2 3551.25 325.461   5
  -1 -13  -1 216.857 119.340   5
  -1 -13   0 8021.13 492.233   5
  -1 -13   1 508.812 155.622   5
  -1 -13   2 10581.3 578.656   5
  -1 -13   3 5.19945 132.318   5
  -1 -13   4 7040.15 492.560   5
  -1 -13   5-127.133 140.779   5
  -1 -13   6 10664.4 639.358   5
   0   0 -17-23.4873 102.392   2
   0   0 -16 14612.4 608.164   2
   0   0 -15 110.633 93.6725   2
   0   0 -14 14992.6 568.304   2
   0   0 -13-28.9641 71.9585   2
   0   0 -12 20975.1 630.890   2
   0   0 -11 83.7316 65.0837   2
   0   0 -10 23394.8 612.274   2
   0   0  -9 31.3654 45.9898   2
   0   0  -6 43363.6 771.146   2
   0   0  -5 72.2319 36.5272   2
   0   0   2 39603.8 564.318   5
   0   0   3-7.34164 21.6854   5
   0   0   4 24991.9 445.288   5
   0   0   5 40.1555 26.2749   5
   0   0   6 45233.9 777.140   5
   0   0   7 52.8531 37.9426   5
   0   0   8 1014.32 101.636   4
   0   0   8 1074.39 105.150   5
   0   0   9 120.860 62.3616   4
   0   0   9 21.8951 44.1211   5
   0   0  10 26320.7 640.179   4
   0   0  11-40.8804 63.2400   4
   0   0  12 24289.0 670.055   4
   0   0  13-25.9245 73.1772   4
   0   0  14 16364.2 588.056   4
   0   0  15 115.418 89.6655   1
   0   0  16 16599.0 611.451   1
   0   0  17 59.0114 90.6727   1
   0  -2 -17 700.581 160.274   2
   0   2 -17 863.756 182.189   2
   0  -2 -16 11357.4 540.983   2
   0   2 -16 10704.3 515.567   2
   0  -2 -15 1296.73 180.202   2
   0   2 -15 1311.75 181.891   2
   0  -2 -14 17260.7 629.649   2
   0   2 -14 17032.4 609.318   2
   0   2 -13 327.166 98.4980   2
   0  -2 -13-64.3471 75.0322   2
   0  -2 -12 14932.3 532.332   2
   0   2 -12 15123.0 519.331   2
   0  -2 -11 2377.78 201.572   2
   0   2 -11 2558.07 195.677   2
   0  -2 -10 14137.6 435.741   5
   0   2 -10 13787.6 449.537   2
   0  -2  -9 568.126 90.5394   5
   0   2  -9 609.975 94.5547   2
   0  -2  -8 23081.3 514.564   5
   0   2  -8 17658.9 488.082   2
   0   2  -6 22994.2 469.976   4
   0   2  -6 22296.0 497.965   2
   0   2  -5 12832.0 330.848   2
   0  -2  -5 12463.8 309.655   5
   0   2  -5 12763.6 302.012   4
   0   2  -4 26918.3 508.151   2
   0   2  -4 26775.9 467.722   4
   0   2  -3 758.070 51.9559   4
   0  -2  -2 57793.7 760.565   1
   0  -2   0 86969.1 1160.02   2
   0   2   0 84107.2 1204.19   5
   0   2   1 2641.60 104.653   5
   0  -2   1 2569.47 100.654   2
   0   2   2 59841.0 794.971   1
   0   2   2 60898.7 877.763   5
   0  -2   2 59950.3 882.908   2
   0   2   3 756.207 63.3708   5
   0  -2   3 698.129 62.4493   2
   0   2   3 703.058 39.5392   1
   0   2   4 27986.5 512.705   5
   0   2   4 27477.1 443.582   1
   0  -2   4 28478.7 532.988   2
   0   2   5 13174.4 329.384   5
   0  -2   5 13457.4 350.031   2
   0   2   5 13341.6 276.226   1
   0   2   6 23633.1 507.113   5
   0  -2   6 23737.2 484.231   4
   0  -2   6 23257.8 525.326   2
   0  -2   7 618.549 78.2807   5
   0  -2   7 621.227 74.9740   4
   0   2   7 703.905 84.4756   5
   0  -2   8 24194.7 550.606   4
   0  -2   8 24189.5 569.216   5
   0   2   8 24780.6 564.645   4
   0   2   8 24122.7 565.619   5
   0  -2   9 857.474 105.263   5
   0   2   9 862.661 105.549   4
   0   2   9 706.599 99.8368   5
   0   2  10 15006.0 463.878   4
   0   2  10 14687.3 406.658   1
   0   2  11 2460.83 189.483   4
   0   2  11 2620.19 174.824   1
   0   2  12 16064.2 472.772   1
   0   2  12 15851.0 531.636   4
   0   2  13 135.364 76.5140   4
   0   2  13 150.523 67.6571   1
   0   2  14 18081.5 559.884   1
   0   2  14 19219.5 647.780   4
   0   2  15 1418.47 184.633   4
   0   2  15 1396.27 169.467   1
   0   2  16 12424.2 495.195   1
   0   4 -16 3161.25 276.266   2
   0  -4 -16 3295.62 304.406   2
   0   4 -15 1267.46 177.784   2
   0  -4 -15 1145.53 188.912   2
   0  -4 -14 16380.8 633.104   2
   0   4 -14 16506.4 598.027   2
   0   4 -13 4031.60 281.811   2
   0  -4 -13 3723.62 258.048   5
   0  -4 -12 14123.9 492.022   5
   0   4 -12 13040.9 488.692   2
   0  -4 -11 3786.31 239.667   5
   0   4 -11 3835.72 247.184   2
   0  -4 -10 5314.17 270.738   5
   0   4 -10 5290.17 274.617   2
   0   4  -9 352.076 78.6510   2
   0  -4  -9 327.094 74.0996   5
   0   4  -8 20108.5 478.869   4
   0  -4  -8 19600.8 315.954   3
   0   4  -8 19316.7 517.747   2
   0  -4  -8 19132.5 503.367   5
   0   4  -7 4006.30 182.759   4
   0  -4  -7 3944.76 199.250   5
   0   4  -7 3918.46 205.059   2
   0   4  -6 10726.4 292.785   4
   0   4  -5 14482.1 331.151   4
   0   4  -4 35995.9 672.913   2
   0  -4  -4 34899.8 665.841   5
   0   4  -4 35068.3 590.645   4
   0  -4  -3 8916.55 173.094   1
   0  -4  -2 63360.2 881.290   1
   0  -4  -1 35575.7 632.333   2
   0  -4  -1 36240.0 559.193   1
   0  -4   0 67648.8 971.348   1
   0  -4   0 64587.7 1033.78   2
   0  -4   1 35417.3 650.725   2
   0   4   1 34334.5 692.837   5
   0   4   2 69174.9 910.755   1
   0  -4   2 64200.9 1053.37   2
   0   4   2 66314.4 1079.37   5
   0   4   3 9742.94 293.525   5
   0   4   3 9385.16 193.931   1
   0  -4   3 9495.78 292.881   2
   0   4   4 37891.6 713.220   5
   0  -4   4 37416.4 718.863   2
   0   4   4 37190.4 562.854   1
   0  -4   5 15091.8 412.866   2
   0   4   5 15099.1 402.946   5
   0   4   5 14406.0 285.930   1
   0   4   6 10875.5 252.131   1
   0  -4   6 11203.4 365.749   2
   0   4   6 11555.8 358.071   5
   0   4   7 4065.75 153.013   1
   0   4   7 4355.65 220.259   5
   0  -4   7 4115.94 225.618   2
   0  -4   8 20502.9 568.012   2
   0   4   8 20137.4 427.591   1
   0   4   8 20734.0 544.487   5
   0   4   9 351.273 56.6574   1
   0   4   9 389.926 80.6497   4
   0  -4   9 485.683 94.6422   2
   0   4  10 5547.81 275.052   4
   0   4  10 5488.93 222.541   1
   0   4  11 4142.31 253.515   4
   0   4  11 3965.83 201.944   1
   0   4  12 14654.3 519.897   4
   0   4  12 14292.1 423.662   1
   0   4  13 4270.75 233.584   1
   0   4  13 4627.26 300.286   4
   0   4  14 18094.3 641.490   4
   0   4  14 18108.6 533.480   1
   0   4  15 1653.04 214.456   4
   0   6 -15 5279.24 359.415   2
   0  -6 -15 5534.20 362.297   5
   0  -6 -14 7320.14 395.543   5
   0   6 -14 7305.35 403.264   2
   0   6 -13 9731.64 451.856   2
   0  -6 -13 9765.92 445.350   5
   0  -6 -12 14302.6 526.070   5
   0   6 -12 14960.1 549.717   2
   0   6 -11 2800.32 227.016   2
   0  -6 -11 2646.15 212.545   5
   0   6 -10 11591.5 451.531   2
   0  -6 -10 11697.2 436.070   5
   0  -6 -10 10667.3 231.276   3
   0   6  -9 8237.22 357.771   2
   0  -6  -9 7950.17 345.793   5
   0   6  -9 8315.99 304.018   4
   0  -6  -8 619.262 100.827   5
   0   6  -8 610.492 103.083   2
   0   6  -8 545.474 78.4958   4
   0   6  -7 1571.42 146.082   2
   0   6  -7 1418.97 111.199   4
   0  -6  -7 1575.27 152.491   5
   0   6  -6 10615.6 370.586   2
   0   6  -6 10215.2 293.274   4
   0  -6  -6 10031.9 364.243   5
   0  -6  -5 4725.64 238.581   5
   0   6  -5 5088.18 244.922   2
   0   6  -5 5290.87 188.898   4
   0   6  -4 12757.9 390.771   2
   0  -6  -4 13790.8 416.900   5
   0  -6  -4 12841.6 240.625   1
   0  -6  -3 13917.2 280.031   1
   0  -6  -2 13359.1 296.273   1
   0  -6  -2 13290.0 380.786   2
   0  -6  -1 29310.8 624.994   2
   0  -6  -1 29188.5 531.734   1
   0  -6   0 90858.7 1345.86   1
   0  -6   0 90588.3 1458.51   2
   0  -6   1 29957.6 664.098   2
   0   6   1 30299.4 717.116   5
   0  -6   2 13616.9 418.646   2
   0   6   2 14317.2 458.529   5
   0   6   3 14532.1 465.791   5
   0  -6   3 15117.5 456.350   2
   0   6   4 14702.6 466.254   5
   0  -6   4 14656.1 455.484   2
   0   6   4 14516.8 282.974   1
   0  -6   5 5356.67 270.491   2
   0   6   5 5468.64 272.402   5
   0   6   5 5587.59 156.286   1
   0   6   6 10812.3 248.912   1
   0  -6   6 10969.9 411.104   2
   0   6   6 11096.8 405.339   5
   0   6   7 1483.57 88.4616   1
   0   6   7 1863.82 176.639   5
   0  -6   7 1800.90 171.622   2
   0   6   8 527.880 60.4647   1
   0   6   9 8711.93 261.050   1
   0   6  10 12201.1 441.186   4
   0   6  10 12302.8 336.873   1
   0   6  11 3070.84 226.573   4
   0   6  11 2810.99 163.581   1
   0   6  12 15893.2 565.439   4
   0   6  13 10663.3 470.624   4
   0   6  14 8651.42 440.287   4
   0   8 -14 2392.80 257.024   2
   0  -8 -13 3546.56 294.126   5
   0   8 -13 3961.74 304.848   2
   0  -8 -12 5537.33 341.549   5
   0   8 -12 5488.81 351.289   2
   0  -8 -11 5601.39 338.933   5
   0   8 -11 5964.40 352.983   2
   0  -8 -10 4479.25 290.848   5
   0   8 -10 3458.16 264.193   2
   0   8  -9 5230.96 313.807   2
   0  -8  -9 6033.65 336.389   5
   0  -8  -8 3374.46 246.863   5
   0   8  -8 3142.26 179.121   4
   0   8  -8 3469.21 240.432   2
   0  -8  -7 8518.80 386.189   5
   0   8  -7 8655.35 383.285   2
   0   8  -7 8873.65 294.902   4
   0  -8  -6 5549.51 305.120   5
   0   8  -6 5379.08 215.820   4
   0   8  -6 5941.62 303.587   2
   0   8  -5 17306.2 526.670   2
   0  -8  -5 16693.6 548.805   5
   0  -8  -4 5528.15 155.429   1
   0   8  -4 5830.92 284.937   2
   0  -8  -4 6142.73 323.268   5
   0   8  -3 7600.62 323.512   2
   0  -8  -3 7536.05 221.547   1
   0  -8  -3 7163.73 345.555   5
   0  -8  -2 6894.22 231.436   1
   0  -8  -2 6848.29 303.224   2
   0   8  -2 6745.66 297.910   2
   0  -8  -2 5980.26 326.373   5
   0  -8  -1 34726.8 784.091   2
   0  -8  -1 35729.6 883.507   5
   0  -8  -1 34100.8 664.182   1
   0  -8   0 5257.26 272.409   2
   0  -8   0 4780.83 211.756   1
   0  -8   0 4770.27 300.178   5
   0  -8   1 36412.3 841.046   2
   0  -8   1 37311.0 746.026   1
   0  -8   1 36246.7 920.637   5
   0   8   2 6941.48 355.312   5
   0  -8   2 7291.32 340.899   2
   0  -8   2 6561.04 361.084   5
   0  -8   2 6847.82 289.277   1
   0  -8   3 8545.16 377.765   2
   0   8   3 8807.42 409.783   5
   0  -8   3 9663.69 429.246   5
   0   8   8 3695.97 121.604   1
   0   8  10 3859.24 255.309   4
   0   8  11 5941.21 331.286   4
   0   8  12 5960.46 348.798   4
   0   8  13 4109.68 305.284   4
   0 -10 -12 1774.22 218.304   5
   0  10 -12 1656.48 213.533   2
   0 -10 -11 6147.57 395.628   5
   0  10 -11 6982.74 407.012   2
   0 -10 -10 164.127 108.575   5
   0  10 -10 129.484 87.3433   2
   0  10  -9 6834.76 387.293   2
   0 -10  -9 6994.49 404.564   5
   0 -10  -8 4976.14 338.545   5
   0  10  -8 4414.90 301.427   2
   0  10  -7 6621.95 357.614   2
   0 -10  -7 6120.21 369.667   5
   0 -10  -6 88.9433 84.3506   5
   0  10  -6 146.016 48.9690   4
   0  10  -6 161.778 83.9914   2
   0 -10  -5 8741.93 445.499   5
   0  10  -5 10003.8 421.184   2
   0 -10  -4 1383.09 81.1373   1
   0 -10  -4 1164.39 172.066   5
   0  10  -4 1356.19 157.444   2
   0 -10  -3 6877.20 234.844   1
   0 -10  -3 7256.21 399.190   5
   0 -10  -2 5363.23 226.292   1
   0 -10  -2 5392.02 344.754   5
   0 -10  -1 25457.6 800.169   5
   0 -10  -1 25586.3 585.780   1
   0 -10   0 1355.70 130.177   1
   0 -10   0 1526.65 194.623   5
   0 -10   1 28054.6 849.127   5
   0 -10   1 25680.5 643.523   1
   0 -10   2 5678.04 376.896   5
   0 -10   2 5887.84 292.922   1
   0 -10   3 7976.40 356.476   1
   0 -10   3 8094.04 442.463   5
   0 -10   4 1319.35 187.649   5
   0 -10   5 10893.3 537.976   5
   0 -10   6 270.896 116.390   5
   0  10  10 115.874 86.0248   4
   0  10  11 6964.84 378.016   4
   0  10  12 2054.06 225.996   4
   0 -12  -9 7178.37 453.335   5
   0  12  -9 7207.46 422.406   2
   0 -12  -8 107.558 106.412   5
   0  12  -8 27.1758 86.3773   2
   0  12  -7 6021.33 370.079   2
   0 -12  -7 5572.23 396.398   5
   0 -12  -6 257.435 108.421   5
   0  12  -6 13.7927 80.2936   2
   0 -12  -5 3306.71 306.012   5
   0 -12  -4 157.863 113.068   5
   0 -12  -3 12748.1 594.155   5
   0 -12  -2 195.873 117.611   5
   0 -12  -1 17173.2 698.482   5
   0 -12   0 385.025 139.841   5
   0 -12   1 19034.9 748.394   5
   0 -12   2-78.6159 109.566   5
   0 -12   3 13913.4 656.204   5
   0 -12   4 357.406 134.179   5
   0 -12   5 3751.89 346.862   5
   0 -12   6 160.367 149.127   5
   0 -12   7 6004.00 467.240   5
   0 -12   8 2.14747 123.341   5
   0  12  10 775.425 134.182   4
   0  12  11 2963.78 262.868   4
   0 -14  -4 197.722 129.693   5
   0 -14  -3 7831.92 502.016   5
   0 -14  -2 635.379 159.736   5
   0 -14  -1 8428.64 517.409   5
   0 -14   0 359.220 147.160   5
   0 -14   1 7532.59 497.953   5
   0 -14   2 810.530 201.163   5
   0 -14   3 7957.10 532.101   5
   1  -1 -17 6153.69 418.492   2
   1   1 -17 6237.58 417.507   2
   1   1 -16 45.9571 89.5865   2
   1  -1 -16 159.203 110.755   2
   1   1 -15 14069.1 584.692   2
   1  -1 -15 14629.3 597.412   2
   1  -1 -14 215.180 112.483   2
   1   1 -14 242.928 103.702   2
   1  -1 -13 4869.92 309.206   2
   1   1 -13 5409.32 320.496   2
   1  -1 -12 59.2714 72.5278   2
   1   1 -12-21.2128 64.3447   2
   1  -1 -11 5374.90 293.572   2
   1   1 -11 5300.40 288.623   2
   1  -1 -10 2152.51 179.829   2
   1   1 -10 2087.04 174.218   2
   1  -1  -9 35815.0 779.434   2
   1   1  -9 34077.0 759.803   2
   1  -1  -8 3734.50 189.265   5
   1   1  -8 3573.01 197.908   2
   1   1  -7 40387.0 743.193   4
   1   1  -6 40.6225 41.8519   4
   1   1  -6 55.4033 41.3977   2
   1   1  -5 77779.4 1155.65   4
   1   1  -4 8963.67 225.204   4
   1  -1  -3 71209.8 930.494   3
   1   1  -3 69408.5 996.400   4
   1  -1  -1 95642.8 1227.51   4
   1   1   1 50957.4 681.627   5
   1   1   1 50250.8 693.872   1
   1  -1   1 50181.3 684.374   2
   1  -1   2 10898.9 197.739   4
   1  -1   2 11137.3 210.236   2
   1   1   2 11347.3 209.528   1
   1   1   2 10660.6 205.174   5
   1   1   3 15132.2 286.123   5
   1  -1   3 15058.2 281.452   4
   1  -1   3 14961.4 293.319   2
   1   1   3 15300.3 282.485   1
   1   1   4 347.155 44.9416   5
   1   1   4 317.912 40.0086   1
   1  -1   4 386.298 43.6680   4
   1  -1   4 438.004 48.9861   2
   1  -1   5 29856.7 542.757   5
   1   1   5 29051.1 531.770   5
   1  -1   5 30083.4 536.357   4
   1   1   6 1254.86 91.5798   5
   1  -1   6 1330.25 96.7304   4
   1  -1   6 1266.29 95.8846   5
   1   1   7 42859.6 784.172   5
   1  -1   7 43705.3 789.975   5
   1  -1   7 44677.7 789.185   4
   1   1   8 445.063 83.8771   5
   1  -1   8 428.591 73.6333   4
   1   1   8 515.497 82.5330   4
   1  -1   8 363.786 70.1485   5
   1  -1   9 33825.2 713.524   4
   1  -1   9 33161.9 715.622   5
   1   1   9 32191.2 706.853   4
   1   1   9 33742.6 716.301   5
   1   1  10 890.053 103.415   1
   1  -1  10 866.506 113.233   4
   1   1  10 761.759 106.109   4
   1   1  11 25623.9 664.678   4
   1  -1  11 25550.3 658.915   4
   1   1  11 25295.0 625.253   1
   1   1  12 655.217 113.025   4
   1  -1  12 834.191 118.977   4
   1   1  12 721.425 110.457   1
   1   1  13 11563.2 431.482   1
   1   1  13 11337.1 462.944   4
   1  -1  13 11268.5 457.645   4
   1   1  14-14.7492 74.3753   4
   1  -1  14 59.7818 73.1547   4
   1   1  14 25.0312 63.4404   1
   1   1  15 6243.38 372.109   4
   1   1  15 5699.70 333.567   1
   1  -1  15 5646.85 349.458   1
   1  -1  16 180.434 101.628   1
   1   1  16 166.220 88.1347   1
   1   1  17 9395.70 469.243   1
   1   3 -16 629.303 155.317   2
   1  -3 -16 485.545 143.594   2
   1   3 -15 3595.01 300.123   2
   1  -3 -15 3785.63 311.082   2
   1  -3 -14 891.097 157.243   2
   1   3 -14 1033.61 162.209   2
   1  -3 -13 3977.39 289.334   2
   1   3 -13 4255.90 289.637   2
   1   3 -12 299.486 99.8163   2
   1  -3 -12 256.389 88.5582   5
   1  -3 -11 8281.59 348.694   5
   1   3 -11 7910.32 360.351   2
   1   3 -10 3309.98 217.692   2
   1  -3 -10 3095.30 206.174   5
   1   3  -9 19320.7 535.720   2
   1   3  -9 18855.3 489.957   4
   1  -3  -9 18666.6 506.148   5
   1  -3  -8 1324.85 118.574   5
   1   3  -8 1483.41 120.824   4
   1   3  -8 1269.95 126.032   2
   1  -3  -7 85056.7 1185.14   5
   1   3  -7 85269.3 1145.14   4
   1  -3  -7 83637.7 925.008   3
   1   3  -6 7214.44 235.996   4
   1   3  -5 92998.4 1356.99   4
   1  -3   0 4827.87 162.135   2
   1   3   0 5253.35 154.847   1
   1  -3   1 7630.29 217.525   2
   1   3   1 7968.51 190.220   1
   1   3   1 7578.45 231.874   5
   1  -3   2 1432.58 90.4515   2
   1   3   2 1452.05 72.7050   1
   1   3   2 1463.27 95.7961   5
   1   3   3 21165.5 422.172   5
   1   3   3 20508.3 363.828   1
   1  -3   3 19935.3 420.545   2
   1  -3   4 10881.2 300.403   2
   1   3   4 10889.8 244.432   1
   1   3   4 11198.1 291.472   5
   1   3   5 73438.3 1140.10   5
   1   3   5 71361.8 1061.47   1
   1  -3   5 73703.3 1158.80   2
   1   3   6 12283.0 342.995   5
   1  -3   6 12268.2 354.630   2
   1   3   6 11661.4 289.129   1
   1  -3   7 16776.3 450.863   2
   1   3   7 15984.6 428.196   5
   1   3   7 16076.0 372.909   1
   1   3   8 3413.95 194.078   5
   1   3   8 3331.35 160.227   1
   1  -3   8 3420.05 201.820   2
   1   3   9 45252.2 826.027   1
   1   3   9 45654.4 908.143   4
   1   3   9 46138.0 921.737   5
   1   3  10 1596.75 128.098   1
   1   3  10 1211.96 132.917   4
   1   3  11 9308.54 333.469   1
   1   3  11 9497.56 387.840   4
   1   3  12 5043.98 253.807   1
   1   3  12 5267.82 296.146   4
   1   3  13 4388.83 287.939   4
   1   3  13 4636.18 255.397   1
   1   3  14 1271.78 181.074   4
   1   3  14 1061.46 134.817   1
   1   3  15 7939.25 429.054   4
   1   3  15 7948.74 376.772   1
   1   5 -16 4173.68 339.467   2
   1   5 -15 4460.33 329.711   2
   1  -5 -14 562.626 117.203   5
   1   5 -14 336.968 106.146   2
   1   5 -13 5939.77 350.210   2
   1  -5 -13 6209.10 348.628   5
   1  -5 -12 4023.10 267.721   5
   1   5 -12 3920.99 272.984   2
   1  -5 -11 5859.81 304.740   5
   1   5 -11 5593.86 310.942   2
   1  -5 -10 5626.27 287.846   5
   1   5 -10 6087.80 313.053   2
   1   5  -9 9452.95 381.680   2
   1  -5  -9 10218.9 376.378   5
   1   5  -9 9542.94 337.703   4
   1  -5  -9 9449.26 220.352   3
   1   5  -8 2349.02 179.405   2
   1  -5  -8 2419.38 175.290   5
   1   5  -8 2212.38 146.674   4
   1   5  -7 17239.5 492.034   2
   1  -5  -7 17291.3 479.276   5
   1   5  -7 17160.9 431.727   4
   1  -5  -6 24451.1 582.554   5
   1   5  -6 24467.5 517.931   4
   1   5  -6 24849.4 592.775   2
   1   5  -5 8278.35 300.015   2
   1  -5  -2 33966.6 507.653   1
   1  -5  -1 37047.4 691.212   2
   1  -5  -1 36906.0 577.026   1
   1  -5   0 21692.9 488.700   2
   1  -5   1 11048.4 334.555   2
   1   5   1 11227.3 362.836   5
   1  -5   2 1188.85 108.408   2
   1   5   2 1038.31 74.8380   1
   1   5   2 1217.91 117.152   5
   1  -5   3 18374.0 469.637   2
   1   5   3 18172.7 368.487   1
   1   5   3 18834.9 485.221   5
   1   5   4 19063.0 382.718   1
   1   5   4 20253.9 504.185   5
   1  -5   4 19873.7 502.441   2
   1   5   5 32647.9 564.605   1
   1  -5   5 32078.5 707.867   2
   1   5   5 33240.3 705.422   5
   1   5   6 2749.91 128.236   1
   1   5   6 2977.96 185.877   5
   1  -5   6 2900.94 191.290   2
   1  -5   7 21475.7 579.885   2
   1   5   7 21126.3 447.861   1
   1   5   7 22024.7 566.265   5
   1  -5   8 3345.29 218.778   2
   1   5   8 3086.59 153.873   1
   1   5   8 3518.31 216.004   5
   1   5   9 13843.7 368.928   1
   1  -5   9 13475.9 480.690   2
   1   5  10 14475.2 482.258   4
   1   5  10 15072.4 405.057   1
   1   5  11 17919.8 471.331   1
   1   5  11 16799.3 551.955   4
   1   5  12 1628.71 178.149   4
   1   5  12 1849.27 150.692   1
   1   5  13 8672.01 348.350   1
   1   5  13 8710.55 423.795   4
   1   5  14 4119.68 300.518   4
   1   7 -14 3347.80 290.210   2
   1  -7 -14 2648.59 253.867   5
   1   7 -13 2473.35 247.704   2
   1  -7 -13 2186.07 219.303   5
   1   7 -12 2147.62 222.986   2
   1  -7 -12 2228.53 215.836   5
   1  -7 -11 1409.77 173.905   5
   1   7 -11 1495.76 177.276   2
   1   7 -10 7518.34 373.128   2
   1  -7 -10 7052.57 223.236   3
   1  -7 -10 7247.42 357.613   5
   1  -7  -9 20368.4 618.173   5
   1   7  -9 21745.2 641.128   2
   1  -7  -8 16417.2 527.492   5
   1   7  -8 15817.1 523.978   2
   1   7  -8 15355.4 431.388   4
   1  -7  -7 2881.53 214.695   5
   1   7  -7 2675.48 160.428   4
   1   7  -7 2636.22 201.723   2
   1   7  -6 20405.4 577.416   2
   1  -7  -6 20873.0 593.828   5
   1  -7  -5 19700.1 572.274   5
   1   7  -5 20412.3 562.302   2
   1  -7  -4 13963.8 467.738   5
   1   7  -4 14077.4 440.221   2
   1   7  -3 37229.3 775.779   2
   1  -7  -3 35880.1 541.520   1
   1  -7  -3 33987.7 816.925   5
   1  -7  -2 17488.5 483.100   2
   1  -7  -2 17859.7 356.873   1
   1  -7  -2 16687.1 530.538   5
   1  -7  -1 4128.40 217.511   2
   1  -7  -1 3661.80 154.166   1
   1  -7   0 17286.8 489.392   2
   1  -7   0 17444.0 400.296   1
   1  -7   1 4480.57 241.945   2
   1  -7   2 5753.62 312.762   5
   1  -7   2 7088.13 313.991   2
   1   7   2 6831.31 326.995   5
   1  -7   3 9086.26 364.950   2
   1  -7   3 8659.75 383.034   5
   1   7   3 9073.86 379.713   5
   1  -7   4 13092.5 454.204   2
   1   7   4 12820.8 310.387   1
   1   7   4 12553.5 459.300   5
   1  -7   5 5991.99 303.593   2
   1   7   5 5334.28 187.301   1
   1   7   5 5352.97 292.405   5
   1  -7   6 13208.7 479.960   2
   1   7   6 11881.0 303.819   1
   1   7   6 12497.1 464.274   5
   1   7   7 15552.6 365.198   1
   1   7   8 8161.29 255.844   1
   1   7   9 7121.99 247.504   1
   1   7  10 7086.58 253.791   1
   1   7  11 6001.52 330.655   4
   1   7  12 5863.11 341.186   4
   1   7  13 5786.93 357.639   4
   1   9 -13 1680.19 223.095   2
   1  -9 -12 509.031 139.339   5
   1   9 -12 482.202 128.275   2
   1  -9 -11 703.323 145.486   5
   1   9 -11 412.796 114.826   2
   1   9 -10 7864.28 413.586   2
   1  -9 -10 6668.99 390.890   5
   1  -9  -9 1489.38 186.325   5
   1   9  -9 1308.48 170.546   2
   1  -9  -8 15971.7 590.287   5
   1   9  -8 16819.1 584.907   2
   1   9  -7 8473.95 308.875   4
   1  -9  -7 9080.73 429.438   5
   1   9  -7 9046.64 408.609   2
   1  -9  -6 13836.3 535.572   5
   1   9  -6 15746.0 538.825   2
   1  -9  -5 2008.56 207.913   5
   1   9  -5 1649.58 170.532   2
   1   9  -4 23287.0 639.014   2
   1  -9  -4 19719.7 652.145   5
   1  -9  -3 2673.00 116.687   1
   1  -9  -3 2451.28 222.720   5
   1   9  -3 3061.73 214.168   2
   1  -9  -2 10409.2 292.631   1
   1  -9  -2 9946.70 452.152   5
   1  -9  -1 3557.15 172.775   1
   1  -9  -1 3326.41 262.376   5
   1  -9   0 12607.9 522.449   5
   1  -9   0 12438.2 363.891   1
   1  -9   1 123.356 90.2887   5
   1  -9   1 165.054 52.9131   1
   1  -9   2 8677.47 434.601   5
   1  -9   3 5357.13 342.539   5
   1  -9   4 7982.36 424.572   5
   1  -9   5 8936.93 461.187   5
   1   9  11 1767.49 192.864   4
   1   9  12 9960.02 469.155   4
   1  11 -10 7681.04 438.966   2
   1 -11 -10 7739.28 459.250   5
   1 -11  -9 306.609 126.033   5
   1  11  -9 179.921 96.9163   2
   1  11  -8 9373.17 462.716   2
   1 -11  -8 8964.65 486.308   5
   1 -11  -7 1848.10 223.632   5
   1  11  -7 1904.87 210.645   2
   1 -11  -6 11566.9 557.682   5
   1  11  -6 14083.7 547.371   2
   1 -11  -5 90.4276 90.4497   5
   1  11  -5 130.154 90.6205   2
   1  11  -4 12923.7 504.352   2
   1 -11  -4 11596.0 543.737   5
   1 -11  -3 394.975 122.735   5
   1 -11  -2 18628.2 451.828   1
   1 -11  -2 17885.8 686.341   5
   1 -11  -1 1503.98 209.058   5
   1 -11  -1 1578.90 135.335   1
   1 -11   0 14135.9 599.139   5
   1 -11   0 12228.5 404.693   1
   1 -11   1 257.192 75.9268   1
   1 -11   1 279.442 108.875   5
   1 -11   2 6779.48 322.358   1
   1 -11   2 6706.18 426.763   5
   1 -11   3 1327.00 207.030   5
   1 -11   4 10760.0 557.385   5
   1 -11   5 412.964 124.948   5
   1 -11   6 6370.89 448.936   5
   1 -11   7 307.043 144.143   5
   1 -11   8 10804.6 604.365   5
   1  11  11 569.784 131.989   4
   1  13  -7 394.479 115.070   2
   1 -13  -7 171.858 125.778   5
   1 -13  -6 9408.97 541.467   5
   1 -13  -5-16.8494 114.357   5
   1 -13  -4 6261.06 433.914   5
   1 -13  -3 131.828 115.369   5
   1 -13  -2 9246.26 519.126   5
   1 -13  -1 610.688 160.566   5
   1 -13   0 8401.77 498.288   5
   1 -13   1 428.725 158.504   5
   1 -13   2 3453.05 326.434   5
   1 -13   3 61.6099 112.536   5
   1 -13   4 14155.4 696.005   5
   1 -13   5 134.704 123.298   5
   1 -13   6 9896.54 616.561   5
   2   0 -16 4663.84 352.538   2
   2   0 -15 338.362 133.633   2
   2   0 -14 19503.9 677.672   2
   2   0 -13-21.1837 72.2468   2
   2   0 -12 34876.6 878.987   2
   2   0 -11 30.8503 61.4177   2
   2   0 -10 33414.0 791.736   2
   2   0  -9-26.9708 61.0096   2
   2   0  -8 31327.8 698.663   2
   2   0  -7 27.6813 31.9928   4
   2   0  -6 46334.9 795.701   4
   2   0  -5 0.81406 26.0885   4
   2   0  -4 858.961 66.8131   4
   2   0  -3-9.30132 20.2461   4
   2   0  -2 52988.7 770.579   1
   2   0  -1 33.0832 23.2823   1
   2   0   0 72283.6 988.044   1
   2   0   1-13.0683 20.6617   1
   2   0   2 45745.5 615.618   5
   2   0   2 45421.5 622.848   3
   2   0   2 44584.1 671.297   1
   2   0   3 9.39930 16.1144   5
   2   0   3 29.1726 15.6328   3
   2   0   3 21.2769 24.6418   1
   2   0   4 83707.5 1167.77   5
   2   0   4 86229.8 1094.69   3
   2   0   4 82567.3 1204.11   1
   2   0   5 34.1092 35.3619   1
   2   0   5 41.4335 28.1117   5
   2   0   5-4.79364 11.9425   3
   2   0   6 3026.58 141.872   5
   2   0   7 69.3434 36.7239   5
   2   0   7 53.3814 44.5515   4
   2   0   8 20631.5 489.510   5
   2   0   8 20248.3 496.085   4
   2   0   9-20.6427 47.8777   5
   2   0   9 28.7511 45.8697   4
   2   0   9 14.8434 47.5954   1
   2   0  10 17132.5 498.027   4
   2   0  10 17695.0 497.671   1
   2   0  11 28.6502 56.5713   1
   2   0  11-86.5250 69.1147   4
   2   0  12 20516.9 594.281   1
   2   0  12 19794.2 602.795   4
   2   0  13 77.2935 82.0336   1
   2   0  13-63.3974 81.1665   4
   2   0  14 21017.0 679.880   4
   2   0  14 21641.8 670.258   1
   2   0  15 89.9976 91.8124   4
   2   0  15 49.9390 83.5226   1
   2   0  16 15537.0 611.895   1
   2  -2 -16 8027.17 467.973   2
   2   2 -16 7815.95 451.537   2
   2   2 -15 298.621 111.733   2
   2  -2 -15 168.563 102.295   2
   2   2 -14 6859.91 387.825   2
   2  -2 -14 6684.04 395.253   2
   2   2 -13 1553.81 182.743   2
   2  -2 -13 1525.36 193.949   2
   2   2 -12 16205.7 568.706   2
   2  -2 -12 16518.6 579.042   2
   2  -2 -11 2399.58 187.895   5
   2  -2 -11 2321.50 205.360   2
   2   2 -11 2560.08 206.266   2
   2  -2 -10 43834.6 900.903   5
   2   2 -10 43855.4 943.529   2
   2   2  -9 4443.47 221.807   4
   2   2  -9 4339.07 239.062   2
   2  -2  -9 4322.33 223.399   5
   2  -2  -8 26860.4 601.648   5
   2   2  -8 27166.5 591.675   4
   2   2  -8 26393.6 633.750   2
   2   2  -7 4950.91 208.591   4
   2   2  -6 35296.4 657.895   4
   2  -2  -5 1318.26 66.0071   3
   2   2  -5 1233.71 90.2693   4
   2  -2  -4 49432.8 720.639   3
   2  -2  -1 5280.87 108.665   1
   2   2  -1 5121.68 169.773   1
   2   2   0 34655.0 553.631   2
   2   2   0 35530.5 575.881   1
   2  -2   0 35295.8 504.780   1
   2   2   1 3178.35 117.979   1
   2  -2   1 3307.69 131.863   5
   2   2   1 3080.16 111.539   5
   2  -2   1 2974.47 105.339   2
   2  -2   2 116082. 1568.89   2
   2   2   2 116442. 1588.77   1
   2  -2   2 116444. 1510.69   4
   2   2   2 118246. 1564.40   5
   2   2   3 62780.3 898.086   5
   2   2   3 60437.9 907.377   1
   2  -2   3 60598.8 895.235   2
   2  -2   3 61210.3 860.426   4
   2   2   4 71384.5 1036.50   5
   2  -2   4 71439.4 1009.51   4
   2   2   4 69607.6 1039.28   1
   2  -2   4 69106.2 1038.78   2
   2  -2   5 1964.07 113.981   2
   2  -2   5 2075.93 105.698   4
   2   2   5 1902.52 110.473   5
   2   2   5 1927.26 109.318   1
   2   2   6 27415.7 531.443   1
   2  -2   6 26712.5 523.151   4
   2   2   6 26835.2 538.815   5
   2  -2   6 26373.4 541.972   2
   2  -2   7 377.199 58.7469   4
   2   2   7 283.123 54.9640   1
   2   2   7 322.004 59.4072   5
   2  -2   8 20567.2 502.129   5
   2   2   8 20025.3 476.191   1
   2   2   8 19908.0 493.841   5
   2  -2   8 20044.3 483.259   4
   2   2   9 2873.64 182.462   5
   2   2   9 2711.39 179.611   4
   2   2   9 2647.35 165.184   1
   2  -2   9 3052.71 182.992   4
   2  -2   9 2765.89 181.150   5
   2   2  10 16105.5 490.182   4
   2   2  10 15583.5 449.059   1
   2  -2  10 16335.5 473.166   4
   2   2  11 1654.11 149.502   1
   2   2  11 1844.13 173.444   4
   2  -2  11 1528.97 154.811   4
   2   2  12 9864.16 412.552   4
   2   2  12 9655.08 377.049   1
   2  -2  12 10011.3 402.072   4
   2   2  13 3657.20 243.447   1
   2  -2  13 3749.34 261.880   4
   2   2  13 3650.60 263.846   4
   2   2  14 13932.4 508.546   1
   2  -2  14 14249.0 556.339   1
   2   2  14 14349.9 558.107   4
   2   2  15 2230.78 209.836   1
   2   2  15 2313.90 240.966   4
   2  -2  15 2024.45 224.694   1
   2   2  16 15661.7 592.987   1
   2  -4 -16 5726.03 407.987   2
   2   4 -16 5906.53 395.991   2
   2  -4 -15 2500.27 268.423   2
   2   4 -15 2812.71 262.315   2
   2   4 -14 6701.93 390.061   2
   2  -4 -14 6959.21 415.428   2
   2   4 -13 1646.80 194.990   2
   2  -4 -13 1645.04 181.582   5
   2  -4 -12 12552.4 474.340   5
   2   4 -12 13294.2 507.692   2
   2  -4 -11 10692.4 422.126   5
   2   4 -11 11619.8 453.324   2
   2  -4 -10 48625.1 994.673   5
   2   4 -10 48958.0 1035.53   2
   2  -4  -9 4010.13 229.041   5
   2   4  -9 3822.45 235.919   2
   2  -4  -8 13061.7 414.284   5
   2   4  -8 13170.8 386.572   4
   2  -4  -8 13093.8 280.606   3
   2   4  -8 13390.7 438.059   2
   2   4  -7 3555.67 178.330   4
   2  -4  -7 3448.23 131.796   3
   2   4  -7 3622.17 208.532   2
   2  -4  -7 3519.17 198.506   5
   2   4  -6 17337.6 421.647   4
   2   4  -6 18522.3 480.192   2
   2  -4   0 28680.5 551.300   2
   2   4   0 30664.7 557.412   1
   2   4   1 394.780 54.7273   1
   2  -4   1 356.546 53.7842   2
   2   4   1 431.874 68.2957   5
   2  -4   2 43366.1 763.164   2
   2   4   2 42396.9 773.232   5
   2   4   2 42995.8 708.850   1
   2   4   3 5152.55 203.344   5
   2   4   3 4797.28 168.863   1
   2  -4   3 5003.06 200.429   2
   2   4   4 40954.7 702.698   1
   2  -4   4 42013.8 766.645   2
   2   4   4 42454.6 762.421   5
   2  -4   5 19809.0 471.051   2
   2   4   5 19386.1 458.560   5
   2   4   5 18662.0 407.110   1
   2  -4   6 29082.6 632.328   2
   2   4   6 29587.8 568.805   1
   2   4   6 29560.4 628.537   5
   2   4   7 2948.72 151.272   1
   2  -4   7 2723.69 172.626   2
   2   4   7 3085.63 179.885   5
   2   4   8 8502.24 282.203   1
   2  -4   8 7795.44 318.123   2
   2   4   8 8600.87 324.055   5
   2   4   9 991.153 102.473   1
   2   4   9 897.251 113.855   5
   2  -4   9 1011.82 122.312   2
   2   4  10 5484.54 247.470   1
   2   4  11 11932.4 452.630   4
   2   4  11 12672.5 408.021   1
   2   4  12 14406.8 527.554   4
   2   4  12 15244.3 473.071   1
   2   4  13 2298.31 219.622   4
   2   4  13 2088.06 182.730   1
   2   4  14 9571.69 463.217   4
   2   4  14 10303.1 418.577   1
   2   6 -15 5152.32 365.903   2
   2   6 -14 5444.49 362.059   2
   2  -6 -14 6008.70 367.904   5
   2   6 -13 1540.22 194.795   2
   2  -6 -13 1474.72 182.053   5
   2  -6 -12 12147.9 491.362   5
   2   6 -12 12374.0 510.110   2
   2   6 -11 16969.0 585.498   2
   2  -6 -11 16540.8 560.098   5
   2  -6 -10 14871.6 510.982   5
   2   6 -10 14363.7 516.337   2
   2  -6 -10 14577.8 328.317   3
   2   6  -9 12702.9 468.723   2
   2  -6  -9 13142.6 466.066   5
   2  -6  -9 12513.0 316.084   3
   2   6  -8 9842.07 396.009   2
   2  -6  -8 10376.4 393.535   5
   2   6  -8 9808.88 338.484   4
   2  -6  -7 2217.19 184.242   5
   2   6  -7 1989.28 172.965   2
   2   6  -7 1981.47 141.414   4
   2  -6  -6 3537.87 220.538   5
   2   6  -6 3491.87 214.499   2
   2  -6  -5 19834.2 538.370   5
   2   6  -5 19718.4 537.184   2
   2  -6  -2 35414.1 531.879   1
   2  -6  -1 22163.6 522.749   2
   2  -6   0 14150.3 408.714   2
   2  -6   1 21735.8 542.729   2
   2   6   1 21327.3 472.930   1
   2  -6   2 26004.2 615.259   2
   2   6   2 25545.5 635.762   5
   2  -6   2 25075.5 667.342   5
   2   6   2 25853.4 527.601   1
   2  -6   3 22140.4 566.185   2
   2   6   3 21708.3 466.114   1
   2  -6   3 21959.7 598.756   5
   2   6   3 21512.9 575.209   5
   2  -6   4 28722.5 675.710   2
   2   6   4 28098.2 674.104   5
   2   6   4 27360.6 548.805   1
   2   6   5 16056.7 386.578   1
   2  -6   5 16680.8 497.461   2
   2   6   5 17208.8 497.341   5
   2   6   6 8405.26 339.813   5
   2   6   6 7494.62 254.150   1
   2  -6   6 8768.96 353.256   2
   2   6   7 4960.82 207.615   1
   2  -6   7 5225.04 282.373   2
   2   6   7 5418.45 276.951   5
   2   6   8 8501.54 286.445   1
   2  -6   8 8826.48 378.918   2
   2   6   9 2894.83 170.529   1
   2   6  10 2960.82 181.799   1
   2   6  11 7204.82 299.760   1
   2   6  12 8959.54 420.084   4
   2   6  12 8617.72 342.714   1
   2   6  13 4677.77 314.861   4
   2   6  14 9471.81 476.246   4
   2   8 -13 10066.4 508.290   2
   2  -8 -13 9931.43 490.953   5
   2   8 -12 2647.45 255.497   2
   2  -8 -12 3037.08 264.425   5
   2   8 -11 9944.21 480.095   2
   2  -8 -11 9884.67 465.196   5
   2  -8 -10 5195.54 323.119   5
   2   8 -10 5199.49 333.377   2
   2  -8  -9 12992.4 508.421   5
   2   8  -9 12593.0 502.563   2
   2  -8  -8 7616.82 379.479   5
   2   8  -8 7905.93 383.929   2
   2  -8  -7 23519.1 691.410   5
   2   8  -7 23770.1 693.100   2
   2   8  -7 23299.9 568.448   4
   2  -8  -6 754.949 126.495   5
   2   8  -6 797.990 120.517   2
   2  -8  -5 3578.43 250.947   5
   2   8  -5 3852.15 243.299   2
   2   8  -4 7739.62 338.698   2
   2  -8  -4 7698.75 367.078   5
   2  -8  -3 8246.81 379.403   5
   2   8  -3 8852.12 352.273   2
   2  -8  -3 7482.51 148.219   1
   2   8  -2 10812.6 399.406   2
   2  -8  -2 11310.8 397.810   2
   2  -8  -2 11035.4 261.954   1
   2  -8  -2 10724.8 440.485   5
   2  -8  -1 8733.62 347.036   2
   2  -8  -1 7814.00 239.856   1
   2  -8  -1 7964.92 375.317   5
   2  -8   0 1529.54 148.136   2
   2  -8   0 1536.61 174.612   5
   2  -8   1 5319.56 281.304   2
   2  -8   1 4890.42 303.791   5
   2  -8   2 19547.7 583.599   2
   2   8   2 18583.2 594.099   5
   2  -8   2 17965.1 611.509   5
   2   8   3 35431.0 882.941   5
   2  -8   3 36311.7 872.818   2
   2  -8   3 34267.6 907.684   5
   2  -8   4 11566.4 454.725   2
   2   8   4 11699.0 331.729   1
   2   8   4 11482.5 462.730   5
   2  -8   4 11582.5 485.957   5
   2   8   5 6993.46 247.987   1
   2   8   6 5777.32 226.400   1
   2   8   7 6406.00 241.295   1
   2   8   8 7237.92 263.946   1
   2   8   9 9765.69 318.677   1
   2   8  12 1794.25 199.593   4
   2   8  13 8853.55 459.155   4
   2  10 -11 8581.58 469.856   2
   2 -10 -11 8357.10 472.836   5
   2 -10 -10 5002.27 361.424   5
   2  10 -10 4802.96 341.723   2
   2 -10  -9 9822.51 493.217   5
   2  10  -9 10760.5 498.910   2
   2 -10  -8 849.287 162.464   5
   2  10  -8 743.552 148.029   2
   2 -10  -7 7528.44 421.803   5
   2  10  -7 8771.99 425.477   2
   2 -10  -6 800.272 156.918   5
   2  10  -6 548.798 119.044   2
   2 -10  -5 10004.5 484.543   5
   2  10  -5 11747.0 466.527   2
   2 -10  -4 895.450 160.603   5
   2  10  -4 757.721 123.199   2
   2  10  -3 10789.9 441.163   2
   2 -10  -3 9244.12 202.061   1
   2 -10  -3 10172.2 482.734   5
   2 -10  -2 41.3893 83.7663   5
   2 -10  -2 189.903 52.4932   1
   2 -10  -1 15651.7 598.382   5
   2 -10  -1 14599.1 388.201   1
   2 -10   0 4184.62 207.481   1
   2 -10   0 4210.68 311.607   5
   2 -10   1 13749.8 577.510   5
   2 -10   1 13357.2 420.092   1
   2 -10   2 6222.42 388.729   5
   2 -10   3 21311.5 751.687   5
   2 -10   4 2245.31 246.297   5
   2 -10   5 9542.67 504.890   5
   2 -10   6 2758.40 287.987   5
   2 -10   7 8338.35 484.090   5
   2  12  -9 10891.0 533.035   2
   2 -12  -8-69.1673 104.109   5
   2  12  -8 168.555 96.7514   2
   2 -12  -7 2369.20 269.510   5
   2  12  -7 3167.32 287.556   2
   2 -12  -6-136.307 133.480   5
   2  12  -6 69.0076 86.7603   2
   2 -12  -5 9283.62 513.359   5
   2  12  -5 11063.0 496.001   2
   2 -12  -4 537.323 146.357   5
   2 -12  -3 5311.59 382.052   5
   2 -12  -2 159.812 110.948   5
   2 -12  -1 9301.33 501.286   5
   2 -12   0 925.192 186.407   5
   2 -12   1 19475.5 748.673   5
   2 -12   2 2624.79 282.900   5
   2 -12   3 12141.8 612.615   5
   2 -12   4 72.1083 100.996   5
   2 -12   5 10836.7 591.296   5
   2 -12   6 3.89288 126.157   5
   2 -12   7 8483.78 552.919   5
   2 -12   8 291.254 157.076   5
   2 -14  -3 7634.26 499.934   5
   2 -14  -2 136.582 133.626   5
   2 -14  -1 4625.73 394.124   5
   2 -14   0 446.268 158.958   5
   2 -14   1 5772.33 436.718   5
   2 -14   2 8.16710 104.078   5
   3  -1 -16 465.954 149.264   2
   3   1 -16 454.245 130.085   2
   3  -1 -15 14985.2 627.392   2
   3   1 -15 14589.7 610.560   2
   3   1 -14 911.515 157.000   2
   3  -1 -14 1106.55 173.137   2
   3  -1 -13 14197.2 567.482   2
   3   1 -13 15223.8 572.615   2
   3  -1 -12 2597.94 222.170   2
   3   1 -12 2678.15 227.160   2
   3  -1 -11 26052.8 729.473   2
   3   1 -11 26407.5 721.058   2
   3   1 -10 762.342 119.070   2
   3  -1 -10 752.756 123.255   2
   3  -1  -9 2307.76 164.286   5
   3   1  -9 2185.50 156.673   4
   3  -1  -9 2553.05 191.667   2
   3   1  -9 2580.84 192.019   2
   3   1  -8-19.6784 38.1502   4
   3  -1  -8 49.4919 44.8290   5
   3   1  -8 62.2429 51.8846   2
   3  -1  -7 34253.0 664.403   4
   3   1  -7 33016.5 657.744   4
   3  -1  -6 466.518 62.5477   4
   3   1  -6 392.448 60.4416   4
   3  -1  -5 96119.8 1399.04   4
   3   1  -5 96497.0 1409.34   4
   3  -1  -4 15443.1 328.210   4
   3  -1  -3 31298.3 512.747   4
   3  -1  -3 30828.0 501.945   3
   3  -1  -2 845.736 59.1294   5
   3  -1  -2 1120.71 72.4802   1
   3   1  -2 789.682 69.0776   1
   3  -1  -1 81287.9 1118.50   1
   3   1  -1 81876.4 1118.15   2
   3   1  -1 78814.8 1167.21   1
   3  -1  -1 79293.4 1093.04   5
   3   1   0 2979.20 123.529   1
   3   1   0 2812.24 88.2324   2
   3  -1   0 2894.55 105.817   1
   3  -1   0 2991.67 91.2048   5
   3  -1   1 50388.6 673.117   2
   3   1   1 48886.2 686.783   2
   3   1   1 50007.1 777.724   1
   3  -1   1 50375.7 753.474   1
   3  -1   1 51210.4 732.458   5
   3  -1   2 235.490 21.5173   2
   3   1   2 186.805 40.9612   1
   3  -1   2 213.389 37.7455   1
   3   1   2 229.092 23.2752   5
   3   1   3 15913.7 285.409   5
   3   1   3 16336.1 350.122   1
   3  -1   3 16278.8 275.072   2
   3  -1   3 15989.5 345.461   1
   3   1   4 23633.0 414.936   5
   3  -1   4 24348.7 479.859   1
   3   1   4 24758.8 479.643   1
   3   1   5 23266.2 438.649   5
   3  -1   5 23669.3 494.749   1
   3   1   5 23736.6 488.446   1
   3   1   6 1638.19 102.934   5
   3  -1   6 1727.87 107.104   5
   3   1   6 1831.82 122.747   1
   3  -1   6 1743.60 123.886   1
   3  -1   7 18949.8 440.430   5
   3  -1   7 19428.8 473.393   1
   3  -1   7 18299.4 443.242   4
   3   1   7 18621.3 456.999   1
   3  -1   7 19217.0 341.187   3
   3   1   7 18784.7 431.786   5
   3  -1   8 210.135 62.9294   1
   3   1   8 225.450 59.3300   5
   3  -1   8 256.580 60.0120   5
   3   1   8 268.783 69.8432   1
   3  -1   8 187.694 56.8915   4
   3  -1   8 266.232 34.3687   3
   3   1   9 44523.3 857.002   5
   3  -1   9 44910.3 865.991   5
   3   1   9 44858.1 879.499   1
   3  -1   9 44916.9 648.882   3
   3  -1   9 44609.4 900.010   1
   3  -1   9 43552.3 868.566   4
   3   1  10 3468.35 215.898   4
   3  -1  10 3346.80 206.190   4
   3   1  10 3503.22 214.085   1
   3   1  10 3420.66 207.548   5
   3  -1  10 3698.14 223.825   1
   3  -1  11 46865.8 981.650   4
   3   1  11 47148.9 998.083   4
   3   1  11 47075.2 978.719   1
   3  -1  11 48255.4 1007.43   1
   3   1  12 423.424 101.430   1
   3  -1  12 574.275 114.497   1
   3   1  12 494.896 103.925   4
   3  -1  12 390.523 97.9975   4
   3   1  13 11459.7 458.260   1
   3  -1  13 11858.0 469.879   4
   3   1  13 11361.1 469.495   4
   3  -1  13 11399.4 470.490   1
   3   1  14 1857.51 194.438   1
   3   1  14 1870.69 201.275   4
   3  -1  14 1611.45 187.137   4
   3  -1  14 2047.63 214.695   1
   3   1  15 10527.9 493.866   4
   3  -1  15 10893.9 492.101   4
   3  -1  15 10655.9 494.927   1
   3   1  15 10360.9 476.461   1
   3   1  16 1334.22 190.245   1
   3   3 -16 2657.36 270.097   2
   3  -3 -16 1966.21 255.305   2
   3   3 -15 11098.1 535.067   2
   3  -3 -15 11283.9 557.176   2
   3   3 -14 547.751 143.852   2
   3  -3 -14 447.104 126.862   2
   3   3 -13 13781.0 551.428   2
   3  -3 -13 14182.4 574.841   2
   3  -3 -12 3229.44 234.114   5
   3   3 -12 3375.50 257.688   2
   3  -3 -11 9050.99 379.228   5
   3   3 -11 9190.15 406.042   2
   3  -3 -10 3158.40 209.898   5
   3   3 -10 3380.76 233.094   2
   3  -3  -9 9306.58 348.222   5
   3   3  -9 9488.69 373.523   2
   3  -3  -8 917.618 105.352   5
   3   3  -8 1152.83 112.166   4
   3   3  -8 1179.67 131.391   2
   3   3  -7 23279.7 532.065   4
   3  -3  -7 23699.0 435.415   3
   3   3  -7 23613.2 585.425   2
   3   3  -6 14310.4 372.227   4
   3  -3  -6 13647.0 307.964   3
   3  -3  -5 26804.1 489.549   3
   3  -3  -2 25861.0 395.226   1
   3   3  -2 25921.0 531.665   1
   3  -3  -1 35349.1 523.566   1
   3   3  -1 34668.9 615.730   2
   3   3  -1 35640.2 648.829   1
   3  -3  -1 35640.9 629.188   5
   3   3   0 8877.44 246.144   2
   3  -3   0 9676.80 207.310   1
   3   3   0 9522.87 268.360   1
   3  -3   0 9160.03 272.703   5
   3   3   1 13950.0 335.463   1
   3  -3   1 13430.3 304.485   2
   3  -3   1 14186.9 287.295   1
   3  -3   1 14589.9 367.846   5
   3   3   1 14002.2 317.514   5
   3  -3   2 4041.85 152.830   2
   3   3   2 4236.71 164.965   1
   3  -3   2 4213.11 94.6616   4
   3   3   2 4018.80 155.065   5
   3  -3   3 46637.1 667.921   4
   3   3   3 46321.0 777.012   1
   3   3   3 46552.3 752.413   5
   3  -3   3 46599.1 750.451   2
   3  -3   4 4521.39 169.422   2
   3   3   4 4455.26 176.777   1
   3  -3   4 4414.07 137.869   4
   3   3   4 4624.21 169.437   5
   3   3   5 7359.75 231.373   5
   3  -3   5 7281.92 203.835   4
   3   3   5 6730.82 231.002   1
   3  -3   5 5864.20 213.388   2
   3   3   6 4265.67 188.800   1
   3  -3   6 4327.74 169.629   4
   3   3   6 4235.03 183.905   5
   3  -3   6 4464.00 190.893   2
   3   3   7 40794.6 764.703   5
   3   3   7 40169.5 761.608   1
   3  -3   7 39719.7 725.795   4
   3  -3   7 39674.8 759.044   2
   3  -3   8 2072.29 138.044   4
   3   3   8 1863.71 140.245   1
   3   3   8 2394.35 155.545   5
   3  -3   9 34613.6 748.678   5
   3   3   9 34650.8 746.221   5
   3  -3   9 33706.2 713.792   4
   3   3   9 33588.3 725.444   1
   3  -3  10 4685.81 241.628   4
   3   3  10 4489.93 239.705   1
   3   3  11 24038.5 673.521   4
   3  -3  11 25527.3 642.887   4
   3   3  11 24142.3 631.618   1
   3   3  12 2788.26 221.892   4
   3  -3  12 2620.47 205.135   4
   3  -3  12 2653.73 121.157   3
   3   3  12 2537.00 196.592   1
   3  -3  13 21132.4 684.257   1
   3   3  13 20368.9 660.687   4
   3   3  13 20766.0 620.665   1
   3  -3  14 1757.39 206.897   1
   3   3  14 1344.40 160.108   1
   3   3  14 1200.56 179.315   4
   3  -3  15 6317.18 392.027   1
   3   3  15 5901.79 348.689   1
   3  -5 -15 7159.28 458.215   2
   3   5 -15 7333.29 432.315   2
   3  -5 -14 6204.88 370.602   5
   3   5 -14 6304.37 384.816   2
   3  -5 -13 8496.43 416.342   5
   3   5 -13 8411.20 430.055   2
   3  -5 -12 2454.37 216.798   5
   3   5 -12 2473.09 235.114   2
   3  -5 -11 9364.24 401.811   5
   3   5 -11 9285.19 427.240   2
   3   5 -10 4462.73 279.562   2
   3  -5 -10 3980.01 249.506   5
   3   5  -9 8698.34 374.038   2
   3  -5  -9 8865.09 250.722   3
   3  -5  -9 9111.20 367.335   5
   3   5  -8 3811.65 237.770   2
   3   5  -8 3523.42 201.652   4
   3  -5  -8 3196.44 148.693   3
   3  -5  -8 3364.40 214.056   5
   3   5  -7 13561.4 444.044   2
   3  -5  -7 13307.8 422.841   5
   3   5  -7 13006.0 389.204   4
   3   5  -6 2401.98 172.458   2
   3  -5  -6 2465.15 170.442   5
   3  -5  -2 16713.3 265.728   1
   3   5  -1 33675.6 671.634   2
   3  -5  -1 34226.9 516.170   1
   3  -5   0 2087.68 159.379   5
   3   5   0 2251.64 141.032   2
   3  -5   0 2142.94 135.592   2
   3   5   0 2039.76 133.255   1
   3  -5   1 33415.6 665.746   2
   3   5   1 34390.7 656.747   1
   3  -5   1 32789.8 745.402   5
   3  -5   2 11591.3 353.684   2
   3  -5   2 11777.5 392.696   5
   3   5   2 11703.6 362.630   5
   3   5   2 11705.0 327.974   1
   3   5   3 6253.29 227.944   1
   3  -5   3 5903.87 244.088   2
   3   5   3 5765.27 246.925   5
   3  -5   4 260.282 61.7712   2
   3   5   4 228.567 53.1896   1
   3   5   4 215.621 53.8942   5
   3   5   5 12410.0 340.943   1
   3  -5   5 11762.3 374.258   2
   3   5   5 12182.0 377.398   5
   3   5   6 7709.05 269.506   1
   3  -5   6 7729.05 305.013   2
   3   5   6 7724.36 300.386   5
   3   5   7 18753.6 505.913   5
   3   5   7 17640.7 453.936   1
   3  -5   7 17256.3 495.945   2
   3  -5   8 20595.0 568.824   2
   3   5   8 21076.2 519.605   1
   3   5   8 21887.3 575.973   5
   3   5   9 9511.89 341.025   1
   3  -5   9 10080.2 390.060   2
   3   5  10 6969.71 298.298   1
   3   5  11 15684.6 486.787   1
   3   5  12 10852.7 463.315   4
   3   5  12 11180.1 415.876   1
   3   5  13 10771.8 484.663   4
   3   5  13 11037.0 432.399   1
   3   5  14 3356.19 286.908   4
   3   7 -14 4028.82 329.976   2
   3   7 -13 1303.27 189.920   2
   3  -7 -13 930.625 160.476   5
   3   7 -12 10833.0 495.975   2
   3  -7 -12 10488.0 478.036   5
   3  -7 -11 8676.34 416.979   5
   3   7 -11 9146.49 439.030   2
   3   7 -10 6117.19 345.809   2
   3  -7 -10 5473.29 325.612   5
   3  -7  -9 740.536 126.493   5
   3   7  -9 615.755 120.754   2
   3  -7  -8 5879.38 313.859   5
   3   7  -8 6103.04 325.789   2
   3   7  -7 1853.80 179.467   2
   3  -7  -7 2208.47 191.879   5
   3  -7  -6 16940.9 538.642   5
   3   7  -6 16907.2 533.151   2
   3  -7  -5 22020.3 613.522   5
   3   7  -5 20894.6 596.546   2
   3  -7  -4 4317.39 256.205   5
   3   7  -4 4620.70 247.864   2
   3   7  -3 12112.4 408.397   2
   3  -7  -3 11320.1 421.474   5
   3  -7  -2 11217.5 211.931   1
   3   7  -2 11121.6 381.288   2
   3  -7  -2 11714.5 237.230   1
   3  -7  -2 10672.8 410.285   5
   3   7  -1 23932.6 592.021   2
   3  -7  -1 23952.1 588.762   2
   3  -7  -1 24272.6 667.913   5
   3  -7   0 10510.8 365.376   2
   3  -7   0 10639.1 421.524   5
   3  -7   1 8263.96 332.104   2
   3   7   1 8500.63 303.678   1
   3  -7   1 8824.55 385.150   5
   3  -7   2 13503.4 449.723   2
   3   7   2 13314.2 384.987   1
   3   7   2 12835.7 446.011   5
   3  -7   2 13093.4 481.129   5
   3  -7   3 1837.07 163.144   2
   3   7   3 1864.79 135.474   1
   3  -7   3 2132.93 194.391   5
   3   7   3 1720.58 159.691   5
   3  -7   4 19148.8 567.783   2
   3  -7   4 19684.6 615.372   5
   3   7   4 18724.7 468.742   1
   3   7   4 18816.6 567.988   5
   3   7   5 7534.69 350.551   5
   3   7   5 7918.66 282.313   1
   3  -7   5 8049.56 355.362   2
   3   7   6 5897.72 314.036   5
   3  -7   6 6246.91 317.875   2
   3   7   6 6059.18 247.819   1
   3   7   7 11247.1 353.753   1
   3  -7   7 11132.4 447.569   2
   3   7   8 8146.55 303.777   1
   3   7   9 11101.8 370.142   1
   3   7  10 15913.2 467.749   1
   3   7  11 12872.8 427.315   1
   3   7  13 3579.31 294.959   4
   3  -9 -12 8912.14 481.326   5
   3   9 -12 9639.84 499.018   2
   3  -9 -11 591.917 142.655   5
   3   9 -11 483.280 126.734   2
   3  -9 -10 4504.01 325.233   5
   3   9 -10 5230.62 345.556   2
   3  -9  -9 2618.61 245.336   5
   3   9  -9 2008.12 217.198   2
   3  -9  -8 2794.70 254.502   5
   3   9  -8 2944.29 246.933   2
   3  -9  -7 4726.94 317.773   5
   3   9  -7 4893.76 309.007   2
   3  -9  -6 29223.5 836.633   5
   3   9  -6 31847.1 828.411   2
   3  -9  -5 2481.59 228.650   5
   3   9  -5 2764.03 220.406   2
   3   9  -4 10074.5 415.794   2
   3  -9  -4 9762.94 440.812   5
   3   9  -3 9085.10 379.369   2
   3  -9  -3 8294.45 406.941   5
   3  -9  -2 16604.9 306.094   1
   3   9  -2 16778.9 534.323   2
   3  -9  -2 16570.0 595.353   5
   3  -9  -2 17453.7 353.441   1
   3  -9  -1 4951.79 191.988   1
   3  -9  -1 4752.81 313.885   5
   3  -9   0 17747.6 619.316   5
   3  -9   1 6129.23 362.099   5
   3  -9   2 6113.68 364.115   5
   3  -9   3 2839.63 251.522   5
   3   9   4 10547.6 351.644   1
   3  -9   4 10542.9 496.347   5
   3  -9   5 1972.30 222.466   5
   3   9   5 1928.66 143.785   1
   3   9   6 6540.58 266.125   1
   3  -9   6 6287.61 390.690   5
   3   9   7 3628.58 197.523   1
   3   9   8 8644.62 312.992   1
   3  11 -10 4528.31 351.526   2
   3 -11 -10 4533.60 360.935   5
   3 -11  -9 825.178 174.150   5
   3  11  -9 1031.07 176.674   2
   3 -11  -8 4074.37 341.455   5
   3  11  -8 4448.83 333.121   2
   3 -11  -7 87.4986 91.5131   5
   3  11  -7 188.451 95.6671   2
   3 -11  -6 5025.94 365.488   5
   3  11  -6 5448.35 345.620   2
   3 -11  -5 657.142 148.772   5
   3  11  -5 864.557 143.586   2
   3  11  -4 23112.6 710.599   2
   3 -11  -4 20955.3 752.323   5
   3 -11  -3 2214.64 238.393   5
   3  11  -3 2934.18 238.169   2
   3 -11  -2 8553.11 456.044   5
   3 -11  -2 9221.51 215.165   1
   3 -11  -1-27.7154 104.471   5
   3 -11  -1 85.4707 52.8330   1
   3 -11   0 7264.39 286.194   1
   3 -11   0 7448.60 427.362   5
   3 -11   1 4037.33 324.852   5
   3 -11   1 3551.45 212.271   1
   3 -11   2 22505.1 795.677   5
   3 -11   3 1415.69 211.205   5
   3 -11   4 2939.05 295.967   5
   3 -11   5 2.10097 105.966   5
   3 -11   6 9739.36 547.710   5
   3 -11   7 1464.96 239.555   5
   3 -11   8 15174.0 717.791   5
   3 -11   9 280.886 146.691   5
   3 -13  -6 8186.45 510.274   5
   3  13  -6 8145.34 454.352   2
   3 -13  -5 1315.36 225.511   5
   3 -13  -4 9622.05 541.156   5
   3 -13  -3 74.1260 102.103   5
   3 -13  -2 13443.5 630.897   5
   3 -13  -1 603.939 161.471   5
   3 -13   0 7269.39 471.416   5
   3 -13   1 183.636 121.920   5
   3 -13   2 11260.1 597.346   5
   3 -13   3 529.171 160.789   5
   3 -13   4 5618.06 440.828   5
   3 -13   5 254.863 143.932   5
   4   0 -16 5881.96 406.903   2
   4   0 -15-62.9907 107.269   2
   4   0 -14 12143.4 545.091   2
   4   0 -13-44.6546 77.7952   2
   4   0 -12 8447.84 412.384   2
   4   0 -11-10.9922 64.9297   2
   4   0 -10 20980.6 619.028   2
   4   0  -9 97.2215 68.8462   2
   4   0  -8 33854.3 703.557   4
   4   0  -8 34109.4 766.090   2
   4   0  -7-3.67803 32.0056   4
   4   0  -6 60178.0 981.432   5
   4   0  -6 59084.2 984.936   4
   4   0  -5 26.1676 31.1000   5
   4   0  -5-16.2824 34.4633   4
   4   0  -4 20055.8 400.012   5
   4   0  -3 23.6592 28.7833   2
   4   0  -3 3.46451 22.1973   5
   4   0  -3 27.1385 31.7761   1
   4   0  -2 14354.6 269.355   5
   4   0  -2 13841.2 305.982   2
   4   0  -2 14681.8 334.949   1
   4   0  -1 4.74853 13.7746   5
   4   0  -1-0.55182 20.7606   2
   4   0   0 25516.9 361.471   5
   4   0   0 26683.8 491.949   1
   4   0   0 26110.1 400.465   2
   4   0   1-0.62470 33.2859   1
   4   0   2 85381.0 1262.18   1
   4   0   3-12.3590 34.9933   1
   4   0   3 11.6019 24.6667   3
   4   0   3 10.9576 14.0049   5
   4   0   4 98361.8 1350.23   5
   4   0   4 100643. 1475.71   1
   4   0   5 9.06434 21.3242   5
   4   0   5-8.31996 34.4462   1
   4   0   6 107445. 1498.58   5
   4   0   6 103762. 1592.85   1
   4   0   7 46.7895 40.6983   5
   4   0   7-13.2632 42.6440   1
   4   0   8 27820.2 585.646   5
   4   0   8 27442.7 637.701   1
   4   0   9-15.6488 35.4815   5
   4   0   9 8.50431 51.7220   1
   4   0   9 30.9286 48.2046   4
   4   0  10 21158.9 547.417   5
   4   0  10 20697.5 565.645   4
   4   0  10 20781.3 586.070   1
   4   0  11 30.0419 66.0674   1
   4   0  11 46.3595 64.6730   4
   4   0  12 13031.1 477.676   4
   4   0  12 13162.7 492.878   1
   4   0  13 70.8782 74.8028   4
   4   0  13 144.011 87.8561   1
   4   0  14 1403.25 178.090   4
   4   0  14 1711.49 199.555   1
   4   0  15 127.119 102.253   4
   4   0  15 113.864 94.2877   1
   4   2 -16 5568.29 391.279   2
   4  -2 -15 1390.06 200.671   2
   4   2 -15 1332.05 193.312   2
   4  -2 -14 6280.19 398.028   2
   4   2 -14 6691.61 398.652   2
   4   2 -13 158.228 99.3507   2
   4  -2 -13 22.4766 82.5855   2
   4  -2 -12 24208.3 753.836   2
   4   2 -12 23438.0 725.377   2
   4  -2 -11 5078.48 277.555   5
   4  -2 -11 4989.88 307.489   2
   4   2 -11 4545.50 292.449   2
   4  -2 -10 15886.4 491.864   5
   4   2 -10 16150.9 532.768   2
   4  -2  -9 7459.26 305.344   5
   4   2  -9 7405.11 333.598   2
   4  -2  -8 37702.7 765.896   5
   4   2  -8 36752.3 754.985   4
   4   2  -8 36857.9 811.978   2
   4  -2  -7 234.973 60.6725   5
   4  -2  -7 299.023 57.6718   4
   4   2  -7 263.472 57.9777   4
   4  -2  -6 45037.9 786.381   4
   4  -2  -5 493.315 66.4782   5
   4  -2  -5 477.569 59.2527   4
   4  -2  -5 593.276 59.6726   3
   4  -2  -4 14336.4 343.452   5
   4  -2  -4 14213.4 313.133   4
   4  -2  -4 13717.9 314.665   3
   4  -2  -3 2335.71 118.298   5
   4  -2  -3 2240.00 98.3058   4
   4  -2  -3 2242.56 114.266   3
   4   2  -3 2273.20 140.801   1
   4   2  -3 2276.25 128.770   2
   4  -2  -3 2402.89 106.226   1
   4  -2  -2 15028.9 308.175   1
   4  -2  -2 14038.9 316.040   5
   4   2  -2 14765.2 371.383   1
   4   2  -2 14323.7 333.941   2
   4   2  -1 709.403 61.6805   2
   4   2  -1 691.862 78.1466   1
   4  -2  -1 679.116 60.0126   1
   4  -2  -1 726.960 61.2645   5
   4   2   0 12214.6 322.260   1
   4  -2   0 12024.7 270.331   1
   4   2   0 11935.4 263.021   2
   4  -2   0 11948.9 270.925   5
   4   2   1 13641.2 343.068   1
   4   2   1 13946.5 282.174   2
   4  -2   1 13983.2 309.681   1
   4  -2   1 13792.1 318.612   5
   4  -2   2 42927.6 711.660   1
   4  -2   2 43050.6 638.070   2
   4   2   2 44076.3 746.935   1
   4   2   2 41171.7 629.756   5
   4  -2   3 2340.02 127.406   1
   4   2   3 2543.50 135.894   1
   4  -2   3 2487.46 91.7745   2
   4   2   3 2313.49 92.6858   5
   4   2   4 63153.7 1038.81   1
   4  -2   4 62980.9 1032.16   1
   4   2   4 65119.3 940.203   5
   4  -2   4 63686.1 926.861   2
   4   2   5 2828.05 125.870   5
   4  -2   5 2811.59 156.908   1
   4   2   5 3010.01 159.140   1
   4  -2   5 2670.09 119.156   2
   4   2   6 33777.4 628.148   5
   4  -2   6 35616.9 638.188   4
   4  -2   6 34112.3 693.417   1
   4   2   6 34438.2 691.341   1
   4   2   7 8154.41 268.223   5
   4  -2   7 8816.05 277.552   4
   4   2   7 8899.63 309.829   1
   4  -2   7 8324.17 306.805   1
   4   2   8 34869.6 690.920   5
   4  -2   8 35252.4 704.645   5
   4  -2   8 34161.3 692.300   4
   4  -2   8 33255.7 746.524   1
   4   2   8 34399.9 735.147   1
   4   2   9 139.353 56.3814   5
   4   2   9 169.737 60.9100   1
   4  -2   9 89.8822 55.6514   5
   4  -2   9 88.9403 52.5992   4
   4  -2   9 97.1261 32.8791   3
   4  -2   9 192.429 77.2994   1
   4   2  10 24450.6 607.510   5
   4  -2  10 23156.7 641.072   1
   4  -2  10 24108.6 606.970   4
   4  -2  10 25112.3 453.700   3
   4   2  10 22899.9 621.685   1
   4  -2  11 244.340 87.6229   1
   4   2  11 242.563 79.8124   1
   4   2  11 238.484 87.7268   4
   4  -2  11 262.252 86.7272   4
   4  -2  11 298.355 42.8356   3
   4   2  12 3882.48 263.866   4
   4  -2  12 3641.79 241.628   4
   4  -2  12 3938.88 270.551   1
   4   2  12 3743.32 250.426   1
   4   2  13 596.002 121.813   1
   4   2  13 643.332 121.959   4
   4  -2  13 682.623 128.175   4
   4  -2  13 708.902 141.560   1
   4  -2  14 12283.5 509.992   4
   4   2  14 12464.3 510.998   1
   4  -2  14 12088.6 527.727   1
   4   2  14 12423.2 528.173   4
   4   2  15 1007.86 160.714   1
   4  -2  15 1376.70 199.873   1
   4  -2  15 1251.10 180.977   4
   4   2  16 8689.99 461.758   1
   4   4 -15 967.423 185.332   2
   4  -4 -15 1089.86 195.754   2
   4  -4 -14 3585.94 283.202   5
   4   4 -14 3420.78 288.584   2
   4  -4 -14 3229.73 302.612   2
   4  -4 -13 3748.14 274.678   5
   4   4 -13 4101.98 301.641   2
   4  -4 -12 17846.5 586.029   5
   4   4 -12 17515.5 623.609   2
   4   4 -11 1007.79 139.468   2
   4  -4 -11 819.273 124.695   5
   4  -4 -10 9154.59 373.408   5
   4   4 -10 8878.04 393.773   2
   4   4  -9 1105.47 138.360   2
   4  -4  -9 1010.07 126.707   5
   4  -4  -8 35951.5 778.311   5
   4   4  -8 35081.3 753.477   4
   4  -4  -8 35877.4 642.163   3
   4   4  -8 35827.6 828.543   2
   4  -4  -7 14749.9 435.105   5
   4  -4  -7 14707.2 360.971   3
   4   4  -7 15553.4 469.747   2
   4  -4  -6 35125.8 722.905   5
   4  -4  -6 34223.6 634.048   3
   4  -4  -5 650.310 87.8613   5
   4  -4  -4 702.828 85.5078   5
   4  -4  -3 10377.9 317.260   5
   4  -4  -3 11327.3 212.001   1
   4   4  -3 9992.99 317.952   2
   4   4  -2 36561.0 707.331   2
   4  -4  -2 37942.2 578.739   1
   4   4  -2 39620.7 754.185   1
   4  -4  -2 36622.8 708.057   5
   4  -4  -1 31967.9 513.745   1
   4   4  -1 30329.1 613.688   2
   4   4  -1 32440.3 656.943   1
   4  -4  -1 31008.2 628.050   5
   4   4   0 18078.8 417.885   2
   4  -4   0 18474.4 354.444   1
   4   4   0 18193.1 450.339   1
   4  -4   0 18533.6 460.963   5
   4   4   1 847.794 90.9817   1
   4  -4   1 770.040 75.8431   2
   4   4   1 955.154 88.3712   2
   4  -4   1 967.244 71.6937   1
   4  -4   1 927.203 100.327   5
   4   4   2 33476.2 658.849   1
   4  -4   2 32975.1 630.831   2
   4  -4   2 33192.0 696.815   5
   4  -4   2 34277.0 602.644   1
   4   4   2 32687.9 630.165   5
   4  -4   3 4262.31 182.364   2
   4   4   3 4284.40 184.361   5
   4   4   3 4380.36 196.757   1
   4  -4   3 4299.05 111.834   4
   4   4   4 71127.3 1133.32   5
   4  -4   4 70922.9 1007.60   4
   4   4   4 70545.4 1161.42   1
   4  -4   4 72683.7 1131.93   2
   4  -4   5 19937.3 454.817   2
   4  -4   5 19878.2 383.936   4
   4   4   5 19592.4 483.051   1
   4   4   5 19661.1 455.393   5
   4  -4   6 28908.8 543.773   4
   4   4   6 29256.0 631.931   1
   4  -4   6 28876.7 606.773   2
   4   4   6 28798.7 609.578   5
   4  -4   7 9323.04 279.087   4
   4   4   7 9107.41 322.733   1
   4   4   7 9179.24 315.450   5
   4  -4   7 9190.89 310.490   2
   4  -4   8 26323.1 567.914   4
   4  -4   8 25857.7 609.347   2
   4   4   8 26310.2 626.608   1
   4   4   8 26975.7 621.504   5
   4  -4   9 14034.7 408.382   4
   4   4   9 13836.9 439.332   1
   4   4   9 15146.5 454.727   5
   4   4  10 13475.5 450.154   1
   4  -4  10 14088.3 431.581   4
   4  -4  11 1983.40 165.888   4
   4   4  11 1744.99 165.862   1
   4  -4  11 1881.51 187.116   1
   4   4  12 1736.22 171.151   1
   4  -4  12 2041.24 207.636   1
   4   4  13 878.786 143.216   4
   4   4  13 804.339 137.745   1
   4  -4  13 1000.82 162.542   1
   4   4  14 9717.26 442.405   1
   4  -4  14 10540.2 503.418   1
   4   4  14 9674.86 476.441   4
   4  -6 -14 4772.06 333.553   5
   4   6 -14 4595.70 346.936   2
   4   6 -13 5215.24 352.117   2
   4  -6 -13 4814.29 324.208   5
   4  -6 -12 1880.54 199.874   5
   4   6 -12 1306.41 179.863   2
   4   6 -11 11066.1 478.416   2
   4  -6 -11 10419.6 450.226   5
   4   6 -10 14102.9 527.621   2
   4  -6 -10 13983.2 507.479   5
   4   6  -9 5139.39 301.542   2
   4  -6  -9 4791.73 283.555   5
   4   6  -8 19226.7 591.368   2
   4  -6  -8 19428.2 575.334   5
   4   6  -7 23137.7 634.038   2
   4  -6  -7 21403.0 602.910   5
   4  -6  -6 10946.7 398.112   5
   4   6  -6 11200.7 409.443   2
   4  -6  -5 2941.69 200.236   5
   4   6  -5 3089.47 203.465   2
   4  -6  -4 14146.7 454.565   5
   4   6  -4 15214.8 455.125   2
   4   6  -3 2028.08 154.513   2
   4  -6  -3 1788.25 154.295   5
   4   6  -2 6661.65 275.695   2
   4  -6  -2 6239.14 285.829   5
   4  -6  -2 6646.88 158.654   1
   4  -6  -1 6889.10 179.414   1
   4   6  -1 7013.33 284.158   2
   4   6  -1 6938.70 284.966   1
   4  -6  -1 6482.91 296.761   5
   4  -6   0 13156.9 383.743   2
   4   6   0 12166.5 385.765   2
   4   6   0 12858.2 396.112   1
   4  -6   0 13016.4 440.991   5
   4  -6   0 12871.7 287.867   1
   4  -6   1 2275.65 179.658   5
   4  -6   1 2037.26 149.024   2
   4   6   1 2336.79 157.692   1
   4  -6   2 14170.3 430.241   2
   4   6   2 14207.9 409.002   1
   4  -6   2 13918.1 473.235   5
   4   6   3 26545.6 595.913   1
   4  -6   3 26053.2 634.283   2
   4  -6   3 25935.3 682.267   5
   4   6   3 25589.2 629.579   5
   4  -6   4 9986.54 360.794   2
   4   6   4 9408.65 322.637   1
   4  -6   4 9471.43 386.586   5
   4   6   4 9375.50 354.745   5
   4   6   5 13156.4 397.728   1
   4  -6   5 14107.9 442.054   2
   4   6   5 14260.3 448.662   5
   4   6   6 39085.5 817.353   1
   4  -6   6 43306.4 891.479   2
   4   6   6 43396.9 894.753   5
   4   6   7 12098.4 387.558   1
   4  -6   7 11604.2 417.821   2
   4   6   7 11921.4 421.026   5
   4   6   8 11275.4 383.537   1
   4  -6   8 11466.9 424.802   2
   4   6   8 11076.4 416.997   5
   4   6   9 12235.6 415.713   1
   4  -6   9 12691.3 459.736   2
   4   6  10 5420.21 276.700   1
   4   6  11 2003.59 179.272   1
   4   6  12 5248.87 293.407   1
   4   6  13 1565.53 203.708   4
   4  -6  13 1712.38 210.705   1
   4   8 -13 5331.83 375.081   2
   4  -8 -12 1513.30 200.734   5
   4   8 -12 1131.86 173.679   2
   4   8 -11 7448.11 415.651   2
   4  -8 -11 6873.03 391.841   5
   4   8 -10 6961.88 393.065   2
   4  -8 -10 6345.98 268.477   3
   4  -8 -10 6717.67 376.262   5
   4   8  -9 10466.4 472.133   2
   4  -8  -9 9485.50 338.257   3
   4  -8  -9 10010.6 453.817   5
   4  -8  -8 7353.52 377.413   5
   4   8  -8 7851.69 392.292   2
   4  -8  -7 10742.7 453.466   5
   4   8  -7 11120.1 458.618   2
   4   8  -6 4143.68 267.872   2
   4  -8  -6 3504.86 251.175   5
   4  -8  -5 11735.5 466.234   5
   4   8  -5 13173.2 471.909   2
   4  -8  -4 10793.0 440.470   5
   4   8  -4 11027.1 421.528   2
   4   8  -3 5192.91 278.828   2
   4  -8  -3 4694.14 288.173   5
   4   8  -2 2520.95 190.563   2
   4  -8  -2 2521.95 94.3731   1
   4  -8  -2 2537.07 215.505   5
   4  -8  -1 4718.33 254.971   2
   4   8  -1 4526.34 250.495   2
   4  -8  -1 4481.80 150.883   1
   4  -8  -1 4533.40 285.846   5
   4  -8   0 6647.47 313.571   2
   4  -8   0 6158.07 199.716   1
   4  -8   0 6312.34 339.665   5
   4  -8   1 27833.2 784.106   5
   4  -8   1 29413.4 741.142   2
   4   8   1 29485.6 687.298   1
   4  -8   2 7523.61 346.914   2
   4   8   2 7090.10 301.478   1
   4  -8   2 6674.45 362.956   5
   4  -8   3 18912.7 591.625   2
   4   8   3 18159.4 506.767   1
   4   8   3 18772.0 579.471   5
   4  -8   3 18205.6 621.316   5
   4  -8   4 1991.65 188.348   2
   4   8   4 2008.65 156.230   1
   4   8   4 1626.72 173.187   5
   4  -8   4 1670.10 197.904   5
   4  -8   5 23972.3 708.774   2
   4   8   5 25413.4 609.233   1
   4   8   5 24724.1 719.732   5
   4  -8   5 25779.3 772.198   5
   4  -8   6 10843.0 488.434   5
   4   8   6 11042.5 383.279   1
   4   8   7 15411.1 466.295   1
   4   8   8 4644.55 251.050   1
   4   8   9 5942.82 288.560   1
   4   8  10 2545.20 191.859   1
   4 -10 -11 7245.20 449.511   5
   4  10 -11 7956.98 460.894   2
   4 -10 -10 411.180 129.391   5
   4  10 -10 228.499 124.331   2
   4 -10  -9 7233.58 426.868   5
   4  10  -9 7223.59 426.869   2
   4 -10  -8 4362.65 335.755   5
   4  10  -8 3805.28 296.485   2
   4 -10  -7 11554.4 533.962   5
   4  10  -7 12888.0 536.778   2
   4 -10  -6 3570.92 290.092   5
   4  10  -6 4032.42 297.658   2
   4 -10  -5 12601.0 540.239   5
   4  10  -5 13442.8 520.941   2
   4 -10  -4 298.767 118.333   5
   4  10  -4 143.779 80.7321   2
   4  10  -3 10231.8 440.175   2
   4 -10  -3 9430.10 469.216   5
   4  10  -2 4493.09 284.282   2
   4 -10  -2 4141.98 132.032   1
   4 -10  -2 4387.70 156.045   1
   4 -10  -2 4523.14 320.704   5
   4 -10  -1 4246.88 184.112   1
   4 -10  -1 4171.37 156.226   1
   4 -10  -1 4214.72 307.870   5
   4 -10   0 1078.91 174.669   5
   4 -10   1 12012.2 531.798   5
   4 -10   2 2624.65 254.677   5
   4 -10   3 12785.4 571.221   5
   4  10   4 9479.91 360.648   1
   4 -10   4 9016.39 482.125   5
   4  10   5 11238.2 391.730   1
   4 -10   5 11108.9 546.166   5
   4 -10   6 908.394 174.328   5
   4  10   6 541.986 97.7169   1
   4 -10   7 17362.1 723.047   5
   4  10   7 16375.4 482.563   1
   4 -10   8 1241.40 209.165   5
   4 -10   9 10975.8 603.545   5
   4 -12  -8 440.079 155.393   5
   4  12  -8 473.338 143.717   2
   4 -12  -7 15073.1 686.069   5
   4  12  -7 16990.8 660.102   2
   4 -12  -6 103.374 104.408   5
   4  12  -6 98.6954 108.850   2
   4 -12  -5 5843.67 411.245   5
   4  12  -5 5761.59 371.330   2
   4 -12  -4 2088.59 255.640   5
   4  12  -4 2216.68 232.513   2
   4 -12  -3 6082.26 414.892   5
   4 -12  -2-38.1061 107.639   5
   4 -12  -1 7379.84 446.047   5
   4 -12   0 40.8859 42.3068   1
   4 -12   0 13.9346 104.221   5
   4 -12   1 7959.14 473.006   5
   4 -12   2 301.773 138.065   5
   4 -12   3 15388.5 683.631   5
   4 -12   4-61.3955 103.869   5
   4 -12   5 13277.0 659.325   5
   4 -12   6 71.8087 111.693   5
   4 -12   7 11278.1 631.453   5
   5  -1 -15 13491.1 613.309   2
   5   1 -15 13438.2 615.243   2
   5  -1 -14 452.131 131.238   2
   5   1 -14 590.807 146.914   2
   5  -1 -13 23588.2 767.769   2
   5   1 -13 23708.3 765.952   2
   5   1 -12 620.870 132.089   2
   5  -1 -12 641.670 127.897   2
   5  -1 -11 10274.7 449.746   2
   5   1 -11 9839.58 431.476   2
   5  -1 -10 39.5988 78.7619   2
   5   1 -10 63.3546 75.0814   2
   5  -1  -9 12106.9 397.825   5
   5  -1  -9 12311.4 450.474   2
   5   1  -9 12197.7 443.808   2
   5  -1  -8 8343.82 308.589   5
   5  -1  -8 8442.85 302.348   4
   5   1  -8 8185.30 307.914   4
   5  -1  -8 8039.38 339.742   2
   5   1  -8 8282.66 344.597   2
   5  -1  -7 13304.2 378.131   5
   5  -1  -7 13493.8 376.619   4
   5   1  -7 13472.2 386.643   4
   5   1  -7 12947.2 418.010   2
   5  -1  -6 332.396 61.0085   5
   5  -1  -6 352.264 58.4145   4
   5  -1  -5 10332.9 292.160   5
   5  -1  -5 10291.3 288.970   4
   5   1  -5 10974.0 337.259   2
   5   1  -4 55.5930 41.7067   2
   5  -1  -4 108.388 38.3180   5
   5  -1  -4 24.7878 35.0466   1
   5   1  -4 4.33772 41.9783   1
   5  -1  -3 84018.8 1226.63   5
   5   1  -3 87189.5 1344.28   1
   5  -1  -3 85800.1 1294.05   1
   5   1  -3 85685.1 1291.97   2
   5  -1  -2 5503.12 161.321   5
   5   1  -2 5417.75 220.418   1
   5   1  -2 5470.21 186.654   2
   5  -1  -2 5430.55 198.847   1
   5  -1  -1 46730.5 688.490   5
   5  -1  -1 46900.9 782.478   1
   5   1  -1 45694.1 820.791   1
   5   1  -1 45898.6 724.309   2
   5  -1   0 360.768 34.1460   5
   5  -1   0 340.912 53.8271   1
   5   1   0 303.868 50.4513   1
   5   1   0 400.357 40.9198   2
   5   1   1 72190.6 994.856   2
   5   1   1 72627.5 1157.96   1
   5  -1   1 75104.7 1101.08   3
   5  -1   1 72314.5 1004.91   5
   5  -1   1 73611.9 1129.21   1
   5  -1   2 9333.88 217.356   5
   5  -1   2 9360.80 280.258   1
   5  -1   2 9591.14 253.008   3
   5   1   2 9920.04 293.844   1
   5   1   3 81243.0 1074.37   5
   5  -1   3 80491.8 1187.84   3
   5  -1   3 82649.1 1257.38   1
   5   1   3 79088.8 1267.09   1
   5  -1   4 5126.74 214.309   1
   5   1   4 5163.44 218.151   1
   5   1   4 5055.78 140.683   5
   5  -1   4 5076.00 174.774   3
   5   1   5 25999.3 458.309   5
   5   1   5 25963.1 579.354   1
   5  -1   5 26284.2 489.605   3
   5  -1   5 25972.6 578.324   1
   5   1   6 2311.18 115.603   5
   5  -1   6 2153.10 152.213   1
   5  -1   6 2138.33 118.401   5
   5   1   6 2026.13 146.060   1
   5  -1   6 2288.34 112.062   3
   5   1   7 19107.8 429.581   5
   5  -1   7 19853.4 444.045   5
   5  -1   7 18906.2 510.355   1
   5  -1   7 19869.2 394.893   3
   5   1   7 19359.7 514.633   1
   5   1   8 1469.34 116.353   5
   5  -1   8 1510.01 115.761   5
   5  -1   8 1503.51 142.429   1
   5  -1   8 1497.25 91.0736   3
   5   1   8 1459.91 140.673   1
   5   1   9 20014.9 493.285   5
   5  -1   9 18811.9 489.043   5
   5  -1   9 20339.5 526.160   4
   5  -1   9 19330.6 559.784   1
   5   1   9 19220.5 553.855   1
   5   1  10 501.811 87.1645   5
   5  -1  10 523.755 99.8744   1
   5  -1  10 566.866 93.9568   5
   5  -1  10 503.689 94.8754   4
   5   1  10 471.354 95.5553   1
   5  -1  11 11566.3 458.344   1
   5   1  11 11554.8 436.275   4
   5  -1  11 11250.1 422.185   4
   5   1  11 11526.3 445.835   1
   5  -1  12 554.021 116.832   1
   5   1  12 382.129 99.5514   1
   5   1  12 353.734 95.9869   4
   5  -1  12 710.866 130.360   4
   5  -1  13 25750.9 774.789   1
   5   1  13 25044.9 744.164   4
   5  -1  13 24985.7 725.253   4
   5   1  13 24650.4 747.001   1
   5  -1  14 2517.78 250.558   1
   5   1  14 2194.67 223.102   4
   5  -1  14 2062.89 213.555   4
   5   1  14 2416.92 235.421   1
   5  -1  15 11757.5 531.696   4
   5   1  15 12212.5 552.050   1
   5  -1  15 12574.2 565.106   1
   5   3 -15 13546.1 611.012   2
   5  -3 -15 12700.6 616.493   2
   5  -3 -14 2881.93 282.066   2
   5   3 -14 2541.60 260.697   2
   5   3 -13 10266.9 490.410   2
   5  -3 -13 10690.4 463.383   5
   5  -3 -13 10910.3 517.772   2
   5  -3 -12 1699.72 180.812   5
   5   3 -12 1793.76 196.569   2
   5  -3 -11 26057.1 704.733   5
   5   3 -11 26041.2 752.758   2
   5  -3 -10 77.9305 62.1906   5
   5   3 -10 94.5560 71.4098   2
   5  -3  -9 6122.84 284.832   5
   5   3  -9 5884.77 307.683   2
   5  -3  -8 4338.37 229.957   5
   5   3  -8 4567.40 259.436   2
   5  -3  -7 9447.50 331.811   5
   5   3  -7 9747.05 365.874   2
   5   3  -6 159.359 62.3548   2
   5  -3  -6 95.7575 49.1737   5
   5  -3  -6 147.237 43.0106   4
   5  -3  -6 42.5900 31.2678   3
   5  -3  -5 13239.0 367.284   5
   5  -3  -5 13004.5 320.735   4
   5  -3  -5 12718.8 335.817   3
   5   3  -5 13247.2 398.826   2
   5   3  -4 878.249 96.3845   2
   5  -3  -4 644.312 80.8642   5
   5  -3  -4 776.522 67.0312   4
   5  -3  -4 723.409 61.2516   1
   5  -3  -4 642.572 73.3077   3
   5  -3  -3 35793.2 665.249   5
   5  -3  -3 36659.9 612.371   1
   5  -3  -3 35557.2 579.270   4
   5  -3  -3 34657.1 655.583   3
   5   3  -3 35697.8 736.494   1
   5   3  -3 35701.1 685.823   2
   5   3  -2 25608.0 521.379   2
   5  -3  -2 24693.7 505.347   5
   5  -3  -2 25260.8 477.789   1
   5  -3  -2 25381.9 419.312   4
   5   3  -2 25774.0 582.948   1
   5   3  -1 120039. 1734.79   2
   5  -3  -1 125296. 1700.98   1
   5   3  -1 121637. 1833.10   1
   5  -3  -1 120698. 1731.17   5
   5  -3   0 11889.6 288.137   1
   5   3   0 10212.2 276.020   2
   5  -3   0 9600.82 278.437   5
   5   3   0 9765.72 322.381   1
   5   3   1 82970.3 1320.97   1
   5   3   1 80487.9 1216.11   2
   5  -3   1 81763.4 1192.13   2
   5  -3   1 83682.9 1230.06   1
   5  -3   1 83980.5 1276.88   5
   5  -3   2 7210.39 212.779   2
   5   3   2 7149.14 265.912   1
   5   3   2 7636.14 203.500   5
   5  -3   2 7809.56 261.763   5
   5  -3   2 7603.11 240.967   1
   5  -3   3 37169.9 612.512   2
   5  -3   3 36741.8 686.797   1
   5   3   3 36353.5 615.346   5
   5   3   3 36895.1 726.905   1
   5  -3   4 4318.47 195.543   1
   5   3   4 4114.71 200.088   1
   5  -3   4 4105.80 147.873   2
   5   3   4 3994.88 155.069   5
   5  -3   5 21653.2 435.728   2
   5   3   5 21581.4 533.039   1
   5  -3   5 21907.5 523.424   1
   5   3   5 23555.3 462.981   5
   5  -3   6 2302.69 159.102   1
   5  -3   6 2153.53 121.444   4
   5  -3   6 2180.91 121.538   2
   5   3   6 2259.26 159.158   1
   5   3   6 2215.27 127.824   5
   5   3   7 3776.44 180.518   5
   5   3   7 3306.40 202.208   1
   5  -3   7 3440.91 206.217   1
   5  -3   7 3437.75 167.045   4
   5  -3   8 5219.62 268.046   1
   5   3   8 5491.04 269.840   1
   5   3   8 5511.44 234.386   5
   5  -3   8 5399.04 227.916   4
   5   3   9 12534.5 395.715   5
   5  -3   9 13563.5 460.947   1
   5   3   9 12822.4 444.571   1
   5  -3   9 13306.2 414.578   5
   5  -3   9 13594.0 402.074   4
   5  -3   9 13473.3 354.330   3
   5   3  10 1973.49 161.582   5
   5  -3  10 1869.88 177.011   1
   5   3  10 1545.88 157.977   1
   5  -3  10 2112.12 165.653   4
   5  -3  10 1934.30 125.420   3
   5   3  11 17549.7 568.438   1
   5  -3  11 17370.1 527.657   4
   5  -3  11 18256.6 412.796   3
   5  -3  11 18628.4 604.321   1
   5  -3  12 1133.43 138.652   4
   5  -3  12 1437.66 174.097   1
   5   3  12 1401.34 173.479   1
   5   3  13 11558.6 488.028   1
   5   3  13 11496.9 500.164   4
   5  -3  13 11582.8 462.315   4
   5  -3  13 12114.1 522.959   1
   5   3  14 3528.88 277.676   1
   5   3  14 3335.99 284.880   4
   5  -3  14 3237.23 257.982   4
   5  -3  14 3544.43 295.531   1
   5   3  15 20552.4 719.206   1
   5   5 -14 1599.66 207.977   2
   5  -5 -14 1798.86 214.629   5
   5  -5 -13 8667.35 429.817   5
   5   5 -13 8390.78 453.676   2
   5  -5 -12 3263.83 255.943   5
   5   5 -12 3696.60 284.410   2
   5  -5 -11 5512.43 315.937   5
   5   5 -11 6187.35 352.241   2
   5   5 -10 4427.04 290.351   2
   5  -5 -10 4560.16 277.871   5
   5  -5  -9 12887.1 459.008   5
   5   5  -9 13779.4 499.676   2
   5   5  -8 786.289 121.788   2
   5  -5  -8 874.892 118.432   5
   5  -5  -7 6567.81 297.124   5
   5   5  -7 6556.41 313.467   2
   5   5  -6 9435.29 363.231   2
   5  -5  -6 9558.61 353.812   5
   5   5  -5 5850.37 274.185   2
   5  -5  -5 6158.68 274.126   5
   5   5  -4 9074.02 330.954   2
   5  -5  -4 8525.83 319.324   5
   5  -5  -3 13460.0 401.175   5
   5   5  -3 13052.8 401.367   2
   5  -5  -3 13934.7 279.623   1
   5   5  -2 8572.13 305.998   2
   5  -5  -2 9054.64 226.053   1
   5   5  -2 9167.79 341.836   1
   5  -5  -2 8454.36 308.154   5
   5  -5  -1 26050.3 475.448   1
   5   5  -1 26392.1 583.651   2
   5   5  -1 26294.0 626.778   1
   5  -5  -1 26448.0 603.545   5
   5   5   0 40507.2 778.627   2
   5  -5   0 41594.3 689.813   1
   5   5   0 41263.4 834.351   1
   5  -5   0 41632.1 830.457   5
   5  -5   1 44150.5 741.032   1
   5  -5   1 42803.2 799.362   2
   5   5   1 44403.2 861.232   1
   5  -5   1 41449.6 867.438   5
   5  -5   2 5335.24 228.976   2
   5  -5   2 6025.94 224.861   1
   5  -5   2 5394.20 264.192   5
   5   5   2 5705.96 254.246   1
   5  -5   3 11457.8 399.809   5
   5   5   3 12104.4 382.243   1
   5  -5   3 12465.6 340.032   1
   5  -5   3 11773.0 360.637   2
   5   5   3 11464.8 350.424   5
   5  -5   4 4311.84 208.083   2
   5   5   4 4418.02 221.922   1
   5   5   4 4104.26 203.860   5
   5  -5   4 4498.00 206.731   1
   5  -5   4 4005.68 228.879   5
   5   5   5 21172.4 545.421   1
   5   5   5 22587.2 539.680   5
   5  -5   5 22988.9 531.677   2
   5  -5   5 21714.3 534.006   1
   5  -5   6 13166.3 416.045   1
   5   5   6 12878.0 411.828   1
   5  -5   6 13232.6 396.255   2
   5   5   6 13699.6 407.961   5
   5  -5   7 15257.2 466.805   1
   5   5   7 14459.4 454.811   1
   5  -5   7 14732.8 427.574   2
   5   5   7 15176.3 443.968   5
   5  -5   8 2988.03 209.559   1
   5   5   8 2721.61 196.127   1
   5  -5   8 2758.37 180.695   2
   5   5   8 2738.10 183.970   5
   5  -5   9 10441.1 376.161   2
   5   5   9 10620.2 402.071   1
   5  -5   9 10458.9 417.604   1
   5   5   9 11107.9 400.034   5
   5  -5  10 6120.57 328.231   1
   5   5  10 5568.82 296.789   1
   5  -5  11 9126.30 427.004   1
   5   5  11 8872.00 391.883   1
   5  -5  12 2277.10 227.448   1
   5   5  12 2394.11 212.484   1
   5  -5  13 11491.2 522.310   1
   5   5  13 11292.7 477.642   1
   5   5  14 3298.66 269.794   1
   5   7 -13 5074.42 363.635   2
   5  -7 -13 5152.68 355.056   5
   5   7 -12 9713.10 483.321   2
   5  -7 -12 8857.41 451.451   5
   5   7 -11 2162.11 235.050   2
   5  -7 -11 2288.29 224.365   5
   5  -7 -11 2146.84 151.521   3
   5   7 -10 3886.20 283.832   2
   5  -7 -10 3627.08 268.917   5
   5  -7 -10 3473.67 195.050   3
   5   7  -9 8257.45 410.391   2
   5  -7  -9 7859.25 384.600   5
   5  -7  -9 8194.45 303.027   3
   5   7  -8 8841.42 409.785   2
   5  -7  -8 8271.00 385.003   5
   5  -7  -8 8162.91 309.806   3
   5  -7  -7 5123.61 292.933   5
   5   7  -7 5167.41 302.639   2
   5  -7  -6 3340.72 233.766   5
   5   7  -6 4111.24 255.717   2
   5  -7  -5 3587.00 241.431   5
   5   7  -5 4309.14 258.891   2
   5  -7  -4 5199.00 282.242   5
   5   7  -4 5770.58 294.141   2
   5   7  -3 32445.6 752.835   2
   5  -7  -3 30961.6 759.148   5
   5  -7  -3 31717.3 468.881   1
   5   7  -2 20325.3 554.882   2
   5  -7  -2 20547.6 379.181   1
   5  -7  -2 18997.9 571.529   5
   5   7  -1 9678.52 363.082   2
   5  -7  -1 9305.50 243.528   1
   5   7  -1 10178.2 383.121   1
   5  -7  -1 9232.20 385.743   5
   5  -7   0 20120.9 533.811   2
   5   7   0 20694.3 554.480   2
   5   7   0 19516.1 550.133   1
   5  -7   0 18539.2 578.876   5
   5  -7   0 19390.3 410.326   1
   5  -7   1 23099.1 595.454   2
   5   7   1 22242.4 589.660   1
   5  -7   1 23297.4 486.167   1
   5  -7   1 21656.0 643.464   5
   5  -7   2 23847.5 630.513   2
   5  -7   2 24498.1 520.421   1
   5  -7   2 24814.4 693.535   5
   5   7   2 23690.1 607.362   1
   5  -7   3 10502.3 402.221   2
   5   7   3 10596.5 376.715   1
   5  -7   3 10621.5 436.563   5
   5  -7   3 10642.1 332.338   1
   5  -7   4 21613.8 610.008   2
   5   7   4 21722.3 574.430   1
   5   7   4 21643.6 603.462   5
   5  -7   4 21764.8 659.386   5
   5  -7   5 460.046 96.3989   2
   5   7   5 449.755 93.9614   1
   5  -7   5 255.946 86.2919   5
   5   7   5 186.371 75.9737   5
   5   7   6 6699.66 302.521   1
   5   7   6 6926.02 339.129   5
   5  -7   6 6480.91 319.283   2
   5   7   7 13568.6 447.573   1
   5  -7   7 13641.4 486.755   2
   5   7   7 14212.2 503.100   5
   5   7   8 4219.29 249.907   1
   5  -7   8 4564.31 274.870   2
   5   7   9 5111.98 276.629   1
   5   7  10 4918.16 278.741   1
   5  -7  11 2400.68 231.348   1
   5   7  11 1954.40 187.602   1
   5  -7  12 4032.61 306.765   1
   5  -9 -11 2761.85 276.516   5
   5   9 -11 3325.62 300.162   2
   5  -9 -10 2513.42 247.598   5
   5   9 -10 2325.74 242.721   2
   5  -9 -10 2323.47 178.978   3
   5  -9  -9 2866.03 261.452   5
   5   9  -9 2534.14 248.492   2
   5  -9  -9 2290.72 181.109   3
   5  -9  -8 7180.30 405.838   5
   5   9  -8 8447.71 433.600   2
   5  -9  -7 787.117 147.132   5
   5   9  -7 506.311 115.633   2
   5  -9  -6 2060.58 218.891   5
   5   9  -6 2633.06 227.997   2
   5  -9  -5 1237.83 173.252   5
   5   9  -5 1363.60 166.787   2
   5  -9  -4 8451.50 411.465   5
   5   9  -4 8924.16 399.454   2
   5  -9  -3 1891.41 204.071   5
   5   9  -3 1878.57 179.398   2
   5  -9  -2 29104.3 491.483   1
   5   9  -2 29227.8 754.002   2
   5  -9  -2 27526.9 788.026   5
   5   9  -1 7315.09 355.581   2
   5  -9  -1 7403.85 219.737   1
   5  -9  -1 7518.11 385.813   5
   5  -9   0 11942.4 316.336   1
   5  -9   0 12552.0 508.241   5
   5  -9   1 6033.49 228.226   1
   5  -9   1 5905.07 346.619   5
   5   9   2 23303.0 633.078   1
   5  -9   2 23432.8 533.293   1
   5  -9   2 23586.3 751.478   5
   5   9   3 2101.82 177.868   1
   5  -9   3 2431.04 236.237   5
   5   9   4 11239.2 412.481   1
   5  -9   4 11764.6 526.041   5
   5   9   5 4077.96 244.703   1
   5  -9   5 4135.13 316.210   5
   5   9   6 5715.76 291.942   1
   5  -9   6 5882.14 381.378   5
   5   9   7 634.406 109.221   1
   5  -9   7 585.270 143.404   5
   5  -9   8 8354.47 477.665   5
   5   9   8 7601.19 342.296   1
   5  -9  11 4380.53 322.510   1
   5 -11  -9 519.303 151.027   5
   5  11  -9 735.505 178.006   2
   5  11  -8 4030.80 325.773   2
   5 -11  -8 4274.97 353.081   5
   5 -11  -7-38.7852 91.7099   5
   5  11  -7-95.3059 86.6715   2
   5 -11  -6 7555.96 447.949   5
   5  11  -6 7458.66 421.826   2
   5 -11  -5 3240.73 291.195   5
   5  11  -5 3151.88 267.417   2
   5  11  -4 18041.0 633.005   2
   5 -11  -4 17330.4 676.037   5
   5 -11  -3 413.764 133.518   5
   5  11  -3 224.693 95.5395   2
   5 -11  -2 6607.15 398.278   5
   5 -11  -1 97.8835 92.7776   5
   5 -11  -1 125.708 39.3618   1
   5 -11   0 21047.8 470.120   1
   5 -11   0 21319.3 748.857   5
   5 -11   1 1755.11 216.633   5
   5 -11   1 1660.36 126.173   1
   5 -11   2 12544.1 386.798   1
   5 -11   2 13057.7 583.906   5
   5 -11   3 95.1048 61.8692   1
   5 -11   3 263.972 122.874   5
   5 -11   4 7682.05 466.314   5
   5  11   5 992.038 135.641   1
   5 -11   5 1181.80 203.248   5
   5 -11   6 11751.2 610.369   5
   5 -11   7 52.2742 107.044   5
   5 -11   8 4949.25 410.581   5
   5 -11   9 7.24230 118.808   5
   5 -13  -5 128.673 119.531   5
   5  13  -5 73.2301 104.005   2
   5 -13  -4 4498.33 375.394   5
   5 -13  -3 1236.08 208.457   5
   5 -13  -2 8433.83 498.190   5
   5 -13  -1 349.644 121.746   5
   5 -13   0 13266.0 627.621   5
   5 -13   1 211.352 115.289   5
   5 -13   2 8970.67 529.143   5
   5 -13   3 185.355 132.837   5
   5 -13   4 6568.67 470.887   5
   5 -13   4 6150.46 312.207   1
   5 -13   5 1525.75 177.519   1
   5 -13   5 1222.07 224.888   5
   5 -13   6 9271.94 425.016   1
   5 -13   7 426.025 121.808   1
   6   0 -15-1.99632 107.970   2
   6   0 -14 1448.75 202.888   2
   6   0 -13 92.8704 90.6182   2
   6   0 -12 12608.2 530.816   2
   6   0 -11 14.5246 76.1481   2
   6   0 -10 6506.54 342.088   2
   6   0  -9 47.0344 68.4155   2
   6   0  -8 45461.0 888.567   4
   6   0  -8 46117.2 965.339   2
   6   0  -7-26.4774 34.3708   4
   6   0  -7-29.8077 48.1497   2
   6   0  -6 73449.9 1192.56   5
   6   0  -6 76322.6 1225.15   4
   6   0  -6 76385.6 1291.40   2
   6   0  -5 42.0668 34.3859   5
   6   0  -5 5.51587 41.6366   2
   6   0  -4 51776.6 825.019   5
   6   0  -4 50688.6 925.039   1
   6   0  -4 50440.0 897.395   2
   6   0  -3 64.3655 49.2041   1
   6   0  -3 10.1476 26.8344   5
   6   0  -3-26.4985 36.3227   2
   6   0  -2 84741.0 1167.43   5
   6   0  -2 84508.3 1249.62   2
   6   0  -2 83419.6 1338.60   1
   6   0  -1 9.64834 24.4132   2
   6   0  -1 21.2775 19.4688   5
   6   0  -1-16.4003 43.8000   1
   6   0   0 1498.54 49.9674   5
   6   0   0 1293.44 107.708   1
   6   0   0 1534.28 74.3639   2
   6   0   1 38.5473 14.2487   2
   6   0   1-2.04429 43.9147   1
   6   0   2 1971.23 135.739   1
   6   0   3 2.94451 12.2749   5
   6   0   3-1.58085 46.4633   1
   6   0   4 70703.0 976.653   5
   6   0   4 70420.0 1189.10   1
   6   0   5-17.1807 21.2568   5
   6   0   5 72.9051 57.8665   1
   6   0   6 36410.1 622.824   5
   6   0   6 37591.2 784.326   1
   6   0   7-20.9410 51.4330   1
   6   0   7 25.6875 36.5473   5
   6   0   8 24543.6 525.248   5
   6   0   8 24758.0 642.516   1
   6   0   9-14.7346 40.1625   5
   6   0   9-48.0085 68.8574   1
   6   0  10 25753.4 611.550   5
   6   0  10 26617.4 718.663   1
   6   0  11 21.5538 61.2204   4
   6   0  11 219.618 90.6018   1
   6   0  12 6891.52 349.918   4
   6   0  12 7283.01 385.851   1
   6   0  13-14.2029 84.1415   1
   6   0  13-21.5876 75.1308   4
   6   0  14 7613.55 412.988   4
   6   0  14 8222.88 443.123   1
   6   2 -15 363.319 140.250   2
   6  -2 -15 328.862 139.563   2
   6  -2 -14 4187.49 334.063   2
   6   2 -14 3447.74 301.710   2
   6   2 -13 582.718 137.801   2
   6  -2 -13 647.931 150.808   2
   6  -2 -12 7127.73 400.981   2
   6   2 -12 6614.82 384.837   2
   6  -2 -11 2855.50 213.270   5
   6  -2 -11 2467.69 229.263   2
   6   2 -11 2430.01 220.458   2
   6  -2 -10 10894.6 410.097   5
   6  -2 -10 11116.4 465.411   2
   6   2 -10 11859.6 467.317   2
   6  -2  -9 827.875 111.902   5
   6   2  -9 809.596 121.355   2
   6  -2  -8 13652.1 425.517   5
   6  -2  -8 15117.4 425.097   4
   6   2  -8 14073.7 476.377   2
   6  -2  -7 10867.9 349.797   5
   6  -2  -7 10586.8 332.549   4
   6   2  -7 10754.6 389.428   2
   6  -2  -6 31338.1 645.469   5
   6  -2  -6 30686.8 618.268   4
   6   2  -6 31854.3 707.227   2
   6   2  -5 632.433 90.5213   2
   6  -2  -5 653.349 76.6198   5
   6  -2  -5 629.532 69.3053   4
   6  -2  -4 78707.4 1205.97   5
   6  -2  -4 78498.3 1175.68   4
   6   2  -4 75698.8 1321.92   1
   6  -2  -4 78411.2 1222.57   1
   6   2  -4 78425.2 1274.30   2
   6   2  -3 418.400 63.0406   2
   6  -2  -3 533.823 66.8821   5
   6  -2  -3 480.187 69.4384   1
   6   2  -3 226.686 68.1214   1
   6  -2  -2 44968.3 734.910   5
   6  -2  -2 44925.5 791.478   1
   6   2  -2 43325.4 854.852   1
   6   2  -2 44302.9 767.173   2
   6  -2  -1 21601.2 419.880   5
   6   2  -1 22584.4 544.047   1
   6  -2  -1 22661.5 479.249   1
   6   2  -1 21359.5 436.528   2
   6   2   0 56008.4 1014.06   1
   6   2   0 56685.1 875.419   2
   6  -2   0 59099.1 953.772   1
   6  -2   0 57009.4 862.480   5
   6  -2   1 1752.18 119.384   1
   6   2   1 1664.78 127.835   1
   6   2   1 1690.04 90.0408   2
   6  -2   1 1777.12 117.078   3
   6  -2   1 1645.85 90.5184   5
   6  -2   2 23495.1 386.463   2
   6  -2   2 22488.4 508.147   1
   6   2   2 22921.3 542.406   1
   6  -2   2 23565.0 494.767   3
   6  -2   2 22743.0 457.966   5
   6  -2   3 3367.72 159.085   3
   6  -2   3 2985.13 169.663   1
   6   2   3 3304.04 186.509   1
   6  -2   3 3431.85 153.080   5
   6  -2   3 3363.72 92.9859   2
   6   2   3 3132.37 98.4943   5
   6  -2   4 32883.4 625.434   3
   6  -2   4 32313.6 484.288   2
   6  -2   4 33145.7 680.304   1
   6   2   4 31651.3 698.780   1
   6   2   4 33276.9 522.423   5
   6  -2   5 3963.59 176.289   3
   6  -2   5 3823.27 208.127   1
   6   2   5 4121.53 219.633   1
   6   2   5 4012.18 143.835   5
   6  -2   6 32155.0 723.194   1
   6   2   6 33519.8 590.827   5
   6   2   6 32835.2 736.223   1
   6  -2   6 32267.4 624.903   3
   6   2   7 12.6179 33.7565   5
   6  -2   7 76.9794 39.4300   5
   6   2   7 55.4667 45.8942   1
   6  -2   7 69.4392 37.5668   3
   6  -2   7 190.242 68.4246   1
   6   2   8 28281.7 592.534   5
   6   2   8 28053.1 711.368   1
   6  -2   8 29513.5 719.872   1
   6  -2   8 29144.7 612.766   5
   6  -2   8 28936.0 573.619   3
   6   2   9 4941.64 227.129   5
   6  -2   9 5040.98 235.083   5
   6  -2   9 4894.44 279.415   1
   6   2   9 5156.32 283.817   1
   6  -2   9 5180.70 245.093   4
   6  -2   9 5181.08 198.303   3
   6  -2  10 16959.0 567.849   1
   6   2  10 17150.3 563.937   1
   6  -2  10 16976.7 503.677   4
   6  -2  10 17961.0 395.765   3
   6   2  10 16763.4 476.427   5
   6   2  11 188.221 90.2882   1
   6  -2  11 230.233 73.9688   4
   6  -2  11 422.750 103.816   1
   6   2  12 15466.9 568.622   1
   6  -2  12 15170.3 522.264   4
   6  -2  12 16183.3 593.165   1
   6   2  13 38.3375 78.3822   1
   6   2  13 52.2866 74.7225   4
   6  -2  13 55.5897 66.0540   4
   6  -2  13 65.7555 83.1375   1
   6   2  14 9434.39 475.679   1
   6   2  14 8540.22 447.301   4
   6  -2  14 9114.75 438.955   4
   6  -2  14 9783.04 494.835   1
   6   2  15 2384.37 249.697   1
   6  -2  15 2323.44 231.188   4
   6  -4 -14 5292.33 341.956   5
   6  -4 -14 5423.01 391.146   2
   6   4 -14 5088.04 363.165   2
   6   4 -13 1961.08 219.702   2
   6  -4 -13 1813.03 198.908   5
   6  -4 -12 3450.85 255.693   5
   6   4 -12 3179.47 269.947   2
   6   4 -11 243.342 97.2756   2
   6  -4 -11 330.495 96.1578   5
   6  -4 -10 11855.9 444.508   5
   6   4 -10 12124.0 483.283   2
   6  -4  -9 9908.71 386.609   5
   6   4  -9 9980.26 421.247   2
   6  -4  -8 22901.0 615.085   5
   6   4  -8 23848.6 656.016   2
   6  -4  -7 6511.89 281.955   5
   6   4  -7 6545.25 310.649   2
   6  -4  -6 21140.3 535.904   5
   6   4  -6 21066.6 570.415   2
   6  -4  -5 6047.44 257.298   5
   6   4  -5 6484.80 287.392   2
   6  -4  -4 42810.9 826.732   5
   6  -4  -4 43068.7 711.922   4
   6   4  -4 44256.0 861.716   2
   6  -4  -4 44484.7 724.164   1
   6  -4  -3 19065.2 467.817   5
   6   4  -3 19293.0 486.028   2
   6  -4  -3 19651.7 420.648   1
   6  -4  -3 19515.3 367.731   4
   6   4  -3 18426.1 533.435   1
   6  -4  -2 18073.5 446.953   5
   6   4  -2 18429.2 457.060   2
   6  -4  -2 19854.5 418.833   1
   6  -4  -2 18801.7 335.239   4
   6   4  -2 19078.0 526.140   1
   6   4  -1 7476.23 265.840   2
   6  -4  -1 7619.38 160.970   4
   6  -4  -1 7493.17 235.801   1
   6   4  -1 7729.87 313.892   1
   6  -4  -1 7224.28 258.565   5
   6  -4   0 24653.5 501.316   1
   6   4   0 25085.6 531.701   2
   6  -4   0 23677.6 533.526   5
   6   4   0 24297.3 601.719   1
   6   4   1 3551.78 170.365   2
   6  -4   1 3721.28 163.443   2
   6  -4   1 3428.64 162.179   1
   6  -4   1 3500.65 186.551   5
   6   4   1 3655.83 210.236   1
   6   4   2 17963.4 494.665   1
   6  -4   2 18331.2 423.935   2
   6  -4   2 18652.0 443.319   1
   6  -4   2 17977.4 473.392   5
   6  -4   3 1691.55 124.698   1
   6  -4   3 1805.52 115.992   2
   6   4   3 1619.39 140.317   1
   6   4   3 1573.29 105.109   5
   6  -4   3 1634.25 134.674   5
   6  -4   4 6861.62 270.772   1
   6  -4   4 7136.02 186.142   4
   6   4   4 6990.55 291.617   1
   6   4   4 6872.70 237.568   5
   6  -4   4 7074.72 289.255   5
   6  -4   4 7525.10 233.847   2
   6   4   5 1248.21 128.353   1
   6  -4   5 1339.01 83.6128   4
   6  -4   5 1444.69 131.973   1
   6  -4   5 1331.88 96.6448   2
   6   4   5 1386.51 105.742   5
   6   4   6 29796.6 611.108   5
   6  -4   6 30719.8 561.841   4
   6   4   6 28922.1 702.942   1
   6  -4   6 29532.9 683.406   1
   6  -4   6 29623.4 581.764   2
   6  -4   7 4963.63 199.353   4
   6   4   7 4679.44 257.231   1
   6  -4   7 4522.46 196.910   2
   6  -4   7 4934.88 258.494   1
   6   4   7 4652.48 214.403   5
   6  -4   8 19736.0 474.556   4
   6   4   8 19445.0 576.043   1
   6  -4   8 20170.7 582.061   1
   6   4   8 19726.3 501.601   5
   6  -4   9 5626.08 246.605   4
   6  -4   9 5767.03 307.120   1
   6   4   9 5614.49 299.712   1
   6   4   9 5374.58 258.736   5
   6  -4  10 11414.6 388.424   4
   6  -4  10 11615.7 363.852   3
   6  -4  10 11135.8 458.243   1
   6   4  10 11519.3 455.333   1
   6   4  10 11931.3 411.600   5
   6  -4  11 1841.46 163.264   4
   6  -4  11 1990.07 141.342   3
   6  -4  11 2128.00 210.732   1
   6   4  11 1820.64 185.211   1
   6  -4  12 14953.8 503.055   4
   6  -4  12 14703.3 577.780   1
   6   4  12 14053.2 543.712   1
   6  -4  13 3068.24 235.583   4
   6  -4  13 3151.80 279.572   1
   6   4  13 2465.17 237.715   1
   6   4  14 4478.76 325.389   1
   6   4  15 434.794 131.331   1
   6   6 -13 1072.38 177.888   2
   6  -6 -13 599.105 141.138   5
   6  -6 -12 2763.69 250.516   5
   6   6 -12 2696.59 256.880   2
   6   6 -11 1676.67 200.450   2
   6  -6 -11 1651.85 181.730   5
   6   6 -10 3608.38 275.770   2
   6  -6 -10 3483.12 263.099   5
   6   6  -9 8436.00 409.902   2
   6  -6  -9 8023.12 380.024   5
   6  -6  -9 8068.52 300.711   3
   6   6  -8 17192.2 568.582   2
   6  -6  -8 16599.1 541.617   5
   6  -6  -8 15819.0 452.917   3
   6   6  -7 9490.26 406.647   2
   6  -6  -7 8799.17 369.591   5
   6  -6  -7 9063.49 324.531   3
   6   6  -6 27507.7 706.217   2
   6  -6  -6 26088.9 678.134   5
   6  -6  -6 25985.9 610.219   3
   6  -6  -5 13807.8 455.703   5
   6   6  -5 14821.6 479.506   2
   6  -6  -4 14625.0 462.016   5
   6   6  -4 14543.7 471.391   2
   6  -6  -4 14752.9 263.059   1
   6  -6  -3 25008.6 626.725   5
   6  -6  -3 25989.5 474.370   1
   6   6  -3 25480.0 636.651   2
   6   6  -2 12465.3 402.451   2
   6  -6  -2 12218.4 301.973   1
   6   6  -2 12232.9 436.625   1
   6  -6  -2 12285.1 408.251   5
   6  -6  -1 4010.23 163.292   1
   6   6  -1 4182.42 219.999   2
   6   6  -1 4054.73 242.983   1
   6  -6  -1 3880.58 223.479   5
   6   6   0 7617.94 300.631   2
   6  -6   0 7849.52 247.405   1
   6  -6   0 7946.25 294.602   2
   6   6   0 7816.42 336.720   1
   6  -6   0 7871.97 331.955   5
   6  -6   1 14509.0 419.785   2
   6   6   1 13395.5 446.711   1
   6  -6   1 13073.1 351.299   1
   6  -6   1 14009.0 460.230   5
   6  -6   2 3374.22 172.921   1
   6  -6   2 3533.30 204.761   2
   6   6   2 3222.09 208.051   1
   6  -6   2 3661.23 232.297   5
   6  -6   3 10933.5 377.789   2
   6  -6   3 11002.1 343.590   1
   6  -6   3 10770.9 416.076   5
   6   6   3 10621.3 392.536   1
   6  -6   4 14598.0 441.041   2
   6   6   4 15038.8 472.698   1
   6  -6   4 13887.3 412.576   1
   6  -6   4 13918.5 487.222   5
   6   6   4 13985.6 424.619   5
   6   6   5 8899.52 357.103   1
   6  -6   5 8507.99 376.543   5
   6  -6   5 9295.67 337.367   1
   6   6   5 8744.46 337.478   5
   6  -6   5 9238.63 340.257   2
   6  -6   6 18828.0 527.490   1
   6   6   6 18153.8 550.409   1
   6  -6   6 19095.2 520.329   2
   6   6   6 18025.0 525.058   5
   6  -6   7 17069.1 530.842   1
   6   6   7 18690.3 560.761   1
   6  -6   7 19217.3 530.617   2
   6   6   7 19481.2 557.163   5
   6  -6   8 18197.3 565.995   1
   6   6   8 18380.4 564.630   1
   6  -6   8 18644.9 529.187   2
   6   6   8 18620.2 555.122   5
   6  -6   9 6282.51 328.719   1
   6   6   9 5945.44 311.394   1
   6  -6   9 5693.04 283.285   2
   6   6   9 5950.97 309.077   5
   6  -6  10 11158.7 469.590   1
   6   6  10 11344.4 456.865   1
   6   6  11 3156.27 243.772   1
   6  -6  11 3329.98 267.352   1
   6   6  12 2674.81 231.265   1
   6  -6  12 2619.00 251.802   1
   6   8 -12 2637.26 273.137   2
   6  -8 -12 2463.37 260.567   5
   6   8 -11 7984.00 446.074   2
   6  -8 -11 7312.07 414.562   5
   6   8 -10 2879.81 270.285   2
   6  -8 -10 2602.33 242.977   5
   6  -8 -10 2654.97 193.630   3
   6  -8  -9 3625.87 278.268   5
   6   8  -9 3730.94 287.731   2
   6  -8  -9 3487.88 215.450   3
   6  -8  -8 2711.89 237.336   5
   6   8  -8 2242.96 223.435   2
   6  -8  -8 2023.07 166.637   3
   6  -8  -7 15330.7 557.494   5
   6   8  -7 14730.5 554.228   2
   6  -8  -6 8732.11 408.640   5
   6   8  -6 9106.17 421.000   2
   6  -8  -5 12998.4 498.229   5
   6   8  -5 13937.4 516.832   2
   6   8  -4 6296.99 326.251   2
   6  -8  -4 6452.05 339.477   5
   6   8  -3 11964.6 447.022   2
   6  -8  -3 12757.6 254.336   1
   6  -8  -3 11277.9 455.869   5
   6   8  -2 3212.15 219.359   2
   6  -8  -2 3261.61 137.657   1
   6  -8  -2 3235.13 238.181   5
   6  -8  -1 29063.0 547.243   1
   6   8  -1 28245.6 712.602   2
   6  -8  -1 28323.1 760.992   5
   6  -8   0 14707.9 482.562   2
   6   8   0 14730.2 504.520   1
   6  -8   0 14024.5 359.573   1
   6  -8   0 13155.0 503.664   5
   6  -8   1 2526.83 198.721   2
   6  -8   1 2512.15 150.127   1
   6   8   1 2443.67 197.782   1
   6  -8   1 2718.41 225.015   5
   6  -8   2 1636.82 167.871   2
   6  -8   2 1729.51 131.794   1
   6   8   2 1807.43 171.653   1
   6  -8   2 2197.36 208.860   5
   6  -8   3 8003.12 370.603   2
   6   8   3 7690.28 347.806   1
   6  -8   3 7741.61 393.157   5
   6  -8   3 7658.39 292.679   1
   6  -8   4 4038.91 266.521   2
   6  -8   4 4210.30 221.790   1
   6   8   4 4364.01 258.803   1
   6  -8   4 4061.68 286.984   5
   6  -8   5 18371.4 522.723   1
   6   8   5 18702.6 586.810   5
   6  -8   5 19338.4 663.568   5
   6   8   5 17820.3 558.503   1
   6  -8   5 19301.6 609.708   2
   6  -8   6 7366.88 331.103   1
   6  -8   6 7009.73 398.718   5
   6   8   6 6837.36 351.748   5
   6  -8   6 8085.50 381.280   2
   6   8   6 7328.55 347.686   1
   6  -8   7 1984.74 180.105   1
   6  -8   7 2016.35 226.579   5
   6   8   7 1983.58 188.372   1
   6   8   8 5310.81 308.262   1
   6  -8   8 5506.02 314.546   1
   6  -8   8 5786.39 379.090   5
   6   8   9 11814.1 465.859   1
   6  -8   9 12498.2 494.214   1
   6   8  10 6755.82 352.359   1
   6  -8  10 7148.66 386.620   1
   6  -8  11 6000.89 371.760   1
   6 -10 -10 2667.39 281.606   5
   6  10 -10 2643.40 273.127   2
   6 -10 -10 2237.43 197.466   3
   6 -10  -9 7094.19 430.348   5
   6  10  -9 7675.66 442.048   2
   6 -10  -9 6509.43 330.761   3
   6 -10  -8 2008.66 236.519   5
   6  10  -8 1684.93 216.093   2
   6 -10  -7 9123.80 472.548   5
   6  10  -7 8928.64 461.750   2
   6 -10  -6 976.083 165.080   5
   6  10  -6 847.474 141.768   2
   6 -10  -5 15621.6 605.837   5
   6  10  -5 15970.8 592.507   2
   6 -10  -4 3667.06 288.257   5
   6  10  -4 3617.36 275.670   2
   6  10  -3 19879.7 637.380   2
   6 -10  -3 18218.9 664.219   5
   6 -10  -2 86.5136 89.7063   5
   6  10  -2 256.972 91.8756   2
   6 -10  -2 135.739 38.5911   1
   6 -10  -1 10045.3 282.482   1
   6 -10  -1 9650.38 467.677   5
   6 -10   0 376.407 114.889   5
   6 -10   0 510.472 70.3477   1
   6 -10   1 8006.52 283.651   1
   6 -10   1 8331.96 432.209   5
   6 -10   2 1664.58 135.567   1
   6  10   2 1576.83 172.892   1
   6 -10   2 2305.72 236.373   5
   6  10   3 6982.11 345.947   1
   6 -10   3 7425.01 301.369   1
   6 -10   3 7262.15 418.850   5
   6 -10   4 99.6543 62.3985   1
   6  10   4 131.773 76.5121   1
   6 -10   4-29.7892 102.207   5
   6 -10   5 15647.8 498.306   1
   6 -10   5 15900.1 658.643   5
   6  10   5 15470.5 528.547   1
   6 -10   6 6126.73 416.580   5
   6 -10   6 6343.98 320.789   1
   6  10   6 6418.95 328.932   1
   6 -10   7 9890.57 541.992   5
   6 -10   7 9805.24 421.661   1
   6  10   7 10443.1 428.733   1
   6 -10   8 1045.69 160.311   1
   6 -10   8 831.212 179.281   5
   6 -10   9 9575.22 457.530   1
   6 -10   9 8847.74 541.274   5
   6 -10  10 909.631 208.796   5
   6 -12  -7 5464.96 413.248   5
   6  12  -7 6233.36 415.687   2
   6 -12  -6 78.0858 106.620   5
   6  12  -6 427.180 130.642   2
   6 -12  -5 12210.7 600.347   5
   6  12  -5 13046.9 567.945   2
   6 -12  -4 1473.94 215.678   5
   6  12  -4 1336.15 193.469   2
   6 -12  -3 13879.9 618.055   5
   6 -12  -2 143.500 105.950   5
   6 -12  -1 2834.79 282.057   5
   6 -12   0-59.1992 92.2409   5
   6 -12   1 9927.03 523.341   5
   6 -12   2 313.037 79.1668   1
   6 -12   2 833.646 186.548   5
   6 -12   3 4830.08 258.172   1
   6 -12   3 5289.87 390.155   5
   6 -12   4 299.551 102.702   1
   6 -12   4 558.718 159.955   5
   6 -12   5 10215.5 418.115   1
   6 -12   5 9996.41 570.775   5
   6 -12   6 883.887 139.145   1
   6 -12   6 905.025 218.556   5
   6 -12   7 14279.1 548.396   1
   6 -12   7 15281.7 738.688   5
   6 -12   8 1273.81 179.152   1
   7  -1 -15 4593.83 367.048   2
   7   1 -15 4189.78 350.474   2
   7  -1 -14-23.2761 91.6367   2
   7   1 -14 204.327 114.121   2
   7  -1 -13 13249.1 581.387   2
   7   1 -13 12922.2 566.820   2
   7  -1 -12 124.383 82.8768   2
   7   1 -12 91.7607 87.3624   2
   7  -1 -11 26297.9 790.816   2
   7   1 -11 26319.3 775.836   2
   7  -1 -10 2325.21 215.899   2
   7   1 -10 2306.28 210.382   2
   7  -1  -9 35176.0 769.505   5
   7  -1  -9 33080.2 839.175   2
   7   1  -9 33899.6 840.403   2
   7  -1  -8 780.456 104.273   5
   7  -1  -8 634.628 103.951   2
   7   1  -8 771.975 120.314   2
   7  -1  -7 18880.5 478.963   5
   7  -1  -7 18484.4 479.829   4
   7  -1  -7 17964.0 532.881   2
   7   1  -7 18666.6 536.710   2
   7  -1  -6 1091.39 102.675   5
   7  -1  -6 1171.30 107.344   4
   7  -1  -6 1043.84 120.446   2
   7   1  -6 1064.74 119.655   2
   7  -1  -5 31540.9 620.000   5
   7   1  -5 31430.0 727.023   1
   7  -1  -5 32401.4 688.747   1
   7   1  -5 32198.5 692.694   2
   7  -1  -4 405.443 77.8230   1
   7  -1  -4 358.854 57.5905   5
   7   1  -4 369.512 65.8584   2
   7   1  -4 245.963 67.1319   1
   7  -1  -3 26265.6 487.185   5
   7   1  -3 24874.5 614.557   1
   7   1  -3 25849.1 549.471   2
   7  -1  -3 25535.7 595.175   1
   7  -1  -2 3635.16 196.854   1
   7  -1  -2 3542.26 133.180   5
   7   1  -2 3222.24 153.416   2
   7   1  -2 3346.36 201.180   1
   7   1  -1 32627.4 717.403   1
   7  -1  -1 33383.4 532.838   5
   7  -1  -1 33403.2 687.512   1
   7   1  -1 33403.4 587.625   2
   7  -1   0 3268.45 104.795   5
   7   1   0 3242.29 186.200   1
   7  -1   0 3071.16 175.044   1
   7  -1   0 3049.43 117.225   2
   7   1   0 3189.99 121.983   2
   7  -1   1 29416.5 451.770   5
   7   1   1 29335.8 474.393   2
   7   1   1 28356.8 651.149   1
   7  -1   1 29440.2 591.168   3
   7  -1   1 30186.3 636.824   1
   7  -1   1 29909.8 454.086   2
   7  -1   2 6.32463 18.0555   5
   7  -1   2 91.8235 54.0905   1
   7   1   2 12.6572 55.3921   1
   7  -1   2 40.4856 36.4597   3
   7  -1   3 47262.5 897.283   1
   7  -1   3 45292.7 818.599   3
   7   1   3 46723.2 918.842   1
   7  -1   3 47676.8 725.849   5
   7   1   4 165.175 24.4554   5
   7  -1   4 169.279 50.7780   3
   7  -1   4 159.066 61.4978   1
   7   1   4 146.253 60.1540   1
   7   1   5 51641.2 758.773   5
   7  -1   5 50089.6 781.389   5
   7  -1   5 50632.5 994.279   1
   7  -1   5 50958.7 872.512   3
   7   1   5 51696.1 1004.02   1
   7   1   6 400.990 48.0219   5
   7  -1   6 287.623 48.7152   5
   7   1   6 444.901 90.0928   1
   7  -1   6 467.013 88.5624   1
   7   1   7 13110.2 322.823   5
   7   1   7 12834.7 451.460   1
   7  -1   7 12784.1 331.533   5
   7  -1   7 13361.0 452.465   1
   7   1   8 563.748 70.6465   5
   7  -1   8 497.353 102.048   1
   7  -1   8 582.896 74.3827   5
   7   1   8 572.816 107.318   1
   7   1   9 7496.46 272.605   5
   7  -1   9 7509.10 276.622   5
   7   1   9 7533.52 361.893   1
   7  -1   9 7254.32 355.775   1
   7   1  10 943.079 142.755   1
   7  -1  10 932.518 109.672   5
   7  -1  10 961.761 141.351   1
   7   1  10 856.627 106.123   5
   7  -1  11 11352.3 435.057   4
   7   1  11 11431.1 489.080   1
   7  -1  11 12461.9 505.975   1
   7   1  12 365.291 115.339   1
   7  -1  12 302.552 98.7436   1
   7   1  12 344.867 101.322   4
   7  -1  12 215.703 88.1666   4
   7   1  13 13428.0 546.343   4
   7   1  13 13984.5 586.931   1
   7  -1  13 13681.8 528.190   4
   7  -1  13 14212.4 595.061   1
   7   1  14 127.362 104.549   1
   7  -1  14-60.1349 103.809   1
   7   1  14 192.453 98.3198   4
   7  -1  14 52.0780 80.7708   4
   7   3 -14 1269.32 204.968   2
   7  -3 -14 1187.81 203.606   2
   7  -3 -13 27005.1 879.922   2
   7   3 -13 26613.6 856.854   2
   7   3 -12 2118.34 222.873   2
   7  -3 -12 1754.19 186.164   5
   7  -3 -12 1946.24 229.309   2
   7  -3 -11 18520.2 584.500   5
   7   3 -11 17870.3 637.318   2
   7  -3 -10 2282.21 191.904   5
   7   3 -10 2467.45 222.292   2
   7  -3  -9 15818.4 495.998   5
   7   3  -9 15401.0 539.437   2
   7  -3  -8 4662.60 250.215   5
   7  -3  -8 5147.74 239.543   4
   7   3  -8 5325.97 290.448   2
   7  -3  -7 20352.5 527.693   5
   7  -3  -7 20095.9 491.958   4
   7   3  -7 19378.9 568.555   2
   7  -3  -6 3779.93 199.466   5
   7  -3  -6 3857.88 184.357   4
   7   3  -6 3950.85 229.340   2
   7   3  -5 1103.92 120.449   2
   7  -3  -5 1382.10 121.850   5
   7  -3  -5 1312.27 100.957   4
   7  -3  -5 1361.26 109.905   1
   7  -3  -5 1561.41 126.821   3
   7  -3  -4 3218.08 170.577   5
   7  -3  -4 3024.69 141.749   4
   7  -3  -4 2926.65 167.111   3
   7   3  -4 3005.01 203.414   1
   7  -3  -4 3164.73 169.398   1
   7   3  -4 3137.42 184.865   2
   7  -3  -3 31426.1 612.481   5
   7  -3  -3 30567.3 547.416   4
   7  -3  -3 29828.5 638.743   3
   7   3  -3 29619.6 716.429   1
   7  -3  -3 31103.5 636.843   1
   7   3  -3 29919.1 635.924   2
   7   3  -2 4968.19 211.248   2
   7  -3  -2 5045.41 196.760   5
   7  -3  -2 5166.44 218.524   1
   7   3  -2 5385.08 271.078   1
   7  -3  -1 39218.8 697.528   5
   7   3  -1 39258.5 724.022   2
   7  -3  -1 41653.1 756.825   1
   7   3  -1 39935.5 849.142   1
   7   3   0 8609.24 262.658   2
   7  -3   0 9093.57 294.132   1
   7  -3   0 8585.02 254.767   5
   7   3   0 8658.71 341.509   1
   7  -3   1 25666.9 561.289   1
   7   3   1 25109.0 623.566   1
   7   3   1 25357.4 500.668   2
   7  -3   1 25038.1 560.002   3
   7  -3   1 24298.8 501.510   5
   7   3   2 7846.67 319.265   1
   7  -3   2 8672.69 297.005   1
   7  -3   2 7648.69 219.336   2
   7  -3   2 8291.89 290.170   3
   7  -3   2 8224.89 266.862   5
   7  -3   3 69490.8 1004.28   2
   7  -3   3 70231.9 1140.42   5
   7   3   3 70726.3 1249.17   1
   7  -3   3 68156.4 1179.95   1
   7  -3   3 68536.2 1155.94   3
   7   3   4 2167.55 171.756   1
   7  -3   4 2320.49 149.248   3
   7  -3   4 2120.92 157.788   1
   7  -3   4 2333.52 96.5309   2
   7  -3   4 2175.63 143.140   5
   7   3   4 2232.20 103.909   5
   7  -3   5 12155.8 403.705   1
   7  -3   5 12470.5 368.676   3
   7   3   5 12462.1 425.675   1
   7  -3   5 12623.1 264.301   2
   7   3   5 12526.1 298.624   5
   7   3   6 485.789 61.5532   5
   7  -3   6 585.833 83.4062   3
   7   3   6 556.683 97.9421   1
   7  -3   6 509.703 95.2363   1
   7  -3   7 4231.43 207.373   3
   7   3   7 4426.36 264.911   1
   7   3   7 4284.55 185.305   5
   7  -3   7 4510.66 258.005   1
   7   3   8 533.024 79.4299   5
   7  -3   8 585.223 84.3484   4
   7  -3   8 676.666 85.2250   3
   7  -3   8 387.272 91.5349   1
   7   3   8 742.725 119.790   1
   7  -3   9 18482.6 598.499   1
   7  -3   9 18182.7 499.716   5
   7  -3   9 19734.8 512.730   4
   7   3   9 17739.4 590.091   1
   7  -3   9 19002.3 475.053   3
   7   3   9 19034.3 487.228   5
   7  -3  10 2072.07 203.050   1
   7  -3  10 2290.79 176.488   4
   7  -3  10 2251.51 147.127   3
   7   3  10 2117.02 205.071   1
   7   3  10 2079.92 162.370   5
   7  -3  11 8181.09 411.184   1
   7  -3  11 7278.76 330.759   4
   7   3  11 7285.61 386.137   1
   7  -3  11 7648.64 270.012   3
   7   3  12 1229.09 178.885   1
   7  -3  12 1208.20 151.503   4
   7  -3  12 1077.69 162.132   1
   7  -3  13 16740.3 576.885   4
   7  -3  13 17595.8 673.644   1
   7   3  13 17397.4 652.889   1
   7   3  14 778.065 195.679   1
   7  -3  14 617.454 131.128   4
   7  -3  15 14400.6 575.812   4
   7  -5 -13 9248.89 456.828   5
   7   5 -13 9095.22 483.287   2
   7  -5 -12 6444.03 360.656   5
   7   5 -12 6551.69 389.869   2
   7  -5 -11 8329.79 402.196   5
   7   5 -11 8612.42 437.441   2
   7  -5 -10 1381.89 169.279   5
   7   5 -10 1845.76 201.013   2
   7  -5  -9 19502.2 593.270   5
   7   5  -9 19605.7 635.094   2
   7  -5  -8 16749.5 530.473   5
   7  -5  -8 17572.2 476.862   3
   7   5  -8 18608.2 588.702   2
   7  -5  -7 18570.6 539.116   5
   7  -5  -7 18025.9 482.482   3
   7   5  -7 17513.8 567.477   2
   7   5  -6 5879.94 301.358   2
   7  -5  -6 6031.97 288.720   5
   7  -5  -6 6267.42 267.734   3
   7   5  -5 16037.7 493.517   2
   7  -5  -5 15276.0 461.490   5
   7  -5  -5 15012.4 436.987   3
   7  -5  -4 2944.80 187.606   5
   7   5  -4 3225.63 203.424   2
   7  -5  -4 3136.66 187.138   3
   7  -5  -4 3551.58 157.837   1
   7  -5  -3 7192.41 291.404   5
   7  -5  -3 7266.26 247.631   1
   7   5  -3 7173.10 293.983   2
   7  -5  -3 7076.45 286.832   3
   7   5  -3 6508.83 321.421   1
   7   5  -2 12077.4 385.490   2
   7  -5  -2 12183.1 337.184   1
   7   5  -2 12285.0 446.193   1
   7  -5  -2 11928.4 375.423   5
   7   5  -1 22890.8 550.758   2
   7  -5  -1 22938.4 498.471   1
   7   5  -1 22406.9 622.174   1
   7  -5  -1 22021.9 545.558   5
   7   5   0 1617.78 128.273   2
   7  -5   0 1493.78 114.347   1
   7   5   0 1930.79 170.842   1
   7  -5   0 1524.62 131.633   5
   7  -5   1 16029.5 415.421   1
   7  -5   1 15779.8 411.027   2
   7   5   1 15357.0 429.856   2
   7   5   1 15093.1 495.701   1
   7  -5   1 15937.9 453.653   5
   7  -5   2 14506.5 409.493   2
   7  -5   2 16390.9 430.575   1
   7  -5   2 15389.2 460.287   5
   7   5   2 15150.7 487.357   1
   7  -5   3 30547.6 652.192   2
   7  -5   3 31770.1 463.477   4
   7  -5   3 31116.8 675.811   1
   7  -5   3 31333.6 729.755   5
   7   5   3 30553.8 747.713   1
   7  -5   4 13947.9 419.011   1
   7   5   4 13344.3 456.982   1
   7  -5   4 13471.2 263.944   4
   7   5   4 13281.4 362.449   5
   7  -5   4 12237.6 432.478   5
   7  -5   4 13828.5 376.520   2
   7  -5   5 24635.7 611.659   1
   7   5   5 23244.7 644.127   1
   7  -5   5 24371.4 440.560   4
   7  -5   5 23997.6 637.970   5
   7   5   5 23466.3 542.912   5
   7  -5   5 24910.7 537.746   2
   7   5   6 610.028 106.682   1
   7  -5   6 755.425 113.359   1
   7  -5   6 841.994 70.4186   4
   7   5   6 739.177 98.8923   5
   7  -5   6 760.453 84.1906   2
   7  -5   7 5272.68 281.438   1
   7  -5   7 5934.84 212.923   4
   7   5   7 5680.22 302.709   1
   7  -5   7 5550.76 232.109   2
   7   5   7 5502.63 254.463   5
   7  -5   8 11045.6 329.678   4
   7  -5   8 11501.6 445.279   1
   7   5   8 10977.9 442.671   1
   7  -5   8 11020.7 346.221   2
   7   5   8 11608.8 390.947   5
   7  -5   9 9863.50 324.929   4
   7  -5   9 8817.99 407.069   1
   7   5   9 8646.04 405.040   1
   7   5   9 9429.80 365.414   5
   7  -5  10 1006.97 150.775   1
   7   5  10 1247.25 161.171   1
   7  -5  10 1242.66 124.927   4
   7  -5  10 1356.72 138.628   3
   7  -5  11 5694.26 349.244   1
   7  -5  11 5235.32 265.993   4
   7  -5  11 5527.81 265.897   3
   7   5  11 5322.03 334.773   1
   7  -5  12 2350.04 242.291   1
   7   5  12 2480.86 239.719   1
   7   5  13 4220.77 320.912   1
   7   5  14 6061.06 393.080   1
   7   7 -12 7544.97 441.103   2
   7  -7 -12 7047.71 410.171   5
   7   7 -11 9264.20 477.669   2
   7  -7 -11 9010.82 448.870   5
   7   7 -10 11007.8 504.380   2
   7  -7 -10 10667.4 470.649   5
   7  -7 -10 10279.6 374.042   3
   7   7  -9 6288.14 373.995   2
   7  -7  -9 6268.60 350.476   5
   7  -7  -9 6014.08 283.806   3
   7   7  -8 7403.52 385.873   2
   7  -7  -8 7288.20 368.246   5
   7  -7  -8 7016.99 309.078   3
   7  -7  -7 2612.12 221.463   5
   7   7  -7 2920.90 235.500   2
   7  -7  -7 2295.98 177.062   3
   7  -7  -6 6966.66 342.715   5
   7   7  -6 7139.79 355.036   2
   7  -7  -6 6920.27 307.220   3
   7  -7  -5 9168.73 388.570   5
   7   7  -5 9656.98 405.710   2
   7  -7  -4 9980.48 399.446   5
   7   7  -4 9439.90 403.027   2
   7  -7  -4 10293.9 216.774   1
   7  -7  -3 545.791 104.855   5
   7  -7  -3 677.809 70.7010   1
   7   7  -2 9301.61 372.580   2
   7  -7  -2 10951.9 303.411   1
   7   7  -2 9891.22 422.538   1
   7  -7  -2 9963.33 399.261   5
   7   7  -1 3650.33 224.233   2
   7   7  -1 4025.19 259.160   1
   7  -7  -1 3692.95 174.725   1
   7  -7  -1 3324.42 224.056   5
   7  -7   0 8901.44 292.136   1
   7  -7   0 10323.7 369.715   2
   7   7   0 10809.2 388.386   2
   7   7   0 10298.2 419.054   1
   7  -7   0 10264.9 396.343   5
   7  -7   1 28243.6 686.787   2
   7  -7   1 28097.2 604.645   1
   7   7   1 28142.1 744.720   1
   7  -7   1 29437.5 743.661   5
   7  -7   2 7678.54 331.519   2
   7   7   2 8359.70 368.946   1
   7  -7   2 7877.68 293.000   1
   7  -7   2 7833.55 363.892   5
   7  -7   3 4590.77 228.090   1
   7  -7   3 4493.90 258.701   2
   7   7   3 4826.12 281.463   1
   7  -7   3 5085.90 299.245   5
   7  -7   4 17374.8 534.871   2
   7  -7   4 18829.7 515.667   1
   7  -7   4 19270.7 616.854   5
   7   7   4 18664.1 576.625   1
   7   7   5 14768.3 512.510   1
   7  -7   5 13836.3 450.239   1
   7   7   5 14213.4 458.536   5
   7  -7   5 14064.9 529.939   5
   7  -7   5 14882.8 478.793   2
   7   7   6 4462.65 277.065   1
   7  -7   6 4682.94 261.690   1
   7  -7   6 4210.65 289.199   5
   7   7   6 4257.63 252.798   5
   7  -7   6 4652.35 260.551   2
   7   7   7 7046.03 355.890   1
   7  -7   7 7477.08 350.184   1
   7  -7   7 7875.61 340.456   2
   7  -7   7 7471.60 401.229   5
   7   7   7 6862.93 333.018   5
   7   7   8 5172.25 303.710   1
   7  -7   8 5060.90 302.783   1
   7  -7   9 1811.72 196.383   1
   7   7   9 1872.45 190.313   1
   7   7  10 5307.65 330.101   1
   7  -7  10 5596.31 342.782   1
   7   7  11 8006.84 409.428   1
   7  -7  11 8006.76 427.999   1
   7  -9 -11 1985.13 234.392   5
   7   9 -11 2432.63 268.437   2
   7  -9 -10 15958.7 634.067   5
   7   9 -10 16307.5 659.321   2
   7  -9 -10 14074.0 492.613   3
   7  -9  -9 2475.20 242.054   5
   7   9  -9 2606.93 259.869   2
   7  -9  -9 2046.44 184.746   3
   7  -9  -8 5079.99 339.944   5
   7   9  -8 4914.11 344.906   2
   7  -9  -8 4398.32 266.894   3
   7  -9  -7 1993.27 221.502   5
   7   9  -7 1672.50 203.998   2
   7  -9  -7 1608.48 165.838   3
   7  -9  -6 5414.57 343.880   5
   7   9  -6 6145.65 359.877   2
   7  -9  -5 431.302 113.020   5
   7   9  -5 519.732 126.467   2
   7  -9  -4 13026.1 520.807   5
   7   9  -4 14064.8 525.677   2
   7   9  -3 2184.23 219.788   2
   7  -9  -3 2847.99 110.757   1
   7  -9  -3 2636.85 232.932   5
   7   9  -2 9228.41 409.756   2
   7  -9  -2 10141.9 281.294   1
   7  -9  -2 9383.10 431.587   5
   7   9  -1 8277.26 378.425   2
   7  -9  -1 7551.51 386.010   5
   7  -9  -1 8108.18 264.740   1
   7  -9   0 20598.7 481.069   1
   7   9   0 19271.8 634.523   1
   7  -9   0 18323.7 634.405   5
   7   9   1 4116.27 283.850   1
   7  -9   1 4205.67 206.783   1
   7  -9   1 3872.61 280.998   5
   7   9   2 11217.9 461.275   1
   7  -9   2 11165.9 492.039   5
   7  -9   2 11758.3 376.464   1
   7  -9   3 7487.06 308.745   1
   7  -9   3 6998.94 393.834   5
   7   9   3 7134.34 361.771   1
   7  -9   4 13498.1 566.510   5
   7  -9   4 13632.1 446.950   1
   7   9   4 13582.2 509.532   1
   7  -9   5 3740.89 232.726   1
   7   9   5 3179.23 241.119   1
   7  -9   5 3370.08 287.384   5
   7  -9   6 11305.7 429.885   1
   7   9   6 10290.4 443.523   1
   7  -9   6 10969.0 530.064   5
   7   9   7 566.601 129.590   1
   7  -9   7 542.747 113.348   1
   7  -9   7 246.137 107.645   5
   7   9   8 1122.27 166.932   1
   7  -9   8 1026.55 149.751   1
   7  -9   8 915.365 173.541   5
   7   9   9 1885.74 201.877   1
   7  -9   9 2094.87 259.686   5
   7  -9   9 2015.72 216.752   1
   7  -9  10 6958.49 396.671   1
   7  -9  10 7438.30 492.945   5
   7  -9  11 1954.84 272.048   5
   7 -11  -9 205.141 91.1330   3
   7 -11  -8 8573.90 496.309   5
   7  11  -8 9107.85 494.730   2
   7 -11  -8 8119.73 403.376   3
   7 -11  -7 444.398 146.923   5
   7  11  -7 797.257 165.622   2
   7 -11  -6 6196.32 407.736   5
   7  11  -6 7270.24 423.267   2
   7 -11  -5-78.0556 106.914   5
   7  11  -5-103.888 90.2364   2
   7 -11  -4 7769.62 436.488   5
   7  11  -4 7883.39 422.779   2
   7 -11  -3 391.202 129.430   5
   7  11  -3 143.773 90.1208   2
   7 -11  -2 5594.05 373.256   5
   7 -11  -1 386.474 121.996   5
   7 -11   0 6054.59 244.190   1
   7 -11   0 6019.69 384.387   5
   7 -11   1-133.131 123.417   5
   7 -11   1 90.9688 49.8243   1
   7 -11   2 10957.3 378.024   1
   7 -11   2 11499.9 545.123   5
   7 -11   3 1982.06 168.789   1
   7  11   3 2026.66 208.788   1
   7 -11   3 1828.31 228.250   5
   7 -11   4 15345.2 499.457   1
   7  11   4 15938.2 574.977   1
   7 -11   4 15734.8 669.555   5
   7 -11   5 2307.87 199.554   1
   7  11   5 2179.53 213.424   1
   7 -11   5 2103.76 256.186   5
   7 -11   6 7427.52 369.337   1
   7 -11   6 6989.06 465.666   5
   7 -11   7 714.491 134.191   1
   7 -11   7 526.850 170.578   5
   7 -11   8 9909.96 460.327   1
   7 -11   8 10331.4 599.799   5
   7 -13  -3 106.253 110.862   5
   7 -13  -2 8767.00 514.265   5
   7 -13  -1 3.30778 102.064   5
   7 -13   0 8155.87 489.742   5
   7 -13   1 92.4513 106.718   5
   7 -13   2 8928.94 519.328   5
   7 -13   3 492.004 151.383   5
   7 -13   6 4157.63 293.286   1
   8   0 -14 19702.4 754.014   2
   8   0 -13-12.7573 96.5724   2
   8   0 -12 2530.62 242.267   2
   8   0 -11-14.3174 84.3843   2
   8   0 -10 8079.64 401.638   2
   8   0  -9-25.1565 64.8061   2
   8   0  -8 40381.8 923.288   2
   8   0  -7-49.6119 48.3250   4
   8   0  -7-37.5937 64.2139   2
   8   0  -6 4961.83 255.400   2
   8   0  -5 50.1583 50.9808   2
   8   0  -5-70.9598 69.8270   1
   8   0  -4 79718.3 1197.54   5
   8   0  -4 78120.7 1386.80   1
   8   0  -4 79395.5 1302.79   2
   8   0  -3 92.4050 63.3611   1
   8   0  -3 4.35032 26.6818   5
   8   0  -3 28.6184 39.9457   2
   8   0  -2 58449.4 862.148   5
   8   0  -2 59302.2 962.542   2
   8   0  -2 57348.5 1089.21   1
   8   0  -1 34.7947 18.2333   5
   8   0  -1 48.2474 52.9870   1
   8   0  -1 24.8680 28.2156   2
   8   0   0 1663.27 142.019   1
   8   0   0 1488.18 83.5969   2
   8   0   1 43.4344 19.2403   2
   8   0   1 0.49918 47.8277   1
   8   0   2 47788.4 950.160   1
   8   0   3 8.02568 47.8123   1
   8   0   4 14377.8 238.649   5
   8   0   4 14182.5 261.252   5
   8   0   4 14165.2 457.793   1
   8   0   5 17.0076 18.5371   5
   8   0   5 72.5457 66.6396   1
   8   0   6 18290.3 359.916   5
   8   0   6 18729.7 562.422   1
   8   0   7 65.8363 39.3002   5
   8   0   7 50.0323 63.9217   1
   8   0   8 58012.6 954.286   5
   8   0   8 59398.4 1221.52   1
   8   0   9 99.0757 82.6191   1
   8   0   9 17.1857 38.9414   5
   8   0  10 16178.7 592.003   1
   8   0  11 29.8181 84.7897   1
   8   0  12 20520.9 659.020   4
   8   0  12 20881.6 728.311   1
   8   0  13 150.820 124.927   1
   8   0  13 148.068 93.4933   4
   8   0  14 14198.9 581.144   4
   8  -2 -14 12818.7 610.367   2
   8   2 -14 12502.1 589.887   2
   8  -2 -13 3541.75 308.706   2
   8   2 -13 3331.19 291.785   2
   8  -2 -12 13212.1 574.237   2
   8   2 -12 13286.9 564.137   2
   8   2 -11-50.8449 81.6382   2
   8  -2 -11 143.420 85.2084   5
   8  -2 -11 243.634 110.794   2
   8  -2 -10 12656.7 461.782   5
   8  -2 -10 13068.9 528.969   2
   8   2 -10 12962.5 510.121   2
   8   2  -9 1289.34 160.525   2
   8  -2  -9 954.620 120.221   5
   8  -2  -9 1124.40 153.864   2
   8  -2  -8 7186.99 306.435   5
   8   2  -8 8031.88 363.299   2
   8  -2  -7 1748.89 140.908   5
   8  -2  -7 1691.00 134.905   4
   8   2  -7 1665.43 160.108   2
   8  -2  -6 31096.6 653.017   5
   8  -2  -6 30805.0 643.900   4
   8   2  -6 29591.9 716.709   2
   8  -2  -5 2774.79 159.544   5
   8  -2  -5 2759.72 154.957   4
   8   2  -5 3170.26 218.891   1
   8  -2  -5 2811.26 183.397   1
   8   2  -5 2942.39 190.729   2
   8  -2  -4 34193.2 643.382   5
   8   2  -4 32619.6 784.502   1
   8  -2  -4 33069.8 725.094   1
   8   2  -4 32696.1 709.572   2
   8  -2  -3 6849.18 228.223   5
   8  -2  -3 7112.15 271.139   3
   8   2  -3 6546.12 313.423   1
   8   2  -3 6580.24 257.706   2
   8  -2  -3 7042.44 293.268   1
   8  -2  -2 49613.9 793.059   5
   8  -2  -2 47075.0 924.235   1
   8   2  -2 48083.3 992.327   1
   8   2  -2 46925.7 842.512   2
   8  -2  -1 133.338 36.8599   5
   8   2  -1 91.2775 37.9740   2
   8   2  -1 97.2617 67.8531   1
   8  -2  -1 57.3271 46.3854   1
   8  -2   0 32052.3 550.403   5
   8   2   0 31543.5 742.483   1
   8   2   0 30992.5 573.147   2
   8  -2   0 32395.6 690.951   1
   8  -2   0 32158.7 664.351   3
   8   2   1 3507.01 215.707   1
   8   2   1 3248.47 135.177   2
   8  -2   1 3049.23 174.643   3
   8  -2   1 3103.73 187.946   1
   8  -2   1 3278.25 126.356   5
   8  -2   2 11369.2 225.014   2
   8   2   2 11513.2 404.664   1
   8  -2   2 11309.7 350.152   3
   8  -2   2 11693.5 384.993   1
   8  -2   2 11790.7 272.308   5
   8   2   3 238.949 76.5933   1
   8  -2   3 172.801 59.3374   1
   8  -2   3 301.285 62.9888   3
   8  -2   3 260.698 47.4129   5
   8  -2   4 10461.3 379.680   1
   8   2   4 10164.8 395.154   1
   8  -2   4 10523.8 334.239   3
   8  -2   4 10262.5 292.276   5
   8  -2   5 1879.48 164.952   1
   8  -2   5 1419.18 122.152   3
   8   2   5 1618.21 161.535   1
   8   2   5 1725.89 79.7860   5
   8   2   6 5377.40 169.160   5
   8  -2   6 5538.66 281.799   1
   8  -2   6 4998.29 224.431   3
   8   2   6 5300.61 289.465   1
   8  -2   7 3091.37 154.903   5
   8  -2   7 2742.87 209.007   1
   8  -2   7 3197.48 175.891   3
   8   2   7 3161.33 234.143   1
   8   2   7 3347.70 148.719   5
   8  -2   8 28952.8 601.217   5
   8  -2   8 28435.3 768.373   1
   8  -2   8 30028.0 627.137   3
   8   2   8 28717.8 781.177   1
   8   2   8 28837.5 577.850   5
   8   2   9 2281.56 146.789   5
   8  -2   9 1931.42 139.967   5
   8  -2   9 2416.11 216.403   1
   8   2   9 2011.41 199.839   1
   8   2  10 20698.6 684.516   1
   8  -2  10 21217.7 589.908   4
   8  -2  10 21402.4 687.694   1
   8  -2  11 1398.05 183.750   1
   8   2  11 1401.96 185.174   1
   8  -2  11 1443.20 161.087   4
   8   2  12 20284.3 718.102   1
   8  -2  12 20419.8 632.706   4
   8  -2  12 21735.7 746.425   1
   8   2  13 2358.18 249.318   1
   8  -2  13 1841.51 225.416   1
   8  -2  13 1993.78 200.929   4
   8   2  13 1954.27 214.082   4
   8   2  14 14702.6 642.928   1
   8  -2  14 14592.0 573.885   4
   8   4 -13 2027.03 241.590   2
   8  -4 -13 2302.09 232.325   5
   8  -4 -13 2031.62 257.345   2
   8  -4 -12 9583.31 437.746   5
   8   4 -12 8913.42 462.521   2
   8   4 -11 1807.58 206.950   2
   8  -4 -11 1329.97 162.327   5
   8  -4 -10 5097.68 295.469   5
   8   4 -10 4901.87 316.636   2
   8  -4  -9 2203.55 189.981   5
   8   4  -9 2205.22 211.877   2
   8  -4  -8 3548.47 230.659   5
   8   4  -8 3281.92 243.256   2
   8  -4  -7 4987.38 256.206   5
   8  -4  -7 5102.59 228.382   4
   8  -4  -7 5082.00 244.185   3
   8   4  -7 5432.66 293.556   2
   8  -4  -6 30298.3 681.986   5
   8  -4  -6 28564.2 602.876   4
   8  -4  -6 29116.0 667.086   3
   8   4  -6 30538.7 742.663   2
   8  -4  -5 4105.24 218.169   5
   8  -4  -5 4369.07 184.016   4
   8  -4  -5 4240.73 220.030   3
   8  -4  -5 4349.30 203.085   1
   8   4  -5 4134.64 236.189   2
   8  -4  -4 21259.8 526.869   5
   8  -4  -4 21203.0 445.234   4
   8  -4  -4 22471.2 558.260   3
   8   4  -4 20062.7 618.337   1
   8  -4  -4 21999.6 528.399   1
   8   4  -4 21695.4 559.346   2
   8  -4  -3 3320.83 188.167   1
   8   4  -3 3122.17 191.427   2
   8  -4  -3 3130.60 180.061   5
   8  -4  -3 3319.76 139.348   4
   8  -4  -3 3448.17 199.829   3
   8   4  -3 2980.88 222.444   1
   8  -4  -2 28445.8 608.472   5
   8   4  -2 27778.3 629.265   2
   8  -4  -2 30388.3 646.345   1
   8  -4  -2 29580.7 508.010   4
   8  -4  -2 29304.6 662.212   3
   8   4  -2 29039.6 745.112   1
   8  -4  -1 6314.31 244.335   5
   8   4  -1 6819.23 264.217   2
   8  -4  -1 7576.88 282.072   1
   8  -4  -1 6584.15 281.060   3
   8   4  -1 7148.85 335.130   1
   8   4   0 35404.4 700.889   2
   8  -4   0 36980.2 759.919   3
   8  -4   0 34247.8 717.701   1
   8   4   0 33960.7 820.283   1
   8  -4   0 34734.7 679.587   5
   8   4   1 2818.01 158.357   2
   8  -4   1 2820.38 142.855   2
   8  -4   1 2675.95 176.885   3
   8  -4   1 2812.76 157.761   5
   8  -4   1 3194.26 184.746   1
   8   4   1 2985.86 219.882   1
   8   4   2 7742.41 346.707   1
   8  -4   2 7502.95 297.292   1
   8  -4   2 7047.58 242.463   2
   8  -4   2 7839.29 308.511   3
   8  -4   2 8211.48 287.891   5
   8  -4   3 17824.2 395.885   2
   8   4   3 17184.5 539.664   1
   8  -4   3 17822.7 496.609   1
   8  -4   3 17400.7 485.220   3
   8  -4   3 17212.1 466.809   5
   8   4   4 14760.5 506.944   1
   8  -4   4 16193.4 464.842   3
   8  -4   4 15783.7 476.322   1
   8  -4   4 15947.9 458.298   5
   8  -4   4 16112.9 346.980   2
   8   4   5 1002.01 133.979   1
   8  -4   5 941.478 123.741   1
   8  -4   5 1056.91 117.346   3
   8  -4   5 1070.18 77.5115   2
   8   4   5 1099.20 85.5256   5
   8  -4   5 920.626 110.698   5
   8   4   6 7696.89 361.709   1
   8  -4   6 7452.22 305.385   3
   8  -4   6 7472.19 214.208   2
   8  -4   6 7562.38 340.697   1
   8  -4   6 7336.89 316.255   5
   8   4   6 7819.81 257.829   5
   8  -4   7 2128.54 137.552   4
   8  -4   7 1868.43 155.416   3
   8   4   7 1960.71 190.475   1
   8  -4   7 1891.14 180.240   1
   8   4   7 2036.99 137.822   5
   8   4   8 15945.6 432.135   5
   8  -4   8 16392.9 430.150   4
   8  -4   8 15995.3 468.144   3
   8   4   8 14666.1 540.932   1
   8  -4   8 14557.8 527.535   1
   8  -4   9 9290.66 329.849   4
   8  -4   9 9048.63 344.678   3
   8   4   9 8481.13 417.351   1
   8  -4   9 9159.09 423.208   1
   8  -4  10 32726.6 888.514   1
   8  -4  10 32650.6 735.866   4
   8  -4  10 32219.9 723.516   3
   8   4  10 31709.2 885.269   1
   8  -4  11 3364.42 223.262   4
   8   4  11 3229.42 273.137   1
   8  -4  11 3220.46 277.248   1
   8  -4  12 11321.1 437.338   4
   8   4  12 10593.8 511.795   1
   8  -4  12 10961.4 525.577   1
   8  -4  13 3130.60 237.528   4
   8   4  13 3430.37 304.889   1
   8   4  14 7025.90 438.694   1
   8  -6 -13 5159.65 350.865   5
   8   6 -12 966.139 176.959   2
   8  -6 -12 991.639 155.850   5
   8  -6 -11 5561.21 346.326   5
   8   6 -11 6367.45 388.263   2
   8   6 -10 3433.81 283.422   2
   8  -6 -10 3186.10 257.153   5
   8   6  -9 2629.59 234.002   2
   8  -6  -9 2165.46 207.942   5
   8  -6  -9 2439.82 184.355   3
   8   6  -8 10902.4 464.360   2
   8  -6  -8 10873.5 438.657   5
   8  -6  -8 11078.2 394.318   3
   8   6  -7 11795.7 475.675   2
   8  -6  -7 11540.4 437.943   5
   8  -6  -7 11093.6 398.494   3
   8   6  -6 6943.04 344.024   2
   8  -6  -6 6771.45 328.596   5
   8  -6  -6 7029.06 310.958   3
   8  -6  -5 16010.6 507.681   5
   8   6  -5 16456.9 542.407   2
   8  -6  -5 16077.8 494.982   3
   8  -6  -5 16650.8 358.157   1
   8  -6  -4 27398.9 683.135   5
   8   6  -4 26985.8 698.027   2
   8  -6  -4 27830.3 682.276   3
   8  -6  -4 28139.6 567.467   1
   8  -6  -3 7474.84 322.255   5
   8  -6  -3 8037.82 280.090   1
   8   6  -3 7220.50 321.801   2
   8  -6  -3 7715.54 327.678   3
   8   6  -3 7213.37 365.415   1
   8  -6  -2 8868.99 346.803   5
   8   6  -2 8779.03 347.662   2
   8  -6  -2 9448.55 308.112   1
   8   6  -2 8917.15 404.414   1
   8   6  -1 7739.81 317.540   2
   8  -6  -1 8722.85 306.410   1
   8   6  -1 7406.05 366.085   1
   8  -6  -1 7416.48 314.429   5
   8   6   0 3329.42 202.766   2
   8  -6   0 3888.10 207.435   2
   8   6   0 3296.84 241.774   1
   8  -6   0 3622.16 192.576   1
   8  -6   0 3259.74 208.100   5
   8  -6   1 3969.80 210.593   1
   8  -6   1 4243.59 218.154   2
   8   6   1 3724.13 256.073   1
   8  -6   1 4415.92 241.300   5
   8  -6   2 20986.8 553.417   2
   8  -6   2 22587.8 558.045   1
   8   6   2 20926.9 639.521   1
   8  -6   2 21105.6 584.932   5
   8  -6   3 2112.00 159.876   2
   8  -6   3 2404.80 174.470   1
   8  -6   3 2343.81 191.186   5
   8   6   3 2572.27 212.493   1
   8  -6   4 3940.61 213.847   2
   8   6   4 3884.09 258.864   1
   8  -6   4 3893.06 233.190   1
   8  -6   4 3677.88 246.786   5
   8   6   5 3348.81 249.760   1
   8  -6   5 3648.57 248.071   5
   8  -6   5 3385.51 226.707   1
   8  -6   5 3340.40 192.383   2
   8   6   6 5110.41 310.135   1
   8  -6   6 5753.68 296.839   1
   8  -6   6 5475.19 241.994   2
   8   6   6 5302.11 251.839   5
   8  -6   6 5027.51 298.900   5
   8  -6   7 4888.39 289.552   1
   8   6   7 5253.85 316.261   1
   8  -6   7 5183.53 235.846   2
   8  -6   7 4693.59 301.175   5
   8   6   7 4587.31 246.474   5
   8  -6   8 19784.3 633.592   1
   8   6   8 19565.8 648.321   1
   8  -6   8 21030.0 676.088   5
   8  -6   9 10852.5 477.192   1
   8   6   9 11428.7 492.222   1
   8  -6   9 11485.2 432.122   3
   8  -6  10 7734.11 410.911   1
   8   6  10 6853.77 391.821   1
   8  -6  10 7032.00 339.914   3
   8  -6  11 6561.37 395.384   1
   8   6  11 6398.36 385.596   1
   8  -6  11 6601.64 323.493   3
   8   6  12 7552.50 426.694   1
   8   6  13 4473.44 343.604   1
   8   8 -11 2432.27 263.710   2
   8  -8 -11 2865.50 262.867   5
   8   8 -10 2464.43 261.303   2
   8  -8 -10 2509.04 247.394   5
   8  -8 -10 2158.61 190.519   3
   8   8  -9 7091.69 412.350   2
   8  -8  -9 6875.04 384.015   5
   8  -8  -9 6250.02 317.157   3
   8  -8  -8 1159.49 166.809   5
   8   8  -8 1519.87 194.507   2
   8  -8  -8 1183.51 139.692   3
   8  -8  -7 3200.98 256.456   5
   8   8  -7 3735.17 286.114   2
   8  -8  -7 3041.23 221.465   3
   8  -8  -6 3807.79 271.630   5
   8   8  -6 4416.76 301.701   2
   8  -8  -6 3714.34 242.193   3
   8  -8  -5 8829.32 407.079   5
   8   8  -5 9386.72 424.771   2
   8  -8  -5 8728.23 375.786   3
   8  -8  -4 7206.79 363.160   5
   8   8  -4 7640.59 373.161   2
   8  -8  -4 8025.21 191.804   1
   8  -8  -3 18940.6 605.381   5
   8  -8  -3 20887.7 457.149   1
   8   8  -3 19712.2 611.865   2
   8   8  -2 6296.90 326.323   2
   8  -8  -2 6751.47 249.545   1
   8   8  -2 6416.87 363.847   1
   8  -8  -2 6825.99 341.427   5
   8   8  -1 15036.1 507.841   2
   8   8  -1 14962.1 557.789   1
   8  -8  -1 15208.4 410.439   1
   8  -8  -1 15385.0 527.493   5
   8  -8   0 8342.82 300.905   1
   8   8   0 9254.69 385.151   2
   8   8   0 8215.07 400.981   1
   8  -8   0 8676.82 394.741   5
   8  -8   1 8144.85 362.536   2
   8  -8   1 8465.93 315.447   1
   8   8   1 7478.19 387.093   1
   8  -8   1 8038.52 376.494   5
   8  -8   2 7071.27 345.040   2
   8  -8   2 7436.76 303.516   1
   8   8   2 7174.43 370.534   1
   8  -8   2 7870.67 382.587   5
   8  -8   3 8176.73 379.046   2
   8   8   3 8560.47 405.420   1
   8  -8   3 9165.25 353.020   1
   8  -8   3 8437.02 405.993   5
   8  -8   4 1815.88 178.171   2
   8   8   4 2162.35 212.451   1
   8  -8   4 1896.94 163.591   1
   8  -8   4 1788.71 195.363   5
   8  -8   5 2767.68 212.261   1
   8  -8   5 2883.18 252.337   5
   8   8   5 3203.40 252.689   1
   8  -8   5 2812.82 217.909   2
   8   8   6 940.071 151.372   1
   8  -8   6 951.091 126.185   1
   8  -8   6 937.129 162.774   5
   8   8   7 10695.6 478.219   1
   8  -8   7 11631.8 466.870   1
   8  -8   7 10737.6 510.063   5
   8   8   8 5119.88 329.327   1
   8  -8   8 5483.72 328.334   1
   8  -8   8 5577.10 380.715   5
   8   8   9 9923.47 471.604   1
   8  -8   9 10433.8 474.108   1
   8  -8   9 10728.3 540.858   5
   8   8  10 3406.63 281.643   1
   8  -8  10 4142.99 312.785   1
   8  -8  10 3760.45 337.532   5
   8  -8  11 10119.7 562.496   5
   8 -10 -10 332.023 102.317   3
   8 -10  -9 7111.87 435.488   5
   8  10  -9 7905.58 465.126   2
   8 -10  -9 7184.58 367.950   3
   8 -10  -8-10.7947 101.308   5
   8  10  -8 67.1876 94.1796   2
   8 -10  -8 46.7201 67.5380   3
   8 -10  -7 5661.10 374.833   5
   8  10  -7 5643.00 376.634   2
   8 -10  -7 5365.62 324.029   3
   8 -10  -6 2114.23 235.957   5
   8  10  -6 2830.22 260.188   2
   8 -10  -5 9790.82 480.709   5
   8  10  -5 10725.5 495.225   2
   8 -10  -4 1290.39 178.311   5
   8  10  -4 1241.36 173.109   2
   8 -10  -3 13163.9 544.568   5
   8  10  -3 13241.4 524.518   2
   8  10  -2 3169.37 250.295   2
   8 -10  -2 3115.75 262.934   5
   8 -10  -1 7312.49 270.891   1
   8 -10  -1 9037.25 442.490   5
   8 -10   0 5616.62 246.253   1
   8 -10   0 4570.59 321.111   5
   8 -10   1 7995.88 309.767   1
   8  10   1 6889.37 387.492   1
   8 -10   1 7015.41 400.878   5
   8 -10   2 225.983 116.686   5
   8 -10   2 102.925 59.2368   1
   8  10   3 9313.45 445.577   1
   8 -10   3 9203.92 365.511   1
   8 -10   3 9581.92 479.065   5
   8  10   4 2560.48 234.529   1
   8 -10   4 2959.69 281.195   5
   8 -10   4 2667.05 206.170   1
   8 -10   5 3796.04 252.254   1
   8  10   5 3910.13 289.232   1
   8 -10   5 3799.37 322.887   5
   8  10   6 2029.86 214.795   1
   8 -10   6 2291.35 205.430   1
   8 -10   6 2052.17 241.211   5
   8 -10   7 9078.01 424.755   1
   8  10   7 8929.97 439.332   1
   8 -10   7 8778.26 506.661   5
   8 -10   8 242.561 103.294   1
   8 -10   8 259.340 105.989   5
   8 -10   9 10472.3 589.226   5
   8 -10  10 5904.43 461.643   5
   8 -12  -9 2133.88 228.233   3
   8 -12  -8 96.8070 84.4281   3
   8 -12  -5 12204.1 597.225   5
   8  12  -5 13798.1 605.809   2
   8 -12  -4 758.527 163.765   5
   8  12  -4 425.154 128.783   2
   8 -12  -3 6395.26 418.905   5
   8  12  -3 6957.83 411.710   2
   8 -12  -2 111.658 121.528   5
   8 -12  -1 12210.5 574.683   5
   8 -12   0 293.357 117.794   5
   8 -12   1 6308.10 412.884   5
   8 -12   2 285.031 120.339   5
   8 -12   3 4577.69 367.138   5
   8 -12   4 103.837 77.0416   1
   8  12   4 44.3909 86.1854   1
   8 -12   4 306.250 149.038   5
   8 -12   5 8226.16 505.580   5
   8 -12   5 8242.34 392.032   1
   8 -12   6 333.709 105.504   1
   8 -12   6 204.169 139.404   5
   8 -12   7 4864.63 326.214   1
   9   1 -14-122.049 95.3813   2
   9  -1 -14 18.8529 101.820   2
   9  -1 -13 9184.07 496.529   2
   9   1 -13 8363.46 474.340   2
   9  -1 -12 847.707 163.522   2
   9   1 -12 911.673 167.280   2
   9  -1 -11 15008.3 596.513   2
   9   1 -11 15731.7 608.319   2
   9  -1 -10 355.395 117.455   2
   9   1 -10 623.085 131.915   2
   9  -1  -9 25240.5 732.742   2
   9   1  -9 24268.1 720.756   2
   9  -1  -8 110.834 63.3706   5
   9  -1  -8 69.6658 76.7059   2
   9   1  -8 40.5830 64.8839   2
   9  -1  -7 42885.8 846.281   5
   9  -1  -7 41966.2 936.042   2
   9   1  -7 43131.2 940.618   2
   9  -1  -6 4631.56 215.820   5
   9   1  -6 4916.49 286.653   1
   9  -1  -6 5252.84 279.865   1
   9  -1  -6 4739.18 260.978   2
   9   1  -6 5107.15 265.021   2
   9  -1  -5 9458.56 299.463   5
   9   1  -5 8861.09 385.963   1
   9  -1  -5 8985.84 367.661   1
   9  -1  -5 9634.91 352.625   2
   9   1  -5 9614.61 352.729   2
   9   1  -4 354.259 85.0901   1
   9  -1  -4 385.469 95.6660   1
   9  -1  -4 207.162 65.4632   2
   9  -1  -4 378.624 59.5105   5
   9   1  -4 272.013 67.5857   2
   9  -1  -3 9797.37 267.362   5
   9  -1  -3 9247.69 312.080   2
   9   1  -3 10186.4 404.020   1
   9   1  -3 10008.2 323.780   2
   9  -1  -3 10342.7 391.061   1
   9  -1  -2 5549.10 279.176   1
   9  -1  -2 5238.32 169.542   5
   9  -1  -2 5106.95 209.408   2
   9   1  -2 5099.85 210.519   2
   9   1  -2 5390.05 288.164   1
   9   1  -1 18088.6 545.667   1
   9  -1  -1 17765.3 337.539   5
   9  -1  -1 17295.3 513.811   1
   9  -1  -1 18107.1 400.251   2
   9   1  -1 17738.5 399.779   2
   9  -1   0 56.9293 57.8657   1
   9   1   0 32.0093 29.9816   2
   9  -1   0-0.25880 18.5177   5
   9   1   0 84.6776 66.7445   1
   9  -1   0 13.2961 23.9112   2
   9  -1   1 8955.52 174.470   5
   9   1   1 8659.63 214.796   2
   9   1   1 8543.21 359.193   1
   9  -1   1 8970.20 349.668   1
   9  -1   1 8801.06 194.814   2
   9   1   2 124.389 56.6392   1
   9  -1   2 204.432 23.7588   5
   9  -1   2 147.478 67.5941   1
   9   1   3 42450.0 923.886   1
   9  -1   3 41031.4 904.642   1
   9  -1   3 42021.3 597.008   5
   9  -1   4 483.694 108.970   1
   9  -1   4 491.175 38.8578   5
   9   1   4 541.969 110.842   1
   9  -1   4 508.092 48.5273   5
   9  -1   5 31480.0 786.690   1
   9  -1   5 31929.8 513.544   5
   9   1   5 31731.6 806.901   1
   9  -1   5 32111.2 568.106   5
   9   1   6 191.065 33.0935   5
   9  -1   6 206.792 40.0037   5
   9  -1   6 203.162 82.2337   1
   9   1   6 130.779 75.4591   1
   9   1   7 49793.0 775.645   5
   9  -1   7 48347.1 796.038   5
   9  -1   7 47734.0 1081.52   1
   9   1   7 49703.7 1105.65   1
   9   1   8 3047.96 145.688   5
   9  -1   8 3060.94 153.788   5
   9  -1   8 3057.94 244.615   1
   9   1   8 2912.62 243.205   1
   9   1   9 19731.3 668.099   1
   9  -1   9 18559.4 646.711   1
   9  -1  10 518.951 139.355   1
   9   1  10 420.299 119.110   1
   9   1  11 4907.42 343.172   1
   9  -1  11 4747.49 289.512   4
   9  -1  11 4733.52 332.921   1
   9  -1  12 91.9798 102.532   1
   9   1  12-68.9763 91.1779   1
   9  -1  12 72.7674 82.7081   4
   9   1  13 11271.3 556.527   1
   9   1  13 10658.4 500.551   4
   9  -1  13 10861.6 482.657   4
   9  -1  14 46.1502 80.5776   4
   9  -3 -13 3918.69 339.861   2
   9   3 -13 4326.21 346.303   2
   9  -3 -12 3064.00 249.166   5
   9  -3 -12 2608.96 271.759   2
   9   3 -12 3199.94 284.898   2
   9  -3 -11 14872.1 535.406   5
   9  -3 -11 15261.7 620.489   2
   9   3 -11 15175.2 598.896   2
   9   3 -10 954.796 162.063   2
   9  -3 -10 679.044 115.050   5
   9  -3 -10 633.593 131.261   2
   9  -3  -9 25311.2 665.624   5
   9   3  -9 24223.7 725.217   2
   9  -3  -8 4299.05 242.404   5
   9   3  -8 4365.01 274.835   2
   9  -3  -7 9854.67 360.690   5
   9  -3  -7 10095.4 345.961   4
   9   3  -7 9683.03 398.855   2
   9  -3  -6 1756.32 143.951   5
   9  -3  -6 1934.76 140.097   4
   9  -3  -6 1925.29 153.836   1
   9   3  -6 2064.86 175.185   2
   9  -3  -5 33376.4 689.265   5
   9  -3  -5 32389.3 651.085   4
   9   3  -5 32130.9 741.523   2
   9   3  -5 30697.2 820.381   1
   9  -3  -5 32440.9 731.069   1
   9   3  -4 563.983 90.1812   2
   9  -3  -4 600.248 101.536   1
   9  -3  -4 566.282 81.3924   5
   9  -3  -4 533.795 91.3920   3
   9   3  -4 397.888 98.4512   1
   9  -3  -3 10736.3 316.184   5
   9  -3  -3 10037.3 356.098   3
   9   3  -3 9877.39 416.572   1
   9  -3  -3 10155.4 373.234   1
   9   3  -3 10038.1 342.505   2
   9   3  -2 924.603 98.6880   2
   9  -3  -2 637.579 76.2841   5
   9   3  -2 819.643 131.808   1
   9  -3  -2 900.313 107.400   3
   9  -3  -2 758.977 107.306   1
   9  -3  -1 7567.19 245.726   5
   9   3  -1 7580.59 268.784   2
   9  -3  -1 7981.33 313.862   1
   9  -3  -1 7558.15 307.822   3
   9   3  -1 7701.91 357.735   1
   9  -3   0 135.435 41.6580   5
   9  -3   0 83.4787 54.2179   1
   9   3   0 95.0217 42.9468   2
   9   3   0 79.8858 84.3923   1
   9  -3   0 212.295 70.7269   3
   9   3   1 49035.6 1051.74   1
   9   3   1 48587.1 831.055   2
   9  -3   1 51277.7 958.566   3
   9  -3   1 48639.4 963.292   1
   9  -3   1 48014.2 809.845   5
   9   3   2 5243.68 292.377   1
   9  -3   2 4890.80 164.662   2
   9  -3   2 4974.70 245.838   3
   9  -3   2 5086.85 258.911   1
   9  -3   2 4949.86 187.509   5
   9  -3   3 15393.2 479.815   1
   9   3   3 15915.7 532.919   1
   9  -3   3 15774.9 459.972   3
   9  -3   3 15175.4 377.718   5
   9  -3   3 15290.7 276.696   2
   9  -3   4 6666.04 315.833   1
   9   3   4 7043.23 346.297   1
   9  -3   4 7057.68 295.938   3
   9  -3   4 7037.42 256.019   5
   9  -3   5 25297.8 687.035   1
   9   3   5 25475.6 715.285   1
   9  -3   5 26641.4 627.433   3
   9  -3   5 25496.7 578.807   5
   9   3   6 1354.33 167.698   1
   9  -3   6 1591.86 171.769   1
   9  -3   6 1620.49 143.546   3
   9  -3   6 1513.07 130.572   5
   9   3   6 1433.67 84.1210   5
   9  -3   7 41354.3 962.335   1
   9  -3   7 39061.9 829.763   3
   9   3   7 39454.2 977.651   1
   9   3   7 41325.3 700.799   5
   9  -3   8 4391.19 206.650   5
   9  -3   8 4626.15 294.367   1
   9  -3   8 4437.35 232.779   3
   9   3   8 4621.32 308.307   1
   9  -3   9 6689.13 294.376   4
   9  -3   9 6694.17 371.336   1
   9  -3   9 6722.85 284.977   3
   9   3   9 6438.70 374.511   1
   9  -3  10 3275.41 216.248   4
   9  -3  10 3122.38 262.896   1
   9   3  10 3035.51 265.290   1
   9  -3  11 9741.14 397.783   4
   9  -3  11 10803.3 512.625   1
   9   3  11 9858.12 493.338   1
   9  -3  12 975.854 171.353   1
   9  -3  12 1180.62 150.635   4
   9   3  12 1030.04 172.603   1
   9  -3  13 7932.07 400.312   4
   9   3  13 7770.92 469.456   1
   9  -3  14 1250.65 171.279   4
   9  -5 -13 3306.32 285.538   5
   9   5 -13 2936.53 298.872   2
   9   5 -12 1351.74 192.810   2
   9  -5 -12 1433.59 183.883   5
   9  -5 -11 8679.53 418.818   5
   9   5 -11 8867.61 465.003   2
   9  -5 -10 8625.32 405.084   5
   9   5 -10 9358.06 454.035   2
   9  -5  -9 10893.8 438.513   5
   9   5  -9 10584.9 477.449   2
   9  -5  -8 7459.74 346.745   5
   9   5  -8 8276.10 397.276   2
   9  -5  -7 17701.1 536.316   5
   9  -5  -7 17047.5 516.528   3
   9   5  -7 17396.6 576.677   2
   9   5  -6 6185.55 318.562   2
   9  -5  -6 5917.94 288.970   5
   9  -5  -6 5381.43 226.812   4
   9  -5  -6 5712.81 279.592   3
   9   5  -5 15262.0 499.327   2
   9  -5  -5 15399.1 467.478   5
   9  -5  -5 14450.2 369.137   4
   9  -5  -5 15827.9 484.787   3
   9  -5  -5 15412.8 422.267   1
   9   5  -4 4911.42 270.703   2
   9  -5  -4 5014.90 250.744   5
   9  -5  -4 5284.81 189.881   4
   9  -5  -4 5246.32 276.668   3
   9   5  -4 4958.42 309.646   1
   9  -5  -4 5773.00 256.867   1
   9  -5  -3 3964.22 220.320   1
   9  -5  -3 3566.41 205.817   5
   9   5  -3 3747.16 221.691   2
   9  -5  -3 3806.02 148.133   4
   9  -5  -3 4179.96 240.636   3
   9   5  -3 3725.53 265.661   1
   9   5  -2 128.600 76.2018   1
   9  -5  -2 158.725 58.4487   5
   9   5  -2 300.444 75.4855   2
   9  -5  -2 179.680 36.7327   4
   9  -5  -2 325.966 73.8617   3
   9  -5  -2 165.269 63.5535   1
   9  -5  -1 4434.10 217.764   5
   9   5  -1 4439.12 229.306   2
   9  -5  -1 4711.12 138.847   4
   9  -5  -1 4563.33 231.569   1
   9  -5  -1 4565.71 255.375   3
   9   5  -1 4549.84 287.618   1
   9   5   0 3975.88 213.142   2
   9  -5   0 3926.54 232.908   3
   9  -5   0 4010.57 218.707   1
   9   5   0 3990.21 269.263   1
   9  -5   0 3733.14 200.883   5
   9  -5   1 6065.46 244.244   2
   9   5   1 6538.38 270.796   2
   9  -5   1 6152.57 297.656   3
   9   5   1 6186.66 338.061   1
   9  -5   1 6523.23 289.294   1
   9  -5   1 6199.94 262.830   5
   9  -5   2 17534.8 500.081   1
   9  -5   2 15874.7 429.594   2
   9  -5   2 17227.3 515.697   3
   9  -5   2 16264.8 461.958   5
   9   5   2 16571.0 564.601   1
   9   5   3 22571.9 675.104   1
   9  -5   3 21913.9 506.564   2
   9  -5   3 20972.7 585.933   1
   9  -5   3 23566.0 616.043   3
   9  -5   3 22243.1 572.494   5
   9   5   4 4495.71 291.516   1
   9  -5   4 4447.16 255.469   1
   9  -5   4 4487.81 255.371   3
   9  -5   4 4490.16 246.455   5
   9  -5   4 4524.26 190.720   2
   9   5   5 16094.9 571.951   1
   9  -5   5 16497.4 350.655   4
   9  -5   5 16545.5 511.479   3
   9  -5   5 15539.9 516.351   1
   9  -5   5 16597.7 383.932   2
   9  -5   5 15649.9 502.311   5
   9   5   6 14885.2 554.960   1
   9  -5   6 15565.0 358.585   4
   9  -5   6 15132.9 488.495   3
   9  -5   6 14911.7 518.115   1
   9  -5   6 15158.6 353.883   2
   9   5   6 14465.3 373.019   5
   9  -5   6 14458.3 496.714   5
   9   5   7 22577.6 715.977   1
   9  -5   7 24178.3 508.945   4
   9  -5   7 24207.8 646.473   3
   9  -5   7 23463.5 692.510   1
   9  -5   7 23412.8 667.965   5
   9  -5   8 7335.03 263.374   4
   9   5   8 6544.57 377.172   1
   9  -5   8 6375.95 313.385   3
   9  -5   8 6549.61 359.823   1
   9  -5   8 7142.55 357.481   5
   9  -5   9 9643.71 334.108   4
   9   5   9 9896.49 471.981   1
   9  -5   9 9883.00 392.820   3
   9  -5   9 9995.09 464.517   1
   9   5  10 672.563 141.570   1
   9  -5  10 1019.93 114.394   4
   9  -5  10 587.396 132.138   1
   9  -5  10 1028.74 138.914   3
   9   5  11 7156.63 423.461   1
   9  -5  11 7491.38 431.266   1
   9   5  12 5344.11 380.921   1
   9   5  13 4895.58 374.691   1
   9  -7 -12 3038.37 276.116   5
   9   7 -11 4875.60 359.396   2
   9  -7 -11 5190.56 344.695   5
   9   7 -10 6077.74 384.357   2
   9  -7 -10 6173.05 366.529   5
   9   7  -9 3374.83 281.813   2
   9  -7  -9 3174.60 258.438   5
   9  -7  -9 2733.28 212.624   3
   9   7  -8 8055.98 417.542   2
   9  -7  -8 7748.26 382.306   5
   9  -7  -8 7377.54 343.683   3
   9  -7  -7 17787.8 590.638   5
   9   7  -7 18005.5 625.191   2
   9  -7  -7 17931.2 562.716   3
   9  -7  -6 10190.2 427.800   5
   9   7  -6 10534.8 454.094   2
   9  -7  -6 10208.8 410.524   3
   9  -7  -5 5694.73 311.319   5
   9   7  -5 6023.40 328.997   2
   9  -7  -5 5934.55 309.660   3
   9  -7  -5 5963.94 195.516   1
   9  -7  -4 5430.53 300.773   5
   9   7  -4 6042.33 325.846   2
   9  -7  -4 5335.97 292.589   3
   9  -7  -4 5927.12 232.386   1
   9  -7  -3 1643.00 164.047   5
   9  -7  -3 1842.04 143.155   1
   9   7  -3 2125.22 198.054   2
   9  -7  -3 1909.97 176.466   3
   9   7  -3 1793.61 204.524   1
   9  -7  -2 8711.34 366.457   5
   9   7  -2 8607.03 366.617   2
   9  -7  -2 7941.41 365.910   3
   9   7  -2 7509.22 399.142   1
   9   7  -1 7756.21 346.283   2
   9  -7  -1 8052.51 306.683   1
   9   7  -1 7846.46 397.226   1
   9  -7  -1 7961.67 345.355   5
   9  -7   0 4668.95 246.505   2
   9   7   0 4044.87 244.422   2
   9   7   0 4700.42 307.949   1
   9  -7   0 4263.49 227.449   1
   9  -7   0 3733.46 236.158   5
   9  -7   1 7135.88 301.400   1
   9  -7   1 7123.63 312.936   2
   9   7   1 6642.31 367.368   1
   9  -7   1 6836.56 327.229   5
   9  -7   2 7365.64 330.128   2
   9  -7   2 8475.16 339.914   1
   9   7   2 7849.26 399.384   1
   9  -7   2 8452.27 368.658   5
   9  -7   3 14781.8 487.014   2
   9  -7   3 16066.6 500.087   1
   9   7   3 16002.9 580.719   1
   9  -7   3 15873.4 531.716   5
   9  -7   4 7239.61 315.201   2
   9  -7   4 7303.83 339.181   1
   9  -7   4 7501.01 365.818   5
   9   7   4 7333.03 388.974   1
   9   7   5 10362.7 474.658   1
   9  -7   5 10882.4 429.275   1
   9  -7   5 11113.7 465.820   5
   9  -7   5 11264.9 394.112   2
   9   7   6 12150.9 513.417   1
   9  -7   6 12181.2 472.800   1
   9  -7   6 11874.6 497.360   5
   9   7   7 5011.14 332.971   1
   9  -7   7 4706.07 316.104   5
   9  -7   7 5011.51 310.820   1
   9   7   8 18881.8 668.256   1
   9  -7   8 18277.1 604.436   3
   9  -7   8 18195.2 665.927   5
   9  -7   8 18695.9 635.961   1
   9   7   9 5176.44 352.867   1
   9  -7   9 5619.59 323.349   3
   9  -7   9 5733.00 370.284   5
   9  -7   9 5367.65 355.420   1
   9   7  10 3614.05 298.178   1
   9  -7  10 3596.41 262.507   3
   9  -7  10 3409.79 298.947   5
   9  -7  10 3395.23 294.974   1
   9  -7  11 1028.31 187.111   5
   9   7  11 695.171 158.886   1
   9  -9 -10 6125.96 393.693   5
   9  -9 -10 5511.17 317.211   3
   9   9  -9 2527.90 266.802   2
   9  -9  -9 1916.73 232.274   5
   9  -9  -9 1988.69 197.756   3
   9  -9  -8 12910.5 550.010   5
   9   9  -8 12634.6 578.710   2
   9  -9  -8 11417.8 472.988   3
   9  -9  -7 917.224 158.994   5
   9   9  -7 928.940 166.190   2
   9  -9  -7 871.304 135.854   3
   9  -9  -6 7785.89 410.988   5
   9   9  -6 8489.55 440.674   2
   9  -9  -6 7674.83 379.723   3
   9  -9  -5 5200.09 331.502   5
   9   9  -5 5597.02 350.426   2
   9  -9  -5 5230.70 316.365   3
   9  -9  -4 1324.33 172.147   5
   9   9  -4 1626.89 190.943   2
   9  -9  -3 977.526 153.275   5
   9   9  -3 774.995 135.388   2
   9  -9  -3 827.264 88.0538   1
   9  -9  -2 10785.8 343.874   1
   9   9  -2 10281.7 439.825   2
   9  -9  -2 9769.65 441.888   5
   9   9  -1 2286.15 210.103   2
   9  -9  -1 2359.00 164.455   1
   9   9  -1 2012.42 222.865   1
   9  -9  -1 2141.94 212.651   5
   9   9   0 6282.29 375.463   1
   9  -9   0 6709.96 284.571   1
   9  -9   0 6485.09 354.696   5
   9  -9   1 4257.83 233.078   1
   9   9   1 3936.17 298.659   1
   9  -9   1 3432.91 262.325   5
   9  -9   2 7099.95 316.402   1
   9   9   2 6064.33 371.278   1
   9  -9   2 6443.58 367.388   5
   9  -9   3 1673.78 198.650   5
   9   9   3 1136.12 174.971   1
   9  -9   3 1256.17 142.082   1
   9  -9   4 16133.2 529.639   1
   9   9   4 15382.0 601.155   1
   9  -9   4 15886.6 606.037   5
   9  -9   5 4074.35 270.178   1
   9   9   5 4216.07 312.074   1
   9  -9   5 4653.90 329.578   5
   9   9   6 9224.21 463.437   1
   9  -9   6 9198.14 481.822   5
   9  -9   6 9317.31 427.577   1
   9  -9   7 2581.23 269.151   5
   9   9   7 2398.31 249.834   1
   9  -9   7 2653.13 240.272   1
   9  -9   8 11053.4 560.193   5
   9   9   8 11273.7 531.039   1
   9  -9   8 11556.0 505.109   1
   9   9   9 1192.68 187.809   1
   9  -9   9 1496.00 213.620   5
   9  -9   9 1448.80 203.599   1
   9  -9  10 6343.58 448.376   5
   9 -11  -9 873.179 148.858   3
   9 -11  -8 6770.06 388.049   3
   9 -11  -7-35.1942 99.1491   5
   9  11  -7 195.862 120.607   2
   9 -11  -7 53.5156 99.8275   3
   9 -11  -6 12919.9 590.611   5
   9  11  -6 13351.0 593.681   2
   9 -11  -6 12342.0 525.242   3
   9 -11  -5 1963.16 230.221   5
   9  11  -5 2433.84 254.814   2
   9 -11  -4 5243.73 368.112   5
   9  11  -4 5620.92 365.638   2
   9 -11  -3 134.416 94.4808   5
   9  11  -3 159.614 105.320   2
   9 -11  -2 4647.59 339.525   5
   9 -11  -1 445.125 153.737   5
   9 -11   0 8662.17 460.194   5
   9 -11   1 1661.81 209.939   5
   9 -11   2 9819.80 384.843   1
   9  11   2 8854.08 470.326   1
   9 -11   2 9031.73 478.577   5
   9 -11   3 94.5842 98.5705   5
   9 -11   3-16.2724 68.6281   1
   9  11   3 23.0456 98.8766   1
   9 -11   4 7249.63 356.644   1
   9  11   4 7066.84 413.447   1
   9 -11   4 7302.09 440.222   5
   9  11   5 758.122 151.576   1
   9 -11   5 836.085 139.397   1
   9 -11   5 1039.05 193.362   5
   9 -11   6 16594.1 597.818   1
   9 -11   6 15831.5 699.026   5
   9 -11   7 1675.49 197.127   1
   9 -11   7 1531.41 232.993   5
   9 -11   8 9085.00 551.513   5
  10   0 -13 91.2604 110.859   2
  10   0 -12 12494.1 568.700   2
  10   0 -11-33.3498 85.9448   2
  10   0 -10 19588.2 671.983   2
  10   0  -9-22.9980 71.4542   2
  10   0  -8 9841.22 421.108   2
  10   0  -7-7.26973 63.1202   2
  10   0  -6 8127.58 379.223   1
  10   0  -6 8229.53 349.646   2
  10   0  -5 61.7467 67.8972   1
  10   0  -5-52.3656 57.9609   2
  10   0  -4 14883.9 438.257   2
  10   0  -4 14009.0 515.127   1
  10   0  -3 193.911 97.3056   1
  10   0  -3 20.1633 41.2364   2
  10   0  -2 36201.0 700.868   2
  10   0  -2 35822.2 864.595   1
  10   0  -1 16.9998 33.3038   2
  10   0  -1 1.57228 59.7277   1
  10   0   0 51929.8 1092.40   1
  10   0   0 53862.9 835.878   2
  10   0   1-25.8354 58.9000   1
  10   0   1 40.1888 20.1044   2
  10   0   2 26298.5 704.198   1
  10   0   3 85.5253 65.0140   1
  10   0   4 17172.2 568.094   1
  10   0   5-34.1263 77.7022   1
  10   0   6 19090.3 317.403   5
  10   0   6 18153.7 334.178   5
  10   0   6 18351.3 615.715   1
  10   0   7 150.993 90.4440   1
  10   0   7 15.3745 26.8325   5
  10   0   8 7677.42 413.052   1
  10   0   9-82.7136 91.4571   1
  10   0  10 15591.0 623.277   1
  10   0  11 19.2652 91.2140   1
  10   0  12 14575.7 646.149   1
  10   0  13-110.413 100.968   4
  10   2 -13 173.963 113.518   2
  10  -2 -13 123.456 119.870   2
  10  -2 -12 12599.6 586.729   2
  10   2 -12 12235.3 560.795   2
  10   2 -11 1763.83 211.897   2
  10  -2 -11 1611.45 207.563   2
  10  -2 -10 6703.60 334.046   5
  10  -2 -10 6807.44 390.732   2
  10   2 -10 6146.31 362.104   2
  10   2  -9 710.719 134.179   2
  10  -2  -9 507.919 104.087   5
  10  -2  -9 905.497 152.054   2
  10  -2  -8 8628.34 345.137   5
  10  -2  -8 8607.03 406.056   2
  10   2  -8 8454.09 398.253   2
  10   2  -7-19.2772 59.1797   2
  10  -2  -7-18.1012 51.0663   5
  10  -2  -7 81.3110 77.7609   2
  10  -2  -6 6596.84 268.237   5
  10  -2  -6 6189.95 269.493   4
  10   2  -6 6138.73 348.050   1
  10  -2  -6 6504.79 322.532   1
  10  -2  -6 6511.75 318.125   2
  10   2  -6 5924.18 299.808   2
  10  -2  -5 6797.61 263.292   5
  10   2  -5 6682.44 357.610   1
  10  -2  -5 6683.76 309.194   2
  10  -2  -5 6766.32 328.518   1
  10   2  -5 7023.10 311.204   2
  10  -2  -4 6422.07 241.499   5
  10  -2  -4 6207.45 276.262   2
  10   2  -4 5853.84 332.883   1
  10  -2  -4 6657.03 328.426   1
  10   2  -4 6165.20 279.797   2
  10   2  -3 93.6575 47.0431   2
  10   2  -3 144.845 83.8597   1
  10  -2  -3 23.9755 33.9945   5
  10  -2  -2 47635.4 998.915   1
  10  -2  -2 46945.2 787.121   5
  10   2  -2 46535.1 1053.15   1
  10   2  -2 47342.5 870.765   2
  10   2  -1 4901.14 202.404   2
  10  -2  -1 4838.94 169.034   5
  10  -2  -1 4580.85 261.795   1
  10  -2  -1 4921.67 201.380   2
  10   2  -1 5102.78 306.784   1
  10   2   0 37143.0 910.817   1
  10  -2   0 39999.1 637.620   5
  10   2   0 38058.9 688.451   2
  10  -2   0 37833.0 856.169   1
  10  -2   0 38862.2 671.094   2
  10  -2   1 2638.08 108.992   5
  10   2   1 2892.76 218.652   1
  10   2   1 2704.26 128.405   2
  10  -2   1 2371.06 191.446   1
  10  -2   1 2532.62 183.601   3
  10  -2   1 2546.50 106.676   2
  10  -2   2 42326.6 650.358   5
  10   2   2 39632.0 951.622   1
  10  -2   2 42519.5 863.002   3
  10  -2   2 40014.8 905.071   1
  10   2   3 131.341 73.6104   1
  10  -2   3 330.882 44.8758   5
  10  -2   3 290.796 72.9457   3
  10  -2   3 233.448 83.7051   1
  10   2   4 17913.0 586.951   1
  10  -2   4 18003.2 501.581   3
  10  -2   4 17417.2 561.818   1
  10  -2   4 16808.5 355.923   5
  10   2   5 6305.49 346.635   1
  10  -2   5 6259.02 215.437   5
  10  -2   5 6947.45 349.699   1
  10  -2   6 22258.1 676.980   1
  10  -2   6 21900.0 430.813   5
  10   2   6 23148.8 705.035   1
  10  -2   6 21745.9 489.967   5
  10  -2   7 427.567 59.5613   5
  10   2   7 242.371 105.518   1
  10  -2   7 474.037 114.683   1
  10  -2   7 405.232 70.8536   5
  10   2   7 411.779 41.2117   5
  10  -2   8 13055.1 530.590   1
  10   2   8 12625.5 542.538   1
  10   2   9 593.289 136.450   1
  10  -2   9 641.856 138.732   1
  10  -2  10 8941.27 470.815   1
  10   2  10 8745.04 464.081   1
  10  -2  11 5081.31 369.749   1
  10  -2  11 4811.63 289.523   4
  10   2  11 5101.74 369.322   1
  10  -2  12 19020.2 626.539   4
  10   2  12 20018.0 770.763   1
  10  -2  13 110.117 89.1989   4
  10  -4 -13 4344.07 316.741   5
  10  -4 -12 8369.95 426.758   5
  10  -4 -12 8506.70 493.847   2
  10   4 -12 9609.92 497.923   2
  10  -4 -11 2145.49 208.173   5
  10  -4 -11 2212.41 248.630   2
  10   4 -11 2157.29 231.628   2
  10  -4 -10 4109.45 274.397   5
  10   4 -10 3932.29 299.485   2
  10  -4  -9 5094.61 290.927   5
  10   4  -9 5341.94 330.897   2
  10  -4  -8 11088.6 429.356   5
  10   4  -8 11302.3 465.684   2
  10  -4  -7 2049.58 171.196   5
  10  -4  -7 1870.20 146.534   4
  10   4  -7 2137.98 197.346   2
  10  -4  -6 4184.36 232.103   5
  10  -4  -6 4205.63 208.031   4
  10  -4  -6 4202.07 233.584   1
  10   4  -6 3734.72 245.445   2
  10  -4  -5 18.7659 60.4500   1
  10   4  -5 72.4564 66.7205   2
  10  -4  -5 198.713 67.7835   5
  10  -4  -5 187.578 53.7245   4
  10  -4  -5 282.740 89.9697   3
  10   4  -5 116.121 79.3800   1
  10   4  -4 13114.4 436.434   2
  10  -4  -4 13284.5 402.536   5
  10  -4  -4 13336.9 357.288   4
  10  -4  -4 13551.6 450.045   3
  10   4  -4 12524.3 512.710   1
  10  -4  -4 13595.6 457.438   1
  10   4  -3 10185.5 365.706   2
  10  -4  -3 10174.6 336.742   5
  10  -4  -3 9830.97 288.142   4
  10  -4  -3 10099.9 384.076   3
  10   4  -3 10025.6 451.660   1
  10  -4  -3 10188.6 392.623   1
  10  -4  -2 37712.2 739.921   5
  10   4  -2 36768.8 779.373   2
  10  -4  -2 38095.0 840.144   1
  10  -4  -2 37796.9 831.831   3
  10   4  -2 35557.0 921.505   1
  10  -4  -1 1069.31 127.151   1
  10  -4  -1 856.169 95.0036   5
  10   4  -1 1215.12 119.345   2
  10   4  -1 1150.61 168.874   1
  10  -4  -1 1114.97 137.940   3
  10  -4   0 15310.7 396.716   5
  10   4   0 15298.3 425.932   2
  10  -4   0 15202.8 484.126   1
  10  -4   0 15813.8 496.772   3
  10   4   0 15862.7 565.787   1
  10   4   1 7419.80 271.510   2
  10  -4   1 7462.74 247.294   2
  10  -4   1 7519.96 328.846   3
  10  -4   1 7279.77 323.848   1
  10   4   1 7538.39 382.629   1
  10  -4   1 7281.13 255.913   5
  10   4   2 23488.0 707.078   1
  10  -4   2 22127.8 479.383   2
  10  -4   2 25013.9 642.452   3
  10  -4   2 23972.5 637.445   1
  10  -4   2 23048.4 514.057   5
  10  -4   3 22369.7 428.555   2
  10   4   3 22397.1 692.745   1
  10  -4   3 22989.7 614.981   3
  10  -4   3 22516.4 518.595   5
  10  -4   3 21911.0 629.301   1
  10  -4   4 13115.8 481.362   1
  10   4   4 13112.0 525.437   1
  10  -4   4 13873.6 463.189   3
  10  -4   4 13443.2 260.279   2
  10  -4   4 14244.5 404.402   5
  10  -4   5 376.100 87.1827   3
  10  -4   5 348.473 100.160   1
  10  -4   5 511.463 86.4719   5
  10   4   5 409.995 115.725   1
  10  -4   6 7794.02 380.737   1
  10   4   6 7860.16 403.694   1
  10  -4   6 7133.71 325.302   3
  10  -4   6 6970.16 306.270   5
  10  -4   7 4175.10 289.065   1
  10   4   7 3356.44 274.275   1
  10  -4   7 3759.75 235.620   3
  10  -4   7 3986.79 237.598   5
  10  -4   8 8767.83 318.007   4
  10  -4   8 8875.45 437.894   1
  10   4   8 8778.74 448.512   1
  10  -4   8 8736.80 363.159   3
  10  -4   8 9050.53 377.775   5
  10   4   9 269.611 103.282   1
  10  -4   9 438.570 87.6147   4
  10  -4   9 419.501 91.5822   3
  10  -4   9 246.633 93.1766   1
  10  -4   9 230.103 68.7555   5
  10  -4  10 8912.59 355.016   4
  10  -4  10 9739.53 490.381   1
  10   4  10 8833.30 480.575   1
  10  -4  10 9330.83 372.070   3
  10   4  11 2015.40 242.649   1
  10  -4  11 1377.84 151.617   4
  10   4  12 13655.7 638.067   1
  10  -6 -12 7400.98 423.919   5
  10   6 -11 869.195 178.318   2
  10  -6 -11 1129.00 163.523   5
  10   6 -10 5459.63 363.727   2
  10  -6 -10 5767.40 346.234   5
  10   6  -9 3316.35 275.338   2
  10  -6  -9 3187.79 253.718   5
  10  -6  -8 1800.09 183.351   5
  10   6  -8 1555.62 186.144   2
  10  -6  -8 1737.05 172.695   3
  10   6  -7 3249.52 255.332   2
  10  -6  -7 3175.23 231.369   5
  10  -6  -7 3030.98 225.283   3
  10   6  -6 7776.29 386.181   2
  10  -6  -6 8011.54 360.024   5
  10  -6  -6 8093.63 363.170   3
  10  -6  -5 960.114 108.234   1
  10  -6  -5 922.787 130.267   5
  10   6  -5 1049.15 143.428   2
  10  -6  -5 1012.95 133.482   3
  10  -6  -4 5521.25 286.610   5
  10   6  -4 5622.43 301.602   2
  10  -6  -4 5947.37 309.748   3
  10   6  -4 5073.67 336.951   1
  10  -6  -4 6840.42 298.099   1
  10  -6  -3 13300.7 437.657   1
  10  -6  -3 12553.7 434.884   5
  10   6  -3 12836.5 454.772   2
  10  -6  -3 12543.0 457.583   3
  10   6  -3 12064.3 524.844   1
  10  -6  -2 11933.3 414.313   5
  10  -6  -2 13196.0 428.853   1
  10   6  -2 11501.6 418.185   2
  10  -6  -2 12382.4 455.979   3
  10   6  -2 11337.5 501.615   1
  10  -6  -1 8075.45 331.943   5
  10   6  -1 8929.09 353.714   2
  10  -6  -1 8782.71 346.486   1
  10  -6  -1 8875.82 381.115   3
  10   6  -1 8845.67 433.758   1
  10   6   0 18256.0 526.832   2
  10  -6   0 18281.7 499.374   2
  10  -6   0 19477.8 586.662   3
  10  -6   0 19073.9 540.129   1
  10   6   0 17898.0 640.585   1
  10  -6   0 18435.7 519.317   5
  10  -6   1 12228.4 390.973   2
  10  -6   1 12777.4 465.689   3
  10   6   1 12283.5 515.595   1
  10  -6   1 12183.9 427.425   1
  10  -6   1 11826.9 402.951   5
  10  -6   2 10032.3 352.571   2
  10  -6   2 9852.65 408.261   3
  10   6   2 10658.3 475.335   1
  10  -6   2 10018.7 371.264   5
  10  -6   2 10133.7 393.870   1
  10  -6   3 12575.6 390.623   2
  10  -6   3 13428.8 464.055   1
  10  -6   3 11020.5 185.766   4
  10  -6   3 12488.1 463.097   3
  10  -6   3 12678.9 427.589   5
  10   6   3 13036.9 536.561   1
  10   6   4 11994.1 515.939   1
  10  -6   4 11145.6 444.625   1
  10  -6   4 12472.4 234.222   4
  10  -6   4 12333.5 469.060   3
  10  -6   4 12800.2 447.509   5
  10  -6   4 12099.3 367.353   2
  10   6   5 3844.94 296.588   1
  10  -6   5 4274.28 138.160   4
  10  -6   5 4198.54 272.773   1
  10  -6   5 4130.31 267.216   3
  10  -6   5 4100.27 255.506   5
  10   6   6 5729.84 362.694   1
  10  -6   6 6046.59 190.070   4
  10  -6   6 5804.55 329.725   1
  10  -6   6 6058.33 324.166   3
  10  -6   6 5637.14 315.649   5
  10   6   7 9531.87 476.148   1
  10  -6   7 9714.51 418.268   3
  10  -6   7 10462.0 462.963   1
  10  -6   7 10232.1 442.119   5
  10  -6   8 1765.65 207.151   1
  10  -6   8 1862.30 184.817   3
  10   6   8 1861.09 218.686   1
  10  -6   8 1558.71 183.861   5
  10   6   9 5278.87 363.465   1
  10  -6   9 5135.40 304.767   3
  10  -6   9 4359.10 321.171   1
  10  -6   9 4883.14 325.130   5
  10   6  10 8768.62 485.651   1
  10  -6  10 8655.39 399.139   3
  10  -6  10 8987.26 469.725   1
  10   6  11 3118.40 297.704   1
  10   6  12 6826.69 440.532   1
  10  -8 -10 2100.10 239.181   5
  10   8 -10 2140.93 252.700   2
  10  -8 -10 2264.30 206.447   3
  10   8  -9 3598.11 311.735   2
  10  -8  -9 3112.55 264.623   5
  10  -8  -9 2778.11 227.970   3
  10  -8  -8 490.480 124.531   5
  10   8  -8 764.350 154.295   2
  10  -8  -8 536.658 120.679   3
  10  -8  -7 4857.59 316.652   5
  10   8  -7 4844.36 332.119   2
  10  -8  -7 4214.08 286.705   3
  10  -8  -6 5582.68 335.253   5
  10   8  -6 5592.18 351.713   2
  10  -8  -6 5647.68 326.713   3
  10  -8  -5 5938.04 336.530   5
  10   8  -5 5493.77 340.018   2
  10  -8  -5 5509.12 321.552   3
  10  -8  -4 1356.86 164.217   5
  10   8  -4 1243.47 169.877   2
  10  -8  -4 1024.54 150.119   3
  10  -8  -4 1380.14 117.667   1
  10  -8  -3 6469.56 277.001   1
  10  -8  -3 5659.72 322.717   5
  10   8  -3 6109.44 338.649   2
  10  -8  -3 6174.84 341.026   3
  10  -8  -2 4959.51 298.934   5
  10  -8  -2 5481.25 263.301   1
  10   8  -2 5384.89 304.418   2
  10  -8  -2 5474.77 318.907   3
  10   8  -2 4430.74 327.503   1
  10   8  -1 22829.3 661.574   2
  10  -8  -1 24274.4 612.651   1
  10  -8  -1 23629.6 702.180   3
  10   8  -1 22059.0 748.874   1
  10  -8  -1 22502.9 658.697   5
  10   8   0 10187.5 487.899   1
  10  -8   0 10669.3 388.041   1
  10  -8   0 9296.70 409.807   5
  10   8   1 9952.45 482.699   1
  10  -8   1 10763.7 402.394   1
  10  -8   1 10166.4 422.863   5
  10  -8   2 3767.09 236.598   1
  10  -8   2 3714.36 247.499   2
  10   8   2 3356.54 278.399   1
  10  -8   2 3622.71 256.306   5
  10  -8   3 4235.62 261.784   1
  10   8   3 4072.66 310.435   1
  10  -8   3 4180.60 276.551   5
  10  -8   4 4694.57 284.776   1
  10   8   4 4820.62 338.116   1
  10  -8   4 5262.21 321.263   5
  10  -8   5 10509.1 446.275   1
  10  -8   5 9700.13 457.496   5
  10   8   5 10713.9 503.998   1
  10  -8   6 3693.56 267.843   1
  10  -8   6 3700.20 292.030   5
  10   8   6 3917.77 313.424   1
  10  -8   7 5199.70 331.735   3
  10  -8   7 4912.60 321.332   1
  10  -8   7 5149.91 348.408   5
  10   8   7 5141.50 364.676   1
  10  -8   8 494.432 120.927   1
  10   8   8 554.956 149.747   1
  10  -8   8 492.983 121.138   3
  10  -8   8 502.537 136.911   5
  10   8   9 3638.58 314.889   1
  10  -8   9 3284.45 271.619   3
  10  -8   9 3106.16 294.156   5
  10   8  10 4347.59 349.842   1
  10  -8  10 4487.90 312.917   3
  10 -10 -10 260.251 104.178   3
  10 -10  -9 5054.72 327.777   3
  10 -10  -8 2456.83 259.444   5
  10  10  -8 2410.61 270.041   2
  10 -10  -8 1876.42 205.977   3
  10 -10  -7 4967.00 358.888   5
  10  10  -7 4885.92 359.514   2
  10 -10  -7 5057.04 332.574   3
  10 -10  -6 280.876 114.580   5
  10  10  -6 210.342 102.324   2
  10 -10  -6 135.945 97.5293   3
  10 -10  -5 3084.19 272.083   5
  10  10  -5 2569.22 253.780   2
  10 -10  -5 2874.36 253.672   3
  10 -10  -4 2199.15 227.539   5
  10  10  -4 2707.40 250.228   2
  10 -10  -4 2497.63 236.694   3
  10 -10  -3 5765.49 365.258   5
  10  10  -3 6559.42 375.246   2
  10 -10  -2 4385.91 310.944   5
  10  10  -2 4291.21 299.500   2
  10 -10  -1 14874.4 577.129   5
  10 -10   0 1068.81 162.127   5
  10 -10   0 1220.72 136.092   1
  10  10   0 1039.14 184.059   1
  10  10   1 14990.8 629.603   1
  10 -10   1 15625.5 500.026   1
  10 -10   1 15121.2 586.524   5
  10 -10   2 168.870 90.9292   5
  10 -10   2 473.265 104.202   1
  10  10   2 164.186 113.591   1
  10 -10   3 9771.35 412.032   1
  10  10   3 9555.51 491.412   1
  10 -10   3 9126.84 463.000   5
  10 -10   4 590.538 143.698   5
  10  10   4 472.098 134.781   1
  10 -10   4 390.459 96.7093   1
  10 -10   5 8457.13 407.219   1
  10  10   5 7861.39 454.547   1
  10 -10   5 7878.90 447.669   5
  10  10   6 203.390 116.265   1
  10 -10   6 53.6246 84.8966   1
  10 -10   6 47.0943 98.9051   5
  10 -10   7 8696.14 449.454   1
  10  10   7 8319.14 467.685   1
  10 -10   7 8456.02 492.627   5
  10 -10   8 1022.79 190.805   5
  10  12  -4 102.215 99.2406   2
  10 -12  -3 11691.9 565.935   5
  10 -12  -2 691.896 177.557   5
  10 -12  -1 9428.87 504.426   5
  10 -12   0 522.092 149.687   5
  10 -12   1 5938.22 402.336   5
  10 -12   2 98.7334 104.221   5
  10  12   3 8888.63 495.333   1
  10 -12   3 8707.37 500.509   5
  10 -12   4 104.427 116.937   5
  11   1 -13 2645.25 280.508   2
  11  -1 -13 2309.64 266.150   2
  11   1 -12 174.922 114.509   2
  11  -1 -12 240.455 122.263   2
  11  -1 -11 3008.60 274.723   2
  11   1 -11 2762.64 263.228   2
  11  -1 -10 327.147 110.866   2
  11   1 -10 87.1771 76.5101   2
  11  -1  -9 22882.7 715.254   2
  11   1  -9 20603.2 681.237   2
  11  -1  -8 69.8797 82.5587   2
  11   1  -8 191.702 95.3957   2
  11  -1  -7 17959.2 579.404   2
  11   1  -7 17562.8 571.770   2
  11   1  -6-8.92039 62.6802   2
  11  -1  -6 15.9887 48.1836   5
  11  -1  -6-41.4477 76.7467   2
  11   1  -6-58.0726 84.4728   1
  11  -1  -6-13.5241 72.8773   1
  11  -1  -5 19312.3 466.933   5
  11   1  -5 18659.8 641.423   1
  11  -1  -5 18977.5 621.314   1
  11  -1  -5 18867.0 549.651   2
  11   1  -5 19276.8 550.703   2
  11  -1  -4 6384.99 230.155   5
  11  -1  -4 6099.68 280.421   2
  11   1  -4 6292.82 355.914   1
  11  -1  -4 6215.30 344.543   1
  11   1  -4 6461.96 284.550   2
  11  -1  -3 49548.9 807.590   5
  11  -1  -3 47931.6 917.593   2
  11   1  -3 46336.8 1093.26   1
  11   1  -3 47668.3 918.803   2
  11  -1  -3 47593.9 1076.05   1
  11   1  -2 36.9513 41.1088   2
  11  -1  -2 89.1832 35.0002   5
  11   1  -2 152.092 85.7630   1
  11  -1  -2 282.531 106.154   1
  11  -1  -2 116.834 50.8355   2
  11   1  -1 10958.8 464.630   1
  11  -1  -1 10533.7 439.042   1
  11  -1  -1 11190.1 245.943   5
  11  -1  -1 11692.1 319.888   2
  11   1  -1 11032.7 314.233   2
  11  -1   0 148.603 41.4917   2
  11   1   0 109.430 37.9771   2
  11  -1   0 88.6936 23.2036   5
  11   1   0 17.3688 78.2045   1
  11  -1   0 95.3938 74.9781   1
  11   1   1 23056.3 691.926   1
  11   1   1 23740.8 432.303   2
  11  -1   1 23007.3 670.086   1
  11  -1   1 23762.2 398.058   2
  11  -1   2 761.732 123.048   1
  11   1   2 677.555 121.033   1
  11   1   3 18906.7 622.736   1
  11  -1   3 18504.1 602.948   1
  11   1   4 3062.56 244.788   1
  11  -1   4 3324.38 248.569   1
  11   1   5 13147.8 532.133   1
  11  -1   5 13626.6 537.303   1
  11   1   6 3335.87 271.529   1
  11  -1   6 3562.66 275.711   1
  11  -1   6 3405.25 110.398   5
  11   1   7 31725.4 912.860   1
  11  -1   7 32472.3 912.369   1
  11  -1   8 377.408 128.697   1
  11   1   8 559.751 138.603   1
  11   1   9 15270.6 635.518   1
  11  -1   9 15952.0 638.869   1
  11  -1  10 164.531 106.750   1
  11   1  10 54.4046 99.0304   1
  11  -1  11 13079.8 606.767   1
  11   1  11 13150.0 619.823   1
  11  -1  12 2458.62 232.021   4
  11  -1  13 5345.86 351.220   4
  11   3 -12-118.759 103.011   2
  11  -3 -12 113.490 111.263   2
  11  -3 -11 6774.69 359.822   5
  11  -3 -11 6617.59 422.902   2
  11   3 -11 6041.10 397.135   2
  11   3 -10 2049.28 224.390   2
  11  -3 -10 1717.08 182.977   5
  11  -3 -10 2222.45 237.230   2
  11  -3  -9 6287.98 319.022   5
  11  -3  -9 6136.10 374.853   2
  11   3  -9 6420.75 363.631   2
  11   3  -8 1679.22 186.375   2
  11  -3  -8 1550.44 155.836   5
  11  -3  -8 1532.89 184.594   2
  11  -3  -7 22448.3 595.719   5
  11   3  -7 22619.0 670.168   2
  11   3  -6 655.938 117.617   2
  11  -3  -6 600.740 92.5705   5
  11  -3  -6 429.922 75.5484   4
  11   3  -6 567.762 128.479   1
  11  -3  -6 580.826 106.322   1
  11  -3  -5 25522.8 595.761   5
  11  -3  -5 25518.3 591.611   4
  11   3  -5 23369.2 759.566   1
  11  -3  -5 25910.1 714.428   1
  11   3  -5 24032.1 655.289   2
  11  -3  -4 12826.2 381.054   5
  11   3  -4 13060.6 536.044   1
  11  -3  -4 13164.1 492.216   1
  11   3  -4 13174.6 434.461   2
  11   3  -3 18817.0 515.121   2
  11  -3  -3 20010.7 471.776   5
  11   3  -3 18799.9 654.892   1
  11  -3  -3 20110.7 614.517   1
  11   3  -2 2635.49 170.996   2
  11  -3  -2 2673.51 215.125   1
  11  -3  -2 2828.64 151.143   5
  11  -3  -2 2766.31 203.628   3
  11   3  -2 2522.51 237.946   1
  11  -3  -1 13919.5 350.872   5
  11   3  -1 12774.4 384.414   2
  11  -3  -1 14061.7 491.425   1
  11  -3  -1 13913.1 463.876   3
  11   3  -1 13947.2 541.226   1
  11  -3   0 570.975 112.881   1
  11  -3   0 667.343 69.8078   5
  11   3   0 1054.15 161.642   1
  11   3   0 832.253 91.7573   2
  11  -3   0 1067.94 130.466   3
  11  -3   1 6189.47 206.907   5
  11   3   1 6801.12 373.444   1
  11   3   1 6018.48 225.322   2
  11  -3   1 6106.74 317.270   1
  11  -3   1 6446.57 308.171   3
  11  -3   2 6190.20 200.921   5
  11   3   2 6100.98 347.726   1
  11  -3   2 6102.45 169.466   2
  11  -3   2 6120.72 298.505   3
  11  -3   2 6293.62 324.817   1
  11  -3   2 5969.88 158.153   2
  11   3   3 11412.5 490.559   1
  11  -3   3 12147.0 429.424   3
  11  -3   3 11817.8 466.916   1
  11  -3   3 11962.0 299.891   5
  11   3   4 2755.57 247.539   1
  11  -3   4 3038.03 211.876   3
  11  -3   4 3126.62 242.927   1
  11  -3   4 2942.60 143.615   5
  11   3   5 23401.8 758.804   1
  11  -3   5 24565.6 650.028   3
  11  -3   5 24149.0 513.160   5
  11  -3   5 24692.9 735.400   1
  11  -3   6 3282.11 262.283   1
  11   3   6 3019.69 263.064   1
  11  -3   6 3327.87 222.982   3
  11  -3   6 2895.44 166.524   5
  11  -3   7 18061.6 641.346   1
  11   3   7 16885.3 645.531   1
  11  -3   7 16465.3 458.372   5
  11   3   8 997.201 177.262   1
  11  -3   8 1572.31 201.215   1
  11  -3   9 21580.2 748.287   1
  11   3   9 19375.2 738.937   1
  11  -3  10 679.846 109.713   4
  11   3  10 709.115 171.639   1
  11  -3  10 687.495 161.189   1
  11  -3  11 9488.08 404.541   4
  11   3  11 9093.77 518.376   1
  11  -5 -12 5852.75 362.909   5
  11  -5 -12 4837.06 389.936   2
  11  -5 -11 4384.34 305.863   5
  11   5 -11 4697.67 347.816   2
  11   5 -10 836.094 152.989   2
  11  -5 -10 725.730 141.899   5
  11  -5  -9 5326.47 318.587   5
  11   5  -9 4827.50 330.061   2
  11  -5  -8 4811.02 285.423   5
  11   5  -8 5148.02 326.946   2
  11   5  -7 13354.2 516.324   2
  11  -5  -7 13005.1 467.023   5
  11   5  -6 7283.84 359.175   2
  11  -5  -6 6489.61 312.385   5
  11  -5  -6 6859.04 270.375   4
  11  -5  -6 6693.65 303.869   1
  11  -5  -6 6582.38 334.377   3
  11   5  -5 13386.4 484.178   2
  11  -5  -5 13844.8 449.455   5
  11  -5  -5 13132.2 373.046   4
  11   5  -5 12829.9 564.796   1
  11  -5  -5 13677.2 487.492   3
  11  -5  -5 14209.7 472.970   1
  11   5  -4 1950.80 178.332   2
  11  -5  -4 1968.70 161.352   5
  11  -5  -4 1930.01 125.634   4
  11  -5  -4 1874.61 181.851   3
  11  -5  -4 1953.31 185.146   1
  11   5  -4 1801.52 208.060   1
  11  -5  -3 30835.6 770.484   1
  11  -5  -3 29310.1 681.832   5
  11   5  -3 28549.4 722.966   2
  11  -5  -3 30308.2 575.234   4
  11  -5  -3 29417.0 761.459   3
  11   5  -3 29622.1 874.463   1
  11  -5  -2 12180.6 394.571   5
  11  -5  -2 13004.5 463.906   1
  11   5  -2 13031.5 433.099   2
  11  -5  -2 12303.6 304.702   4
  11  -5  -2 12537.9 464.737   3
  11   5  -2 11755.4 525.634   1
  11  -5  -1 9015.65 328.257   5
  11   5  -1 9477.39 355.589   2
  11  -5  -1 9588.88 388.912   1
  11  -5  -1 10148.4 411.422   3
  11   5  -1 9547.21 463.232   1
  11  -5   0 2470.88 160.725   5
  11   5   0 2687.94 179.640   2
  11  -5   0 2555.47 200.981   1
  11  -5   0 2318.46 200.603   3
  11   5   0 2616.33 244.472   1
  11  -5   1 4616.23 212.264   2
  11   5   1 5273.37 245.933   2
  11  -5   1 5323.08 298.797   3
  11  -5   1 5259.26 287.240   1
  11   5   1 4937.80 332.514   1
  11  -5   1 4794.37 228.129   5
  11  -5   2 4143.89 197.478   2
  11  -5   2 4241.77 266.392   3
  11  -5   2 4363.48 268.457   1
  11  -5   2 4168.46 211.838   5
  11   5   2 4458.97 316.707   1
  11   5   3 14662.9 586.657   1
  11  -5   3 14386.1 358.328   2
  11  -5   3 14592.7 508.857   3
  11  -5   3 15291.7 530.941   1
  11  -5   3 13746.9 411.283   5
  11  -5   4 13148.4 502.254   1
  11   5   4 12453.2 538.881   1
  11  -5   4 12049.8 464.559   3
  11  -5   4 12658.6 400.851   5
  11  -5   5 12647.6 498.329   1
  11   5   5 11706.7 533.387   1
  11  -5   5 12669.2 471.830   3
  11  -5   5 11879.5 408.689   5
  11  -5   6 3183.46 259.515   1
  11   5   6 3113.88 281.373   1
  11  -5   6 3331.14 159.474   4
  11  -5   6 3291.49 237.949   3
  11  -5   6 3070.76 209.629   5
  11   5   7 9065.84 480.025   1
  11  -5   7 9223.61 457.345   1
  11  -5   7 9586.13 305.476   4
  11  -5   7 9941.40 418.559   3
  11  -5   7 9681.64 396.643   5
  11   5   8 2814.26 282.668   1
  11  -5   8 3207.06 277.351   1
  11  -5   8 2893.70 223.779   3
  11  -5   8 2822.49 218.990   5
  11   5   9 11302.7 563.128   1
  11  -5   9 11734.0 547.216   1
  11  -5   9 12092.6 465.159   3
  11   5  10 4350.35 353.458   1
  11   5  11 9674.33 539.922   1
  11  -7 -11 1815.15 215.221   5
  11   7 -10 3404.23 307.310   2
  11  -7 -10 3131.01 270.545   5
  11   7  -9 8178.80 452.846   2
  11  -7  -9 7984.87 411.811   5
  11   7  -8 5378.02 351.824   2
  11  -7  -8 4566.91 308.295   5
  11  -7  -8 4093.15 278.507   3
  11   7  -7 2926.36 258.719   2
  11  -7  -7 2918.02 235.583   5
  11  -7  -7 2919.65 235.601   3
  11  -7  -6 6890.19 353.370   5
  11   7  -6 7387.95 394.009   2
  11  -7  -6 7037.29 361.917   3
  11  -7  -5 6736.69 340.687   5
  11   7  -5 6364.19 355.904   2
  11  -7  -5 6688.43 356.332   3
  11  -7  -5 7115.89 287.003   1
  11  -7  -4 16364.3 542.807   5
  11   7  -4 16673.9 583.150   2
  11  -7  -4 17004.9 582.254   3
  11   7  -4 17206.4 676.804   1
  11  -7  -4 18171.7 520.591   1
  11  -7  -3 8915.83 365.906   1
  11  -7  -3 7720.06 355.749   5
  11   7  -3 7986.67 378.780   2
  11  -7  -3 7910.13 387.310   3
  11   7  -3 7405.97 434.457   1
  11  -7  -2 8667.73 373.632   5
  11  -7  -2 9661.52 385.763   1
  11   7  -2 9016.81 389.277   2
  11  -7  -2 9081.02 413.419   3
  11   7  -2 9547.18 485.757   1
  11   7  -1 863.600 170.022   1
  11  -7  -1 951.367 123.842   1
  11  -7  -1 1093.72 130.949   5
  11   7  -1 924.002 130.232   2
  11  -7  -1 994.937 145.078   3
  11  -7   0 5697.19 279.225   2
  11   7   0 5976.27 301.239   2
  11  -7   0 5579.68 329.603   3
  11  -7   0 5608.43 293.904   1
  11   7   0 5456.69 365.634   1
  11  -7   0 5531.94 288.321   5
  11  -7   1 4468.25 249.765   2
  11  -7   1 4570.36 292.356   3
  11  -7   1 4365.11 265.723   1
  11   7   1 4020.45 315.482   1
  11  -7   1 4245.86 251.686   5
  11  -7   2 6455.66 354.133   3
  11   7   2 6055.24 385.761   1
  11  -7   2 6545.65 331.352   1
  11  -7   2 6711.98 316.803   5
  11  -7   3 5531.92 312.946   1
  11  -7   3 5599.84 331.935   3
  11   7   3 5263.63 366.392   1
  11  -7   3 5288.23 288.929   5
  11  -7   4 2087.92 198.927   1
  11   7   4 1906.73 227.259   1
  11  -7   4 1953.27 198.152   3
  11  -7   4 2203.16 193.428   5
  11  -7   5 6622.18 360.887   1
  11  -7   5 6781.43 363.509   3
  11  -7   5 6055.73 327.788   5
  11   7   5 5983.48 391.067   1
  11   7   6 11564.1 556.613   1
  11  -7   6 12565.1 516.694   1
  11  -7   6 12399.9 505.218   3
  11  -7   6 11447.3 476.843   5
  11   7   7 7647.12 461.654   1
  11  -7   7 8811.04 444.595   1
  11  -7   7 7602.63 398.562   3
  11  -7   7 7114.00 382.773   5
  11   7   8 6128.63 417.774   1
  11  -7   8 7263.54 415.196   1
  11  -7   8 6261.59 364.874   3
  11   7   9 3699.47 326.611   1
  11  -7   9 4159.36 297.999   3
  11   7  10 6250.34 428.892   1
  11  -9 -10 6165.93 363.995   3
  11  -9  -9 911.187 177.888   5
  11  -9  -9 853.472 147.552   3
  11  -9  -8 8169.22 442.328   5
  11   9  -8 9619.49 508.285   2
  11  -9  -8 9288.71 447.382   3
  11  -9  -7 4315.76 317.164   5
  11   9  -7 3990.62 323.588   2
  11  -9  -7 3482.28 277.402   3
  11  -9  -6 4123.16 306.738   5
  11   9  -6 4946.31 354.361   2
  11  -9  -6 4820.51 325.107   3
  11  -9  -5 3946.46 296.831   5
  11   9  -5 4604.57 323.288   2
  11  -9  -5 4124.61 299.264   3
  11  -9  -4 16232.7 593.442   5
  11   9  -4 16476.0 613.258   2
  11  -9  -4 16663.2 615.790   3
  11  -9  -3 3948.27 283.310   5
  11   9  -3 3823.33 281.446   2
  11  -9  -3 3819.12 291.435   3
  11  -9  -2 6513.14 359.800   5
  11   9  -2 6856.53 367.516   2
  11  -9  -2 7401.45 397.661   3
  11   9  -2 6697.69 427.630   1
  11  -9  -1 1542.76 183.662   5
  11  -9  -1 1633.14 161.702   1
  11   9  -1 1918.27 196.055   2
  11  -9  -1 1457.32 188.782   3
  11   9  -1 1299.01 198.668   1
  11  -9   0 6364.16 370.265   3
  11  -9   0 7024.48 326.388   1
  11   9   0 5580.86 388.140   1
  11  -9   0 6175.91 343.935   5
  11   9   1 215.903 114.816   1
  11  -9   1 377.764 113.288   5
  11  -9   1 427.218 126.315   3
  11  -9   1 342.947 94.6516   1
  11  -9   2 12161.6 521.842   3
  11   9   2 10998.0 540.966   1
  11  -9   2 12302.4 464.394   1
  11  -9   2 10718.0 467.746   5
  11  -9   3 2556.58 223.356   1
  11   9   3 2349.05 260.422   1
  11  -9   3 2509.73 237.410   3
  11  -9   3 2389.16 220.196   5
  11  -9   4 5901.01 339.764   1
  11  -9   4 5445.83 354.229   3
  11   9   4 5227.20 376.910   1
  11  -9   4 5108.55 325.949   5
  11  -9   5 2491.93 238.883   1
  11  -9   5 2484.66 240.990   3
  11   9   5 2492.24 275.749   1
  11  -9   5 3033.05 263.989   5
  11  -9   6 11625.6 507.039   1
  11  -9   6 10572.2 504.642   3
  11   9   6 10407.2 538.311   1
  11  -9   6 10162.5 495.576   5
  11   9   7 2072.89 254.783   1
  11  -9   7 2063.24 228.749   3
  11  -9   7 2083.63 228.907   1
  11  -9   7 1822.35 220.811   5
  11  -9   8 9137.49 473.143   3
  11   9   8 8799.60 507.484   1
  11  -9   9 4560.42 333.639   3
  11 -11  -6 8707.20 468.714   3
  11 -11  -5 334.996 130.641   5
  11  11  -5 406.878 140.854   2
  11 -11  -5 390.492 126.962   3
  11 -11  -4 3261.52 297.140   5
  11  11  -4 3623.66 304.897   2
  11 -11  -4 3276.11 286.609   3
  11 -11  -3 53.1415 109.981   5
  11  11  -3-73.9562 99.3177   2
  11 -11  -3 104.977 104.811   3
  11 -11  -2 12647.3 559.234   5
  11 -11  -2 13140.3 571.801   3
  11 -11  -1 1731.73 218.440   5
  11 -11   0 4380.98 326.814   5
  11 -11   1-55.4764 106.305   5
  11  11   1 34.5035 103.349   1
  11  11   2 4300.65 356.883   1
  11 -11   2 4545.75 333.039   5
  11 -11   3 288.541 116.413   5
  11  11   3 36.9943 107.713   1
  11 -11   4 7781.95 396.061   1
  11  11   4 6620.56 439.630   1
  11 -11   4 6764.92 415.532   5
  11 -11   5 451.380 130.802   5
  11  11   5 719.441 178.969   1
  11 -11   5 770.084 156.458   1
  11 -11   6 6609.50 395.226   1
  11 -11   6 6557.07 428.371   5
  12   0 -12 15890.6 671.911   2
  12   0 -11 154.698 96.1672   2
  12   0 -10 9786.83 486.865   2
  12   0  -9-106.433 94.3771   2
  12   0  -8 18033.2 614.614   2
  12   0  -7-40.6681 84.5133   1
  12   0  -7 50.7667 70.5171   2
  12   0  -6 3909.99 297.239   1
  12   0  -6 4379.76 268.755   2
  12   0  -5-51.1299 89.2990   1
  12   0  -5-57.4884 67.1185   2
  12   0  -4 11659.3 505.040   1
  12   0  -4 11299.8 397.077   2
  12   0  -3 76.9482 47.3697   2
  12   0  -3-8.61209 81.2425   1
  12   0  -2 18996.6 476.738   2
  12   0  -2 19112.7 646.964   1
  12   0  -1 19.1185 41.4201   2
  12   0  -1 94.5268 92.2388   1
  12   0   0 23230.9 715.061   1
  12   0   0 23637.0 464.363   2
  12   0   1 31.3062 25.3259   2
  12   0   1 37.3571 82.4332   1
  12   0   2 52846.3 1190.56   1
  12   0   3-47.4258 79.1310   1
  12   0   4 22161.3 719.848   1
  12   0   5 24.5437 90.2118   1
  12   0   6 5070.17 343.380   1
  12   0   7-15.2071 84.9229   1
  12   0   8 17045.9 680.807   1
  12   0   9 17.0134 110.523   1
  12   0  10 7340.62 462.746   1
  12  -2 -12 13517.2 631.784   2
  12   2 -12 13324.1 616.038   2
  12   2 -11 12.6300 90.1991   2
  12  -2 -11 419.462 150.411   2
  12  -2 -10 15032.4 622.009   2
  12   2 -10 16751.8 634.279   2
  12   2  -9 1146.71 170.016   2
  12  -2  -9 996.269 175.342   2
  12  -2  -8 16109.4 503.287   5
  12  -2  -8 15966.6 590.175   2
  12   2  -8 15042.0 565.383   2
  12  -2  -7 1658.73 149.956   5
  12  -2  -7 1726.46 193.946   1
  12   2  -7 1906.14 194.463   2
  12  -2  -7 1725.07 182.832   2
  12  -2  -6 14134.7 421.573   5
  12   2  -6 13112.5 567.736   1
  12  -2  -6 13618.8 537.478   1
  12  -2  -6 13234.7 492.264   2
  12   2  -6 13866.8 488.868   2
  12  -2  -5 202.922 92.4195   1
  12   2  -5 345.533 91.2695   2
  12  -2  -5 274.253 64.4628   5
  12  -2  -5 236.043 85.7564   2
  12   2  -5 188.720 99.2993   1
  12  -2  -4 15855.8 406.545   5
  12  -2  -4 15325.7 480.960   2
  12   2  -4 13604.7 574.829   1
  12  -2  -4 14756.1 565.191   1
  12   2  -4 15356.6 475.523   2
  12  -2  -3 6246.82 225.978   5
  12  -2  -3 6191.96 275.305   2
  12   2  -3 6258.39 372.424   1
  12  -2  -3 6575.46 365.454   1
  12   2  -3 6338.09 279.376   2
  12  -2  -2 7195.94 373.195   1
  12  -2  -2 7199.81 228.651   5
  12  -2  -2 7306.95 279.984   2
  12   2  -2 7293.18 397.097   1
  12   2  -2 7542.98 288.451   2
  12  -2  -1 991.136 75.9909   5
  12   2  -1 914.084 98.5921   2
  12   2  -1 900.425 163.023   1
  12  -2  -1 939.695 143.671   1
  12  -2  -1 979.040 94.0629   2
  12   2   0 24986.4 771.675   1
  12  -2   0 25141.3 442.313   5
  12   2   0 24849.3 529.514   2
  12  -2   0 24876.0 730.194   1
  12  -2   0 25554.8 504.391   2
  12  -2   1 67.0984 28.7948   2
  12  -2   1 96.9616 67.4201   1
  12  -2   1 33.7080 24.6996   5
  12   2   1 103.435 48.3644   2
  12   2   1 163.820 97.9104   1
  12  -2   2 30049.7 452.163   5
  12   2   2 30752.9 865.496   1
  12  -2   2 31048.7 831.185   1
  12  -2   3 1859.18 59.2447   5
  12   2   3 2513.79 241.634   1
  12  -2   3 2186.51 216.788   1
  12  -2   4 9607.58 174.027   5
  12  -2   4 10837.6 179.022   5
  12   2   4 12568.3 539.427   1
  12  -2   4 13504.9 532.304   1
  12   2   5 450.412 131.231   1
  12  -2   5 213.883 93.9852   1
  12   2   6 20448.3 735.468   1
  12  -2   6 22057.7 741.744   1
  12   2   7 247.864 120.188   1
  12  -2   7 432.995 132.875   1
  12   2   8 3939.83 327.723   1
  12  -2   8 4392.49 331.265   1
  12  -2   9 720.272 162.972   1
  12   2   9 548.685 146.485   1
  12   2  10 5716.83 418.598   1
  12  -2  11 81.5323 81.3458   4
  12  -4 -12 6739.74 390.114   5
  12  -4 -11 5392.40 340.543   5
  12  -4 -11 5903.43 405.553   2
  12   4 -11 5232.02 368.421   2
  12  -4 -10 17682.8 601.804   5
  12  -4 -10 17446.9 688.788   2
  12   4 -10 16766.6 660.551   2
  12  -4  -9 3350.40 247.030   5
  12  -4  -9 3519.10 297.609   2
  12   4  -9 3414.84 277.716   2
  12  -4  -8 3844.29 255.144   5
  12   4  -8 3809.33 280.396   2
  12   4  -7 541.377 120.351   2
  12  -4  -7 390.827 87.7644   5
  12  -4  -6 7887.32 331.238   5
  12   4  -6 7439.35 440.853   1
  12  -4  -6 7661.59 373.419   1
  12   4  -6 8059.00 380.324   2
  12   4  -5 3059.90 226.081   2
  12  -4  -5 3107.86 202.397   5
  12  -4  -5 3044.80 181.611   4
  12   4  -5 3129.41 284.503   1
  12  -4  -5 3170.67 249.491   1
  12   4  -4 16759.9 526.843   2
  12  -4  -4 16966.3 475.859   5
  12  -4  -4 17409.1 452.473   4
  12   4  -4 16249.5 649.313   1
  12  -4  -4 17230.0 589.477   1
  12   4  -3 3554.40 219.719   2
  12  -4  -3 3376.57 190.002   5
  12  -4  -3 3260.76 238.169   3
  12   4  -3 3815.35 304.556   1
  12  -4  -3 3175.39 250.207   1
  12  -4  -2 3074.03 241.146   1
  12  -4  -2 3315.85 180.884   5
  12   4  -2 3482.82 209.981   2
  12  -4  -2 3555.87 245.951   3
  12   4  -2 2929.78 271.908   1
  12  -4  -1 723.074 86.9227   5
  12   4  -1 765.460 154.625   1
  12   4  -1 596.606 93.2946   2
  12  -4  -1 819.638 129.817   3
  12  -4  -1 688.167 130.140   1
  12  -4   0 21780.9 496.128   5
  12   4   0 21523.5 536.587   2
  12  -4   0 21845.8 658.907   1
  12  -4   0 23029.1 658.637   3
  12   4   0 22063.6 747.106   1
  12  -4   1 9902.87 303.170   5
  12  -4   1 9678.24 290.474   2
  12   4   1 10817.0 333.858   2
  12  -4   1 9753.04 425.372   1
  12  -4   1 10899.2 432.331   3
  12   4   1 10436.9 493.637   1
  12  -4   2 18806.1 438.515   5
  12   4   2 18983.3 687.475   1
  12  -4   2 18547.2 392.595   2
  12  -4   2 19785.1 602.736   3
  12  -4   2 17872.4 605.526   1
  12   4   3 5269.03 358.000   1
  12  -4   3 5411.84 304.103   3
  12  -4   3 5219.66 320.081   1
  12  -4   3 5472.75 212.741   5
  12   4   4 13995.6 594.036   1
  12  -4   4 14191.1 506.056   3
  12  -4   4 14395.0 554.694   1
  12  -4   4 14526.5 375.124   5
  12   4   5 6165.27 396.629   1
  12  -4   5 6398.28 331.569   3
  12  -4   5 5917.73 358.478   1
  12  -4   5 6641.75 247.186   5
  12   4   6 19052.6 718.246   1
  12  -4   6 19276.0 605.124   3
  12  -4   6 19549.5 688.639   1
  12   4   7 2129.30 241.302   1
  12  -4   7 2078.51 228.702   1
  12  -4   7 1857.44 184.020   3
  12  -4   8 4191.97 321.849   1
  12   4   8 3573.55 321.147   1
  12   4   9 477.670 158.295   1
  12  -4   9 397.316 143.245   1
  12   4  10 6844.53 457.998   1
  12  -6 -11 5774.20 372.764   5
  12   6 -10 4560.15 341.317   2
  12  -6 -10 4412.05 310.522   5
  12   6  -9 6153.61 384.112   2
  12  -6  -9 5780.67 344.811   5
  12   6  -8 5333.31 352.729   2
  12  -6  -8 5835.73 329.348   5
  12   6  -7 2581.72 237.242   2
  12  -6  -7 2370.33 210.158   5
  12   6  -6 2090.65 213.317   2
  12  -6  -6 2215.57 196.309   5
  12  -6  -6 2036.11 168.270   1
  12  -6  -6 2503.70 222.647   3
  12  -6  -5 9941.67 401.874   5
  12   6  -5 10180.6 442.720   2
  12   6  -5 10724.5 540.622   1
  12  -6  -5 10226.0 445.641   3
  12  -6  -5 11137.7 424.319   1
  12  -6  -4 4281.09 250.259   5
  12   6  -4 3908.84 266.131   2
  12  -6  -4 3673.40 265.374   3
  12   6  -4 3484.84 303.772   1
  12  -6  -4 4160.11 268.078   1
  12  -6  -3 3987.92 238.454   5
  12   6  -3 4580.60 278.446   2
  12  -6  -3 4199.80 287.506   3
  12   6  -3 4705.68 349.961   1
  12  -6  -3 4561.65 286.172   1
  12  -6  -2 10199.3 381.588   5
  12  -6  -2 11253.3 448.601   1
  12   6  -2 10853.7 416.868   2
  12  -6  -2 10496.8 449.098   3
  12   6  -2 9285.61 491.615   1
  12  -6  -1 5687.42 275.534   5
  12  -6  -1 5481.48 310.829   1
  12   6  -1 5949.52 292.543   2
  12  -6  -1 5938.68 334.469   3
  12   6  -1 5088.31 364.483   1
  12  -6   0 6920.38 298.733   5
  12   6   0 7016.60 316.297   2
  12  -6   0 6677.81 341.400   1
  12  -6   0 6332.32 284.835   2
  12  -6   0 6661.24 362.100   3
  12   6   0 6687.45 411.201   1
  12  -6   1 14317.5 446.057   5
  12  -6   1 15416.5 552.216   3
  12  -6   1 14359.6 522.474   1
  12   6   1 13574.3 593.438   1
  12  -6   2 16740.1 587.017   3
  12  -6   2 16144.3 565.904   1
  12   6   2 16109.3 653.828   1
  12  -6   2 16569.3 482.567   5
  12  -6   3 2809.90 238.491   3
  12  -6   3 2570.86 223.696   1
  12   6   3 3078.49 280.887   1
  12  -6   3 2852.84 188.675   5
  12  -6   4 12163.5 497.103   3
  12  -6   4 11754.9 404.622   5
  12  -6   4 11372.4 489.959   1
  12   6   4 11718.0 561.658   1
  12  -6   5 5096.04 332.528   1
  12   6   5 4782.89 363.439   1
  12  -6   5 5283.48 322.498   3
  12  -6   5 5118.37 267.930   5
  12   6   6 2770.03 278.896   1
  12  -6   6 2854.97 255.902   1
  12  -6   6 2857.06 245.376   3
  12   6   7 2940.85 295.397   1
  12  -6   7 3004.72 276.206   1
  12  -6   7 2664.69 236.404   3
  12   6   8 4965.44 390.484   1
  12  -6   8 4889.79 356.833   1
  12  -6   8 4914.50 316.342   3
  12  -6   9 838.689 144.888   3
  12   6   9 670.617 171.381   1
  12   8  -9 6863.19 435.292   2
  12  -8  -9 5910.71 374.389   5
  12  -8  -8 3936.90 295.599   5
  12   8  -8 3736.34 322.406   2
  12  -8  -8 3553.96 280.406   3
  12  -8  -7 8365.90 415.827   5
  12   8  -7 8173.18 459.497   2
  12  -8  -7 7958.39 412.400   3
  12  -8  -6 2657.74 240.652   5
  12   8  -6 2683.93 255.128   2
  12  -8  -6 2573.31 241.219   3
  12  -8  -5 2510.18 224.095   5
  12   8  -5 2727.40 250.892   2
  12  -8  -5 2367.52 233.052   3
  12  -8  -4 1131.57 156.703   5
  12   8  -4 1483.32 189.838   2
  12  -8  -4 1084.71 161.535   3
  12  -8  -3 10171.8 440.949   5
  12   8  -3 11125.3 471.581   2
  12  -8  -3 11433.6 498.511   3
  12   8  -3 10928.8 556.586   1
  12  -8  -2 2953.80 232.374   5
  12  -8  -2 3478.95 238.857   1
  12   8  -2 3553.21 257.094   2
  12  -8  -2 3661.81 283.642   3
  12   8  -2 3422.63 311.562   1
  12  -8  -1 3034.63 237.243   5
  12  -8  -1 3146.42 231.281   1
  12   8  -1 3959.69 266.170   2
  12  -8  -1 3669.83 284.083   3
  12   8  -1 2948.18 291.244   1
  12  -8   0 2169.62 202.366   5
  12   8   0 2031.09 248.555   1
  12  -8   0 2294.61 200.334   1
  12  -8   0 2516.83 233.873   3
  12  -8   1 11023.9 488.768   3
  12  -8   1 10867.5 449.234   1
  12   8   1 9537.02 514.954   1
  12  -8   1 9946.30 417.865   5
  12  -8   2 5765.29 356.185   3
  12   8   2 5380.12 388.134   1
  12  -8   2 5087.47 314.159   1
  12  -8   2 5359.26 302.758   5
  12  -8   3 15131.6 586.912   3
  12   8   3 13282.9 614.038   1
  12  -8   3 14830.4 550.585   1
  12  -8   3 14173.9 509.719   5
  12  -8   4 7556.78 411.143   3
  12   8   4 6960.72 452.548   1
  12  -8   4 7164.55 360.147   5
  12  -8   4 6741.29 380.085   1
  12  -8   5 5379.79 343.935   1
  12  -8   5 5762.92 362.693   3
  12   8   5 5225.45 389.702   1
  12  -8   5 5192.46 312.828   5
  12  -8   6 3597.77 287.949   1
  12  -8   6 3170.70 268.511   3
  12   8   6 3170.11 312.134   1
  12  -8   7 6034.35 386.703   1
  12  -8   7 5642.47 369.768   3
  12   8   7 5856.15 423.612   1
  12   8   8 1788.45 260.868   1
  12  -8   8 2125.58 231.055   3
  12  -8   9 6165.05 390.895   3
  12 -10  -7 7178.12 415.867   3
  12  10  -6 626.786 156.438   2
  12 -10  -6 850.210 158.283   3
  12 -10  -5 4345.49 324.083   5
  12  10  -5 4385.46 328.858   2
  12 -10  -5 4717.90 341.842   3
  12 -10  -4 966.445 167.075   5
  12  10  -4 1228.51 180.739   2
  12 -10  -4 1142.32 179.534   3
  12 -10  -3 3888.69 298.078   5
  12  10  -3 3597.71 295.207   2
  12 -10  -3 4052.37 318.415   3
  12 -10  -2 231.296 102.090   5
  12  10  -2-4.35215 90.4066   2
  12 -10  -2 148.658 97.0555   3
  12 -10  -1 5815.77 359.811   5
  12 -10  -1 6396.33 395.004   3
  12  10  -1 6190.96 433.477   1
  12 -10   0 3818.42 309.398   3
  12  10   0 2922.59 306.891   1
  12 -10   0 3360.31 273.931   5
  12 -10   1 11889.4 543.639   3
  12  10   1 11387.8 582.869   1
  12 -10   1 11253.4 498.161   5
  12 -10   2 555.045 132.110   5
  12 -10   2 829.694 171.972   3
  12 -10   2 908.579 148.572   1
  12  10   2 522.325 161.427   1
  12  10   3 9764.89 542.210   1
  12 -10   3 10170.5 463.874   1
  12 -10   3 9818.55 465.822   5
  12 -10   4 1240.33 180.764   5
  12  10   4 1396.67 235.199   1
  12 -10   4 1564.51 192.908   1
  12 -10   5 6222.62 380.321   1
  12  10   5 6404.47 439.449   1
  12 -10   5 6767.76 399.730   5
  12  10   6 1725.76 250.573   1
  12 -10   6 1953.16 229.894   1
  13   1 -12 814.583 186.089   2
  13  -1 -12 557.953 152.539   2
  13  -1 -11 5693.70 399.199   2
  13   1 -11 5686.61 390.791   2
  13   1 -10-156.528 104.937   2
  13  -1 -10 32.2004 90.2269   2
  13  -1  -9 3610.41 288.763   2
  13   1  -9 3580.05 285.287   2
  13   1  -8 86.7804 84.3148   2
  13  -1  -8 78.6626 83.3708   2
  13   1  -7 14398.8 618.859   1
  13  -1  -7 13347.8 579.749   1
  13  -1  -7 14622.1 540.603   2
  13   1  -7 14947.1 542.760   2
  13  -1  -6 2100.02 192.978   2
  13   1  -6 2233.63 197.567   2
  13   1  -6 2282.90 248.343   1
  13  -1  -6 2054.83 220.219   1
  13   1  -5 22316.7 773.988   1
  13  -1  -5 22947.2 767.997   1
  13  -1  -5 22985.9 645.133   2
  13   1  -5 23573.0 646.815   2
  13   1  -4 453.519 94.3260   2
  13   1  -4 382.344 132.674   1
  13  -1  -4 509.705 143.095   1
  13  -1  -4 406.011 90.0452   2
  13  -1  -3 16199.9 477.218   2
  13   1  -3 15849.3 631.589   1
  13  -1  -3 17459.4 641.087   1
  13   1  -3 17445.1 488.672   2
  13  -1  -2 343.648 78.1739   2
  13   1  -2 515.422 85.5477   2
  13   1  -2 697.985 151.983   1
  13  -1  -2 463.329 176.888   1
  13   1  -1 27215.0 577.430   2
  13  -1  -1 25347.0 795.205   1
  13  -1  -1 28275.2 576.258   2
  13   1  -1 26882.0 832.980   1
  13   1   0 3691.50 288.766   1
  13   1   0 3239.29 156.273   2
  13  -1   0 3235.75 265.278   1
  13  -1   0 3172.19 141.913   2
  13  -1   1 16625.4 286.388   2
  13   1   1 17788.6 650.175   1
  13  -1   1 17404.9 627.673   1
  13   1   1 16943.4 324.057   2
  13  -1   2 210.699 94.5890   1
  13   1   2 225.675 94.3565   1
  13   1   3 4842.15 341.400   1
  13  -1   3 4552.44 321.808   1
  13   1   4 15.6605 81.7291   1
  13  -1   4 81.2411 91.7340   1
  13   1   5 9269.30 485.587   1
  13  -1   5 9023.37 470.015   1
  13   1   6 2021.70 240.390   1
  13  -1   6 1720.23 224.445   1
  13   1   7 5855.94 411.890   1
  13  -1   7 6726.65 428.342   1
  13   1   8 292.188 126.621   1
  13  -1   8 379.646 142.855   1
  13   1   9 22103.3 839.854   1
  13   3 -11 947.291 168.977   2
  13  -3 -11 606.097 151.731   2
  13  -3 -10 2525.17 218.766   5
  13  -3 -10 2846.90 288.154   2
  13   3 -10 2570.20 258.164   2
  13  -3  -9 10259.0 425.662   5
  13  -3  -9 11367.1 529.634   2
  13   3  -9 10371.6 490.580   2
  13   3  -8 637.580 139.238   2
  13  -3  -8 439.276 101.342   5
  13  -3  -8 668.763 139.448   2
  13  -3  -7 9497.25 379.815   5
  13  -3  -7 9134.79 445.675   1
  13  -3  -7 9581.59 445.616   2
  13   3  -7 9792.81 437.766   2
  13  -3  -6 1958.64 161.656   5
  13  -3  -6 2076.39 197.119   2
  13   3  -6 1669.06 216.744   1
  13   3  -6 2068.91 191.881   2
  13  -3  -6 1845.66 208.605   1
  13  -3  -5 24627.2 591.446   5
  13   3  -5 22909.5 812.891   1
  13  -3  -5 24678.4 691.850   2
  13  -3  -5 23781.7 759.803   1
  13   3  -5 24128.4 671.218   2
  13  -3  -4 3434.57 190.755   5
  13  -3  -4 3483.22 230.708   2
  13   3  -4 3444.61 302.132   1
  13  -3  -4 3663.54 283.973   1
  13   3  -4 3581.82 231.019   2
  13   3  -3 22166.4 587.529   2
  13  -3  -3 22376.8 519.547   5
  13  -3  -3 22445.8 593.998   2
  13   3  -3 22645.4 778.636   1
  13  -3  -3 21743.3 716.725   1
  13   3  -2 1423.07 139.521   2
  13  -3  -2 1356.68 108.737   5
  13   3  -2 1613.70 221.357   1
  13  -3  -2 1467.52 189.088   1
  13  -3  -2 1299.98 130.137   2
  13  -3  -1 8689.79 427.033   1
  13  -3  -1 9078.72 266.864   5
  13   3  -1 8663.06 316.999   2
  13  -3  -1 8759.96 305.604   2
  13   3  -1 8342.94 451.593   1
  13  -3   0 1982.24 113.417   5
  13   3   0 1974.40 140.395   2
  13   3   0 2213.61 240.785   1
  13  -3   0 1807.81 123.280   2
  13  -3   0 1746.62 199.284   1
  13   3   1 17948.5 683.471   1
  13  -3   1 17597.6 366.756   5
  13  -3   1 18333.0 631.185   1
  13   3   1 17064.5 411.446   2
  13  -3   1 18510.6 365.202   2
  13  -3   2 112.111 80.6749   1
  13  -3   2 174.725 37.9206   5
  13   3   3 4893.39 353.841   1
  13  -3   3 5171.23 333.273   1
  13  -3   4 948.099 164.548   1
  13   3   4 1095.72 185.964   1
  13   3   5 7341.02 449.250   1
  13  -3   5 7753.57 430.323   1
  13  -3   6 2126.92 232.955   1
  13   3   6 1982.62 245.747   1
  13   3   7 20107.7 788.606   1
  13  -3   7 20804.9 767.083   1
  13   3   8 1044.62 192.733   1
  13  -3   8 937.213 173.930   1
  13  -5 -11 3258.32 277.265   5
  13   5 -10 1461.55 208.979   2
  13  -5 -10 1271.51 174.626   5
  13  -5 -10 2006.98 250.531   2
  13   5  -9 3158.63 283.970   2
  13  -5  -9 2966.51 242.482   5
  13   5  -8 5891.23 366.250   2
  13  -5  -8 5491.48 317.467   5
  13   5  -7 5242.47 338.145   2
  13  -5  -7 5096.34 293.926   5
  13   5  -6 508.962 109.230   2
  13  -5  -6 763.738 122.259   5
  13  -5  -6 524.194 116.120   1
  13   5  -5 6920.88 357.027   2
  13  -5  -5 6777.87 314.535   5
  13   5  -5 6141.96 418.721   1
  13  -5  -5 6689.10 362.383   1
  13   5  -4 11372.0 444.932   2
  13  -5  -4 10856.9 391.139   5
  13   5  -4 10560.3 545.976   1
  13  -5  -4 11377.0 483.970   1
  13  -5  -3 18731.6 517.656   5
  13   5  -3 18481.4 572.585   2
  13  -5  -3 19468.8 636.974   3
  13   5  -3 18345.8 721.896   1
  13  -5  -3 18757.8 639.332   1
  13  -5  -2 6855.74 373.492   1
  13  -5  -2 6734.64 283.952   5
  13   5  -2 6316.21 309.480   2
  13  -5  -2 7206.94 376.236   3
  13   5  -2 6541.14 419.748   1
  13  -5  -1 12508.9 386.224   5
  13  -5  -1 11855.2 492.966   1
  13   5  -1 11406.2 408.916   2
  13  -5  -1 12539.0 503.729   3
  13   5  -1 11247.5 557.391   1
  13  -5   0 3232.28 186.303   5
  13  -5   0 3144.79 247.810   1
  13   5   0 3386.42 206.152   2
  13  -5   0 3341.54 262.533   3
  13   5   0 3405.66 316.193   1
  13  -5   1 6844.46 267.522   5
  13  -5   1 6915.74 375.056   1
  13  -5   1 7103.46 373.151   3
  13   5   1 6851.55 428.198   1
  13  -5   2 5958.57 245.789   5
  13  -5   2 5944.46 352.302   1
  13  -5   2 6546.22 356.635   3
  13   5   2 5981.07 402.609   1
  13  -5   3 3839.70 273.916   3
  13  -5   3 3593.55 280.636   1
  13   5   3 4322.15 344.648   1
  13  -5   3 4086.04 198.979   5
  13   5   4 697.736 163.395   1
  13  -5   4 752.875 137.071   3
  13  -5   4 625.870 138.531   1
  13   5   5 4251.95 348.158   1
  13  -5   5 4150.34 289.247   3
  13  -5   5 4021.39 313.262   1
  13  -5   6 1979.53 206.621   3
  13   5   6 1925.19 247.314   1
  13  -5   6 2500.80 253.922   1
  13   5   7 4558.88 377.588   1
  13  -5   7 4715.47 310.453   3
  13  -5   7 4320.66 332.998   1
  13   5   8 4397.13 381.060   1
  13  -5   8 4388.34 304.237   3
  13  -7 -10 1908.26 220.240   5
  13  -7  -9 333.638 113.647   5
  13   7  -9 223.604 120.431   2
  13   7  -8 3765.50 310.493   2
  13  -7  -8 3864.22 283.394   5
  13   7  -7 5667.87 368.987   2
  13  -7  -7 5886.58 340.499   5
  13  -7  -6 6558.59 357.678   5
  13   7  -6 7226.66 403.750   2
  13  -7  -6 7606.65 408.574   3
  13  -7  -5 5123.68 301.799   5
  13   7  -5 5160.86 331.330   2
  13  -7  -5 5869.44 357.251   3
  13  -7  -4 10959.7 431.318   5
  13   7  -4 9957.20 452.627   2
  13   7  -4 9314.74 528.013   1
  13  -7  -4 9474.59 457.543   3
  13  -7  -3 2769.97 221.363   5
  13   7  -3 3051.67 241.842   2
  13  -7  -3 3014.78 260.819   3
  13   7  -3 2886.83 298.580   1
  13  -7  -3 3190.30 250.774   1
  13  -7  -2 5382.92 292.674   5
  13  -7  -2 5505.89 323.394   1
  13   7  -2 5787.22 321.409   2
  13  -7  -2 5766.76 356.192   3
  13   7  -2 5258.18 394.680   1
  13  -7  -1 20582.9 595.247   5
  13  -7  -1 21618.8 672.160   1
  13   7  -1 20867.2 620.877   2
  13  -7  -1 22518.1 723.545   3
  13   7  -1 19277.6 769.950   1
  13  -7   0 9547.81 383.361   5
  13  -7   0 10076.5 446.642   1
  13  -7   0 10635.0 486.045   3
  13   7   0 9858.44 535.307   1
  13  -7   1 1645.42 159.373   5
  13   7   1 2149.35 256.276   1
  13  -7   1 1612.15 185.861   1
  13  -7   1 2044.62 220.739   3
  13  -7   2 4568.77 315.738   3
  13  -7   2 4545.49 310.064   1
  13   7   2 4488.95 359.134   1
  13  -7   2 4159.10 247.513   5
  13  -7   3 2721.39 249.607   3
  13  -7   3 2910.80 256.050   1
  13   7   3 3431.97 326.773   1
  13  -7   3 2907.93 207.012   5
  13   7   4 1911.92 252.897   1
  13  -7   4 1887.64 217.106   3
  13  -7   4 1771.90 218.506   1
  13  -7   5 9319.43 463.075   3
  13  -7   5 8252.73 450.936   1
  13   7   5 8890.78 525.342   1
  13  -7   6 3847.80 303.970   3
  13  -7   6 4434.41 335.033   1
  13   7   6 4403.45 382.302   1
  13   7   7 1761.08 259.162   1
  13  -7   7 1564.34 209.654   3
  13  -7   8 5178.90 350.184   3
  13  -9  -7 1227.98 182.659   5
  13   9  -7 1222.05 206.876   2
  13  -9  -7 901.311 170.747   3
  13  -9  -6 12077.0 524.802   5
  13   9  -6 12835.9 575.796   2
  13  -9  -6 12211.0 555.166   3
  13  -9  -5 2378.74 239.499   5
  13   9  -5 2801.34 266.113   2
  13  -9  -5 2930.30 273.814   3
  13  -9  -4 5924.16 355.670   5
  13   9  -4 6901.58 396.408   2
  13  -9  -4 7085.44 418.699   3
  13  -9  -3 2673.74 236.618   5
  13   9  -3 3168.24 265.977   2
  13  -9  -3 3358.58 293.350   3
  13  -9  -2 3573.71 268.894   5
  13   9  -2 4262.81 295.456   2
  13  -9  -2 3985.75 318.189   3
  13   9  -2 3944.87 357.768   1
  13  -9  -1 585.027 128.627   5
  13  -9  -1 485.148 144.551   3
  13   9  -1 620.043 168.012   1
  13  -9   0 9322.23 429.218   5
  13  -9   0 9873.26 495.136   3
  13   9   0 9695.78 552.557   1
  13   9   1 1651.43 246.287   1
  13  -9   1 1725.42 191.520   1
  13  -9   1 2136.32 239.247   3
  13  -9   1 1943.45 202.706   5
  13   9   2 2694.84 300.230   1
  13  -9   2 2731.77 264.037   3
  13  -9   2 2730.12 242.560   1
  13  -9   2 2774.33 229.190   5
  13  -9   3 826.804 134.049   5
  13   9   3 859.768 195.963   1
  13  -9   3 868.714 156.827   1
  13   9   4 5057.08 405.910   1
  13  -9   4 5629.42 364.852   1
  13  -9   5 1858.32 225.378   1
  13   9   5 1904.38 263.540   1
  13 -11  -3 1002.34 176.412   5
  13  11  -3 1309.20 200.435   2
  13 -11  -2 8000.95 448.325   5
  13 -11  -1 807.269 162.862   5
  13 -11   0 8788.23 459.240   5
  13 -11   1 453.027 128.875   5
  13 -11   2 6748.51 401.570   5
  14   0 -11 107.034 117.816   2
  14   0 -10 25254.5 834.841   2
  14   0  -9 78.1554 95.0199   2
  14   0  -8 9951.35 465.392   2
  14   0  -7-59.0190 76.9098   2
  14   0  -7-41.2141 99.6093   1
  14   0  -6 14700.4 638.929   1
  14   0  -6 14502.4 528.816   2
  14   0  -5-7.04577 61.3897   2
  14   0  -5-85.4467 107.153   1
  14   0  -4 16529.0 672.135   1
  14   0  -4 17458.1 526.314   2
  14   0  -3 114.014 68.6587   2
  14   0  -3 116.444 121.226   1
  14   0  -2 2369.12 158.060   2
  14   0  -2 2499.17 258.768   1
  14   0  -1 73.8231 45.0162   2
  14   0  -1 41.3121 92.2291   1
  14   0   0 18606.9 690.823   1
  14   0   0 18029.2 392.169   2
  14   0   1 135.407 101.926   1
  14   0   2 16422.5 655.584   1
  14   0   3-168.364 114.834   1
  14   0   4 11377.1 549.038   1
  14   0   5 78.1872 111.790   1
  14   0   6 18223.1 735.621   1
  14   0   7-29.6400 108.932   1
  14   2 -11 637.789 159.637   2
  14  -2 -11 455.971 155.148   2
  14  -2 -10 8559.36 483.185   2
  14   2 -10 8923.19 477.212   2
  14  -2  -9 4797.09 340.661   2
  14   2  -9 4917.15 341.194   2
  14  -2  -8 23023.2 755.030   2
  14   2  -8 22773.9 738.048   2
  14   2  -7 185.150 87.9236   2
  14   2  -7 185.232 122.971   1
  14  -2  -7 182.049 110.486   1
  14  -2  -7 256.471 99.6383   2
  14   2  -6 10639.4 559.101   1
  14  -2  -6 10991.5 531.037   1
  14  -2  -6 11293.8 468.935   2
  14   2  -6 10860.8 452.228   2
  14  -2  -5 2222.69 246.309   1
  14  -2  -5 2153.09 192.561   2
  14   2  -5 1890.39 186.086   2
  14   2  -5 1971.81 241.350   1
  14  -2  -4 8232.04 283.098   5
  14   2  -4 7094.05 445.635   1
  14  -2  -4 8437.69 358.580   2
  14  -2  -4 8167.10 454.258   1
  14   2  -4 8080.75 350.925   2
  14   2  -3 142.093 93.0053   1
  14   2  -3 186.071 74.9606   2
  14  -2  -3 153.966 45.9607   5
  14  -2  -3 272.143 115.607   1
  14  -2  -3 129.875 57.3989   2
  14   2  -2 4006.68 214.521   2
  14  -2  -2 3754.21 157.705   5
  14  -2  -2 3769.84 208.523   2
  14   2  -2 4071.46 327.366   1
  14  -2  -2 4040.89 312.068   1
  14  -2  -1 17.4160 44.3357   2
  14   2  -1 96.7923 98.2396   1
  14   2  -1-6.09156 42.9574   2
  14  -2  -1-31.5651 93.2256   1
  14  -2   0 6141.46 379.080   1
  14   2   0 6519.79 237.253   2
  14  -2   0 6350.37 210.461   2
  14   2   0 6480.55 409.848   1
  14   2   1 2514.92 265.711   1
  14  -2   1 2373.82 245.903   1
  14   2   2 11224.9 549.484   1
  14  -2   2 11203.7 517.648   1
  14  -2   3-54.2376 100.313   1
  14   2   3-87.1845 122.126   1
  14   2   4 23019.9 820.238   1
  14  -2   4 21447.0 768.586   1
  14  -2   5 2171.62 244.315   1
  14   2   5 2302.15 266.483   1
  14   2   6 22363.3 845.376   1
  14  -2   6 23207.3 827.927   1
  14   2   7 4104.08 359.420   1
  14  -2   7 3787.03 337.993   1
  14  -4 -11 2354.86 230.434   5
  14  -4 -10 8946.77 430.592   5
  14  -4 -10 8727.96 496.746   2
  14   4 -10 9367.47 497.261   2
  14  -4  -9 3741.92 271.041   5
  14  -4  -9 3830.22 321.989   2
  14   4  -9 3381.71 291.140   2
  14  -4  -8 17384.7 571.801   5
  14  -4  -8 18451.9 683.755   2
  14   4  -8 18034.8 656.438   2
  14  -4  -7 4041.97 253.253   5
  14  -4  -7 4124.92 297.912   1
  14  -4  -7 3893.46 294.207   2
  14   4  -7 4027.06 290.313   2
  14   4  -6 9394.07 427.466   2
  14  -4  -6 10212.9 387.388   5
  14   4  -6 9351.34 533.201   1
  14  -4  -6 9137.96 461.071   1
  14  -4  -6 9803.11 450.929   2
  14   4  -5 2212.12 203.450   2
  14  -4  -5 2015.94 227.672   1
  14  -4  -5 2113.33 171.442   5
  14  -4  -5 2364.54 212.089   2
  14   4  -5 1937.20 253.839   1
  14   4  -4 4824.42 280.082   2
  14  -4  -4 4464.26 233.075   5
  14   4  -4 4627.85 366.400   1
  14  -4  -4 4814.79 286.088   2
  14  -4  -4 4703.74 334.441   1
  14   4  -3 2016.71 251.250   1
  14   4  -3 2621.75 199.651   2
  14  -4  -3 2475.39 164.501   5
  14  -4  -3 2194.95 181.784   2
  14  -4  -3 2324.97 237.613   1
  14  -4  -2 9694.89 475.853   1
  14  -4  -2 9265.83 310.526   5
  14   4  -2 8803.62 355.714   2
  14  -4  -2 9519.06 357.041   2
  14   4  -2 8524.01 494.932   1
  14  -4  -1 2196.71 225.470   1
  14  -4  -1 2330.38 143.228   5
  14   4  -1 1990.69 253.638   1
  14   4  -1 2212.16 170.611   2
  14  -4  -1 2143.77 160.108   2
  14  -4   0 3827.03 176.414   5
  14  -4   0 4006.48 295.867   1
  14   4   0 3587.50 199.537   2
  14   4   0 3679.53 326.494   1
  14  -4   1 1115.15 167.391   1
  14   4   1 865.302 174.358   1
  14  -4   2 7799.84 431.078   1
  14   4   2 7448.70 464.779   1
  14  -4   3 1441.80 198.049   1
  14   4   3 1576.45 222.694   1
  14   4   4 19758.8 777.249   1
  14  -4   4 20049.0 727.277   1
  14   4   5 4103.12 355.210   1
  14  -4   5 4219.75 340.900   1
  14   4   6 8870.34 525.894   1
  14  -4   6 9378.46 513.950   1
  14   4   7 2865.93 316.021   1
  14  -4   7 3043.79 302.640   1
  14  -6 -10 7594.06 419.436   5
  14   6  -9 3402.99 304.350   2
  14  -6  -9 3335.55 267.379   5
  14   6  -8 4747.33 348.065   2
  14  -6  -8 5248.79 324.305   5
  14   6  -7 6461.37 390.966   2
  14  -6  -7 6715.38 352.496   5
  14   6  -6 3640.47 284.966   2
  14  -6  -6 3633.60 254.533   5
  14  -6  -5 2007.58 185.212   5
  14   6  -5 1804.72 197.046   2
  14   6  -5 2045.74 263.663   1
  14  -6  -4 4686.30 269.037   5
  14   6  -4 4729.11 304.877   2
  14   6  -4 4133.47 363.177   1
  14  -6  -4 4923.47 331.478   3
  14  -6  -4 4989.90 328.540   1
  14  -6  -3 988.604 126.595   5
  14  -6  -3 1200.77 168.210   1
  14   6  -3 1046.41 143.829   2
  14  -6  -3 1130.98 170.569   3
  14   6  -3 961.581 202.108   1
  14  -6  -2 3915.27 296.718   1
  14  -6  -2 3911.12 231.964   5
  14   6  -2 4010.10 258.028   2
  14  -6  -2 4272.79 306.806   3
  14   6  -2 3356.12 326.155   1
  14  -6  -1 7004.52 303.906   5
  14  -6  -1 7166.16 393.245   1
  14   6  -1 6660.96 322.493   2
  14  -6  -1 6992.95 393.759   3
  14   6  -1 6697.41 454.078   1
  14  -6   0 8995.78 343.357   5
  14  -6   0 8612.76 442.175   1
  14   6   0 9722.52 377.890   2
  14  -6   0 10342.8 482.100   3
  14   6   0 9650.99 544.865   1
  14  -6   1 1623.50 197.352   1
  14   6   1 1533.16 234.246   1
  14  -6   1 1736.03 209.100   3
  14  -6   2 4785.67 334.275   1
  14  -6   2 4711.04 325.200   3
  14   6   2 4470.90 370.010   1
  14  -6   3 5870.74 364.883   3
  14  -6   3 5632.79 369.051   1
  14   6   3 5566.23 422.002   1
  14  -6   4 7568.35 416.569   3
  14  -6   4 7260.84 431.039   1
  14   6   4 8018.77 503.527   1
  14  -6   5 7093.70 403.869   3
  14  -6   5 7388.66 441.610   1
  14   6   5 7448.13 494.990   1
  14   6   6 8062.11 521.257   1
  14  -6   6 9171.89 463.673   3
  14  -6   6 8264.47 483.498   1
  14  -6   7 6103.47 378.186   3
  14  -6   8 5384.18 361.330   3
  14  -8  -8 5044.11 341.204   5
  14  -8  -7 3631.58 287.638   5
  14   8  -7 3273.68 304.804   2
  14  -8  -6 1316.00 183.196   5
  14   8  -6 1533.99 205.820   2
  14  -8  -6 1361.72 199.040   3
  14  -8  -5 10914.3 471.360   5
  14   8  -5 11097.5 513.612   2
  14  -8  -5 11349.7 534.943   3
  14  -8  -4 2685.72 234.291   5
  14   8  -4 3064.22 266.400   2
  14  -8  -4 3223.16 292.546   3
  14  -8  -3 2784.59 231.500   5
  14   8  -3 3125.29 256.885   2
  14  -8  -3 3201.39 288.117   3
  14   8  -3 2512.79 291.827   1
  14  -8  -2 1452.50 167.461   5
  14   8  -2 1343.16 173.336   2
  14  -8  -2 1455.23 201.469   3
  14   8  -2 1210.88 219.233   1
  14  -8  -1 620.178 124.385   5
  14   8  -1 745.325 134.149   2
  14  -8  -1 694.521 145.378   3
  14   8  -1 790.671 178.782   1
  14   8   0 1268.97 223.196   1
  14  -8   0 1197.50 145.590   5
  14  -8   0 1510.58 212.768   3
  14  -8   0 1172.49 173.181   1
  14  -8   1 8768.80 444.663   1
  14  -8   1 9489.05 488.254   3
  14   8   1 9739.17 564.052   1
  14  -8   2 2977.05 269.804   1
  14  -8   2 3455.30 298.115   3
  14   8   2 2912.65 324.584   1
  14  -8   3 3787.27 310.722   1
  14   8   3 3822.94 364.120   1
  14  -8   4 4191.39 331.409   1
  14  -8   5 8764.95 488.401   1
  14 -10  -5 5543.45 366.021   5
  14 -10  -4 121.037 100.112   5
  14  10  -4 61.3715 96.1616   2
  14 -10  -3 2752.33 256.651   5
  14  10  -3 2907.24 269.314   2
  14 -10  -2 2079.59 220.958   5
  14 -10  -1 3990.50 295.844   5
  15   1 -10 87.9822 109.807   2
  15  -1 -10 32.2905 89.8490   2
  15  -1  -9 6718.54 407.087   2
  15   1  -9 7090.51 414.226   2
  15   1  -8 2223.84 232.320   2
  15  -1  -8 2014.35 220.088   2
  15  -1  -7 2192.93 217.830   2
  15   1  -7 1841.93 242.910   1
  15   1  -7 2152.26 217.085   2
  15  -1  -7 2243.87 257.599   1
  15   1  -6 701.703 134.392   2
  15   1  -6 567.922 158.303   1
  15  -1  -6 646.433 164.959   1
  15  -1  -6 590.633 120.381   2
  15   1  -5 6773.95 452.041   1
  15  -1  -5 7642.76 467.139   1
  15  -1  -5 7346.87 359.719   2
  15   1  -5 6593.59 338.051   2
  15  -1  -4 40.2740 74.1010   2
  15   1  -4 40.3437 119.012   1
  15   1  -4 15.5544 57.7578   2
  15  -1  -4 232.374 132.220   1
  15   1  -3 16417.0 698.407   1
  15  -1  -3 16291.9 488.877   2
  15  -1  -3 15827.8 672.215   1
  15   1  -3 16110.7 485.226   2
  15   1  -2 114.566 63.9255   2
  15   1  -2 217.952 136.676   1
  15   1  -1 16844.8 694.019   1
  15  -1  -1 15751.5 660.680   1
  15   1   0 195.145 129.108   1
  15  -1   0 267.100 126.981   1
  15   1   1 19666.1 761.481   1
  15  -1   1 20134.5 747.295   1
  15   1   2 473.505 150.226   1
  15  -1   2 675.139 155.940   1
  15   1   3 18461.7 745.347   1
  15  -1   3 18588.5 729.789   1
  15  -1   4 133.098 92.9055   1
  15   1   4-22.5637 113.589   1
  15   1   5 7061.61 470.919   1
  15  -1   5 6997.37 454.061   1
  15   1   6 34.6087 113.320   1
  15  -1   6 470.883 164.447   1
  15   3 -10 1795.18 234.285   2
  15  -3 -10 2129.47 262.838   2
  15  -3  -9 4217.37 333.892   2
  15   3  -9 3735.13 307.597   2
  15   3  -8 857.089 156.221   2
  15  -3  -8 672.256 142.372   2
  15  -3  -7 3347.86 228.616   5
  15  -3  -7 3088.85 290.471   1
  15  -3  -7 3310.81 277.787   2
  15   3  -7 3210.87 258.597   2
  15   3  -6 183.955 87.9412   2
  15  -3  -6 292.465 81.4392   5
  15   3  -6 86.6597 106.607   1
  15  -3  -6 334.403 113.695   2
  15  -3  -6 120.151 93.8534   1
  15   3  -5 12251.5 473.410   2
  15  -3  -5 12148.3 394.623   5
  15   3  -5 10763.6 590.454   1
  15  -3  -5 11803.7 567.681   1
  15  -3  -5 12237.0 484.719   2
  15   3  -4 814.951 187.379   1
  15  -3  -4 1315.67 206.638   1
  15   3  -4 853.155 129.165   2
  15  -3  -4 934.430 106.090   5
  15  -3  -4 1115.85 143.942   2
  15   3  -3 3290.76 217.809   2
  15   3  -3 3557.59 337.634   1
  15  -3  -3 3026.90 210.822   2
  15  -3  -3 2926.38 279.726   1
  15   3  -2 2823.64 192.671   2
  15  -3  -2 2962.33 193.028   2
  15   3  -2 2929.08 307.462   1
  15  -3  -2 3035.23 289.503   1
  15  -3  -1 18630.8 707.786   1
  15   3  -1 17567.7 738.644   1
  15   3   0 2387.07 276.125   1
  15  -3   0 1720.83 218.353   1
  15  -3   1 13934.7 607.066   1
  15   3   1 13340.2 639.039   1
  15   3   2 3027.73 311.197   1
  15  -3   2 2813.30 275.798   1
  15   3   3 6765.69 458.967   1
  15  -3   3 6398.04 416.142   1
  15  -3   4 1011.17 182.096   1
  15   3   4 1214.41 204.353   1
  15   3   5 14006.5 681.851   1
  15  -3   5 14730.0 659.132   1
  15  -5 -10 4056.65 306.383   5
  15   5  -9 4487.46 347.719   2
  15  -5  -9 5004.95 316.486   5
  15  -5  -9 4505.12 362.244   2
  15   5  -8 159.519 95.8375   2
  15  -5  -8 107.806 73.8056   5
  15  -5  -8-4.46150 92.6581   2
  15   5  -7 464.312 126.297   2
  15  -5  -7 752.413 130.552   5
  15  -5  -7 822.144 162.793   2
  15   5  -6 3083.16 256.194   2
  15  -5  -6 2835.79 214.260   5
  15  -5  -6 2861.98 260.293   2
  15   5  -5 4745.06 305.065   2
  15  -5  -5 4512.94 258.964   5
  15   5  -5 4369.05 379.848   1
  15  -5  -5 4280.75 291.905   2
  15  -5  -5 4590.69 338.146   1
  15  -5  -4 1637.07 154.275   5
  15  -5  -4 1751.78 227.033   1
  15   5  -4 1558.52 176.192   2
  15  -5  -4 1273.75 162.030   2
  15   5  -4 1195.73 204.776   1
  15   5  -3 8986.62 396.040   2
  15  -5  -3 8464.44 379.104   2
  15   5  -3 9145.91 540.447   1
  15  -5  -3 9453.32 487.015   1
  15  -5  -2 3726.43 307.466   1
  15   5  -2 3013.94 315.865   1
  15   5  -2 3308.04 228.064   2
  15  -5  -1 13906.2 594.261   1
  15   5  -1 13693.1 667.160   1
  15  -5   0 10925.3 523.170   1
  15   5   0 11778.6 612.868   1
  15  -5   1 15552.3 641.099   1
  15   5   1 16269.8 719.875   1
  15  -5   2 237.688 110.104   1
  15   5   2 652.656 174.851   1
  15  -5   3 7346.39 439.993   1
  15   5   3 7248.01 496.387   1
  15  -5   4 4252.92 342.273   1
  15   5   4 4335.04 386.216   1
  15  -5   5 4746.75 373.321   1
  15  -7  -8 2163.08 222.059   5
  15  -7  -7 2336.84 225.839   5
  15   7  -7 2356.28 257.916   2
  15  -7  -6 1341.96 176.487   5
  15   7  -6 1566.55 203.172   2
  15  -7  -5 451.762 110.053   5
  15   7  -5 243.836 104.684   2
  15  -7  -4 3728.21 254.953   5
  15   7  -4 3715.30 286.473   2
  15   7  -3 7778.23 394.759   2
  15  -7  -3 9084.59 482.090   3
  15  -7  -2 3473.20 302.146   3
  15   7  -2 2896.56 325.050   1
  15  -7  -1 7089.56 412.625   1
  15  -7  -1 7052.82 421.448   3
  15   7  -1 6344.77 473.701   1
  15  -7   0 7414.53 420.467   1
  15  -7   0 7991.22 447.589   3
  15   7   0 7783.19 518.098   1
  15  -7   1 2200.42 238.187   1
  15  -7   2 7409.54 434.566   1
  15  -7   3 5286.99 377.806   1
  15  -7   4 5449.24 387.474   1
  15  -9  -5 2400.96 239.142   5
  15   9  -5 2001.17 235.910   2
  15   9  -4 5327.14 359.687   2
  16   0 -10 2612.81 276.823   2
  16   0  -9 108.305 107.961   2
  16   0  -8 2228.87 238.821   2
  16   0  -7-16.9688 97.4679   2
  16   0  -7-161.865 157.705   1
  16   0  -6 24463.7 920.046   1
  16   0  -6 26709.5 764.354   2
  16   0  -5-151.201 125.675   1
  16   0  -5 99.6591 82.2623   2
  16   0  -4 6147.06 437.995   1
  16   0  -4 6664.40 321.416   2
  16   0  -3 34.5588 104.679   1
  16   0  -2 16206.6 709.975   1
  16   0  -1 73.3714 123.766   1
  16   0   0 8121.66 500.294   1
  16   0   1 95.4655 111.936   1
  16   0   2 5339.63 401.048   1
  16   0   3-8.72301 110.176   1
  16   0   4 20692.7 828.389   1
  16  -2 -10 6534.55 437.035   2
  16   2  -9 218.753 116.142   2
  16  -2  -9 213.951 120.314   2
  16  -2  -8 7781.21 443.813   2
  16   2  -8 8341.49 444.447   2
  16  -2  -7 2944.57 262.311   2
  16   2  -7 2032.82 273.404   1
  16  -2  -7 2066.02 261.744   1
  16   2  -7 2773.55 250.537   2
  16   2  -6 14105.0 697.709   1
  16  -2  -6 13478.0 651.676   1
  16  -2  -6 14862.6 565.410   2
  16   2  -6 14656.9 550.104   2
  16  -2  -5 202.835 117.585   1
  16   2  -5 33.8703 71.0793   2
  16  -2  -5 33.9436 73.5975   2
  16   2  -5-112.535 142.543   1
  16   2  -4 17577.2 553.932   2
  16   2  -4 16779.5 747.260   1
  16  -2  -4 17025.0 722.677   1
  16  -2  -4 17717.1 562.295   2
  16   2  -3 87.9592 116.825   1
  16  -2  -3 105.673 136.066   1
  16   2  -2 9139.24 537.014   1
  16  -2  -2 8721.38 501.545   1
  16   2  -1 2391.61 292.691   1
  16  -2  -1 2566.14 280.792   1
  16  -2   0 7271.98 452.734   1
  16   2   0 6639.00 462.573   1
  16   2   1 112.796 127.254   1
  16  -2   1 223.087 133.598   1
  16   2   2 5795.64 434.494   1
  16  -2   2 6380.30 436.670   1
  16   2   3 1471.42 238.036   1
  16  -2   3 1751.53 238.899   1
  16  -2   4 12282.1 616.199   1
  16   4  -9 1056.58 187.351   2
  16  -4  -9 1002.98 196.657   2
  16   4  -8 6016.11 383.321   2
  16  -4  -8 6375.21 406.819   2
  16   4  -7 172.421 90.5222   2
  16  -4  -7 244.021 107.951   2
  16   4  -6 6529.80 373.127   2
  16   4  -6 6177.64 475.082   1
  16  -4  -6 6487.42 428.871   1
  16  -4  -6 6376.09 376.937   2
  16   4  -5 6122.43 347.513   2
  16   4  -5 5658.99 453.092   1
  16  -4  -5 5650.53 404.204   1
  16  -4  -5 6141.21 346.517   2
  16   4  -4 13160.5 498.070   2
  16   4  -4 12689.6 666.957   1
  16  -4  -4 13464.8 620.575   1
  16   4  -3 1573.39 245.691   1
  16  -4  -3 1695.38 231.540   1
  16   4  -2 4741.28 412.112   1
  16  -4  -2 5290.50 383.700   1
  16   4  -1 1759.54 258.524   1
  16  -4  -1 1902.87 239.712   1
  16  -4   0 4411.60 354.476   1
  16   4   0 4743.53 404.172   1
  16  -4   1 2327.44 258.791   1
  16   4   1 2901.87 329.238   1
  16  -4   2 10674.5 553.978   1
  16   4   2 9867.91 586.604   1
  16  -4   3 237.894 127.874   1
  16  -4   4 4733.91 379.239   1
  16  -6  -8 4248.51 354.178   2
  16   6  -7 2864.53 270.159   2
  16  -6  -7 2750.47 282.291   2
  16   6  -6 10887.1 512.862   2
  16  -6  -6 10820.0 517.966   2
  16   6  -5 4617.13 319.249   2
  16  -6  -2 9503.28 508.341   1
  16  -6  -1 3519.38 314.607   1
  16  -6   0 3980.22 329.808   1
  16  -6   1 3797.38 327.306   1
  16  -6   2 1265.63 203.602   1
  16  -6   3 3291.56 311.511   1
  17  -1  -9 5369.31 385.452   2
  17   1  -9 5491.82 379.758   2
  17  -1  -8-47.7931 91.2409   2
  17   1  -8 61.1259 96.3323   2
  17   1  -7 3746.91 376.772   1
  17  -1  -7 3443.67 282.224   2
  17  -1  -7 3339.28 335.649   1
  17   1  -7 4195.17 306.028   2
  17   1  -6-128.040 152.533   1
  17  -1  -6 50.1169 123.972   1
  17   1  -5 9602.06 584.021   1
  17  -1  -5 9551.15 566.702   1
  17   1  -4 202.552 132.922   1
  17  -1  -4 7.04249 113.390   1
  17   1  -3 5342.19 427.125   1
  17  -1  -3 5513.98 423.530   1
  17   1  -2 231.321 144.314   1
  17  -1  -2 322.728 151.221   1
  17   1  -1 9561.23 570.443   1
  17  -1  -1 9098.27 538.398   1
  17  -1   0 2494.07 301.460   1
  17   1   0 3178.95 338.254   1
  17  -1   1 17086.3 746.780   1
  17   1   1 15741.6 735.686   1
  17  -1   2 487.320 168.879   1
  17   3  -8 428.396 130.842   2
  17  -3  -8 357.075 126.436   2
  17   3  -7 10243.1 486.352   2
  17  -3  -6 1593.67 226.443   1
  17  -3  -5 742.605 192.759   1
  17  -3  -4 951.760 209.660   1
  17  -3  -3 10520.8 572.227   1
  17  -3  -2 502.221 170.262   1
  17  -3  -1 8228.60 505.740   1
  17  -3   0 2082.13 276.923   1
  17  -3   1 10361.0 568.852   1
  17  -3   2 2622.68 295.811   1
  17  -5  -3 2366.90 274.167   1
  17  -5  -2 5349.87 400.774   1
  17  -5  -1 5138.90 398.234   1
  17  -5   0 1989.70 255.996   1
  17  -5   1 8703.31 514.227   1
  17  -5   2 4005.56 356.004   1
  18  -2  -6 7122.41 504.656   1
  18  -2  -5-48.0919 121.746   1
  18  -2  -4 9941.40 586.538   1
  18  -2  -3 1994.53 280.401   1
  18  -2  -2 12714.0 663.481   1
  18  -2  -1 435.839 177.469   1
  18  -4  -4 6436.23 464.696   1
  18  -4  -3 1149.17 217.395   1
  18  -4  -2 7665.52 505.946   1
  18  -4  -1 6509.18 462.828   1
   0   0   0    0.00    0.00   0

TITL exp_1124_U120K in Cc
REM Cc (#9 in standard setting)
CELL 0.71073  13.729342  11.362963  12.517474  90.0000  95.8474  90.0000
ZERR   12.00   0.000416   0.000387   0.000379   0.0000   0.0028   0.0000
LATT -7
SYMM  x,-y, z+1/2
SFAC C H O Cl U
UNIT 48.00 48.00 24.00 24.00 12.00
TREF
HKLF 4
END
;
_shelx_hkl_checksum              8659
_olex2_submission_special_instructions 'No special instructions were received'
_oxdiff_exptl_absorpt_empirical_details
;
Empirical correction (ABSPACK) includes:
- Absorption correction using spherical harmonics
- Frame scaling
;
_oxdiff_exptl_absorpt_empirical_full_max 1.551
_oxdiff_exptl_absorpt_empirical_full_min 0.751
loop_
_space_group_symop_operation_xyz
'x, y, z'
'-x, y, -z+1/2'
'x+1/2, y+1/2, z'
'-x+1/2, y+1/2, -z+1/2'
'-x, -y, -z'
'x, -y, z-1/2'
'-x+1/2, -y+1/2, -z'
'x+1/2, -y+1/2, z-1/2'
loop_
_atom_site_label
_atom_site_type_symbol
_atom_site_fract_x
_atom_site_fract_y
_atom_site_fract_z
_atom_site_U_iso_or_equiv
_atom_site_adp_type
_atom_site_occupancy
_atom_site_site_symmetry_order
_atom_site_calc_flag
_atom_site_refinement_flags_posn
_atom_site_refinement_flags_adp
_atom_site_refinement_flags_occupancy
U1 U 0.500000 0.23094(2) 0.250000 0.01048(5) Uani 1 2 d S T P
Cl2 Cl 0.29739(5) 0.39705(7) 0.56202(6) 0.02079(16) Uani 1 1 d . . .
Cl1 Cl 0.90098(6) 0.23350(8) 0.32351(6) 0.02462(17) Uani 1 1 d . . .
O3 O 0.40900(13) 0.33132(18) 0.37630(15) 0.0145(4) Uani 1 1 d . . .
O2 O 0.56151(14) 0.1970(2) 0.44045(16) 0.0184(4) Uani 1 1 d . . .
O4 O 0.57738(13) 0.41201(18) 0.32928(15) 0.0149(4) Uani 1 1 d . . .
O5 O 0.42912(15) 0.0601(2) 0.32706(17) 0.0226(5) Uani 1 1 d . . .
H5A H 0.473984 0.007493 0.345057 0.034 Uiso 1 1 d GR . .
H5B H 0.384954 0.028533 0.280876 0.034 Uiso 1 1 d GR . .
O6 O 0.76915(17) 0.4599(2) 0.2175(2) 0.0288(5) Uani 1 1 d . . .
H6A H 0.779428 0.386086 0.217000 0.043 Uiso 1 1 d G . .
H6B H 0.712319 0.473028 0.236090 0.043 Uiso 1 1 d G . .
C5 C 0.8195(2) 0.2439(3) 0.4191(2) 0.0156(6) Uani 1 1 d . . .
O7 O 0.4308(2) 0.0828(3) 0.5785(3) 0.0476(8) Uani 1 1 d . . .
H7A H 0.449633 0.136403 0.537853 0.071 Uiso 1 1 d G . .
H7B H 0.368903 0.085672 0.578072 0.071 Uiso 1 1 d G . .
C1 C 0.7196(2) 0.2258(2) 0.3895(2) 0.0137(6) Uani 1 1 d . . .
C3 C 0.44725(19) 0.4099(3) 0.4388(2) 0.0131(5) Uani 1 1 d . . .
O1 O 0.68102(15) 0.2117(2) 0.29533(16) 0.0180(4) Uani 1 1 d . . .
C2 C 0.6482(2) 0.2256(3) 0.4749(2) 0.0140(6) Uani 1 1 d . . .
C4 C 0.54496(19) 0.4590(3) 0.4095(2) 0.0132(5) Uani 1 1 d . . .
C6 C 0.40698(19) 0.4528(3) 0.5278(2) 0.0140(5) Uani 1 1 d . . .
loop_
_atom_site_aniso_label
_atom_site_aniso_U_11
_atom_site_aniso_U_22
_atom_site_aniso_U_33
_atom_site_aniso_U_23
_atom_site_aniso_U_13
_atom_site_aniso_U_12
U1 0.00777(8) 0.01494(9) 0.00805(7) 0.000 -0.00250(5) 0.000
Cl2 0.0148(3) 0.0295(4) 0.0190(3) -0.0063(3) 0.0060(3) -0.0082(3)
Cl1 0.0156(4) 0.0429(5) 0.0154(3) 0.0014(3) 0.0020(3) 0.0042(3)
O3 0.0116(9) 0.0180(12) 0.0137(9) -0.0038(8) 0.0001(7) -0.0032(7)
O2 0.0112(10) 0.0273(12) 0.0155(10) 0.0047(9) -0.0042(8) -0.0041(8)
O4 0.0128(9) 0.0200(12) 0.0120(9) -0.0030(8) 0.0021(7) -0.0009(7)
O5 0.0163(10) 0.0217(12) 0.0277(12) 0.0042(9) -0.0083(9) -0.0035(8)
O6 0.0219(12) 0.0309(15) 0.0328(13) -0.0025(11) -0.0006(10) -0.0062(10)
C5 0.0129(14) 0.0220(16) 0.0115(13) 0.0014(11) 0.0002(11) 0.0016(10)
O7 0.0345(15) 0.059(2) 0.0502(19) 0.0200(15) 0.0074(13) 0.0049(14)
C1 0.0138(14) 0.0149(15) 0.0116(13) 0.0005(10) -0.0021(10) 0.0029(10)
C3 0.0103(13) 0.0156(15) 0.0129(12) -0.0011(10) -0.0019(10) -0.0012(10)
O1 0.0140(10) 0.0261(13) 0.0129(10) -0.0022(8) -0.0036(8) 0.0033(8)
C2 0.0120(13) 0.0166(16) 0.0129(13) 0.0033(10) -0.0015(11) 0.0004(10)
C4 0.0095(12) 0.0167(15) 0.0131(12) 0.0020(10) -0.0005(10) 0.0008(10)
C6 0.0102(13) 0.0180(15) 0.0137(13) -0.0021(11) 0.0012(10) -0.0031(10)
loop_
_atom_type_symbol
_atom_type_description
_atom_type_scat_dispersion_real
_atom_type_scat_dispersion_imag
_atom_type_scat_source
C C 0.0033 0.0016 'International Tables Vol C Tables 4.2.6.8 and 6.1.1.4'
H H 0.0000 0.0000 'International Tables Vol C Tables 4.2.6.8 and 6.1.1.4'
Cl Cl 0.1484 0.1585 'International Tables Vol C Tables 4.2.6.8 and 6.1.1.4'
O O 0.0106 0.0060 'International Tables Vol C Tables 4.2.6.8 and 6.1.1.4'
U U -9.6767 9.6646 'International Tables Vol C Tables 4.2.6.8 and 6.1.1.4'
loop_
_geom_angle_atom_site_label_1
_geom_angle_atom_site_label_2
_geom_angle_atom_site_label_3
_geom_angle
_geom_angle_site_symmetry_1
_geom_angle_site_symmetry_3
O3 U1 O3 123.27(10) 2_655 .
O3 U1 O2 65.76(7) . .
O3 U1 O2 123.95(6) . 2_655
O3 U1 O2 123.95(6) 2_655 .
O3 U1 O2 65.76(7) 2_655 2_655
O3 U1 O4 64.67(6) 2_655 2_655
O3 U1 O4 68.80(7) 2_655 .
O3 U1 O4 68.80(7) . 2_655
O3 U1 O4 64.67(6) . .
O3 U1 O5 82.01(7) 2_655 2_655
O3 U1 O5 82.01(7) . .
O3 U1 O5 154.49(8) . 2_655
O3 U1 O5 154.49(8) 2_655 .
O3 U1 O1 67.63(7) . 2_655
O3 U1 O1 117.63(6) 2_655 2_655
O3 U1 O1 117.63(6) . .
O3 U1 O1 67.63(7) 2_655 .
O2 U1 O2 162.09(11) . 2_655
O2 U1 O1 62.27(7) . .
O2 U1 O1 115.98(7) 2_655 .
O2 U1 O1 115.98(7) . 2_655
O2 U1 O1 62.27(7) 2_655 2_655
O4 U1 O2 127.25(7) 2_655 .
O4 U1 O2 69.72(7) . .
O4 U1 O2 69.72(7) 2_655 2_655
O4 U1 O2 127.25(7) . 2_655
O4 U1 O4 67.62(9) 2_655 .
O4 U1 O1 122.64(7) . 2_655
O4 U1 O1 66.80(7) . .
O4 U1 O1 66.80(7) 2_655 2_655
O4 U1 O1 122.64(7) 2_655 .
O5 U1 O2 98.48(7) 2_655 .
O5 U1 O2 66.57(7) 2_655 2_655
O5 U1 O2 66.57(7) . .
O5 U1 O2 98.48(7) . 2_655
O5 U1 O4 132.95(7) 2_655 2_655
O5 U1 O4 132.95(7) . .
O5 U1 O4 130.82(7) 2_655 .
O5 U1 O4 130.82(7) . 2_655
O5 U1 O5 73.08(11) 2_655 .
O5 U1 O1 65.73(7) . 2_655
O5 U1 O1 65.73(7) 2_655 .
O5 U1 O1 105.69(7) 2_655 2_655
O5 U1 O1 105.69(7) . .
O1 U1 O1 169.95(10) . 2_655
C3 O3 U1 122.08(17) . .
C2 O2 U1 120.30(18) . .
C4 O4 U1 120.01(17) . .
C1 C5 Cl1 119.6(2) . .
C2 C5 Cl1 120.6(2) 7_656 .
C2 C5 C1 119.7(3) 7_656 .
C5 C1 C2 119.9(3) . .
O1 C1 C5 125.3(3) . .
O1 C1 C2 114.8(3) . .
O3 C3 C4 115.3(2) . .
O3 C3 C6 124.9(2) . .
C6 C3 C4 119.8(2) . .
C1 O1 U1 121.15(19) . .
O2 C2 C5 125.7(3) . 7_656
O2 C2 C1 114.3(3) . .
C5 C2 C1 120.1(3) 7_656 .
O4 C4 C3 115.2(2) . .
O4 C4 C6 124.6(2) . 5_666
C6 C4 C3 120.1(2) 5_666 .
C3 C6 Cl2 120.0(2) . .
C3 C6 C4 120.1(2) . 5_666
C4 C6 Cl2 119.8(2) 5_666 .
loop_
_geom_bond_atom_site_label_1
_geom_bond_atom_site_label_2
_geom_bond_distance
_geom_bond_site_symmetry_2
U1 O3 2.4009(19) 2_655
U1 O3 2.4009(19) .
U1 O2 2.4768(19) 2_655
U1 O2 2.4768(19) .
U1 O4 2.476(2) .
U1 O4 2.476(2) 2_655
U1 O5 2.416(2) .
U1 O5 2.416(2) 2_655
U1 O1 2.502(2) .
U1 O1 2.502(2) 2_655
Cl2 C6 1.726(3) .
Cl1 C5 1.724(3) .
O3 C3 1.265(3) .
O2 C2 1.267(4) .
O4 C4 1.258(3) .
C5 C1 1.399(4) .
C5 C2 1.398(4) 7_656
C1 O1 1.253(3) .
C1 C2 1.522(4) .
C3 C4 1.531(4) .
C3 C6 1.383(4) .
C4 C6 1.397(4) 5_666
