#------------------------------------------------------------------------------
#$Date: 2020-08-07 00:13:53 +0300 (Fri, 07 Aug 2020) $
#$Revision: 255116 $
#$URL: file:///home/coder/svn-repositories/cod/cif/4/51/78/4517885.cif $
#------------------------------------------------------------------------------
#
# This file is available in the Crystallography Open Database (COD),
# http://www.crystallography.net/
#
# All data on this site have been placed in the public domain by the
# contributors.
#
data_4517885
loop_
_publ_author_name
'Das, Prasenjit'
'Mandal, Sanjay K.'
_publ_section_title
;
 Unprecedented High Temperature CO2 Selectivity and Effective Chemical
 Fixation by a Copper-Based Undulated Metal-Organic Framework.
;
_journal_name_full               'ACS applied materials &amp; interfaces'
_journal_paper_doi               10.1021/acsami.0c09024
_journal_year                    2020
_chemical_formula_moiety         'C18 H15 Cu N5 O6'
_chemical_formula_sum            'C18 H15 Cu N5 O6'
_chemical_formula_weight         460.89
_space_group_crystal_system      monoclinic
_space_group_IT_number           12
_space_group_name_Hall           '-C 2y'
_space_group_name_H-M_alt        'C 1 2/m 1'
_atom_sites_solution_hydrogens   mixed
_atom_sites_solution_primary     dual
_audit_creation_date             2018-09-17
_audit_creation_method
;
Olex2 1.2
(compiled 2018.05.29 svn.r3508 for OlexSys, GUI svn.r5506)
;
_cell_angle_alpha                90
_cell_angle_beta                 96.844(8)
_cell_angle_gamma                90
_cell_formula_units_Z            8
_cell_length_a                   11.8293(13)
_cell_length_b                   27.142(3)
_cell_length_c                   21.819(2)
_cell_measurement_reflns_used    1555
_cell_measurement_temperature    296(2)
_cell_measurement_theta_max      17.534
_cell_measurement_theta_min      2.41
_cell_volume                     6955.5(13)
_computing_cell_refinement       'SAINT v8.34A (Bruker, 2013)'
_computing_data_reduction        'SAINT v8.34A (Bruker, 2013)'
_computing_molecular_graphics    'Olex2 (Dolomanov et al., 2009)'
_computing_publication_material  'Olex2 (Dolomanov et al., 2009)'
_computing_structure_refinement  'ShelXL (Sheldrick, 2015)'
_computing_structure_solution    'ShelXT (Sheldrick, 2015)'
_diffrn_ambient_temperature      296.15
_diffrn_detector_area_resol_mean 8
_diffrn_measured_fraction_theta_full 0.991
_diffrn_measured_fraction_theta_max 0.991
_diffrn_measurement_device_type  'Bruker APEX-II CCD'
_diffrn_measurement_method       '\w and \f scans'
_diffrn_radiation_monochromator  graphite
_diffrn_radiation_type           MoK\a
_diffrn_radiation_wavelength     0.71073
_diffrn_reflns_av_R_equivalents  0.1975
_diffrn_reflns_av_unetI/netI     0.1863
_diffrn_reflns_Laue_measured_fraction_full 0.991
_diffrn_reflns_Laue_measured_fraction_max 0.991
_diffrn_reflns_limit_h_max       14
_diffrn_reflns_limit_h_min       -14
_diffrn_reflns_limit_k_max       32
_diffrn_reflns_limit_k_min       -32
_diffrn_reflns_limit_l_max       18
_diffrn_reflns_limit_l_min       -25
_diffrn_reflns_number            28427
_diffrn_reflns_point_group_measured_fraction_full 0.991
_diffrn_reflns_point_group_measured_fraction_max 0.991
_diffrn_reflns_theta_full        25.155
_diffrn_reflns_theta_max         25.155
_diffrn_reflns_theta_min         0.940
_diffrn_source                   'sealed tube'
_diffrn_standards_number         0
_exptl_absorpt_coefficient_mu    0.654
_exptl_absorpt_correction_T_max  0.7452
_exptl_absorpt_correction_T_min  0.5345
_exptl_absorpt_correction_type   multi-scan
_exptl_absorpt_process_details
'SADABS-2014/4 (Bruker,2014/4) was used for absorption correction. wR2(int) was 0.0933 before and 0.0677 after correction. The Ratio of minimum to maximum transmission is 0.7173. The \l/2 correction factor is 0.00150.'
_exptl_crystal_colour            blue
_exptl_crystal_density_diffrn    0.880
_exptl_crystal_description       block
_exptl_crystal_F_000             1880
_exptl_crystal_size_max          0.32
_exptl_crystal_size_mid          0.28
_exptl_crystal_size_min          0.25
_refine_diff_density_max         1.627
_refine_diff_density_min         -1.535
_refine_diff_density_rms         0.139
_refine_ls_extinction_method     none
_refine_ls_goodness_of_fit_ref   1.058
_refine_ls_hydrogen_treatment    mixed
_refine_ls_matrix_type           full
_refine_ls_number_parameters     286
_refine_ls_number_reflns         6323
_refine_ls_number_restraints     8
_refine_ls_restrained_S_all      1.057
_refine_ls_R_factor_all          0.1828
_refine_ls_R_factor_gt           0.1179
_refine_ls_shift/su_max          0.000
_refine_ls_shift/su_mean         0.000
_refine_ls_structure_factor_coef Fsqd
_refine_ls_weighting_details
'w=1/[\s^2^(Fo^2^)+(0.2000P)^2^] where P=(Fo^2^+2Fc^2^)/3'
_refine_ls_weighting_scheme      calc
_refine_ls_wR_factor_gt          0.3286
_refine_ls_wR_factor_ref         0.3721
_reflns_Friedel_coverage         0.000
_reflns_number_gt                3002
_reflns_number_total             6323
_reflns_threshold_expression     'I > 2\s(I)'
_cod_data_source_file            am0c09024_si_002.cif
_cod_data_source_block           1
_cod_original_cell_volume        6955.6(13)
_cod_database_code               4517885
_shelx_shelxl_version_number     2018/1
_shelx_space_group_comment
;
The symmetry employed for this shelxl refinement is uniquely defined
by the following loop, which should always be used as a source of
symmetry information in preference to the above space-group names.
They are only intended as comments.
;
_olex2_refinement_description
;
1. Fixed Uiso
 At 1.2 times of:
  All C(H) groups, All N(H) groups
 At 1.5 times of:
  All C(H,H,H) groups, All O(H,H) groups
2. Restrained distances
 O7-H7A = O7-H7B
 0.85 with sigma of 0.02
 O6-H6A = O6-H6B
 0.85 with sigma of 0.02
 H7A-H7B
 1.34 with sigma of 0.04
 H6A-H6B
 1.34 with sigma of 0.04
 Cu2-H7A \\sim Cu2-H7B
 with sigma of 0.02
 Cu1-H6A \\sim Cu1-H6B
 with sigma of 0.02
3.a Riding coordinates:
 N5(H5)
3.b Aromatic/amide H refined with riding coordinates:
 N4(H4), C5(H5A), C8(H8), C10(H10), C11(H11), C12(H12), C13(H13), C15(H15),
 C17(H17)
3.c Idealised Me refined as rotating group:
 C18(H18A,H18B,H18C)
;
_shelx_res_file
;
TITL pd_291_hl_0m_a_a.res in C2/m
    pd_291_hl_0m_a.res
    created by SHELXL-2018/1 at 19:09:07 on 17-Sep-2018
REM Old TITL pd_291_hl_0m_a_b.res in Cm
REM SHELXT solution in C2/m
REM R1 0.385, Rweak 0.158, Alpha 0.165, Orientation as input
REM Formula found by SHELXT: C53 Cu2 N10 O16
CELL 0.71073 11.8293 27.1416 21.8194 90 96.844 90
ZERR 8 0.0013 0.003 0.002 0 0.008 0
LATT 7
SYMM -X,+Y,-Z
SFAC C H Cu N O
UNIT 144 120 8 40 48
EQIV $1 1-X,1-Y,2-Z
EQIV $2 1-X,+Y,2-Z
EQIV $3 1-X,-Y,1-Z
EQIV $4 1-X,+Y,1-Z
DFIX 0.85 O7 H7a O7 H7b
DFIX 0.85 O6 H6a O6 H6b
SADI Cu2 H7a Cu2 H7b
SADI Cu1 H6a Cu1 H6b
DANG 1.34 H7a H7b
DANG 1.34 H6a H6b

L.S. 5
PLAN  5
TEMP 23
FREE Cu1 Cu1_$2
FREE Cu1 Cu1_$1
FREE Cu2 Cu2_$4
FREE Cu2 Cu2_$3
BOND $H
list 4
fmap 2
ACTA
ABIN
OMIT 1 7 5
OMIT 0 2 6
REM <olex2.extras>
REM <HklSrc "%.\\PD_291_HL_0m_a.hkl">
REM </olex2.extras>

WGHT    0.200000
FVAR       0.16845
CU1   3    0.600238    0.500000    1.033566    10.50000    0.02991    0.02495 =
         0.02978    0.00000    0.00911    0.00000
CU2   3    0.550233    0.000000    0.449804    10.50000    0.19341    0.04338 =
         0.08137    0.00000    0.10314    0.00000
O1    5    0.461357    0.449548    0.916655    11.00000    0.04522    0.04561 =
         0.03165   -0.01533    0.00794   -0.00353
O2    5    0.629710    0.449361    0.970829    11.00000    0.05875    0.05173 =
         0.07419    0.01264    0.04672    0.02009
O3    5    1.122304    0.326075    0.775008    11.00000    0.13878    0.05678 =
         0.08156   -0.01281    0.08093   -0.00909
O4    5    0.649427    0.049675    0.492859    11.00000    0.21778    0.04892 =
         0.08868   -0.03164    0.09750   -0.00504
O5    5    0.559124    0.049440    0.578043    11.00000    0.16583    0.05003 =
         0.08500   -0.00104    0.10030   -0.00577
O6    5    0.770158    0.500000    1.080697    10.50000    0.07669    0.09671 =
         0.18622    0.00000   -0.02853    0.00000
H6A   2    0.794020    0.500000    1.119219    10.50000   -1.50000
H6B   2    0.834801    0.500000    1.065553    10.50000   -1.50000
O7    5    0.638985    0.000000    0.369832    10.50000    0.21160    0.13117 =
         0.08707    0.00000    0.10149    0.00000
H7A   2    0.709959    0.000000    0.367117    10.50000   -1.50000
H7B   2    0.611028    0.000000    0.331323    10.50000   -1.50000
N1    4    1.044539    0.265846    0.717381    11.00000    0.12304    0.03726 =
         0.07112    0.00410    0.08192    0.02671
N2    4    0.843361    0.251979    0.709081    11.00000    0.08824    0.02823 =
         0.08236    0.00432    0.06092    0.01350
N3    4    0.932224    0.318596    0.773139    11.00000    0.13944    0.02561 =
         0.06660   -0.00159    0.06804    0.00399
N4    4    0.962580    0.206421    0.656457    11.00000    0.14600    0.03315 =
         0.06272    0.00663    0.07386    0.02726
AFIX  43
H4    2    1.030856    0.202994    0.647280    11.00000   -1.20000
AFIX   0
N5    4    0.736984    0.302160    0.764393    11.00000    0.13493    0.03927 =
         0.08429    0.00357    0.07936    0.01157
AFIX   3
H5    2    0.704604    0.274850    0.772103    11.00000   -1.20000
AFIX   0
C1    1    0.562653    0.435770    0.925570    11.00000    0.07800    0.02848 =
         0.02253    0.00180    0.00462   -0.00606
C2    1    0.703991    0.336475    0.804469    11.00000    0.09634    0.04668 =
         0.03866   -0.01236    0.04640    0.00640
C3    1    0.945156    0.243231    0.695917    11.00000    0.11181    0.04282 =
         0.08672    0.01754    0.07702    0.01469
C4    1    0.845904    0.290770    0.749479    11.00000    0.12434    0.03410 =
         0.08584    0.01709    0.08835    0.02308
C5    1    0.771582    0.355607    0.851175    11.00000    0.08412    0.05472 =
         0.05304    0.00014    0.03346    0.05136
AFIX  43
H5A   2    0.848683    0.347803    0.856002    11.00000   -1.20000
AFIX   0
C6    1    0.612498    0.402063    0.883512    11.00000    0.06542    0.03085 =
         0.03816    0.00762    0.02296   -0.00203
C7    1    1.032084    0.303529    0.756330    11.00000    0.15462    0.04055 =
         0.06430    0.01727    0.06802    0.00350
C8    1    0.727539    0.388371    0.894709    11.00000    0.10185    0.04232 =
         0.05875    0.01165    0.04298    0.01345
AFIX  43
H8    2    0.773873    0.400038    0.929071    11.00000   -1.20000
AFIX   0
C9    1    0.875967    0.171126    0.627147    11.00000    0.14163    0.03569 =
         0.04876    0.01437    0.05723    0.02994
C10   1    0.894277    0.154302    0.575220    11.00000    0.05595    0.03896 =
         0.06909    0.01193    0.02745    0.01354
AFIX  43
H10   2    0.958897    0.163283    0.557442    11.00000   -1.20000
AFIX   0
C11   1    0.590012    0.351224    0.792341    11.00000    0.17575    0.05562 =
         0.05103   -0.01577    0.07255   -0.01390
AFIX  43
H11   2    0.547075    0.339187    0.757036    11.00000   -1.20000
AFIX   0
C12   1    0.536103    0.383966    0.831621    11.00000    0.09958    0.06927 =
         0.07190   -0.03423    0.04563    0.01517
AFIX  43
H12   2    0.459643    0.392690    0.824439    11.00000   -1.20000
AFIX   0
C13   1    0.810917    0.120413    0.544161    11.00000    0.15648    0.09843 =
         0.06690   -0.00105    0.08537    0.03913
AFIX  43
H13   2    0.818447    0.110606    0.504009    11.00000   -1.20000
AFIX   0
C14   1    0.715851    0.101316    0.574005    11.00000    0.12069    0.04464 =
         0.07739    0.00391    0.06651    0.00828
C15   1    0.788328    0.156412    0.658015    11.00000    0.16655    0.04472 =
         0.07422   -0.00511    0.08631   -0.00139
AFIX  43
H15   2    0.784140    0.168635    0.697499    11.00000   -1.20000
AFIX   0
C16   1    0.625322    0.063631    0.546781    11.00000    0.09577    0.06942 =
         0.06124   -0.01559    0.02291    0.02910
C17   1    0.704256    0.123556    0.632525    11.00000    0.13557    0.03428 =
         0.10365   -0.00150    0.09477    0.00612
AFIX  43
H17   2    0.641963    0.116291    0.653212    11.00000   -1.20000
AFIX   0
C18   1    1.114486    0.368650    0.815539    11.00000    0.15308    0.05051 =
         0.15598   -0.02791    0.09913    0.00781
AFIX 137
H18A  2    1.082895    0.396130    0.791631    11.00000   -1.50000
H18B  2    1.189094    0.377054    0.834978    11.00000   -1.50000
H18C  2    1.066347    0.360671    0.846573    11.00000   -1.50000
AFIX   0
HKLF 4




REM  pd_291_hl_0m_a_a.res in C2/m
REM R1 =  0.1179 for    3002 Fo > 4sig(Fo)  and  0.1828 for all    6323 data
REM    286 parameters refined using      8 restraints

END

WGHT      0.2000      0.0000

REM Highest difference peak  1.627,  deepest hole -1.535,  1-sigma level  0.139
Q1    1   0.5582  0.0000  0.3030  10.50000  0.05    1.63
Q2    1   0.6042  0.0000  0.2668  10.50000  0.05    1.49
Q3    1   0.8487  0.5182  1.0631  11.00000  0.05    1.03
Q4    1   0.9027  0.5000  1.0696  10.50000  0.05    0.85
Q5    1   0.6077  0.0000  0.4533  10.50000  0.05    0.77
;
_shelx_res_checksum              31992
_shelx_hkl_file
;
   2   0   0  113.59   11.70
   2   0   0   90.69   10.10
   2   0   0  115.89   13.30
   2   0   0  108.89   12.10
  -2   0   0   98.19   11.30
  -2   0   0   96.29   10.90
  -2   0   0  112.29   14.00
   4   0   0  282.57   25.40
   4   0   0  261.57   23.30
  -4   0   0  311.07   28.20
   4   0   0  284.57   26.00
  -6   0   0  406.36   39.90
   6   0   0  431.16   37.70
   6   0   0  437.26   37.60
   8   0   0   27.80   16.70
   8   0   0   74.39   18.20
  -8   0   0   48.70   20.40
 -10   0   0  134.69   32.20
  10   0   0  104.49   25.20
  10   0   0  177.78   31.20
  12   0   0  126.79   33.90
  12   0   0   85.59   28.50
 -12   0   0  101.89   34.00
 -14   0   0  -49.00   34.20
  14   0   0   -0.10   26.80
  -1  -1   0   -1.30    2.30
  -1  -1   0   -1.20    2.90
   1  -1   0   -0.60    3.20
  -1  -1   0   -2.50    2.50
   1  -1   0    0.70    2.10
   1  -1   0   -0.70    2.40
  -1  -1   0   -0.90    1.40
  -1   1   0   -0.10    3.10
   1   1   0   -3.60    2.30
  -1   1   0    1.00    2.90
   1   1   0    0.10    1.70
   1   1   0   -3.10    2.90
   1   1   0   -3.20    2.10
  -1   1   0   -1.50    2.50
   3  -1   0   16.40   10.90
   3  -1   0   11.10    7.80
   3  -1   0   14.30    8.80
  -3  -1   0   28.00    9.30
  -3  -1   0   39.70   13.10
  -3  -1   0   30.50    7.90
   3  -1   0   25.40   11.70
   3   1   0    8.50    9.60
  -3   1   0   19.80   12.50
   3   1   0   17.00   10.20
  -3   1   0   13.40    8.20
   3   1   0   30.80    9.80
   3   1   0   29.30    7.50
  -5  -1   0  362.96   34.60
   5  -1   0  332.77   29.40
   5  -1   0  320.17   31.90
   5  -1   0  344.17   31.40
   5   1   0  377.46   32.50
   5   1   0  398.96   32.10
   5   1   0  373.46   29.40
  -5   1   0  380.86   34.50
  -7  -1   0   -1.20   16.90
   7  -1   0   -3.60   13.90
   7  -1   0   -9.30   13.30
   7   1   0    3.80   12.90
   7   1   0  -17.80   11.90
  -7   1   0  -38.70   14.60
   9  -1   0   62.69   21.70
  -9  -1   0   67.39   23.40
   9  -1   0   49.40   19.10
   9   1   0   43.00   19.80
   9   1   0   24.00   16.90
  -9   1   0   60.69   24.30
  11  -1   0   39.60   22.50
 -11  -1   0   70.49   30.10
  11  -1   0   20.50   27.60
 -11   1   0   19.10   27.00
  11   1   0   47.80   27.70
  11   1   0   24.00   20.90
 -13  -1   0    4.90   31.50
  13  -1   0  -25.60   21.50
  13  -1   0   15.10   30.10
  13   1   0   46.00   33.80
  13   1   0   -3.60   23.20
 -13   1   0   33.70   32.20
   0  -2   0   -4.50    1.50
  -2  -2   0  885.71   59.29
   2  -2   0  817.42   59.29
   2  -2   0  792.72   58.59
  -2  -2   0  804.32   57.79
  -2  -2   0  802.72   58.49
  -2  -2   0  793.62   59.19
   2  -2   0  910.61   58.99
   2   2   0  845.92   59.09
  -2   2   0  771.32   59.39
   2   2   0  856.11   58.79
   2   2   0  787.42   58.99
   2   2   0  828.82   57.99
  -2   2   0  853.61   58.79
  -2   2   0  845.32   58.59
   4  -2   0  149.59   18.90
  -4  -2   0  142.69   21.10
   4  -2   0  154.08   17.70
  -4  -2   0  129.49   14.70
   4   2   0  166.28   18.80
   4   2   0  114.99   17.40
  -4   2   0  151.88   21.30
   4   2   0  124.89   14.50
   6  -2   0  308.87   30.30
   6  -2   0  272.17   29.00
  -6  -2   0  303.17   34.70
   6   2   0  292.67   29.50
  -6   2   0  365.36   37.10
   6   2   0  318.97   30.10
   6   2   0  288.17   26.20
   8  -2   0   20.30   16.40
  -8  -2   0   55.09   22.50
   8  -2   0   88.29   20.50
   8   2   0   75.29   18.70
   8   2   0   22.70   16.80
  -8   2   0   35.70   20.90
 -10  -2   0   38.70   27.00
  10  -2   0    3.70   18.40
  10  -2   0   13.00   22.30
  10   2   0   96.89   28.40
  10   2   0   53.09   20.80
 -10   2   0   38.00   27.50
 -12  -2   0   57.09   31.50
  12  -2   0    6.30   21.70
  12  -2   0   18.20   29.10
  12   2   0   18.10   22.60
 -12   2   0   42.80   30.80
  12   2   0   13.90   30.30
  14  -2   0    1.20   27.00
  14   2   0  -32.00   24.80
 -14   2   0  -20.20   35.30
  -1  -3   0   47.80    8.20
   1  -3   0   46.00    6.90
  -1  -3   0   39.10    6.30
   1  -3   0   38.00    8.00
  -1  -3   0   37.40    7.10
  -1   3   0   42.70    6.90
  -1   3   0   48.10    8.50
   1   3   0   42.80    6.70
   1   3   0   33.70    7.40
   3  -3   0   15.50   10.10
  -3  -3   0   13.80    6.90
  -3  -3   0   24.70   12.00
  -3  -3   0    9.80    9.40
   3  -3   0    0.20    9.40
  -3   3   0   10.70    8.70
   3   3   0    3.10    7.20
  -3   3   0   15.50   12.50
   3   3   0   14.20    9.60
   3   3   0   10.70    9.20
  -5  -3   0  430.66   33.60
   5  -3   0  391.36   36.00
  -5  -3   0  427.76   38.40
   5  -3   0  395.46   35.60
  -5   3   0  400.36   38.70
   5   3   0  441.06   37.00
   5   3   0  431.66   36.20
   5   3   0  431.76   33.30
   7  -3   0    8.00   13.50
   7  -3   0   -9.80   13.60
  -7  -3   0  -14.90   16.00
   7   3   0  -11.30   13.10
   7   3   0  -14.70   12.00
  -7   3   0   19.30   18.60
   9  -3   0   20.30   17.80
   9  -3   0   17.10   19.70
  -9  -3   0   16.90   22.10
   9   3   0   38.90   21.30
  -9   3   0   44.40   23.60
   9   3   0   22.20   16.90
 -11  -3   0   83.29   30.90
  11  -3   0   67.59   29.70
  11  -3   0   31.40   22.70
 -11   3   0   93.79   30.40
  11   3   0   40.00   22.20
  11   3   0   84.89   30.10
  13  -3   0  -16.30   21.20
 -13  -3   0  -12.80   32.20
  13  -3   0   11.40   32.30
  13   3   0  -15.30   23.40
  13   3   0   -8.30   31.80
 -13   3   0   33.90   33.20
   0  -4   0 3354.46  229.28
  -2  -4   0 1849.42  133.79
   2  -4   0 1969.00  135.09
   2  -4   0 2009.30  134.39
  -2  -4   0 1831.62  134.59
  -2  -4   0 1920.81  134.09
  -2  -4   0 1948.11  134.89
   2   4   0 1959.20  134.29
   2   4   0 1875.11  134.59
   2   4   0 2011.80  134.79
  -2   4   0 1959.80  134.19
  -2   4   0 2020.30  134.29
  -2   4   0 1896.71  134.89
  -4  -4   0  135.69   15.60
   4  -4   0  177.38   20.10
   4  -4   0  187.88   20.60
  -4  -4   0  148.09   21.60
  -4   4   0  166.98   22.50
   4   4   0  160.68   20.80
   4   4   0  164.68   19.50
   4   4   0  143.59   16.50
  -6  -4   0   66.29   19.40
   6  -4   0   54.19   16.50
  -6  -4   0   48.50   12.60
   6  -4   0   42.60   15.40
   6   4   0   61.09   17.10
  -6   4   0   35.90   18.90
   6   4   0   47.30   15.40
   6   4   0   60.59   12.20
   8  -4   0   42.50   18.30
  -8  -4   0   23.20   19.50
   8  -4   0   44.40   17.70
   8   4   0   31.20   16.00
  -8   4   0   41.50   21.10
   8   4   0   63.29   19.40
  10  -4   0  349.87   38.80
 -10  -4   0  274.77   41.10
  10   4   0  163.48   31.20
 -10   4   0  208.88   37.20
  10   4   0  285.97   37.30
 -12  -4   0   11.60   29.90
  12  -4   0   70.59   31.00
  12  -4   0    0.40   22.00
 -12   4   0   23.50   29.80
  12   4   0   14.00   31.10
  12   4   0   10.80   23.10
   1  -5   0  322.27   24.50
  -1  -5   0  299.47   24.10
   1  -5   0  295.97   26.10
   1   5   0  294.97   24.60
  -1   5   0  293.37   26.40
  -1   5   0  311.67   24.20
   1   5   0  287.77   25.60
  -3  -5   0  358.76   29.30
  -3  -5   0  380.66   31.70
   3  -5   0  389.96   31.00
   3   5   0  394.56   30.90
   3   5   0  371.36   31.80
  -3   5   0  362.56   30.50
  -3   5   0  323.77   32.10
  -5  -5   0  126.49   15.60
   5  -5   0  132.99   19.90
   5  -5   0  119.09   19.20
  -5  -5   0  124.69   22.40
   5   5   0  119.39   19.70
  -5   5   0  141.29   24.70
   5   5   0  130.39   19.10
   5   5   0  123.19   16.60
   7  -5   0   -4.60   14.30
   7  -5   0   15.40   15.30
  -7  -5   0   15.30   17.40
  -7  -5   0   17.60   13.10
   7   5   0    9.50   13.80
   7   5   0   18.20   16.60
  -7   5   0   42.80   20.40
  -9  -5   0   98.19   25.60
   9  -5   0   40.70   19.50
   9  -5   0  129.59   25.00
  -9   5   0   99.39   27.00
   9   5   0   85.29   21.50
   9   5   0   34.80   19.80
 -11  -5   0  -13.30   25.30
  11  -5   0    6.00   22.20
  11  -5   0   19.80   27.90
  11   5   0   81.59   30.00
  11   5   0   36.70   23.00
 -11   5   0   20.90   26.50
  13  -5   0   13.00   37.10
  13  -5   0   27.00   25.90
 -13  -5   0   -7.00   32.20
  13   5   0    1.20   23.20
 -13   5   0  -26.20   32.90
  13   5   0   20.40   35.90
   0  -6   0 9999.00  680.53
   2  -6   0   11.40    9.50
  -2  -6   0    1.60   10.70
  -2   6   0   26.00   13.70
   2   6   0    9.30    9.80
   2   6   0   22.80   10.20
  -4  -6   0  140.29   16.70
  -4  -6   0  110.89   19.90
   4  -6   0  121.69   18.00
   4  -6   0  136.39   19.10
   4   6   0  130.79   18.00
  -4   6   0  112.49   20.60
   4   6   0  111.09   18.50
   6  -6   0  387.56   34.00
  -6  -6   0  364.56   31.40
   6  -6   0  282.97   32.60
  -6  -6   0  354.86   35.60
   6   6   0  336.97   33.20
   6   6   0  399.46   35.30
  -6   6   0  382.36   37.60
   8  -6   0    9.20   18.50
   8  -6   0    0.80   16.90
  -8  -6   0   -9.90   18.90
  -8  -6   0   25.80   18.40
   8   6   0   31.10   20.60
   8   6   0    2.60   14.90
  -8   6   0    2.70   20.20
 -10  -6   0   25.30   28.60
  10  -6   0   55.69   26.50
  10  -6   0   64.29   22.90
 -10   6   0   18.00   27.20
  10   6   0   52.89   22.00
  10   6   0   64.49   27.00
  12  -6   0   17.40   23.30
 -12  -6   0    4.60   29.10
  12  -6   0   10.20   30.70
 -12   6   0   23.60   30.40
  12   6   0   -1.60   31.00
  12   6   0  -13.60   20.30
   1  -7   0   44.80   15.30
   1  -7   0   43.80   11.00
   1   7   0   40.20   12.80
   1   7   0   50.19   10.90
  -3  -7   0  139.19   17.70
   3  -7   0  146.89   18.90
  -3  -7   0  163.58   21.50
   3   7   0  136.29   19.20
  -3   7   0  157.58   22.90
   3   7   0  137.09   18.10
   5  -7   0  414.96   33.40
  -5  -7   0  374.46   31.20
  -5  -7   0  364.16   38.70
   5  -7   0  352.06   33.20
   5   7   0  325.07   32.40
  -5   7   0  378.76   35.90
   5   7   0  325.27   34.20
  -7  -7   0   59.59   15.50
   7  -7   0   70.39   17.90
   7  -7   0   10.90   15.50
  -7  -7   0   80.99   20.50
   7   7   0   71.09   19.20
   7   7   0   26.00   15.40
  -7   7   0   21.20   19.30
   9  -7   0   62.99   23.90
  -9  -7   0   47.50   24.00
   9  -7   0   33.00   20.60
  -9  -7   0   28.40   23.90
   9   7   0   -7.20   15.70
  -9   7   0   13.50   23.70
   9   7   0    9.10   20.80
  11  -7   0   76.19   30.90
 -11  -7   0   74.59   32.20
  11  -7   0   59.69   24.90
  11   7   0    5.50   20.30
  11   7   0  100.59   31.20
 -11   7   0   33.90   31.30
  13  -7   0   49.20   27.90
 -13  -7   0   -1.40   34.80
  13   7   0   -8.70   36.30
  13   7   0   41.60   25.20
 -13   7   0   28.10   35.20
   0  -8   0 1383.56   97.79
   2  -8   0  137.39   18.50
   2   8   0  154.38   20.30
  -2   8   0  186.08   22.90
   2   8   0  186.48   19.80
  -4  -8   0   11.70   13.70
   4  -8   0   33.70   13.50
  -4  -8   0   27.40   11.50
  -4   8   0   22.00   16.40
   4   8   0   18.90   12.40
   4   8   0   29.30   12.50
   6  -8   0  184.48   25.70
  -6  -8   0  210.68   23.20
  -6  -8   0  205.78   30.50
   6   8   0  168.38   26.30
  -6   8   0  201.68   29.40
   6   8   0  184.98   25.60
  -8  -8   0   69.99   22.60
   8  -8   0  156.78   24.70
  -8  -8   0   87.99   21.20
   8  -8   0   46.00   18.60
   8   8   0   10.40   15.10
  -8   8   0  102.29   24.80
   8   8   0   72.39   22.00
  10  -8   0  119.99   29.60
  10  -8   0    9.70   21.50
 -10  -8   0   48.40   26.60
 -10   8   0   36.70   29.20
  10   8   0   82.29   29.40
  10   8   0   32.10   19.70
 -12  -8   0  -38.30   29.40
  12  -8   0   -3.50   23.10
  12  -8   0   76.89   34.00
  12   8   0   19.70   32.50
  12   8   0   34.40   24.50
 -12   8   0   18.40   32.30
   1  -9   0    4.90    8.90
   1   9   0    5.30    9.30
   1   9   0  -12.80   10.00
   3  -9   0    3.10   10.80
  -3  -9   0    5.60   13.20
  -3   9   0   19.10   15.60
   3   9   0   -0.80   10.90
   3   9   0  -14.10    9.80
  -5  -9   0  249.18   30.90
  -5  -9   0  251.47   26.80
   5  -9   0  254.67   28.40
   5   9   0  243.78   29.50
  -5   9   0  250.67   32.40
   5   9   0  215.38   26.90
   7  -9   0   18.30   15.30
  -7  -9   0   56.89   21.00
  -7  -9   0   82.89   17.00
  -7   9   0   49.80   22.10
   7   9   0   31.20   18.30
   7   9   0    9.80   14.30
   9  -9   0   93.39   25.40
   9  -9   0   26.20   18.40
  -9  -9   0   34.70   25.80
  -9   9   0   20.90   23.40
   9   9   0   58.19   26.00
   9   9   0   20.10   18.00
 -11  -9   0  -15.90   25.00
  11  -9   0   -4.90   21.00
  11  -9   0   36.70   30.10
 -11   9   0   -0.30   26.20
  11   9   0   47.50   23.40
  11   9   0   23.30   27.80
 -13  -9   0  -33.70   32.00
  13  -9   0  -14.70   24.30
  13   9   0   -4.50   36.80
  13   9   0   11.70   23.20
 -13   9   0    0.70   33.00
   0 -10   0  763.42   57.09
   2 -10   0   19.50   10.90
   2  10   0   11.90   11.00
   2  10   0   17.10   12.70
  -4 -10   0   22.10   15.30
  -4 -10   0   35.30   13.90
   4 -10   0   40.70   15.00
   4  10   0   20.30   12.70
  -4  10   0   30.20   16.40
   4  10   0   14.20   12.60
   6 -10   0  236.48   30.80
  -6 -10   0  295.87   30.60
  -6 -10   0  259.27   35.10
  -6  10   0  224.38   33.90
   6  10   0  291.37   33.40
   6  10   0  237.18   30.00
   8 -10   0   79.59   21.40
  -8 -10   0   79.79   20.80
  -8 -10   0   31.60   23.10
  -8  10   0   45.20   24.80
   8  10   0   19.20   17.40
   8  10   0   67.29   22.30
  10 -10   0   90.49   27.50
 -10 -10   0   96.59   30.30
  10  10   0   83.89   31.80
 -10  10   0   54.29   29.00
  10  10   0   49.99   23.00
  12 -10   0   51.59   27.70
 -12 -10   0    0.70   30.30
 -12  10   0   -2.40   29.60
  12  10   0   13.60   23.60
  12  10   0   35.50   32.10
   1 -11   0   19.50   10.70
   1  11   0   12.20   12.60
  -3 -11   0  353.16   35.10
   3 -11   0  262.77   28.60
   3  11   0  276.57   30.10
  -3  11   0  348.77   35.80
   3  11   0  297.67   29.20
   5 -11   0  187.08   24.90
  -5 -11   0  138.89   24.70
  -5 -11   0  189.38   23.10
  -5  11   0  165.68   26.80
   5  11   0  105.59   21.20
   5  11   0  132.19   23.20
   7 -11   0    3.60   14.90
  -7 -11   0   16.60   16.00
  -7 -11   0   40.20   22.40
   7  11   0   19.30   16.50
   7  11   0   18.20   15.30
  -7  11   0   21.30   22.20
  -9 -11   0   10.30   24.00
   9 -11   0   13.20   20.10
  -9  11   0   42.20   28.00
   9  11   0   28.90   19.70
   9  11   0   60.89   26.90
  11 -11   0   -0.30   23.40
 -11 -11   0   24.90   28.60
  11  11   0   20.00   29.20
  11  11   0  -13.60   21.40
 -11  11   0   44.10   32.60
  13 -11   0   31.20   28.90
 -13 -11   0  -42.30   33.40
 -13  11   0   22.60   38.40
  13  11   0   22.70   26.90
  13  11   0   50.39   40.00
   0 -12   0  432.76   36.40
   2 -12   0   74.19   15.70
   2  12   0  114.49   19.10
   2  12   0   88.99   16.10
  -4 -12   0  246.28   27.90
  -4 -12   0  220.38   30.70
   4 -12   0  195.98   26.30
   4  12   0  248.38   27.60
  -4  12   0  241.48   31.10
   4  12   0  169.78   25.30
   6 -12   0  205.58   28.60
  -6 -12   0  199.38   31.20
  -6 -12   0  239.98   28.90
   6  12   0  157.88   27.20
   6  12   0  213.68   27.80
  -6  12   0  188.28   32.20
  -8 -12   0   18.70   22.70
   8 -12   0   -3.30   15.80
  -8 -12   0    4.00   19.10
   8  12   0   15.50   18.30
   8  12   0   23.70   20.80
  -8  12   0   33.10   25.40
 -10 -12   0   80.79   31.00
  10 -12   0   43.20   23.10
  10  12   0   80.99   32.70
 -10  12   0   11.20   26.50
  10  12   0   24.30   21.50
  12 -12   0   37.70   29.80
 -12 -12   0    7.00   32.80
 -12  12   0   41.30   36.60
  12  12   0   56.99   28.20
  12  12   0   24.60   33.50
  -1 -13   0    9.90   10.40
   1 -13   0   10.00   11.60
   1  13   0    4.40   13.90
   3 -13   0   22.20   12.20
   3  13   0   51.39   15.80
   3  13   0   23.00   12.90
   5 -13   0  280.47   33.20
  -5 -13   0  288.37   32.10
  -5 -13   0  350.56   38.40
  -5  13   0  312.77   38.80
   5  13   0  338.37   32.20
   5  13   0  256.97   33.40
   7 -13   0    6.70   18.10
  -7 -13   0   54.59   21.30
  -7 -13   0   17.10   21.30
   7  13   0   39.30   20.30
  -7  13   0   17.20   21.90
   7  13   0   -6.90   14.40
   9 -13   0    3.90   19.50
  -9 -13   0   66.29   28.30
   9  13   0   43.00   25.60
  -9  13   0  -13.80   25.20
   9  13   0   29.70   20.30
 -11 -13   0   64.89   35.00
  11 -13   0  -10.60   23.20
  11  13   0   66.49   35.10
 -11  13   0   30.40   32.00
  11  13   0   60.49   25.10
   0 -14   0  756.22   58.29
   2 -14   0   90.89   17.30
   2  14   0   99.09   18.50
   2  14   0  116.29   21.70
   4 -14   0   40.20   16.40
  -4 -14   0   92.99   20.90
  -4  14   0   59.99   21.70
   4  14   0   52.99   18.10
   4  14   0   39.30   16.50
  -6 -14   0  101.19   23.80
  -6 -14   0  138.39   24.60
   6 -14   0   60.69   19.30
   6  14   0  104.09   22.60
   6  14   0   92.39   22.70
  -6  14   0   91.79   26.30
  -8 -14   0   16.40   26.90
   8 -14   0  -32.90   15.30
  -8 -14   0    6.80   21.60
  -8  14   0   13.50   24.40
   8  14   0   11.00   20.20
   8  14   0  -12.30   16.60
  10 -14   0   37.50   24.20
 -10 -14   0   20.60   28.40
 -10  14   0   59.49   33.40
  10  14   0   38.60   23.20
  10  14   0   89.99   32.10
 -12 -14   0    0.80   33.30
  12 -14   0    0.40   27.30
  12  14   0  -18.80   32.40
 -12  14   0   38.40   36.80
  12  14   0  -11.00   24.90
  -1 -15   0   -2.80    9.70
   1 -15   0   20.50   12.20
   1  15   0   37.80   15.50
   3 -15   0    9.40   12.40
   3  15   0   27.00   15.40
   3  15   0    1.10   12.00
   5 -15   0   74.49   19.90
  -5 -15   0   42.70   20.60
  -5 -15   0  127.69   23.60
   5  15   0   61.89   19.20
   5  15   0   35.70   16.90
  -5  15   0   90.79   24.10
   7 -15   0    9.00   18.60
  -7 -15   0   -7.00   19.70
  -7 -15   0   -5.00   21.20
   7  15   0  -29.70   16.30
   7  15   0    3.50   18.70
  -7  15   0    5.60   23.60
  -9 -15   0   24.30   26.90
   9 -15   0   39.80   21.90
   9  15   0   16.50   24.90
   9  15   0    8.90   21.00
  -9  15   0   14.00   29.00
 -11 -15   0    6.60   31.40
  11 -15   0   19.40   23.10
 -11  15   0   -2.00   32.70
  11  15   0  -15.20   21.70
  11  15   0  -71.59   30.80
   0 -16   0 1776.42  127.59
   2 -16   0  271.17   31.70
   2  16   0  299.27   35.60
  -4 -16   0   50.89   20.10
   4 -16   0   53.89   17.70
   4  16   0   55.99   17.40
   4  16   0   18.40   15.40
  -6 -16   0  199.78   30.80
  -6 -16   0  167.18   31.60
   6 -16   0  171.18   27.20
   6  16   0  142.79   25.20
  -6  16   0  117.29   28.60
   6  16   0  105.49   25.10
   8 -16   0    2.80   20.10
  -8 -16   0   35.40   26.00
  -8 -16   0   50.39   26.20
   8  16   0   -7.80   19.10
  -8  16   0   82.09   30.40
   8  16   0    9.30   18.30
  10 -16   0   45.10   24.40
 -10 -16   0   54.29   30.40
  10  16   0   59.19   25.00
  10  16   0   52.49   31.50
 -10  16   0   52.99   32.50
  12 -16   0   12.20   29.30
 -12 -16   0  -33.20   32.30
 -12  16   0  -42.10   35.30
  12  16   0  -55.59   39.20
  12  16   0   28.30   29.10
   1 -17   0   69.99   17.00
  -1 -17   0   72.39   17.10
   1  17   0   71.49   20.10
   3 -17   0   -1.50   12.20
   3  17   0   23.90   16.00
   3  17   0   -0.20   13.40
   5 -17   0   53.09   20.00
  -5 -17   0   31.30   20.50
  -5 -17   0   60.19   21.20
   5  17   0   19.60   16.70
   5  17   0   32.40   17.20
  -7 -17   0   16.40   24.30
  -7 -17   0   19.40   24.40
   7 -17   0    2.30   20.20
  -7  17   0   15.50   23.70
   7  17   0   -0.10   19.70
   7  17   0   11.40   18.30
   9 -17   0  -14.40   20.60
  -9 -17   0   41.30   31.60
   9  17   0   23.80   21.00
   9  17   0   25.20   25.00
  -9  17   0   39.30   30.90
  11 -17   0   -0.70   26.00
 -11 -17   0   26.50   33.90
  11  17   0   27.10   36.30
  11  17   0    1.20   24.70
 -11  17   0   39.50   35.70
   0 -18   0 1510.95  110.89
   2 -18   0   53.89   17.60
  -2 -18   0   91.99   19.20
   2  18   0  106.99   24.80
   4 -18   0   98.19   21.40
  -4 -18   0   87.09   23.90
   4  18   0   85.99   21.70
   4  18   0   97.59   20.90
  -6 -18   0   52.69   25.20
   6 -18   0   37.10   19.40
  -6 -18   0   12.30   22.80
   6  18   0   89.39   24.20
   6  18   0   68.19   20.90
  -6  18   0   96.89   28.30
   8 -18   0  -10.00   21.20
  -8 -18   0   24.00   25.70
   8  18   0   17.80   23.20
  -8  18   0  -33.00   26.30
   8  18   0  -10.90   17.00
 -10 -18   0   -1.80   28.90
  10 -18   0   19.90   23.80
  10  18   0  -18.00   26.20
  10  18   0   20.00   24.60
 -10  18   0   39.90   35.40
   1 -19   0  198.98   28.60
  -1 -19   0  181.38   28.10
   1  19   0  242.98   33.60
   3 -19   0   61.49   18.30
   3  19   0   58.99   20.20
  -5 -19   0   79.89   25.50
  -5 -19   0   64.89   24.20
   5 -19   0   19.90   18.90
   5  19   0   35.30   18.50
   5  19   0   57.19   20.90
  -7 -19   0   32.10   27.70
  -7 -19   0  -29.10   22.00
   7 -19   0   14.80   20.10
  -7  19   0   31.10   27.10
   7  19   0  -37.60   17.30
   7  19   0    5.30   19.70
   9 -19   0  -10.40   21.20
  -9 -19   0   55.19   31.80
   9  19   0   54.89   27.90
  -9  19   0   65.79   33.90
   9  19   0   41.70   24.50
 -11 -19   0  -82.59   29.40
  11 -19   0   12.90   25.50
 -11  19   0   60.89   41.90
  11  19   0  -35.10   24.20
  11  19   0   52.79   37.10
   0 -20   0 2012.50  145.79
  -2 -20   0   76.69   19.70
   2 -20   0   75.89   19.50
   2  20   0   23.20   20.60
   4 -20   0  -20.60   13.20
  -4 -20   0   31.50   21.90
   4  20   0    6.90   16.70
   4  20   0   -7.20   15.00
   6 -20   0   71.59   25.10
  -6 -20   0  137.59   31.80
  -6 -20   0  104.59   30.70
   6  20   0   46.30   22.70
   6  20   0   43.00   21.80
  -8 -20   0   23.00   27.60
   8 -20   0   43.40   24.50
   8  20   0   29.10   23.70
  -8  20   0    4.10   28.60
   8  20   0   11.00   21.40
  10 -20   0   33.30   27.00
 -10 -20   0   -3.20   33.00
 -10  20   0   38.90   33.20
  10  20   0   14.10   30.10
  10  20   0   52.49   27.40
  -1 -21   0   20.00   16.10
   1 -21   0   36.60   16.50
   1  21   0   40.70   20.70
   3 -21   0   50.49   18.60
  -3 -21   0   32.60   16.50
   3  21   0   58.29   21.80
  -5 -21   0  275.87   39.60
   5 -21   0  149.88   29.20
  -5 -21   0  143.29   34.20
   5  21   0  200.78   31.50
   5  21   0  195.68   32.80
  -7 -21   0   57.09   29.00
  -7 -21   0   50.09   31.60
   7 -21   0  -11.20   21.10
   7  21   0    4.00   19.50
   7  21   0   15.60   21.90
  -9 -21   0    8.30   31.70
   9 -21   0   44.80   28.30
   9  21   0   24.70   31.10
  -9  21   0   13.60   31.00
   9  21   0   33.10   24.60
   0 -22   0   94.49   23.30
   0  22   0  163.88   31.20
   2 -22   0  162.78   28.50
  -2 -22   0  194.58   30.80
   2  22   0  249.58   37.50
   4 -22   0   80.49   22.30
  -4 -22   0   77.09   28.60
   4  22   0  102.59   27.70
   6 -22   0   33.40   23.10
  -6 -22   0   71.29   32.30
  -6 -22   0   41.30   26.70
   6  22   0   19.40   19.60
   6  22   0   56.39   23.60
   8 -22   0   -0.20   22.80
  -8 -22   0    9.10   29.80
   8  22   0    0.00   23.80
   8  22   0   16.90   23.50
  10 -22   0   68.59   31.40
 -10 -22   0   51.19   40.20
  10  22   0   17.00   30.40
 -10  22   0   21.30   37.30
  10  22   0   14.50   26.60
  -1 -23   0   13.90   16.30
   1 -23   0    7.40   15.80
   1  23   0   29.80   25.20
  -3 -23   0   -2.00   14.70
   3 -23   0    6.90   16.20
   3  23   0   29.70   21.70
  -5 -23   0   27.40   28.20
  -5 -23   0   42.70   28.00
   5 -23   0   14.30   21.60
   5  23   0   33.80   21.60
   5  23   0   36.20   22.80
  -7 -23   0    2.00   33.30
  -7 -23   0   11.50   26.80
   7 -23   0   10.30   23.40
   7  23   0   18.00   23.00
   7  23   0   48.60   28.00
  -9 -23   0  -23.60   31.00
   9 -23   0   29.00   28.80
   9  23   0    7.60   23.80
   9  23   0  -62.39   24.00
   0 -24   0  307.27   40.50
   0  24   0  348.07   46.90
  -2 -24   0   32.00   19.70
   2 -24   0   14.60   16.70
   2  24   0    0.40   23.00
   4 -24   0   18.10   19.70
  -4 -24   0   31.10   18.50
  -4 -24   0   47.10   27.60
   4  24   0   48.90   23.90
  -6 -24   0   27.70   29.90
   6 -24   0  -12.70   20.50
  -6 -24   0   22.10   29.90
   6  24   0   13.50   22.20
   6  24   0  -12.90   21.00
  -8 -24   0   -6.50   27.20
   8 -24   0   14.30   27.40
   8  24   0   27.70   24.40
   8  24   0    4.50   27.90
  -1 -25   0   15.60   18.30
   1 -25   0   40.30   21.00
   1  25   0   -2.80   23.60
  -3 -25   0   98.09   26.40
   3 -25   0   44.90   20.50
   3  25   0  105.89   30.70
  -5 -25   0   -2.40   28.60
   5 -25   0   19.80   21.00
  -5 -25   0    3.10   25.10
   5  25   0   -6.60   21.60
  -7 -25   0   20.90   28.30
   7 -25   0   -2.90   25.20
   7  25   0   21.80   28.80
   7  25   0    5.70   22.60
   0 -26   0  108.69   25.70
   0  26   0  147.89   36.10
   2 -26   0  -22.50   15.80
  -2 -26   0   27.90   19.40
   2  26   0  -14.50   21.90
   4 -26   0    7.20   18.40
  -4 -26   0  -22.60   16.00
  -4 -26   0   34.50   28.10
   4  26   0   32.50   25.00
  -6 -26   0   50.19   36.40
  -6 -26   0   -7.20   28.70
   6 -26   0   61.39   27.20
   6  26   0   26.80   26.70
   8 -26   0  -14.10   25.80
  -8 -26   0   13.20   31.70
   8  26   0   -3.10   28.80
   8  26   0   29.30   26.30
   1 -27   0   20.70   19.10
  -1 -27   0    9.10   20.90
  -1  27   0   11.00   29.40
   1  27   0   -2.00   28.80
  -3 -27   0    5.40   20.00
   3 -27   0   28.70   20.20
   3  27   0   24.00   27.10
  -5 -27   0   42.60   36.30
   5 -27   0   44.30   24.80
  -5 -27   0   15.10   30.80
  -5 -27   0    9.50   19.90
   5  27   0   45.00   28.40
  -7 -27   0   17.20   32.10
   7 -27   0  -17.60   23.40
   7  27   0   15.00   29.50
   0 -28   0   79.59   24.40
   0  28   0   23.30   28.70
  -2 -28   0   25.00   21.80
   2 -28   0    1.20   19.00
   2  28   0    5.90   26.30
  -4 -28   0   36.50   25.20
   4 -28   0   22.90   21.40
  -4 -28   0   85.89   37.60
   4  28   0   45.90   30.10
  -6 -28   0   18.70   36.90
   6 -28   0  -10.40   23.30
  -6 -28   0   35.50   24.10
  -6 -28   0  -24.40   34.40
   6  28   0   -6.30   27.80
   1 -29   0   16.70   21.30
  -1 -29   0   -3.50   21.20
   1  29   0  -48.80   25.20
  -1  29   0   16.70   31.00
   3 -29   0   -5.70   19.50
  -3 -29   0   29.80   23.20
   3  29   0   21.70   29.00
   5 -29   0    7.40   23.60
  -5 -29   0   15.30   35.90
  -5 -29   0    3.90   23.20
  -5 -29   0   12.70   31.40
   5  29   0   12.70   29.10
   0 -30   0   47.00   25.80
   0  30   0   64.19   35.30
   2 -30   0  -24.60   20.50
  -2 -30   0   13.50   24.00
  -2  30   0   33.20   36.60
   2  30   0    5.60   30.60
  -4 -30   0   41.90   36.30
   4 -30   0    8.20   21.30
  -4 -30   0   -4.10   23.80
   4  30   0  -21.90   27.60
  -1 -31   0   -3.00   21.10
   1 -31   0   -1.40   22.50
  -1  31   0   26.10   36.50
   1  31   0   -1.50   31.30
   3 -31   0   14.40   22.40
  -3 -31   0  -11.70   22.30
   3  31   0   43.90   32.70
   0 -32   0   21.40   25.70
   0  32   0   39.40   40.00
   2 -32   0   20.20   24.90
  -2 -32   0   37.50   27.00
  14   0  -1    5.80   27.10
 -14   0   1   27.70   37.90
  14   0  -1   10.00   37.20
 -12   0   1  -21.40   27.80
  12   0  -1   38.20   23.20
  12   0  -1   -9.00   27.90
  10   0  -1   19.10   17.60
 -10   0   1   35.80   26.90
  10   0  -1    6.50   23.30
  -8   0   1  202.78   29.90
   8   0  -1  124.89   23.40
   8   0  -1  187.28   26.10
   6   0  -1  164.88   22.80
  -6   0   1  147.99   25.40
   6   0  -1  165.28   22.90
   6   0  -1  155.08   17.50
   4   0  -1   -0.10    9.90
   4   0  -1   -5.80    8.90
  -4   0   1    4.10   13.50
   4   0  -1   -7.20    6.00
   2   0  -1  204.18   16.70
  -2   0   1  205.78   16.70
  -2   0   1  176.48   14.80
  -2   0   1  186.08   16.30
   2   0  -1  183.48   17.00
   2   0  -1  179.78   16.90
  -2   0   1  195.08   17.20
   0   0   1    0.00    0.50
   0   0  -1    0.60    0.80
   0   0   1    0.10    0.60
   0   0  -1    0.50    1.00
   2   0   1   20.70    8.80
   2   0   1   19.70    7.60
   2   0   1   20.00    6.60
  -2   0  -1   22.20    7.20
   2   0   1   28.80    6.40
  -2   0  -1    6.60    5.70
  -2   0  -1   14.40    9.40
  -2   0  -1   32.30    7.50
  -4   0  -1    7.50    8.00
   4   0   1   17.40    8.00
  -4   0  -1   31.60   14.70
   4   0   1    7.30   10.50
   4   0   1   10.20    8.90
   6   0   1   98.69   18.90
   6   0   1  117.09   18.60
  -6   0  -1   89.19   22.30
   8   0   1   18.40   15.50
  -8   0  -1   20.00   18.60
   8   0   1   37.50   17.20
  10   0   1   92.89   25.10
 -10   0  -1  159.88   33.60
  10   0   1  245.08   32.90
 -12   0  -1   49.10   32.00
  12   0   1   99.19   31.90
  12   0   1   52.39   25.40
  13  -1  -1    5.60   24.70
 -13  -1   1   88.29   36.50
  13  -1  -1   17.10   33.30
  13   1  -1   33.90   25.60
  13   1  -1    5.00   33.10
 -13   1   1  -28.70   30.50
  11  -1  -1  113.89   31.20
 -11  -1   1  104.69   33.90
  11  -1  -1   78.99   23.60
 -11   1   1   89.29   32.70
  11   1  -1  104.09   31.10
  11   1  -1   69.79   25.90
  -9  -1   1  123.09   27.50
   9  -1  -1  118.79   24.80
   9  -1  -1   44.60   19.70
  -9   1   1  103.89   27.40
   9   1  -1   85.99   22.50
   9   1  -1   85.69   22.90
   7  -1  -1   51.59   15.70
   7  -1  -1   25.80   14.60
  -7  -1   1   43.70   19.70
   7   1  -1   34.20   15.70
   7   1  -1   23.90    9.90
  -7   1   1   32.90   19.70
   7   1  -1   24.70   14.10
   5  -1  -1  342.97   30.90
   5  -1  -1  301.77   27.30
  -5  -1   1  338.77   33.10
   5  -1  -1  352.86   30.80
  -5   1   1  310.97   34.80
   5   1  -1  349.57   27.20
   5   1  -1  345.67   30.90
   5   1  -1  371.46   31.30
  -3  -1   1   21.80   12.00
   3  -1  -1   30.30   10.30
  -3  -1   1   12.40    8.90
   3  -1  -1   37.80   11.90
   3  -1  -1   41.10   11.70
   3   1  -1   19.10   10.20
   3   1  -1   40.90    6.30
  -3   1   1   11.60   12.30
   3   1  -1   33.20   10.50
  -3   1   1   13.30    8.40
   3   1  -1   35.80   10.60
  -1  -1   1   -6.80    2.30
  -1  -1   1   -4.60    2.70
   1  -1  -1   -2.00    1.80
   1  -1  -1   -1.50    3.00
   1  -1  -1   -5.80    3.50
   1  -1  -1   -2.60    3.00
  -1  -1   1   -1.90    2.30
   1   1  -1    0.20    3.30
  -1   1   1   -4.90    2.80
   1   1  -1   -1.60    2.90
  -1   1   1   -4.00    2.50
  -1   1   1   -8.90    3.00
   1   1  -1   -4.90    3.20
   3  -1   1  191.18   17.60
   3  -1   1  134.19   19.70
   3  -1   1  124.19   14.80
  -3  -1  -1  141.39   18.80
   3  -1   1  126.59   14.80
  -3  -1  -1  103.09   14.60
  -3  -1  -1  123.09   14.70
  -3   1  -1  154.88   19.60
   3   1   1  146.59   16.60
   3   1   1  141.09   16.10
   3   1   1  139.19   14.50
  -3   1  -1  127.29   14.40
   3   1   1  149.79   19.90
  -5  -1  -1  182.98   20.80
   5  -1   1  172.48   20.00
   5  -1   1  155.68   21.60
  -5  -1  -1  172.88   24.80
   5   1   1  185.48   18.90
   5   1   1  135.89   20.50
   5   1   1  162.38   20.00
  -5   1  -1  143.69   23.90
   7  -1   1   -2.50   14.30
   7  -1   1    1.50   13.20
  -7  -1  -1    3.80   18.10
  -7   1  -1    1.70   17.40
   7   1   1    3.80   13.50
   7   1   1    8.50   12.90
   9  -1   1   13.60   18.00
  -9  -1  -1   94.59   25.90
   9  -1   1  118.79   24.50
  -9   1  -1   42.30   22.60
   9   1   1  128.19   24.80
   9   1   1   45.00   19.20
 -11  -1  -1  189.28   38.40
  11  -1   1  109.39   27.80
  11  -1   1  206.18   35.00
  11   1   1  174.98   35.50
 -11   1  -1  183.58   37.50
  11   1   1  126.09   29.90
  13  -1   1   10.50   26.00
 -13  -1  -1  -38.60   30.10
  13  -1   1    1.60   39.80
  13   1   1   -7.60   23.90
 -13   1  -1  -23.90   30.30
  13   1   1   26.00   33.10
  14  -2  -1   11.70   28.20
 -14  -2   1   53.89   40.50
 -14   2   1    1.80   37.80
  14   2  -1   62.89   32.40
  12  -2  -1   44.40   28.80
 -12  -2   1   38.80   31.80
  12  -2  -1   -1.30   19.80
  12   2  -1  -13.20   19.80
  12   2  -1   25.40   31.10
 -12   2   1   41.80   33.20
  10  -2  -1  106.39   26.70
 -10  -2   1   54.19   27.10
  10  -2  -1   37.70   20.50
 -10   2   1   83.19   29.30
  10   2  -1   11.40   18.50
  10   2  -1  115.09   27.70
   8  -2  -1   38.70   17.30
   8  -2  -1   50.49   17.50
  -8  -2   1   44.50   21.30
   8   2  -1   15.10   15.50
  -8   2   1   21.10   20.50
   8   2  -1   49.90   17.00
   6  -2  -1   55.19   16.10
   6  -2  -1   49.90   14.90
  -6  -2   1   28.10   18.20
   6   2  -1   50.39   15.40
   6   2  -1   40.80   14.70
  -6   2   1   53.29   19.90
   6   2  -1   38.30   10.30
   4  -2  -1   19.60   11.90
   4  -2  -1   35.00   11.40
  -4  -2   1   12.50    7.50
  -4  -2   1   44.80   14.80
   4   2  -1   20.20    6.50
   4   2  -1   35.40   11.50
  -4   2   1   43.80   15.50
   4   2  -1   11.30   11.50
  -2  -2   1    8.60    7.00
   2  -2  -1    6.90    7.70
   2  -2  -1    7.20    4.90
   2  -2  -1   15.60    8.30
  -2  -2   1   12.70    8.80
  -2  -2   1    3.00    3.80
   2  -2  -1    5.60    7.60
  -2  -2   1   22.50    7.00
  -2   2   1   11.30    7.30
  -2   2   1   12.70    9.00
   2   2  -1   -1.40    7.60
   2   2  -1    7.10    7.00
   2   2  -1   -0.40    7.40
  -2   2   1   10.60    7.30
   0  -2  -1    1.00    2.30
   0  -2  -1   -0.40    2.10
   0  -2   1   -0.90    1.50
   0   2   1   -2.10    1.50
   0   2  -1   -2.60    2.30
   0   2   1    2.00    1.90
   2  -2   1  102.79   14.20
  -2  -2  -1  101.29   11.70
   2  -2   1  117.29   13.30
  -2  -2  -1   91.49   12.20
   2  -2   1  122.79   12.40
  -2  -2  -1   89.39   12.30
  -2  -2  -1  120.99   14.90
   2   2   1  117.89   13.00
   2   2   1  113.09   14.00
  -2   2  -1  111.59   12.90
   2   2   1  122.79   13.20
  -2   2  -1  114.69   15.40
  -2   2  -1   91.89   11.10
   2   2   1  123.59   12.70
   4  -2   1  200.18   21.60
   4  -2   1  200.58   20.30
  -4  -2  -1  181.78   23.80
   4  -2   1  150.08   18.50
  -4  -2  -1  164.48   17.90
  -4   2  -1  144.39   18.00
  -4   2  -1  168.28   23.50
   4   2   1  174.08   18.10
   4   2   1  186.68   20.70
   4   2   1  219.78   21.60
  -6  -2  -1    8.00   13.40
   6  -2   1   22.50   13.80
  -6  -2  -1    3.10   15.70
   6  -2   1   23.60   14.50
  -6   2  -1   -4.70   15.80
   6   2   1    1.80   12.20
   6   2   1   -2.50   11.90
  -8  -2  -1   71.69   22.50
   8  -2   1   67.69   18.20
   8  -2   1   59.89   19.50
   8   2   1   43.80   17.90
  -8   2  -1   43.60   22.00
   8   2   1   32.20   18.60
  10  -2   1   -7.70   23.00
 -10  -2  -1   -0.20   24.20
  10  -2   1   11.20   20.30
  10   2   1    4.10   19.10
  10   2   1  -10.70   22.90
 -10   2  -1  -19.80   23.50
  12  -2   1   27.40   23.50
  12  -2   1  -10.70   28.30
 -12  -2  -1    9.60   29.80
  12   2   1  -13.90   29.40
  12   2   1   17.20   23.60
 -12   2  -1   17.40   29.10
  13  -3  -1   -7.40   30.80
 -13  -3   1    3.80   32.30
  13  -3  -1  -11.30   21.10
 -13   3   1  -14.40   31.10
  13   3  -1   23.90   25.10
  13   3  -1   22.40   35.20
  11  -3  -1  186.58   34.00
 -11  -3   1  246.88   40.80
  11  -3  -1  270.77   37.40
  11   3  -1  275.47   39.30
  11   3  -1  129.39   31.10
 -11   3   1  155.98   37.30
  -9  -3   1  116.59   27.10
   9  -3  -1   22.60   18.40
   9  -3  -1   85.99   21.70
   9   3  -1   47.50   18.70
   9   3  -1  109.99   24.30
  -9   3   1  101.59   26.40
  -7  -3   1    0.70   16.90
   7  -3  -1   20.90   14.60
   7  -3  -1   34.80   15.30
   7   3  -1    9.20   12.80
  -7   3   1   -5.50   17.80
   7   3  -1   22.30   14.60
   7   3  -1   12.60    9.80
   5  -3  -1  161.98   20.50
  -5  -3   1  137.69   15.90
  -5  -3   1  184.08   24.30
   5  -3  -1  128.89   20.50
  -5   3   1  197.08   24.90
   5   3  -1  159.88   21.80
   5   3  -1  116.59   19.00
   5   3  -1  155.58   15.90
   3  -3  -1  346.37   28.90
  -3  -3   1  324.17   29.60
   3  -3  -1  367.36   29.10
   3  -3  -1  378.06   28.60
  -3  -3   1  345.27   28.90
  -3  -3   1  347.57   25.30
   3   3  -1  338.77   28.10
  -3   3   1  373.36   30.20
   3   3  -1  336.37   29.50
   3   3  -1  295.57   25.70
  -3   3   1  340.67   28.40
   3   3  -1  320.47   28.50
  -1  -3   1 3341.37  231.08
   1  -3  -1 3372.66  230.88
   1  -3  -1 3401.06  230.68
  -1  -3   1 3293.67  230.48
  -1   3   1 3391.26  230.88
   1   3  -1 3343.57  230.58
   1   3  -1 3378.46  231.08
  -1   3   1 3495.25  230.68
   1  -3   1  749.13   53.59
   1  -3   1  757.72   52.79
  -1  -3  -1  719.33   53.29
  -1  -3  -1  756.22   52.79
  -1  -3  -1  758.32   53.39
  -1   3  -1  740.93   52.69
   1   3   1  767.02   53.19
   1   3   1  776.22   53.39
  -1   3  -1  697.73   53.49
   1   3   1  770.92   52.89
  -3  -3  -1  101.39   16.90
   3  -3   1  101.29   14.10
  -3  -3  -1  109.89   14.70
   3  -3   1  122.19   15.30
  -3  -3  -1  112.79   13.30
   3   3   1  135.99   16.20
  -3   3  -1   79.09   13.10
  -3   3  -1  103.19   17.90
   3   3   1  124.19   15.40
   3   3   1  109.49   13.50
  -5  -3  -1  745.43   54.79
  -5  -3  -1  722.73   57.99
   5  -3   1  730.23   56.49
   5  -3   1  737.03   55.39
   5   3   1  782.82   56.79
   5   3   1  746.73   56.69
  -5   3  -1  659.43   58.19
   5   3   1  721.13   54.29
  -7  -3  -1    9.00   16.10
   7  -3   1    7.00   14.80
  -7  -3  -1   36.10   17.20
   7  -3   1    6.30   14.80
   7   3   1   28.40   14.80
   7   3   1    1.40   13.40
  -7   3  -1   40.50   20.10
  -9  -3  -1   43.90   26.10
   9  -3   1   82.69   22.60
   9  -3   1   37.70   20.30
   9   3   1   26.00   18.50
   9   3   1   71.89   23.20
  -9   3  -1   23.50   22.30
  11  -3   1   23.80   28.20
  11  -3   1   48.00   23.70
 -11  -3  -1   30.90   28.50
 -11   3  -1   72.59   30.40
  11   3   1   26.50   21.60
  11   3   1   37.90   27.80
  13  -3   1   -7.90   24.20
 -13  -3  -1  -14.20   31.30
  13   3   1  -20.10   24.30
 -13   3  -1    1.30   33.00
  13   3   1   21.30   34.40
  12  -4  -1   46.30   30.10
 -12  -4   1   20.50   31.00
  12  -4  -1  -18.10   19.80
 -12   4   1   69.39   34.10
  12   4  -1   32.60   24.80
  12   4  -1  -12.70   29.20
 -10  -4   1   40.10   27.50
  10  -4  -1  128.29   28.40
  10  -4  -1   71.99   23.70
 -10   4   1    1.00   26.40
  10   4  -1   78.89   27.00
  10   4  -1   61.29   21.90
  -8  -4   1   65.79   21.60
   8  -4  -1   35.80   16.50
   8  -4  -1   52.19   17.80
   8   4  -1   34.00   15.90
  -8   4   1   64.89   22.50
   8   4  -1   17.30   15.90
   6  -4  -1   97.49   17.80
  -6  -4   1  115.99   22.90
  -6  -4   1   77.99   13.90
   6  -4  -1  102.29   19.10
  -6   4   1  112.69   22.10
   6   4  -1  120.89   19.70
   6   4  -1   83.59   17.20
   6   4  -1   80.19   12.90
  -4  -4   1   48.00   14.90
   4  -4  -1   28.90   11.30
  -4  -4   1   29.80    7.10
   4  -4  -1   44.50   12.30
   4   4  -1   20.50   10.80
  -4   4   1   26.00   14.90
   4   4  -1   32.80    8.20
   4   4  -1   34.90   12.60
  -2  -4   1  143.19   16.20
   2  -4  -1  176.78   17.70
   2  -4  -1  180.98   19.60
  -2  -4   1  177.58   18.90
  -2  -4   1  158.98   18.50
   2   4  -1  136.29   18.20
   2   4  -1  149.29   16.80
  -2   4   1  163.98   17.90
  -2   4   1  154.58   18.80
  -2   4   1  181.58   17.60
   2   4  -1  177.88   18.80
   0  -4  -1   -3.70    4.90
   0  -4  -1    4.90    5.30
   0   4   1    7.80    5.20
   2  -4   1 3315.67  220.18
  -2  -4  -1 3160.68  220.78
  -2  -4  -1 3032.30  220.08
   2  -4   1 3109.69  220.98
  -2  -4  -1 3167.78  219.98
  -2  -4  -1 3293.37  220.68
   2   4   1 3324.57  220.38
   2   4   1 3234.78  220.68
  -2   4  -1 3063.69  220.88
   2   4   1 3283.77  220.18
  -2   4  -1 3201.18  219.68
  -2   4  -1 3235.68  220.08
   2   4   1 3253.27  220.48
  -4  -4  -1  259.77   24.10
   4  -4   1  309.27   26.40
  -4  -4  -1  268.97   27.90
   4  -4   1  289.47   25.50
   4   4   1  275.17   24.20
   4   4   1  280.97   26.10
   4   4   1  276.17   26.20
  -4   4  -1  266.17   28.20
  -4   4  -1  253.77   23.80
  -6  -4  -1   12.10   12.30
   6  -4   1  -17.70   11.60
   6  -4   1    8.00   12.90
  -6  -4  -1    2.00   16.10
  -6   4  -1   20.80   16.60
   6   4   1   14.20   12.90
   6   4   1    7.80   14.80
   8  -4   1   33.80   18.20
  -8  -4  -1   27.70   18.30
   8  -4   1   20.60   17.80
  -8  -4  -1   48.10   20.00
  -8   4  -1   44.30   20.60
   8   4   1   41.70   18.70
   8   4   1   36.80   16.80
  10  -4   1  139.99   29.00
  10  -4   1   40.70   21.30
 -10  -4  -1  111.39   29.60
  10   4   1   33.40   20.10
  10   4   1  145.89   29.10
 -10   4  -1   89.89   28.90
  12  -4   1   -1.50   22.80
 -12  -4  -1  -15.40   27.10
  12  -4   1   15.90   29.50
 -12   4  -1  -10.50   26.50
  12   4   1  -13.30   22.60
  12   4   1    3.50   31.20
  13  -5  -1    3.10   31.90
 -13  -5   1   22.60   36.50
  13  -5  -1  -18.70   22.80
  13   5  -1  -21.10   34.20
  13   5  -1   -2.10   23.00
 -13   5   1   23.40   36.70
  11  -5  -1   47.90   23.90
  11  -5  -1   92.99   30.00
 -11  -5   1   46.20   28.90
 -11   5   1   51.29   30.90
  11   5  -1   52.69   22.80
  11   5  -1   91.79   32.00
   9  -5  -1   78.99   23.90
   9  -5  -1   31.10   19.40
  -9  -5   1   89.69   25.60
   9   5  -1  107.09   25.10
   9   5  -1   77.89   21.10
  -9   5   1   32.50   23.30
  -7  -5   1   28.20   13.50
   7  -5  -1   30.50   15.90
   7  -5  -1   57.19   17.20
  -7  -5   1   25.80   18.50
   7   5  -1   28.20   11.60
   7   5  -1   18.40   14.30
  -7   5   1   -5.30   18.40
   7   5  -1   37.30   17.20
  -5  -5   1  -11.20   14.60
   5  -5  -1    6.50   11.90
  -5  -5   1    9.50    8.20
   5  -5  -1    8.50   12.80
  -5   5   1   22.50   16.30
   5   5  -1   18.40   11.50
   5   5  -1   16.80   12.40
   3  -5  -1  264.47   24.50
   3  -5  -1  233.08   23.70
  -3  -5   1  258.97   24.90
  -3  -5   1  241.38   21.40
  -3   5   1  279.27   26.10
   3   5  -1  255.47   25.10
   3   5  -1  282.17   24.10
  -1  -5   1   13.40    8.90
  -1  -5   1   12.20    7.20
   1  -5  -1    3.90    9.70
   1  -5  -1   13.50    7.80
   1   5  -1    6.60    7.60
   1   5  -1   26.90    9.30
  -1   5   1   -6.40    6.70
   1  -5   1   13.80    8.00
  -1  -5  -1   20.70    7.90
   1  -5   1   33.00   11.20
  -1   5  -1   23.80    7.90
  -1   5  -1   33.00   12.20
   1   5   1   25.00    8.70
   1   5   1   16.70    9.10
   3  -5   1   71.39   13.70
  -3  -5  -1   85.39   13.00
  -3  -5  -1  112.79   17.90
   3   5   1   77.79   14.10
   3   5   1   80.09   13.50
  -3   5  -1   99.69   13.40
  -3   5  -1  114.59   18.00
   3   5   1   91.99   13.80
  -5  -5  -1  206.48   21.50
  -5  -5  -1  256.47   29.40
   5  -5   1  182.28   23.40
   5  -5   1  218.98   24.20
   5   5   1  209.18   25.00
  -5   5  -1  213.18   28.70
   5   5   1  207.88   25.00
  -7  -5  -1  -13.60   13.90
  -7  -5  -1   -9.10   15.90
   7  -5   1  -14.70   13.80
   7  -5   1   14.60   14.50
   7   5   1   15.50   16.90
  -7   5  -1   -3.80   16.90
   7   5   1    2.30   13.40
   9  -5   1  107.89   24.50
   9  -5   1  168.58   27.00
  -9  -5  -1  157.78   29.80
   9   5   1  148.49   27.20
   9   5   1  109.79   24.10
  -9   5  -1   86.29   27.70
  11  -5   1   43.90   30.40
  11  -5   1    4.60   21.40
 -11  -5  -1   93.19   32.60
  11   5   1   46.90   23.40
 -11   5  -1   34.90   27.00
  11   5   1   83.79   29.50
  13  -5   1   -9.60   24.90
 -13  -5  -1   43.30   35.80
 -13   5  -1   12.90   32.90
  13   5   1   19.60   25.20
  13   5   1   10.80   34.30
 -12  -6   1   19.90   29.40
  12  -6  -1  -50.89   29.80
  12  -6  -1   44.60   25.00
  12   6  -1  -42.60   28.40
  12   6  -1   46.70   24.50
 -12   6   1   24.50   31.60
 -10  -6   1   14.30   23.50
  10  -6  -1   55.99   28.20
  10  -6  -1   19.20   20.20
  10   6  -1   22.00   19.30
  10   6  -1   77.29   26.20
 -10   6   1   45.70   28.20
   8  -6  -1    4.50   16.80
  -8  -6   1   15.20   15.80
   8  -6  -1   37.70   19.50
  -8  -6   1   29.00   20.80
   8   6  -1    6.90   14.50
   8   6  -1   35.00   17.70
  -8   6   1   12.80   21.70
  -6  -6   1   27.10   10.30
   6  -6  -1   37.50   15.30
  -6  -6   1   32.50   17.70
   6  -6  -1   22.90   14.40
   6   6  -1   12.10   12.00
   6   6  -1    0.40   12.20
  -6   6   1   -2.80   17.30
  -4  -6   1   38.40   15.00
  -4  -6   1   30.60   10.10
   4  -6  -1   31.90   13.10
   4  -6  -1   31.10   13.10
  -4   6   1   -7.70   13.90
   4   6  -1   27.90   13.10
   4   6  -1   36.60   12.20
   2  -6  -1   15.10    9.90
  -2  -6   1   24.90   11.60
   2  -6  -1   17.90   11.40
   2   6  -1   13.70   10.10
  -2   6   1   40.90   14.30
   2   6  -1   27.80    9.80
   0  -6   1   96.39   13.20
   0  -6  -1  106.09   13.30
   0  -6  -1  118.59   13.80
  -2  -6  -1 1001.80   72.99
  -2  -6  -1  932.61   72.09
   2  -6   1 1043.70   72.19
   2   6   1 1031.80   72.19
   2   6   1  979.30   72.69
  -2   6  -1 1049.59   73.49
  -4  -6  -1  188.78   20.00
  -4  -6  -1  161.18   23.40
   4  -6   1  128.59   19.70
   4   6   1  135.69   18.20
   4   6   1  162.78   19.70
   4   6   1  155.48   20.40
  -4   6  -1  123.79   21.90
  -6  -6  -1   24.80   17.20
  -6  -6  -1   10.30   12.70
   6  -6   1   23.70   14.10
   6  -6   1   30.60   14.00
  -6   6  -1   34.60   19.00
   6   6   1   23.30   13.70
   6   6   1   22.60   15.10
  -8  -6  -1   76.69   24.10
  -8  -6  -1   75.19   21.20
   8  -6   1   27.00   17.00
   8  -6   1   36.10   20.20
  -8   6  -1   49.70   23.80
   8   6   1   62.09   18.80
   8   6   1  103.29   24.70
  10  -6   1   70.59   25.80
  10  -6   1   23.60   19.60
 -10  -6  -1   51.09   29.00
  10   6   1   44.10   20.80
 -10   6  -1   -1.50   24.10
  10   6   1   39.20   25.00
  12  -6   1   -6.00   21.70
 -12  -6  -1   -9.40   28.50
  12  -6   1  -42.10   28.80
 -12   6  -1   45.90   33.20
  12   6   1   14.00   24.00
  12   6   1   72.99   32.70
  13  -7  -1   -4.60   32.80
 -13  -7   1  -52.59   34.80
  13  -7  -1    3.00   24.70
  13   7  -1   39.90   27.10
  13   7  -1   33.10   36.70
 -13   7   1  -21.30   32.60
 -11  -7   1   22.20   30.00
  11  -7  -1   -4.60   20.00
  11  -7  -1   85.69   31.30
 -11   7   1   85.79   34.10
  11   7  -1   48.70   22.90
  11   7  -1   51.19   29.60
   9  -7  -1   55.99   24.10
   9  -7  -1   49.10   20.70
  -9  -7   1   14.20   21.80
   9   7  -1   41.20   19.70
   9   7  -1   56.89   22.70
  -9   7   1   39.40   24.70
  -7  -7   1  244.78   32.70
   7  -7  -1  252.17   30.60
  -7  -7   1  323.37   26.20
   7  -7  -1  180.38   28.30
  -7   7   1  248.28   34.20
   7   7  -1  292.47   33.70
   7   7  -1  180.58   27.40
   5  -7  -1  388.76   35.20
  -5  -7   1  404.36   32.30
   5  -7  -1  385.86   34.80
  -5  -7   1  423.46   37.40
  -5   7   1  386.76   37.30
   5   7  -1  390.66   36.40
   5   7  -1  363.26   34.60
   3  -7  -1   24.60   11.40
  -3  -7   1   15.40   13.20
   3   7  -1   40.10   12.20
   3   7  -1   20.10   11.20
  -3   7   1   13.50   14.50
   1  -7  -1   86.99   13.70
   1  -7  -1  114.59   16.60
   1   7  -1  102.19   15.70
   1   7  -1  110.09   14.80
   1  -7   1  176.08   18.20
   1   7   1  183.88   18.70
   3  -7   1  545.35   43.80
  -3  -7  -1  558.54   45.20
  -3  -7  -1  541.55   44.00
   3   7   1  569.14   43.90
  -3   7  -1  564.24   45.80
   3   7   1  589.84   44.80
  -5  -7  -1   48.20   14.00
  -5  -7  -1   73.49   19.40
   5  -7   1   82.79   17.40
   5   7   1   57.09   16.10
   5   7   1   50.39   14.90
  -5   7  -1   53.49   18.70
   7  -7   1  -11.30   11.90
   7  -7   1   21.20   16.60
  -7  -7  -1    0.80   15.10
  -7  -7  -1   -4.00   17.40
   7   7   1   14.40   14.20
  -7   7  -1  -21.00   16.90
   7   7   1   10.40   15.60
  -9  -7  -1   75.49   26.50
   9  -7   1   26.20   22.00
   9  -7   1   50.89   21.60
  -9  -7  -1  -12.80   20.50
  -9   7  -1   18.80   24.50
   9   7   1   12.00   21.20
   9   7   1   24.90   17.50
  11  -7   1   96.19   31.70
 -11  -7  -1   46.60   31.70
  11  -7   1   82.79   26.70
 -11   7  -1   61.69   33.90
  11   7   1   72.09   24.50
  11   7   1  143.99   34.00
  13  -7   1   -7.30   25.50
 -13  -7  -1  -32.30   32.00
 -13   7  -1   -2.00   36.20
  13   7   1  -16.60   22.30
  13   7   1   21.60   37.70
 -12  -8   1   -5.50   31.20
  12  -8  -1   25.80   30.30
  12  -8  -1    7.70   22.40
 -12   8   1   14.00   31.70
  12   8  -1  -16.80   20.20
  12   8  -1  -10.90   31.60
  10  -8  -1   26.00   25.60
 -10  -8   1   63.99   28.60
  10  -8  -1    3.80   22.00
 -10   8   1    7.20   27.20
  10   8  -1    6.20   19.00
  10   8  -1    1.50   22.80
  -8  -8   1  160.48   30.30
   8  -8  -1   74.69   21.00
  -8  -8   1  176.78   22.50
   8  -8  -1  180.98   25.70
   8   8  -1  142.39   27.40
  -8   8   1  115.39   27.60
   8   8  -1   60.79   20.00
  -6  -8   1  194.68   20.60
   6  -8  -1  155.48   23.60
  -6  -8   1  243.78   30.90
   6  -8  -1  136.39   22.50
  -6   8   1  153.58   26.70
   6   8  -1  188.08   24.60
   6   8  -1  149.69   23.80
  -4  -8   1  271.77   26.30
   4  -8  -1  267.57   27.50
  -4  -8   1  301.27   29.40
  -4   8   1  385.06   32.30
   4   8  -1  280.67   29.40
   4   8  -1  245.68   27.30
   2  -8  -1   81.79   13.30
   2   8  -1   59.79   14.00
   2   8  -1   72.39   13.90
  -2   8   1   80.09   17.40
   0  -8  -1   29.50   10.20
   0  -8   1   19.40    9.30
   2  -8   1  547.95   40.30
  -2  -8  -1  482.75   41.30
   2   8   1  477.85   40.80
   2   8   1  554.24   40.40
  -2   8  -1  479.45   41.90
  -4  -8  -1  152.78   19.00
  -4  -8  -1   78.19   19.10
   4  -8   1  113.79   19.00
  -4   8  -1   92.89   20.90
   4   8   1  125.49   19.70
   4   8   1  150.18   19.70
  -6  -8  -1   34.70   18.30
   6  -8   1  -12.50   12.20
  -6  -8  -1   45.10   13.70
  -6   8  -1   23.10   18.10
   6   8   1   14.70   15.30
   6   8   1   -4.90   12.30
   8  -8   1   85.89   21.70
   8  -8   1   81.19   22.60
  -8  -8  -1   90.49   23.10
  -8  -8  -1   90.79   26.60
   8   8   1   42.80   17.80
   8   8   1   81.29   25.10
  -8   8  -1   44.50   23.20
  10  -8   1   35.60   23.60
 -10  -8  -1   45.10   26.40
  10  -8   1  103.59   28.20
  10   8   1   59.99   23.10
 -10   8  -1   14.60   26.70
  10   8   1   17.10   24.60
  12  -8   1   20.10   23.90
 -12  -8  -1    7.70   32.40
  12  -8   1   26.60   36.30
  12   8   1   19.60   23.60
  12   8   1   37.80   32.30
 -12   8  -1   11.40   31.10
  13  -9  -1  -64.29   21.60
  13  -9  -1  -32.60   37.00
 -13  -9   1    5.90   36.20
  13   9  -1   12.90   36.00
  13   9  -1   -1.70   26.40
 -13   9   1   19.60   36.60
  11  -9  -1    8.50   28.50
  11  -9  -1   39.30   23.40
 -11  -9   1   85.59   32.30
  11   9  -1   39.00   26.90
  11   9  -1    4.30   19.80
 -11   9   1   49.70   32.50
  -9  -9   1    2.10   23.40
   9  -9  -1   23.40   20.30
   9  -9  -1   70.49   24.90
  -9   9   1    7.00   23.50
   9   9  -1   24.60   18.30
   9   9  -1   63.59   26.20
  -7  -9   1   -1.60   19.00
   7  -9  -1    9.40   14.60
  -7  -9   1   38.30   14.30
  -7   9   1   26.10   19.40
   7   9  -1    4.20   13.50
   7   9  -1   52.89   18.80
   5  -9  -1   46.70   15.90
  -5  -9   1   51.19   18.70
  -5  -9   1   23.30   12.70
   5   9  -1   53.69   17.40
   5   9  -1   61.89   16.10
  -5   9   1   47.40   18.60
   3  -9  -1   82.79   14.90
  -3  -9   1   51.59   15.70
   3   9  -1   53.39   14.60
   3   9  -1   65.89   14.50
  -3   9   1   87.29   19.10
   1  -9  -1   67.29   12.70
   1   9  -1   47.10   13.30
   1  -9   1    7.60    9.30
   1   9   1    7.90    8.80
  -3  -9  -1  184.18   22.80
   3  -9   1  151.58   21.30
  -3  -9  -1  195.28   25.80
  -3   9  -1  179.58   25.10
   3   9   1  179.48   21.90
   3   9   1  177.38   22.80
   5  -9   1  257.37   30.90
  -5  -9  -1  288.67   34.10
  -5  -9  -1  281.27   29.00
  -5   9  -1  296.47   35.30
   5   9   1  279.27   30.30
   5   9   1  307.27   29.10
   7  -9   1   16.30   14.90
  -7  -9  -1   74.09   22.90
  -7  -9  -1   71.99   18.40
  -7   9  -1   56.69   21.00
   7   9   1   55.99   17.30
   7   9   1   36.70   18.10
   9  -9   1   66.69   22.10
  -9  -9  -1  144.69   29.60
  -9  -9  -1   34.50   26.40
   9   9   1   39.40   20.40
   9   9   1  161.58   31.70
  -9   9  -1    2.90   22.70
 -11  -9  -1   63.39   30.50
  11  -9   1   11.30   25.20
  11  -9   1   43.80   30.70
  11   9   1   91.59   30.80
  11   9   1   -4.70   19.90
 -11   9  -1   46.20   29.30
 -13  -9  -1    0.60   34.10
  13  -9   1   29.60   29.20
 -13   9  -1  -57.69   29.70
  13   9   1   40.00   26.80
  13   9   1  -47.30   35.20
 -12 -10   1   -0.40   30.60
  12 -10  -1  -10.10   21.80
  12  10  -1  -26.20   27.80
 -12  10   1   69.49   35.20
  12  10  -1  -19.10   22.50
 -10 -10   1   51.89   29.20
  10 -10  -1   55.89   24.70
 -10  10   1   60.69   30.40
  10  10  -1   35.20   20.60
  10  10  -1   24.20   27.80
  -8 -10   1  136.89   20.50
  -8 -10   1   96.49   25.10
   8 -10  -1   21.30   16.50
  -8  10   1   87.19   27.00
   8  10  -1   63.09   21.10
   8  10  -1   34.10   17.90
  -6 -10   1  206.78   30.10
  -6 -10   1  248.78   25.80
   6 -10  -1  132.09   24.00
  -6  10   1  191.78   29.20
   6  10  -1  139.39   24.10
   6  10  -1  223.48   28.20
  -4 -10   1   67.09   14.30
  -4 -10   1   66.89   19.10
   4 -10  -1   46.80   14.90
   4  10  -1   43.80   15.00
   4  10  -1   62.09   14.50
  -4  10   1   40.20   19.00
   2 -10  -1    6.10   10.20
   2  10  -1  -11.50    9.50
   2  10  -1    9.40   12.00
   0 -10  -1  129.49   17.20
   0 -10   1  104.69   16.00
   2 -10   1  139.69   18.90
   2  10   1  137.49   18.80
   2  10   1  122.29   20.40
  -4 -10  -1  746.73   59.89
  -4 -10  -1  759.92   58.79
   4 -10   1  782.82   59.09
  -4  10  -1  732.33   60.29
   4  10   1  711.93   58.89
   4  10   1  803.42   59.19
  -6 -10  -1    5.60   15.10
   6 -10   1   10.40   15.20
  -6 -10  -1    9.90   18.00
   6  10   1   13.90   15.30
  -6  10  -1   23.30   20.30
   6  10   1   17.10   13.00
  -8 -10  -1   22.10   23.10
   8 -10   1   47.70   19.70
  -8 -10  -1   37.40   20.60
  -8  10  -1   32.60   23.10
   8  10   1   40.50   21.60
   8  10   1   20.30   16.90
 -10 -10  -1   62.09   28.20
  10 -10   1   66.19   25.80
  10  10   1   97.19   34.00
  10  10   1   42.00   23.70
 -10  10  -1   14.00   27.20
 -12 -10  -1  -19.60   27.70
  12 -10   1    9.70   25.30
  12  10   1   -7.40   22.80
  12  10   1   41.70   33.20
 -12  10  -1   30.10   30.40
  13 -11  -1    0.90   27.30
 -13 -11   1  -22.00   37.60
  13  11  -1  -34.10   25.40
 -13  11   1   18.70   38.20
  13  11  -1    1.30   35.80
 -11 -11   1   24.70   28.60
  11 -11  -1   75.09   27.50
  11  11  -1   19.70   22.70
  11  11  -1   65.09   31.30
 -11  11   1   70.09   35.00
   9 -11  -1   26.00   20.80
  -9 -11   1   68.49   27.20
   9  11  -1   31.90   25.50
  -9  11   1   30.90   29.40
   9  11  -1   42.50   20.20
   7 -11  -1   81.39   20.70
  -7 -11   1  147.89   27.90
  -7 -11   1  195.38   23.20
   7  11  -1   80.49   21.60
   7  11  -1   89.59   21.30
  -7  11   1  139.09   28.80
  -5 -11   1  176.88   22.70
  -5 -11   1  162.28   25.20
   5 -11  -1  145.19   22.70
   5  11  -1  153.98   22.60
  -5  11   1  145.89   25.40
   5  11  -1  173.78   25.50
  -3 -11   1  114.49   21.60
   3 -11  -1  132.59   20.10
   3  11  -1  114.69   18.90
  -3  11   1  139.49   23.80
   3  11  -1  143.79   21.50
   1 -11  -1   50.09   12.90
   1  11  -1   50.79   14.60
  -1 -11  -1   12.50    9.90
   1 -11   1   17.80   10.70
   1  11   1   15.10   11.10
  -3 -11  -1   70.39   18.10
  -3 -11  -1   55.69   16.20
   3 -11   1   81.69   16.60
   3  11   1   81.59   16.60
  -3  11  -1  109.39   21.90
   3  11   1   98.79   18.30
   5 -11   1   14.40   14.30
  -5 -11  -1    8.10   13.90
  -5 -11  -1   17.50   14.10
   5  11   1    2.10   12.30
  -5  11  -1   42.40   18.60
   5  11   1   -1.90   12.30
  -7 -11  -1   -4.60   19.70
  -7 -11  -1  -39.90   16.00
   7 -11   1    7.40   15.60
   7  11   1   -1.20   17.70
  -7  11  -1   21.40   22.80
   7  11   1    6.90   14.40
  -9 -11  -1   52.69   34.50
   9 -11   1   57.09   22.30
  -9 -11  -1   27.70   26.10
   9  11   1   62.09   26.50
   9  11   1   72.09   21.60
  -9  11  -1   84.39   30.30
  11 -11   1   44.80   26.80
 -11 -11  -1   33.20   28.40
  11  11   1   78.29   32.20
 -11  11  -1   55.79   34.30
  11  11   1   23.90   24.00
 -13 -11  -1   31.60   38.60
  13 -11   1  -22.50   25.50
 -13  11  -1   12.80   35.30
  13  11   1   15.70   26.50
  13  11   1   -5.80   36.80
 -12 -12   1  -54.59   26.60
  12 -12  -1   27.60   27.00
 -12  12   1   38.70   36.90
  12  12  -1   23.00   25.30
  12  12  -1   14.50   31.80
  10 -12  -1  -46.60   18.70
 -10 -12   1   69.69   30.30
  10  12  -1   70.59   30.30
  10  12  -1   12.30   20.30
 -10  12   1   31.30   28.70
   8 -12  -1   -5.90   16.10
  -8 -12   1   40.10   24.80
  -8 -12   1   14.00   17.80
   8  12  -1  -13.30   18.10
   8  12  -1  -33.90   14.80
  -8  12   1   -2.00   22.20
  -6 -12   1   94.09   18.90
   6 -12  -1   61.69   19.00
  -6 -12   1   88.59   23.60
   6  12  -1   85.09   21.60
   6  12  -1   29.80   16.40
  -6  12   1   93.29   24.50
   4 -12  -1    5.80   11.80
  -4 -12   1   17.20   15.10
  -4  12   1   50.29   18.30
   4  12  -1   22.60   12.50
   4  12  -1   35.50   14.80
   2 -12  -1    0.10   11.00
   2  12  -1    6.30   11.00
   2  12  -1    4.20   11.70
   0 -12   1  -20.50    9.40
   0 -12  -1    0.50   10.00
   2 -12   1  670.53   53.49
   2  12   1  716.93   53.79
   2  12   1  673.63   55.39
   4 -12   1  105.39   19.30
  -4 -12  -1   97.99   20.00
  -4 -12  -1  129.39   22.10
   4  12   1   80.69   19.10
   4  12   1   99.89   19.10
  -4  12  -1  101.49   22.90
  -6 -12  -1   40.90   18.60
   6 -12   1   40.40   18.20
  -6 -12  -1   37.80   19.50
   6  12   1    8.90   13.70
  -6  12  -1   51.69   22.20
   6  12   1   49.90   17.90
  -8 -12  -1   36.40   23.20
   8 -12   1   -1.30   15.60
  -8 -12  -1  -14.40   20.30
   8  12   1   15.90   17.50
   8  12   1   39.90   22.60
  -8  12  -1   -2.20   23.00
  10 -12   1   19.80   23.80
 -10 -12  -1   12.40   29.70
  10  12   1   47.60   22.60
  10  12   1   -3.20   29.20
 -10  12  -1   18.70   30.40
 -12 -12  -1   -4.20   29.70
  12 -12   1   48.10   30.40
  12  12   1   59.89   36.30
 -12  12  -1    9.70   34.10
  12  12   1   -7.90   24.30
 -11 -13   1   51.39   36.20
  11 -13  -1   44.20   25.60
  11  13  -1   94.29   28.20
 -11  13   1   23.60   33.10
  11  13  -1   48.10   34.50
  -9 -13   1   13.60   24.50
   9 -13  -1   31.10   18.80
   9  13  -1    7.60   21.90
   9  13  -1   13.10   19.20
  -9  13   1  -35.40   27.10
  -7 -13   1   72.99   22.20
  -7 -13   1   65.29   24.70
   7 -13  -1   51.99   19.10
  -7  13   1   39.30   22.70
   7  13  -1   61.59   20.90
   7  13  -1   49.00   18.40
  -5 -13   1  130.19   21.40
   5 -13  -1  119.89   21.50
  -5 -13   1  152.18   26.60
   5  13  -1   87.29   21.20
  -5  13   1  115.49   25.90
   5  13  -1  137.89   22.70
   3 -13  -1   11.30   11.70
   3  13  -1    8.20   12.20
   3  13  -1    6.80   12.40
   1 -13  -1  333.07   31.40
   1  13  -1  385.06   36.60
  -1 -13  -1   14.00   10.10
   1 -13   1    3.10   11.10
   3 -13   1   84.59   17.00
  -3 -13  -1  110.59   21.50
   3  13   1   80.79   17.70
   3  13   1  121.89   20.60
   5 -13   1  210.98   28.10
  -5 -13  -1  269.57   30.30
  -5 -13  -1  168.78   27.80
   5  13   1  158.18   25.60
   5  13   1  167.78   25.30
  -5  13  -1  223.08   32.30
   7 -13   1  -16.40   16.50
  -7 -13  -1  -16.20   19.70
  -7 -13  -1  -30.10   20.10
   7  13   1    0.20   14.90
  -7  13  -1  -31.20   20.80
   7  13   1  -17.00   17.30
   9 -13   1   48.70   21.10
  -9 -13  -1   40.50   26.70
   9  13   1   21.80   25.50
   9  13   1   -1.10   18.00
  -9  13  -1   50.19   27.50
  11 -13   1    8.40   23.60
 -11 -13  -1   70.89   31.00
  11  13   1  141.89   39.30
  11  13   1   46.60   24.90
 -11  13  -1   24.30   32.70
 -12 -14   1   29.50   34.30
  12 -14  -1   -6.70   27.10
  12  14  -1   -6.80   32.10
 -12  14   1  -45.70   36.00
  12  14  -1   37.90   28.80
  10 -14  -1   33.30   22.60
 -10 -14   1   62.09   31.60
  10  14  -1   31.50   22.10
 -10  14   1  -33.20   29.60
  10  14  -1   52.89   30.90
  -8 -14   1   -7.60   24.00
   8 -14  -1   -0.30   17.00
  -8 -14   1   -9.80   20.50
   8  14  -1  -10.10   17.90
  -8  14   1    9.20   24.80
   8  14  -1    2.80   19.10
   6 -14  -1   84.79   20.20
  -6 -14   1   53.09   21.00
  -6 -14   1  101.69   21.50
   6  14  -1   46.60   17.60
  -6  14   1   12.90   21.00
   6  14  -1   59.79   21.10
   4 -14  -1   57.99   16.60
  -4 -14   1   77.99   19.20
   4  14  -1   58.09   16.50
   4  14  -1   64.19   16.30
  -4  14   1  126.29   25.70
   2 -14  -1   25.40   12.60
   2  14  -1   38.30   15.20
   0 -14  -1   10.90   10.90
   0 -14   1   28.80   12.60
   2 -14   1  321.67   32.70
   2  14   1  283.47   31.60
   2  14   1  289.87   34.40
  -4 -14  -1   27.70   18.00
   4 -14   1   18.50   14.70
  -4 -14  -1   23.00   16.20
  -4  14  -1   30.60   18.90
   4  14   1   54.79   15.80
   4  14   1   27.80   14.40
  -6 -14  -1   20.30   19.30
  -6 -14  -1   37.50   19.10
   6 -14   1   34.30   17.30
   6  14   1   -3.30   13.20
  -6  14  -1   30.30   21.20
   6  14   1    6.60   17.10
   8 -14   1   -0.40   17.60
  -8 -14  -1   30.40   27.20
  -8 -14  -1   -7.00   22.70
   8  14   1   25.10   23.10
  -8  14  -1  -15.30   24.60
   8  14   1    1.40   16.80
 -10 -14  -1    9.40   29.10
  10 -14   1   27.90   23.50
  10  14   1   26.20   30.60
 -10  14  -1  -20.20   30.60
  10  14   1   15.00   22.00
  12 -14   1   36.60   30.30
 -12 -14  -1    9.40   30.70
  12  14   1   41.80   38.00
  12  14   1   -0.70   24.60
 -12  14  -1   32.20   35.30
  11 -15  -1   23.20   24.50
 -11 -15   1   28.10   28.50
  11  15  -1   67.29   37.10
  11  15  -1    4.70   24.80
 -11  15   1   -4.50   33.90
  -9 -15   1   54.99   29.10
   9 -15  -1   19.50   18.80
   9  15  -1   16.20   24.60
  -9  15   1   36.60   28.50
   9  15  -1   21.00   21.20
  -7 -15   1   63.29   22.40
   7 -15  -1   -1.20   17.90
  -7 -15   1   17.90   22.10
   7  15  -1    7.80   16.40
   7  15  -1    4.10   19.10
  -7  15   1  -22.30   22.20
  -5 -15   1  218.08   28.60
  -5 -15   1  158.48   29.10
   5 -15  -1  180.48   27.00
  -5  15   1  204.98   31.70
   5  15  -1  172.08   26.60
   5  15  -1  159.68   27.30
   3 -15  -1    1.30   11.60
   3  15  -1   11.70   13.00
   3  15  -1   13.30   13.60
  -1 -15   1  158.88   22.30
   1 -15  -1  164.48   22.30
   1  15  -1  147.29   24.80
  -1 -15  -1  464.65   39.60
   1 -15   1  470.35   39.80
   1  15   1  449.95   42.00
   3 -15   1   -6.20   11.40
   3  15   1    2.20   12.90
   3  15   1    4.10   12.60
  -5 -15  -1  102.19   25.00
   5 -15   1   60.69   18.40
  -5 -15  -1  100.79   22.50
  -5  15  -1   34.70   20.30
   5  15   1   77.49   18.90
   5  15   1   46.10   17.40
   7 -15   1   19.10   18.40
  -7 -15  -1  -12.70   22.90
  -7 -15  -1   30.80   20.20
   7  15   1   17.50   16.80
   7  15   1    2.00   20.40
  -7  15  -1   -7.60   23.90
   9 -15   1   17.50   21.10
  -9 -15  -1   65.89   29.10
  -9  15  -1   21.50   29.30
   9  15   1   29.20   22.60
   9  15   1   45.70   28.20
 -11 -15  -1  -17.10   29.70
  11 -15   1    6.80   25.60
  11  15   1   54.69   24.60
 -11  15  -1   93.99   41.70
  11  15   1   59.69   38.80
 -12 -16   1   37.70   39.10
  12 -16  -1   45.20   31.90
  12  16  -1    7.30   40.20
 -12  16   1  -45.30   36.40
  12  16  -1   -1.60   27.40
  10 -16  -1  -15.90   19.40
 -10 -16   1   36.80   31.80
 -10  16   1   13.90   32.50
  10  16  -1   22.70   28.70
  10  16  -1   14.50   24.20
   8 -16  -1   27.70   18.90
  -8 -16   1   27.60   25.60
  -8  16   1  -48.50   25.90
   8  16  -1   17.60   21.10
   8  16  -1   28.40   19.40
   6 -16  -1  111.29   23.60
  -6 -16   1   90.99   23.60
  -6 -16   1   47.10   22.10
   6  16  -1  104.19   24.80
  -6  16   1   51.39   24.90
   6  16  -1   98.09   22.80
  -4 -16   1   -5.80   15.30
   4 -16  -1  -11.50   12.60
   4  16  -1  -23.50   12.00
   4  16  -1   -6.10   12.10
   2 -16  -1   71.19   16.90
   2  16  -1   57.49   17.60
   0 -16  -1   21.80   12.50
   0 -16   1   37.50   14.00
   2 -16   1   24.60   13.90
   2  16   1   22.60   15.70
   4 -16   1   82.99   19.60
  -4 -16  -1  126.09   24.90
  -4 -16  -1  126.69   24.10
   4  16   1   96.19   21.20
   4  16   1   74.59   18.80
  -6 -16  -1   10.90   18.60
  -6 -16  -1    6.30   21.10
   6 -16   1   22.40   17.60
   6  16   1   33.40   17.50
   6  16   1    9.80   17.90
  -6  16  -1   64.59   25.00
  -8 -16  -1   13.70   26.50
  -8 -16  -1   25.30   26.60
   8 -16   1   11.80   20.90
   8  16   1   -8.70   22.50
  -8  16  -1   30.00   27.60
   8  16   1   -0.60   17.20
 -10 -16  -1   54.69   31.40
  10 -16   1   26.90   24.30
 -10  16  -1   36.40   31.20
  10  16   1   61.39   34.00
  10  16   1   -2.90   21.40
  12 -16   1   34.80   32.00
 -12 -16  -1  -39.80   32.00
  12  16   1  -39.60   40.30
 -12  16  -1  -44.50   34.90
  12  16   1  -13.30   26.70
  11 -17  -1   14.40   25.80
 -11 -17   1   87.89   37.50
  11  17  -1   40.90   34.80
 -11  17   1   95.59   37.90
  11  17  -1   79.99   29.80
   9 -17  -1   30.70   24.00
  -9 -17   1  -19.20   27.40
   9  17  -1   -5.30   18.80
  -9  17   1   -7.60   31.20
   9  17  -1   47.30   24.20
   7 -17  -1   24.00   20.80
  -7 -17   1   45.90   25.00
  -7 -17   1   24.80   25.10
  -7  17   1   56.09   26.90
   7  17  -1   33.10   21.20
   7  17  -1   43.50   19.60
  -5 -17   1  161.78   26.90
  -5 -17   1  120.59   26.20
   5 -17  -1   47.90   19.40
   5  17  -1   60.19   19.80
   5  17  -1  124.39   22.90
   3 -17  -1   -3.20   12.70
   3  17  -1  -15.50   14.10
   3  17  -1   16.60   13.40
   1 -17  -1 1294.77   98.89
  -1 -17   1 1385.76   99.49
   1  17  -1 1353.96  101.19
  -1 -17  -1  229.38   28.80
   1 -17   1  197.58   26.80
   1  17   1  231.78   31.00
   3 -17   1  -17.50   11.80
   3  17   1    3.90   12.20
   3  17   1   19.50   15.20
  -5 -17  -1   10.30   20.30
  -5 -17  -1   38.50   21.00
   5 -17   1   45.30   18.60
   5  17   1    5.80   15.90
   5  17   1   16.30   15.70
  -5  17  -1    1.50   21.20
  -7 -17  -1  -31.00   22.90
   7 -17   1    0.10   19.50
  -7 -17  -1    1.80   23.40
  -7  17  -1   21.30   23.80
   7  17   1   -4.60   20.70
   7  17   1   -2.70   16.60
  -9 -17  -1   54.19   30.80
   9 -17   1   20.30   23.50
   9  17   1   22.60   21.30
  -9  17  -1   43.40   32.20
   9  17   1   33.90   27.20
  11 -17   1   45.50   29.60
 -11 -17  -1   60.79   34.50
  11  17   1   66.69   28.90
 -11  17  -1   51.29   38.00
  11  17   1   37.20   37.00
  10 -18  -1   31.70   22.60
 -10 -18   1   26.40   32.80
 -10  18   1   -1.00   31.70
  10  18  -1   36.20   24.30
  10  18  -1    8.10   27.60
  -8 -18   1   -7.80   23.30
   8 -18  -1   36.30   24.20
   8  18  -1  -13.90   23.00
  -8  18   1   36.90   27.20
   8  18  -1  -13.20   19.60
  -6 -18   1   75.59   25.00
   6 -18  -1   30.00   18.90
  -6 -18   1   87.59   26.60
   6  18  -1   50.89   20.20
  -6  18   1   59.19   27.00
   6  18  -1   55.69   21.80
   4 -18  -1  -17.10   14.00
  -4 -18   1   28.80   19.40
   4  18  -1    4.30   14.80
   4  18  -1    0.70   14.10
   2 -18  -1   -7.50   12.50
   2  18  -1   19.70   15.10
   0 -18   1   -2.30   12.90
   0 -18  -1  -11.50   11.50
   0  18  -1   -3.20   16.20
  -2 -18  -1   38.70   15.20
   2 -18   1    4.00   13.70
   2  18   1   30.90   18.30
  -4 -18  -1  205.98   30.30
   4 -18   1  134.79   24.60
  -4 -18  -1  184.98   30.90
   4  18   1  153.58   28.60
   4  18   1  132.99   24.70
   6 -18   1   15.60   18.90
  -6 -18  -1  -17.40   22.90
  -6 -18  -1   -5.90   19.90
   6  18   1   -3.80   16.70
  -6  18  -1   -6.00   21.30
   6  18   1    6.10   16.60
  -8 -18  -1  -16.30   24.40
   8 -18   1    0.90   23.40
  -8 -18  -1   10.30   30.60
   8  18   1    6.50   23.10
   8  18   1   20.10   19.90
  -8  18  -1   -6.70   27.40
  10 -18   1    9.70   22.40
 -10 -18  -1   -0.10   29.10
 -10  18  -1    5.00   33.30
  10  18   1   17.30   23.50
  10  18   1    5.10   29.00
 -11 -19   1   40.90   34.30
  11 -19  -1   34.20   27.10
  11  19  -1   51.79   36.20
  11  19  -1   71.89   31.20
 -11  19   1  102.59   44.20
   9 -19  -1  -19.50   21.00
  -9 -19   1   30.90   29.70
   9  19  -1   -3.10   21.50
  -9  19   1  -30.00   28.20
   9  19  -1   18.50   25.10
  -7 -19   1   34.20   25.90
  -7 -19   1   15.50   23.10
   7 -19  -1    4.00   20.30
   7  19  -1   40.30   22.90
   7  19  -1   30.80   21.20
  -7  19   1   48.60   26.90
  -5 -19   1   91.99   26.40
  -5 -19   1   69.99   23.90
   5 -19  -1   81.69   21.50
   5  19  -1   67.29   20.80
   5  19  -1   59.09   20.30
   3 -19  -1   -1.70   13.20
   3  19  -1    0.80   16.40
  -1 -19   1  322.47   34.20
   1 -19  -1  318.37   33.40
   1  19  -1  400.86   43.80
   1 -19   1  489.85   44.90
  -1 -19  -1  556.14   45.80
   1  19   1  499.15   49.20
   3 -19   1   -0.30   13.30
   3  19   1   14.10   15.60
   3  19   1   16.20   15.60
   5 -19   1   57.39   21.90
  -5 -19  -1  108.19   28.90
  -5 -19  -1  133.99   28.70
   5  19   1  100.29   22.80
   5  19   1  101.19   24.90
  -7 -19  -1   21.30   23.20
   7 -19   1  -20.60   18.60
  -7 -19  -1  -29.40   24.80
   7  19   1   10.10   21.20
  -7  19  -1   -4.80   24.50
   7  19   1  -17.60   15.90
   9 -19   1  -21.40   21.90
  -9 -19  -1   17.20   29.60
  -9  19  -1  -11.90   29.00
   9  19   1   60.19   29.60
   9  19   1   31.70   22.30
 -11 -19  -1   -6.10   34.00
  11 -19   1   -0.70   26.50
  11  19   1  -10.50   24.50
 -11  19  -1   66.39   43.40
  11  19   1   28.50   38.90
  10 -20  -1   34.20   24.20
 -10 -20   1   57.59   37.30
 -10  20   1  -27.70   31.70
  10  20  -1   -2.20   27.00
  10  20  -1   23.50   26.90
  -8 -20   1    0.20   26.20
   8 -20  -1   11.70   23.70
  -8  20   1   57.59   30.20
   8  20  -1   49.00   25.60
   8  20  -1   26.00   22.00
  -6 -20   1   24.50   25.00
  -6 -20   1   41.50   26.90
   6 -20  -1   10.00   18.70
   6  20  -1   21.20   22.50
   6  20  -1   60.89   21.60
  -4 -20   1   66.39   26.40
   4 -20  -1   43.80   18.60
   4  20  -1   19.40   19.70
   4  20  -1   81.29   22.10
  -2 -20   1   22.70   14.70
   2 -20  -1   28.10   14.80
   2  20  -1   11.90   18.30
   0 -20  -1   22.80   15.60
   0 -20   1   25.50   14.80
   0  20  -1   74.39   22.30
   2 -20   1  173.98   26.40
  -2 -20  -1  164.58   27.20
   2  20   1  183.28   31.80
  -4 -20  -1   33.50   23.60
   4 -20   1   61.09   19.40
   4  20   1   22.00   17.60
   4  20   1   36.30   19.50
  -6 -20  -1   -9.20   26.10
   6 -20   1  -12.10   19.10
  -6 -20  -1  -27.10   20.30
   6  20   1   22.60   19.50
   6  20   1   53.29   22.20
   8 -20   1    2.00   23.20
  -8 -20  -1   24.00   26.80
   8  20   1  -16.00   18.50
   8  20   1   25.60   24.40
  -8  20  -1   36.80   30.30
 -10 -20  -1   25.50   31.30
  10 -20   1   -3.90   25.90
  10  20   1    0.20   23.40
  10  20   1   66.19   32.30
 -10  20  -1   16.20   32.80
  -9 -21   1   19.50   32.80
   9 -21  -1   41.90   25.60
  -9  21   1   59.79   34.40
   9  21  -1   29.20   25.10
   9  21  -1   33.90   28.60
  -7 -21   1   11.40   25.50
  -7 -21   1   42.50   30.10
   7 -21  -1   -6.10   20.40
   7  21  -1   32.70   21.80
   7  21  -1   44.10   24.20
  -5 -21   1    7.60   22.80
   5 -21  -1    1.20   16.90
   5  21  -1   11.90   18.60
   5  21  -1   20.70   20.50
   3 -21  -1    7.70   14.20
   3  21  -1  -17.90   18.60
   1 -21  -1  226.78   32.20
  -1 -21   1  248.28   33.90
   1  21  -1  331.77   41.70
   1 -21   1  358.36   37.30
  -1 -21  -1  342.17   40.60
   1  21   1  416.76   42.80
  -3 -21  -1   -2.80   14.10
   3 -21   1   37.30   16.80
   3  21   1   -2.70   17.60
   5 -21   1  120.49   27.60
  -5 -21  -1  155.08   32.30
  -5 -21  -1  114.09   31.80
   5  21   1  105.89   24.20
   5  21   1   82.09   25.90
  -7 -21  -1    2.20   23.50
  -7 -21  -1   19.20   30.10
   7 -21   1   18.30   22.70
   7  21   1   29.60   22.00
   7  21   1   -3.30   21.30
  -9 -21  -1   30.80   31.40
   9 -21   1   32.30   27.70
   9  21   1  -66.19   25.40
   9  21   1   29.80   25.70
  -9  21  -1   19.40   32.90
 -10 -22   1   21.10   36.80
  10 -22  -1  -17.60   26.00
  10  22  -1   62.69   34.10
 -10  22   1  107.79   42.00
  10  22  -1   -7.90   25.70
  -8 -22   1   21.80   30.60
   8 -22  -1   -0.90   23.20
   8  22  -1   14.40   24.90
   8  22  -1    0.50   21.80
  -6 -22   1   39.60   28.10
   6 -22  -1   -7.90   19.50
  -6 -22   1  -38.60   22.90
   6  22  -1    2.40   21.60
   6  22  -1    9.60   20.20
  -4 -22   1   24.20   25.60
   4 -22  -1   12.00   15.60
   4  22  -1   15.50   18.90
  -2 -22   1   32.60   17.40
   2 -22  -1    9.00   15.80
   2  22  -1   -9.60   19.10
   0 -22   1   44.20   19.90
   0 -22  -1   71.19   20.30
   0  22  -1   77.39   25.60
  -2 -22  -1   17.70   17.80
   2 -22   1   10.30   16.50
   2  22   1   25.60   23.20
  -4 -22  -1   75.09   27.40
   4 -22   1   93.59   23.90
   4  22   1  132.59   28.50
  -6 -22  -1   65.29   29.60
  -6 -22  -1   10.30   25.30
   6 -22   1   15.60   21.70
   6  22   1   13.20   21.50
   6  22   1    7.10   19.50
   8 -22   1   31.70   26.90
  -8 -22  -1   19.30   28.80
   8  22   1   13.10   26.80
   8  22   1   16.60   22.90
 -10 -22  -1  -26.50   34.60
  10 -22   1    2.30   28.60
  10  22   1  -21.00   32.80
 -10  22  -1  -42.80   34.10
  10  22   1  -10.00   25.20
  -9 -23   1  -16.20   28.60
   9 -23  -1    7.90   27.60
   9  23  -1   12.50   27.40
   9  23  -1   46.00   26.50
  -7 -23   1   39.50   28.10
   7 -23  -1   26.30   24.00
   7  23  -1   56.69   25.80
   7  23  -1   -1.20   20.50
   5 -23  -1   40.20   22.00
  -5 -23   1   59.09   29.70
   5  23  -1   78.69   25.20
  -3 -23   1   -2.00   15.20
   3 -23  -1    0.30   15.60
   3  23  -1    5.30   21.50
  -1 -23   1  191.08   32.10
   1 -23  -1  241.78   33.30
   1  23  -1  249.28   39.20
   1 -23   1   42.20   18.40
  -1 -23  -1   56.09   20.20
   1  23   1   74.79   25.50
   3 -23   1    0.80   17.50
  -3 -23  -1    8.60   17.00
   3  23   1   20.30   22.20
   5 -23   1   21.10   20.10
  -5 -23  -1    9.70   24.60
  -5 -23  -1   29.00   28.90
   5  23   1   14.80   21.50
   5  23   1   12.10   19.70
  -7 -23  -1   70.39   36.20
   7 -23   1   29.30   24.00
  -7 -23  -1   43.10   30.60
   7  23   1    1.90   20.00
   7  23   1   16.20   24.50
  -9 -23  -1  -10.60   32.10
   9 -23   1  -48.80   24.80
   9  23   1   -7.80   22.80
   9  23   1   46.50   32.80
  -8 -24   1   34.10   29.40
   8 -24  -1   27.80   27.30
   8  24  -1    7.70   23.50
   8  24  -1   40.60   29.00
   6 -24  -1  -43.10   19.20
  -6 -24   1  -12.10   25.10
  -6 -24   1   55.09   32.80
   6  24  -1   -6.30   21.20
   6  24  -1   13.80   22.30
   4 -24  -1   -5.80   15.30
  -4 -24   1   25.50   27.40
   4  24  -1   16.20   21.70
   2 -24  -1   26.70   17.60
  -2 -24   1   -7.90   16.30
   2  24  -1   17.40   21.20
   0 -24   1   25.60   17.70
   0 -24  -1   10.70   17.90
   0  24   1    6.80   23.60
   0  24  -1   71.59   27.60
  -2 -24  -1   45.50   21.00
   2 -24   1   12.50   18.20
   2  24   1   76.59   29.20
  -4 -24  -1  126.69   27.60
   4 -24   1   81.59   23.50
  -4 -24  -1  170.38   37.50
   4  24   1  144.19   32.70
  -6 -24  -1   -4.40   27.90
   6 -24   1   13.80   21.30
  -6 -24  -1  -40.40   29.80
   6  24   1   16.30   21.30
   6  24   1  -14.10   21.40
   8 -24   1  -20.40   26.10
  -8 -24  -1   29.90   32.70
   8  24   1   14.10   23.60
   8  24   1   46.30   31.10
  -7 -25   1   38.50   31.40
   7 -25  -1  -29.80   21.90
   7  25  -1  -12.10   25.50
   7  25  -1   26.50   25.40
  -5 -25   1   12.60   27.40
   5 -25  -1    1.90   20.70
   5  25  -1    9.50   22.20
   3 -25  -1    0.70   16.20
  -3 -25   1   -6.80   17.10
   3  25  -1   19.80   24.10
  -1 -25   1   37.80   19.90
   1 -25  -1   49.40   20.20
   1  25  -1   49.30   29.10
  -1 -25  -1   18.90   19.50
   1 -25   1   33.20   19.70
  -1  25  -1   49.99   27.80
   1  25   1   67.69   28.30
  -3 -25  -1    9.80   19.20
   3 -25   1   20.10   17.80
   3  25   1   35.50   25.00
  -5 -25  -1   35.70   21.30
   5 -25   1    4.20   22.50
  -5 -25  -1   -4.50   27.90
  -5 -25  -1   20.60   31.50
   5  25   1  -17.50   23.90
   7 -25   1   13.60   23.50
  -7 -25  -1  -36.40   26.90
  -7 -25  -1    2.80   43.50
   7  25   1  -15.70   20.90
   7  25   1   50.19   30.10
   8 -26  -1   14.90   28.70
  -8 -26   1   -2.80   32.10
   8  26  -1  -21.30   27.90
   8  26  -1    2.10   24.40
   6 -26  -1   34.20   24.50
  -6 -26   1   26.40   35.50
  -6 -26   1    6.60   32.00
   6  26  -1   46.80   29.60
  -4 -26   1   -1.40   17.20
   4 -26  -1  -16.80   15.20
  -4 -26   1  -18.50   29.60
   4  26  -1   21.70   26.40
  -2 -26   1   23.70   20.00
   2 -26  -1   19.50   18.70
   2  26  -1  -28.10   22.90
   0 -26  -1   15.30   19.30
   0 -26   1   40.50   20.70
   0  26   1   11.10   26.50
   0  26  -1   40.10   27.30
   2 -26   1   12.30   18.70
  -2 -26  -1    5.60   17.70
   2  26   1  -11.90   24.30
  -4 -26  -1   49.70   29.70
   4 -26   1   13.00   20.50
  -4 -26  -1   79.19   24.30
   4  26   1   25.30   24.40
  -6 -26  -1   -2.30   29.10
   6 -26   1    0.70   23.70
  -6 -26  -1   20.10   33.50
   6  26   1   -5.10   21.40
  -8 -26  -1    0.80   31.30
   8 -26   1  -25.40   25.70
   8  26   1   -6.00   27.90
   8  26   1   11.30   24.60
   7 -27  -1   24.00   27.20
  -7 -27   1   49.00   35.40
   7  27  -1   44.80   32.30
   5 -27  -1   56.69   24.60
  -5 -27   1   63.89   23.90
  -5 -27   1   75.79   36.30
  -5 -27   1   35.10   32.00
   5  27  -1   96.79   31.60
  -3 -27   1   26.80   22.20
   3 -27  -1   17.70   19.80
   3  27  -1  -19.70   25.50
   1 -27  -1    5.10   18.50
  -1 -27   1   29.70   20.80
   1  27  -1   25.50   28.20
  -1 -27  -1   62.09   23.10
   1 -27   1    6.40   20.00
   1  27   1   35.60   31.30
  -1  27  -1   94.99   33.40
  -3 -27  -1   49.40   23.90
   3 -27   1   11.60   19.30
   3  27   1   -6.70   26.20
   5 -27   1   22.90   24.80
  -5 -27  -1    0.10   19.90
  -5 -27  -1   27.90   32.30
  -5 -27  -1  -20.40   32.70
   5  27   1    2.30   25.90
   7 -27   1  -32.50   24.00
  -7 -27  -1   13.80   31.20
   7  27   1   19.80   26.50
   7  27   1  -38.90   27.20
   6 -28  -1  -36.50   22.50
  -6 -28   1   14.90   36.20
  -6 -28   1   17.40   46.20
   6  28  -1   27.40   30.20
   4 -28  -1  -27.50   17.80
  -4 -28   1   -2.30   21.10
  -4 -28   1   17.60   31.20
   4  28  -1  -13.60   25.60
   2 -28  -1  -19.70   18.10
  -2 -28   1   17.40   20.00
   2  28  -1  -10.20   25.90
   0 -28   1   10.20   20.00
   0 -28  -1   -3.40   18.10
   0  28   1  -24.60   24.90
   0  28  -1  -27.60   26.10
   2 -28   1   51.09   23.10
  -2 -28  -1   28.90   22.90
   2  28   1   51.49   29.20
  -2  28  -1   69.49   33.60
  -4 -28  -1    5.60   33.10
  -4 -28  -1   33.90   30.80
  -4 -28  -1   20.10   23.50
   4 -28   1    4.80   19.00
   4  28   1   74.89   32.40
  -6 -28  -1    3.40   33.00
  -6 -28  -1   40.10   39.20
  -6 -28  -1   34.60   25.10
   6 -28   1    7.30   24.10
   6  28   1   25.70   26.90
  -5 -29   1   -2.10   33.00
  -5 -29   1   54.49   35.40
   5 -29  -1   -9.80   22.40
  -5 -29   1   -3.40   19.40
   5  29  -1   -8.90   28.30
  -3 -29   1   -8.30   19.30
   3 -29  -1   -7.50   18.80
   3  29  -1    2.00   29.90
   1 -29  -1   -4.00   19.10
  -1 -29   1   34.50   23.80
   1  29  -1    6.50   28.80
  -1  29   1   -9.10   29.80
   1 -29   1    0.90   20.40
  -1 -29  -1   13.80   21.60
   1  29   1   22.10   34.40
  -1  29  -1   22.60   31.30
  -3 -29  -1   31.80   23.50
   3 -29   1   -6.80   18.30
   3  29   1    4.50   27.40
  -5 -29  -1   60.99   39.30
  -5 -29  -1   54.79   38.20
  -5 -29  -1   43.70   28.50
   5 -29   1   25.80   26.20
   5  29   1   28.80   30.40
   4 -30  -1   -0.60   22.80
  -4 -30   1   17.90   25.60
  -4 -30   1   23.80   37.80
   4  30  -1   41.30   30.50
   2 -30  -1   24.80   22.60
  -2 -30   1   10.00   24.00
   2  30  -1   66.29   35.60
   0 -30   1   -3.90   20.30
   0 -30  -1   30.90   23.70
   0  30   1   75.59   35.00
   0  30  -1   19.20   33.90
   2 -30   1  -10.20   20.70
  -2 -30  -1   10.30   24.10
  -2  30  -1   56.59   37.90
   2  30   1   42.80   30.70
  -4 -30  -1    9.80   25.10
  -4 -30  -1    3.20   37.70
  -4 -30  -1   38.70   36.80
   4 -30   1    5.10   22.40
   4  30   1   51.39   33.30
  -3 -31   1   12.40   23.60
   3 -31  -1    1.70   21.60
   3  31  -1  -17.40   34.00
   1 -31  -1   65.79   27.40
  -1 -31   1   50.79   26.50
  -1  31   1   85.99   37.00
   1  31  -1   65.19   34.70
   1 -31   1   39.70   24.20
  -1 -31  -1   24.90   25.10
   1  31   1   25.20   35.20
  -1  31  -1   56.59   39.30
   3 -31   1   -6.70   22.20
  -3 -31  -1   40.00   26.90
   3  31   1   23.00   32.60
  -3  31  -1   11.40   36.70
   2 -32  -1   32.80   24.50
  -2 -32   1   52.29   27.70
   0 -32   1  -33.70   20.60
   0 -32  -1   31.10   26.80
   0  32   1   14.30   36.00
   0  32  -1  -12.30   32.50
  14   0  -2   63.39   39.40
  14   0  -2   -8.60   26.20
 -14   0   2   98.69   44.30
 -12   0   2   44.50   33.30
  12   0  -2   56.89   31.20
  12   0  -2   15.80   21.80
  10   0  -2   95.59   26.90
 -10   0   2   84.39   30.10
  10   0  -2   79.89   24.00
   8   0  -2   17.90   15.70
   8   0  -2    9.70   14.70
  -8   0   2   15.80   20.50
   6   0  -2   50.89   10.00
  -6   0   2  101.09   21.10
   6   0  -2   38.70   15.70
   6   0  -2   45.20   15.10
  -4   0   2  647.24   52.59
  -4   0   2  714.33   49.40
   4   0  -2  696.93   51.99
   4   0  -2  727.53   52.99
   4   0  -2  664.93   48.90
   2   0  -2  813.12   55.89
  -2   0   2  761.82   56.29
   2   0  -2  808.32   56.29
  -2   0   2  780.22   56.09
   2   0  -2  823.12   57.19
  -2   0   2  778.32   55.79
  -2   0   2  812.12   56.89
   2   0  -2  778.42   56.19
   0   0  -2   33.00    4.40
  -2   0  -2 1710.13  113.49
  -2   0  -2 1564.74  114.29
  -2   0  -2 1619.84  112.69
   2   0   2 1642.04  112.69
   2   0   2 1640.04  114.39
  -2   0  -2 1602.94  112.79
   2   0   2 1743.83  113.59
  -2   0  -2 1627.74  114.09
   2   0   2 1604.74  113.99
  -4   0  -2  373.46   33.60
   4   0   2  377.56   30.00
  -4   0  -2  385.96   32.60
   4   0   2  397.36   31.60
  -4   0  -2  365.16   30.10
   4   0   2  319.67   31.30
   6   0   2   36.80   13.80
  -6   0  -2  -10.30   16.00
   6   0   2    1.50   12.80
  -8   0  -2   11.60   19.80
   8   0   2    5.20   15.30
   8   0   2  -12.90   15.70
  10   0   2   13.10   24.80
  10   0   2   12.50   19.10
 -10   0  -2   42.70   28.20
 -12   0  -2   23.90   30.20
  12   0   2   15.90   24.40
  12   0   2  -17.30   29.00
  13  -1  -2   11.70   32.00
 -13  -1   2   -1.90   34.00
  13  -1  -2   28.90   25.70
  13   1  -2   10.40   32.50
 -13   1   2   47.20   36.60
  13   1  -2  -11.00   24.10
  11  -1  -2  -11.10   19.80
 -11  -1   2   44.70   29.30
  11  -1  -2  -13.90   23.80
 -11   1   2   46.40   28.60
  11   1  -2   14.50   21.00
  11   1  -2   27.90   26.80
   9  -1  -2  105.59   24.00
  -9  -1   2  112.99   26.90
   9  -1  -2   54.39   19.90
   9   1  -2   94.59   22.70
  -9   1   2  125.39   28.90
   9   1  -2   42.00   19.20
  -7  -1   2   13.50   17.60
   7  -1  -2   14.50   14.50
   7  -1  -2    1.60   13.30
   7  -1  -2    8.70    9.20
   7   1  -2    9.10   14.70
   7   1  -2   -3.70   11.80
   7   1  -2   21.50    8.50
  -7   1   2    6.20   17.90
  -5  -1   2  347.67   32.00
  -5  -1   2  353.46   26.70
   5  -1  -2  344.87   30.60
   5  -1  -2  277.47   25.90
   5  -1  -2  292.37   29.70
   5   1  -2  331.07   25.10
   5   1  -2  340.67   31.00
   5   1  -2  308.47   29.50
  -5   1   2  340.37   31.90
   3  -1  -2   15.00   10.60
  -3  -1   2   15.00   11.00
   3  -1  -2   17.80    6.50
  -3  -1   2   18.50    7.30
   3  -1  -2    6.20    9.60
   3  -1  -2    4.50    9.30
  -3  -1   2   12.90    8.80
   3   1  -2    8.60    9.30
   3   1  -2   13.20    9.10
  -3   1   2   22.60   11.30
   3   1  -2    4.50    9.10
  -3   1   2    5.90    8.20
  -3   1   2    6.80    6.00
   1  -1  -2   68.29    7.90
  -1  -1   2   47.20    6.70
   1   1  -2   54.59    5.70
   1   1  -2   60.79    7.90
   1   1  -2   48.00    4.80
  -1   1   2   57.09    6.80
  -1   1   2    2.60    5.30
  -1  -1  -2   84.19    8.60
   1  -1   2  116.69   11.10
  -1  -1  -2  101.69   10.40
   1  -1   2   84.89   10.30
  -1  -1  -2  101.69   10.20
  -1  -1  -2   81.89   10.20
  -1   1  -2  102.49   11.30
   1   1   2   88.49   10.10
  -1   1  -2   87.79   10.80
   1   1   2   84.99    9.80
  -1   1  -2   88.49    9.40
  -3  -1  -2  328.87   29.20
   3  -1   2  308.77   25.60
  -3  -1  -2  343.27   27.20
  -3  -1  -2  326.57   29.20
   3  -1   2  372.66   27.40
  -3  -1  -2  325.97   26.20
   3  -1   2  307.57   27.10
  -3   1  -2  297.17   25.40
  -3   1  -2  285.67   27.60
  -3   1  -2  316.77   27.10
   3   1   2  337.77   27.20
   3   1   2  311.67   26.50
   3   1   2  328.07   26.20
  -3   1  -2  331.37   29.50
   5  -1   2  367.56   31.90
  -5  -1  -2  352.96   35.70
  -5  -1  -2  403.76   33.60
   5  -1   2  386.96   33.90
   5   1   2  369.96   32.40
   5   1   2  391.06   33.70
  -5   1  -2  354.16   35.70
   7  -1   2   22.40   15.20
  -7  -1  -2   -6.70   17.50
   7  -1   2   14.10   14.60
   7   1   2   19.90   14.40
   7   1   2    2.60   13.60
  -7   1  -2   -4.20   17.50
   9  -1   2   23.60   19.10
  -9  -1  -2   25.50   21.20
   9  -1   2   38.50   21.20
   9   1   2   23.20   17.70
   9   1   2  113.69   24.50
  -9   1  -2   19.00   21.50
  11  -1   2   47.90   23.50
  11  -1   2   61.19   28.90
 -11  -1  -2  104.69   32.10
  11   1   2   35.60   23.00
 -11   1  -2  128.79   33.20
  11   1   2   83.49   30.70
  13  -1   2   12.10   25.10
 -13  -1  -2  -22.90   30.10
  13   1   2    7.70   23.60
 -13   1  -2  -29.10   27.70
  14  -2  -2   68.39   39.00
 -14  -2   2   24.60   40.00
  14  -2  -2    8.30   26.20
  14   2  -2  -34.40   34.90
 -14   2   2   32.70   41.00
  14   2  -2   17.50   30.00
  12  -2  -2    0.60   21.80
  12  -2  -2   73.29   31.10
 -12  -2   2   82.29   34.30
  12   2  -2   55.49   25.70
 -12   2   2    5.30   30.70
  12   2  -2   87.39   32.60
  10  -2  -2   50.29   22.80
  10  -2  -2  142.39   29.00
 -10  -2   2  120.79   30.40
 -10   2   2   99.09   30.90
  10   2  -2  146.19   28.50
  10   2  -2   65.19   22.10
   8  -2  -2   19.60   16.20
  -8  -2   2   84.09   23.30
   8  -2  -2   47.90   17.00
  -8   2   2   60.79   22.90
   8   2  -2   28.30   10.20
   8   2  -2   67.19   18.10
   8   2  -2   11.80   14.80
   6  -2  -2   73.09   17.00
   6  -2  -2   53.89   11.70
  -6  -2   2   89.29   12.90
  -6  -2   2   31.70   17.60
   6  -2  -2   70.59   17.10
  -6   2   2   57.29   20.10
   6   2  -2   73.89   17.00
   6   2  -2   87.99   17.30
   6   2  -2   64.39   10.50
   4  -2  -2  132.19   13.90
   4  -2  -2  146.39   19.60
   4  -2  -2  140.69   18.90
  -4  -2   2  142.69   20.70
  -4   2   2  184.28   22.00
   4   2  -2  161.58   18.80
   4   2  -2  135.79   19.40
   2  -2  -2 2471.25  175.48
   2  -2  -2 2690.03  175.18
   2  -2  -2 2575.04  175.08
   2  -2  -2 2479.55  174.58
  -2  -2   2 2591.44  175.78
  -2  -2   2 2575.44  174.88
  -2  -2   2 2360.16  174.88
   2   2  -2 2593.54  175.98
  -2   2   2 2538.85  175.18
  -2   2   2 2525.85  175.58
   2   2  -2 2631.04  174.98
  -2   2   2 2619.14  175.08
   2   2  -2 2486.65  174.98
  -2  -2  -2 1277.27   83.59
   2  -2   2 1199.88   82.59
  -2  -2  -2 1112.79   84.29
   2  -2   2 1264.87   83.69
   2  -2   2 1041.40   84.19
  -2  -2  -2 1177.88   83.39
   2  -2   2 1153.58   82.59
  -2  -2  -2 1190.78   83.99
   2  -2   2 1152.58   84.39
   2   2   2 1184.98   84.19
   2   2   2 1235.98   83.49
  -2   2  -2 1179.08   82.39
   2   2   2 1271.77   84.19
  -2   2  -2 1218.68   83.49
   2   2   2 1258.07   83.69
  -2   2  -2 1181.28   84.79
   4  -2   2  478.75   38.70
  -4  -2  -2  457.65   40.50
   4  -2   2  468.95   37.40
  -4  -2  -2  515.65   38.90
  -4  -2  -2  511.85   38.70
   4   2   2  494.35   38.00
   4   2   2  492.95   39.00
  -4   2  -2  453.85   36.90
   4   2   2  507.85   38.40
  -4   2  -2  469.45   41.20
   6  -2   2   90.19   15.90
  -6  -2  -2   28.10   17.40
  -6  -2  -2   94.49   18.10
   6  -2   2   49.60   17.40
  -6   2  -2   52.89   19.70
   6   2   2   41.00   15.30
   6   2   2   82.49   17.20
  -8  -2  -2    6.30   19.60
   8  -2   2   67.09   19.40
   8  -2   2   63.99   18.20
   8   2   2    7.50   14.40
  -8   2  -2   48.40   22.00
   8   2   2   67.49   19.60
  10  -2   2  136.19   29.30
  10  -2   2   61.19   23.30
 -10  -2  -2   97.39   29.90
 -10   2  -2   95.09   30.90
  10   2   2  101.69   29.50
  10   2   2   87.79   24.80
  12  -2   2   34.20   29.10
 -12  -2  -2   66.59   33.20
  12  -2   2  -32.60   20.20
  12   2   2   -7.90   28.80
 -12   2  -2   18.90   31.50
  12   2   2   21.60   24.30
  13  -3  -2   18.70   25.60
  13  -3  -2   29.30   32.90
 -13  -3   2  -29.00   33.50
  13   3  -2   32.20   26.50
 -13   3   2    6.00   34.00
  13   3  -2   22.80   33.10
  11  -3  -2   21.90   22.50
 -11  -3   2   45.20   29.80
  11  -3  -2  105.89   29.70
 -11   3   2   73.89   32.80
  11   3  -2   66.09   29.30
  11   3  -2   44.20   23.80
  -9  -3   2   91.09   28.40
   9  -3  -2   67.59   20.70
   9  -3  -2   15.00   18.40
   9   3  -2   77.19   22.10
  -9   3   2   25.50   24.70
   9   3  -2   48.40   18.90
   7  -3  -2  122.19   21.80
  -7  -3   2  117.29   24.70
   7  -3  -2  170.58   23.40
  -7   3   2  148.69   27.60
   7   3  -2  149.99   15.80
   7   3  -2  125.39   23.80
   7   3  -2  106.29   20.50
   5  -3  -2  185.48   22.60
   5  -3  -2  186.98   23.30
  -5  -3   2  223.58   26.10
   5   3  -2  167.68   22.80
   5   3  -2  179.38   22.00
   5   3  -2  167.58   16.10
  -5   3   2  185.48   24.90
   3  -3  -2   51.49   12.30
   3  -3  -2   57.69   12.40
   3  -3  -2   51.29    9.10
   3  -3  -2   48.80   11.50
  -3  -3   2   56.99   13.40
   3   3  -2   50.59   12.30
  -3   3   2   40.90   11.10
   3   3  -2   56.99   12.30
   3   3  -2   30.30   10.50
  -3   3   2   50.89   14.50
   1  -3  -2   42.40    7.80
  -1  -3   2   43.30    6.90
   1  -3  -2   61.29    9.10
  -1  -3   2   41.10    8.50
  -1   3   2   51.49    9.20
   1   3  -2   43.90    7.20
  -1   3   2   60.09    9.00
   1   3  -2   52.39    9.20
  -1   3   2   57.99    8.00
   1  -3   2  464.35   33.10
  -1  -3  -2  432.26   34.10
  -1  -3  -2  433.76   34.50
   1  -3   2  445.36   34.30
  -1  -3  -2  460.25   33.40
   1   3   2  496.95   33.50
  -1   3  -2  452.65   33.00
   1   3   2  476.45   34.00
  -1   3  -2  431.56   34.40
   1   3   2  477.25   34.50
   3  -3   2   34.10   11.30
  -3  -3  -2   56.89   10.50
  -3  -3  -2   55.59   14.70
   3  -3   2   23.00    6.70
  -3  -3  -2   37.80   10.00
   3  -3   2   52.59   10.20
   3  -3   2   20.60   10.40
   3   3   2   69.99   11.30
  -3   3  -2   53.39   14.90
  -3   3  -2   28.10    8.00
   3   3   2   46.60   10.90
   3   3   2   50.99   10.40
  -5  -3  -2  509.95   44.70
  -5  -3  -2  540.65   42.30
   5  -3   2  540.85   41.30
   5  -3   2  518.45   42.70
   5   3   2  546.95   42.50
   5   3   2  452.05   42.30
  -5   3  -2  524.55   45.50
   7  -3   2    6.20   15.30
   7  -3   2   26.20   14.00
  -7  -3  -2   27.50   17.30
  -7  -3  -2   27.90   17.00
   7   3   2   10.00   15.00
   7   3   2   35.50   15.40
  -7   3  -2   19.30   19.40
   9  -3   2   14.10   18.80
  -9  -3  -2   48.20   24.00
   9  -3   2   31.00   20.30
   9   3   2   60.99   24.10
   9   3   2   17.50   17.70
  -9   3  -2   12.60   22.70
  11  -3   2  -20.10   25.30
 -11  -3  -2   23.50   26.60
  11  -3   2   -9.40   20.60
  11   3   2  -11.90   26.80
  11   3   2   10.90   20.10
 -11   3  -2   -2.40   26.00
  13  -3   2   11.80   23.50
 -13  -3  -2   67.59   36.20
  13   3   2   25.70   27.20
 -13   3  -2   59.09   35.60
  14  -4  -2   -2.10   27.10
 -14   4   2  -75.19   39.00
  14   4  -2   35.40   28.30
  12  -4  -2    6.00   28.50
  12  -4  -2   18.50   22.10
 -12  -4   2   15.10   30.00
  12   4  -2   14.60   23.20
 -12   4   2  -13.60   29.40
  12   4  -2   13.40   30.70
  10  -4  -2   45.60   23.30
  10  -4  -2   71.49   26.60
 -10  -4   2   72.89   28.40
  10   4  -2   26.60   19.80
  10   4  -2   51.09   23.60
 -10   4   2   20.10   26.20
  -8  -4   2   45.30   22.80
   8  -4  -2   -1.50   15.50
   8  -4  -2   41.00   16.90
   8   4  -2   19.80   15.50
  -8   4   2   42.50   21.60
   8   4  -2   33.40   16.80
   6  -4  -2  546.05   44.40
   6  -4  -2  510.35   44.40
  -6  -4   2  528.75   45.80
   6   4  -2  505.35   43.80
  -6   4   2  550.14   46.60
   6   4  -2  554.84   45.30
   6   4  -2  502.75   39.20
   4  -4  -2   86.89   15.40
   4  -4  -2  132.69   18.20
  -4  -4   2   95.39   18.40
   4  -4  -2  121.89   13.30
  -4  -4   2  101.79   10.80
   4   4  -2  101.69   16.70
   4   4  -2  103.79   15.70
  -4   4   2  149.79   21.10
   2  -4  -2 2103.89  151.18
  -2  -4   2 2276.17  151.68
  -2  -4   2 2141.69  150.28
   2  -4  -2 2174.58  150.98
  -2  -4   2 2140.39  150.78
   2  -4  -2 2222.28  150.78
  -2   4   2 2057.19  150.78
   2   4  -2 2226.18  150.48
   2   4  -2 2263.87  151.78
  -2   4   2 2103.59  151.08
  -2   4   2 2271.97  150.78
   0  -4  -2  122.89   12.30
   0  -4  -2  117.29   12.30
   0   4  -2  119.99   13.00
   0   4   2  122.99   12.40
   0   4   2  147.99   13.00
   2  -4   2   59.19   11.30
   2  -4   2   71.59   14.00
  -2  -4  -2   40.80   11.00
  -2  -4  -2   46.90   10.30
  -2  -4  -2   79.39   13.40
  -2  -4  -2   47.50   11.30
   2   4   2   57.49   12.40
   2   4   2   43.90   10.70
  -2   4  -2   82.99   14.80
   2   4   2   56.49   11.00
   2   4   2   72.69   10.90
  -2   4  -2   62.59   10.50
  -4  -4  -2  609.74   46.40
   4  -4   2  603.74   46.00
  -4  -4  -2  599.44   48.70
   4  -4   2  613.04   47.10
   4   4   2  607.64   47.10
  -4   4  -2  604.34   45.50
   4   4   2  587.94   48.10
   4   4   2  643.64   47.50
  -4   4  -2  609.84   49.50
   6  -4   2   43.80   15.10
  -6  -4  -2   67.79   16.10
   6  -4   2   65.19   16.00
  -6  -4  -2   46.30   18.70
   6   4   2   46.80   15.40
   6   4   2   58.39   17.20
  -6   4  -2   37.00   18.40
  -8  -4  -2   35.40   20.80
  -8  -4  -2   90.99   23.90
   8  -4   2   15.70   17.80
   8  -4   2   23.90   18.00
   8   4   2   56.79   18.40
  -8   4  -2  -35.40   17.60
   8   4   2   66.39   19.70
 -10  -4  -2   19.40   25.00
  10  -4   2   19.80   23.40
  10  -4   2   81.59   25.30
  10   4   2  102.79   29.10
 -10   4  -2   34.30   26.50
  10   4   2   67.19   22.60
 -12  -4  -2   32.30   28.90
  12  -4   2  -22.30   21.90
  12  -4   2  -45.50   36.30
  12   4   2   13.00   30.80
  12   4   2   12.10   23.90
 -12   4  -2  -26.50   26.30
  13  -5  -2   41.70   26.00
  13  -5  -2   16.80   34.10
 -13  -5   2   35.80   35.90
  13   5  -2   29.70   34.90
  13   5  -2    7.10   23.80
 -13   5   2   69.39   40.00
 -11  -5   2   19.40   29.00
  11  -5  -2   24.70   22.90
  11  -5  -2   66.29   28.00
 -11   5   2   31.70   29.80
  11   5  -2   -8.90   20.10
  11   5  -2   29.40   27.50
   9  -5  -2   51.49   21.30
  -9  -5   2   75.19   25.60
   9  -5  -2   97.09   23.70
  -9   5   2   70.69   25.70
   9   5  -2   70.99   22.70
   9   5  -2   40.60   19.80
   7  -5  -2   49.20   17.10
  -7  -5   2  111.49   21.90
   7  -5  -2  114.09   19.00
  -7   5   2  113.59   23.10
   7   5  -2   26.80   14.30
   7   5  -2   55.09   16.70
   5  -5  -2  189.08   23.30
  -5  -5   2  160.98   15.70
   5  -5  -2  171.38   17.30
   5  -5  -2  177.28   23.80
  -5  -5   2  171.78   25.10
   5   5  -2  185.38   21.70
   5   5  -2  179.18   23.80
  -5   5   2  173.68   25.80
   3  -5  -2   18.70   11.40
  -3  -5   2   14.80   11.40
   3  -5  -2    9.60   10.20
  -3   5   2    0.50   12.10
   3   5  -2   11.00   11.20
   3   5  -2   28.90   10.90
  -1  -5   2 5762.32  393.36
  -1  -5   2 5773.32  392.66
   1  -5  -2 5858.61  393.16
   1  -5  -2 5743.03  392.86
   1   5  -2 5605.64  392.46
   1   5  -2 5687.03  393.46
  -1   5   2 5872.31  392.86
   1  -5   2  979.40   70.29
   1  -5   2  992.20   68.99
  -1  -5  -2 1002.10   70.49
  -1  -5  -2  925.01   68.89
  -1   5  -2  957.60   70.49
  -1   5  -2  975.20   68.79
   1   5   2 1001.30   69.29
  -3  -5  -2  100.69   14.60
   3  -5   2  105.89   14.70
  -3  -5  -2   96.49   17.10
   3   5   2   62.99   13.10
   3   5   2   79.29   13.70
  -3   5  -2   75.69   12.10
   3   5   2   94.59   14.20
  -3   5  -2  112.69   18.30
  -5  -5  -2  262.27   31.30
  -5  -5  -2  259.07   26.20
   5  -5   2  260.27   27.10
   5  -5   2  245.48   25.90
   5   5   2  315.27   28.10
  -5   5  -2  256.47   32.00
   5   5   2  260.97   28.70
   7  -5   2   15.30   14.60
  -7  -5  -2   57.99   19.80
  -7  -5  -2   18.00   16.30
   7  -5   2   49.20   16.20
  -7   5  -2   23.60   18.90
   7   5   2    0.70   13.70
   7   5   2   38.50   18.00
  -9  -5  -2    7.70   21.60
   9  -5   2   18.30   20.90
  -9  -5  -2   20.40   24.50
   9  -5   2   31.80   20.40
   9   5   2   38.40   19.60
   9   5   2   32.50   21.60
  -9   5  -2   15.50   22.00
  11  -5   2  -44.40   24.90
 -11  -5  -2  -38.10   25.80
  11  -5   2    3.20   21.20
  11   5   2   29.10   28.70
 -11   5  -2   26.40   27.90
  11   5   2   -7.00   20.40
  13  -5   2  -11.70   23.60
 -13  -5  -2   15.70   32.60
 -13   5  -2   79.69   37.20
  13   5   2   42.70   41.20
  13   5   2   48.50   27.40
  12  -6  -2   14.20   22.60
  12  -6  -2   -6.60   28.70
 -12  -6   2  -38.10   28.50
  12   6  -2   82.19   34.00
  12   6  -2  -40.90   18.90
 -12   6   2   31.50   35.60
  10  -6  -2  101.89   26.90
 -10  -6   2  181.98   33.70
  10  -6  -2  176.98   34.60
  10   6  -2   92.39   24.60
  10   6  -2  165.18   31.40
 -10   6   2  153.28   35.50
   8  -6  -2   29.80   19.10
   8  -6  -2   25.30   17.70
  -8   6   2   47.40   23.70
   8   6  -2   10.70   16.00
   8   6  -2    9.40   14.80
   6  -6  -2  243.98   28.10
  -6  -6   2  168.38   18.60
  -6  -6   2  213.18   29.00
   6  -6  -2  208.18   25.70
   6   6  -2  200.48   24.60
  -6   6   2  204.38   29.70
   6   6  -2  194.98   27.80
   4  -6  -2   44.30   12.80
   4  -6  -2   17.20   12.50
  -4  -6   2   24.60   14.20
  -4  -6   2   26.60    8.50
  -4   6   2   21.80   15.60
   4   6  -2   27.80   12.70
   4   6  -2   13.40   11.60
   2  -6  -2  178.28   19.10
   2  -6  -2  173.88   20.50
   2   6  -2  137.89   17.40
   2   6  -2  172.18   19.90
  -2   6   2  183.58   21.10
   0  -6  -2   25.00    9.20
   0  -6  -2   31.50    9.30
   0   6   2   35.60    9.90
   0   6  -2   30.10   10.70
   2  -6   2 1567.94  111.99
  -2  -6  -2 1660.93  113.09
  -2  -6  -2 1494.95  112.69
   2   6   2 1630.54  112.19
  -2   6  -2 1648.44  113.39
   2   6   2 1586.34  112.49
  -4  -6  -2   73.89   15.10
   4  -6   2   71.39   16.30
  -4  -6  -2  117.79   20.50
   4   6   2  105.89   17.50
   4   6   2   84.49   15.60
  -4   6  -2   96.29   19.20
  -6  -6  -2   42.70   18.40
   6  -6   2   54.49   15.90
   6  -6   2   19.90   13.70
  -6  -6  -2   47.50   15.10
   6   6   2   36.20   15.40
  -6   6  -2   51.29   20.50
   6   6   2   33.70   14.70
   8  -6   2   56.89   19.50
   8  -6   2   39.40   18.50
  -8  -6  -2  128.49   24.40
  -8  -6  -2   39.90   20.00
   8   6   2  100.99   24.00
  -8   6  -2   34.10   22.70
   8   6   2   37.80   18.20
  10  -6   2   30.90   23.00
  10  -6   2   89.39   26.50
 -10  -6  -2   34.10   27.60
  10   6   2   42.30   20.80
  10   6   2  103.49   29.50
 -10   6  -2   77.39   30.50
 -12  -6  -2  -16.00   27.70
  12  -6   2   45.90   27.00
  12   6   2   -0.50   22.80
  12   6   2   21.90   31.60
 -12   6  -2   16.20   29.70
 -13  -7   2   12.10   35.10
  13  -7  -2   11.90   25.20
  13  -7  -2  -28.50   33.30
  13   7  -2   -4.40   33.60
  13   7  -2   22.00   25.80
 -13   7   2   58.29   39.00
 -11  -7   2    4.50   30.50
  11  -7  -2   64.79   29.20
  11  -7  -2   29.20   23.40
 -11   7   2   74.69   31.70
  11   7  -2   81.59   30.10
  11   7  -2   46.50   22.90
   9  -7  -2   72.29   24.70
  -9  -7   2   55.29   24.60
   9  -7  -2   49.90   22.80
   9   7  -2   76.39   23.30
  -9   7   2   15.70   25.30
   9   7  -2   25.90   17.60
  -7  -7   2  106.99   15.40
  -7  -7   2  112.19   24.10
   7  -7  -2   62.79   18.00
   7  -7  -2   82.29   19.40
   7   7  -2   82.09   18.60
   7   7  -2  107.49   23.80
  -7   7   2  114.09   24.60
   5  -7  -2   39.30   14.80
  -5  -7   2   43.00   10.80
   5  -7  -2   48.00   14.80
  -5  -7   2   32.30   17.50
  -5   7   2   25.60   17.50
   5   7  -2   55.09   15.30
   5   7  -2   53.59   16.10
  -3  -7   2  172.58   21.60
   3  -7  -2  159.28   19.30
   3   7  -2  145.59   21.40
   3   7  -2  149.49   19.30
  -3   7   2  170.98   22.40
   1  -7  -2   42.60   10.50
  -1  -7   2   38.40   13.40
   1   7  -2   42.60   11.60
   1  -7   2   10.00    8.90
  -1   7  -2   -0.30    8.10
   1   7   2   12.40    9.10
  -3  -7  -2 1345.07   94.99
   3  -7   2 1312.47   94.39
  -3  -7  -2 1318.67   95.39
   3   7   2 1281.97   94.59
   3   7   2 1329.47   94.29
  -3   7  -2 1349.27   93.59
  -3   7  -2 1278.77   95.59
  -5  -7  -2  558.54   40.90
   5  -7   2  417.16   40.80
  -5  -7  -2  427.26   42.70
   5   7   2  452.65   40.50
  -5   7  -2  481.75   43.30
   5   7   2  532.55   42.00
  -7  -7  -2   -5.20   16.20
  -7  -7  -2  -28.20   16.40
   7  -7   2   -0.20   15.10
   7  -7   2    6.40   13.70
   7   7   2  -10.00   16.60
  -7   7  -2   -2.30   19.20
   7   7   2   -1.90   13.20
   9  -7   2  110.19   25.40
  -9  -7  -2   81.09   26.20
  -9  -7  -2  155.48   31.50
   9  -7   2   28.30   20.90
  -9   7  -2   70.09   27.50
   9   7   2   64.09   27.30
   9   7   2   50.09   20.70
 -11  -7  -2  -33.40   26.60
  11  -7   2   11.30   23.40
  11  -7   2   29.10   27.70
  11   7   2  -13.60   26.90
  11   7   2   33.00   23.10
 -11   7  -2  -72.19   24.70
  13  -7   2   47.60   28.80
 -13  -7  -2   21.50   35.10
  13   7   2   39.20   38.70
 -13   7  -2   90.69   37.70
  13   7   2   15.90   25.10
  12  -8  -2   39.20   31.50
  12  -8  -2    3.30   22.60
 -12  -8   2   -4.80   33.20
 -12   8   2   15.60   32.30
  12   8  -2   -4.10   30.30
  12   8  -2  -22.20   21.00
  10  -8  -2   23.90   21.00
  10  -8  -2   23.20   23.60
 -10  -8   2   22.50   26.80
 -10   8   2   53.09   30.10
  10   8  -2   18.20   21.00
  10   8  -2   40.90   21.30
  -8  -8   2   70.59   15.80
  -8  -8   2   93.29   24.20
   8  -8  -2   73.69   20.60
   8  -8  -2   11.90   15.70
   8   8  -2   61.09   21.20
  -8   8   2   75.89   23.90
   8   8  -2   60.59   18.50
  -6  -8   2  390.16   30.10
  -6  -8   2  387.06   41.40
   6  -8  -2  294.77   33.40
   6  -8  -2  363.56   30.90
   6  -8  -2  384.76   35.50
   6   8  -2  344.57   34.40
  -6   8   2  357.36   37.90
   6   8  -2  361.06   36.40
   4  -8  -2   -1.40   12.50
  -4  -8   2   19.50    9.90
  -4  -8   2   37.80   15.20
   4   8  -2   21.00   14.20
  -4   8   2   42.70   17.60
   4   8  -2   23.20   12.20
   2  -8  -2  223.18   22.00
   2   8  -2  214.18   21.90
   2   8  -2  254.77   26.20
   0  -8   2   66.39   11.90
   0  -8  -2   80.99   12.60
   0   8  -2   82.19   14.50
   2  -8   2  266.27   24.30
  -2  -8  -2  236.68   24.90
  -2  -8  -2  291.67   26.70
   2   8   2  248.88   25.50
  -2   8  -2  266.37   27.30
   2   8   2  242.78   24.10
   4  -8   2   32.60   14.00
  -4  -8  -2  104.69   19.60
  -4  -8  -2   62.59   14.70
   4   8   2   34.50   13.90
   4   8   2   57.89   14.20
  -4   8  -2   52.89   17.80
  -6  -8  -2   19.30   13.90
  -6  -8  -2   20.10   18.10
   6  -8   2  -10.80   12.60
   6   8   2   32.00   15.10
   6   8   2    5.70   13.00
  -6   8  -2    1.00   17.20
  -8  -8  -2  132.59   26.50
   8  -8   2   92.89   22.70
   8  -8   2   53.09   20.20
  -8  -8  -2   50.29   24.60
   8   8   2  109.49   26.30
   8   8   2   44.90   18.50
  -8   8  -2   60.69   25.50
 -10  -8  -2   80.49   29.10
  10  -8   2   94.29   28.80
  10  -8   2   60.19   25.90
  10   8   2   52.79   22.80
 -10   8  -2   54.99   30.30
  10   8   2  175.68   33.10
  12  -8   2   14.30   26.10
 -12  -8  -2    6.10   33.30
  12   8   2  -20.80   22.90
 -12   8  -2   -4.70   33.30
  12   8   2   11.50   32.70
 -13  -9   2    2.90   36.10
  13  -9  -2   33.20   27.00
  13  -9  -2   52.69   36.70
  13   9  -2   15.10   35.40
  13   9  -2  -50.89   23.60
 -13   9   2  -44.10   34.10
  11  -9  -2   63.19   30.30
 -11  -9   2   67.79   33.20
  11  -9  -2   44.90   24.40
  11   9  -2   50.69   27.20
  11   9  -2   14.60   21.50
 -11   9   2   90.29   35.60
  -9  -9   2   36.90   26.00
   9  -9  -2    8.50   22.70
   9  -9  -2   20.70   20.20
   9   9  -2   40.50   18.60
   9   9  -2   23.70   23.70
  -9   9   2   31.40   24.90
   7  -9  -2  159.78   26.50
   7  -9  -2  117.29   23.70
   7  -9  -2  206.98   21.60
  -7  -9   2  225.68   21.10
  -7  -9   2  207.88   30.40
   7   9  -2  189.38   30.00
  -7   9   2  162.78   30.50
   7   9  -2  117.39   23.40
  -5  -9   2   27.50   14.90
  -5  -9   2   -1.30   11.00
   5  -9  -2    8.00   13.70
  -5   9   2   20.00   18.40
   5   9  -2   43.20   14.10
   5   9  -2   14.30   14.30
   3  -9  -2    3.90   10.60
  -3  -9   2   11.40   12.50
   3   9  -2   -5.90   10.40
   3   9  -2  -23.30    9.70
  -3   9   2   -1.30   14.60
   1  -9  -2  694.73   51.69
   1   9  -2  684.73   52.79
   1  -9   2  122.49   16.70
  -1  -9  -2  145.69   17.60
   1   9   2  118.99   16.70
  -3  -9  -2  942.31   68.49
   3  -9   2  844.22   67.09
  -3  -9  -2  922.31   68.89
  -3   9  -2  941.31   69.19
   3   9   2  869.21   67.99
   3   9   2  904.91   67.39
  -5  -9  -2   24.30   15.50
  -5  -9  -2   14.60   14.60
   5  -9   2   20.70   14.50
  -5   9  -2   19.80   16.40
   5   9   2   -1.30   13.60
   5   9   2    6.00   12.50
  -7  -9  -2   58.29   18.20
   7  -9   2   11.70   14.80
  -7  -9  -2   56.69   20.50
   7   9   2  -11.60   12.40
   7   9   2   48.10   18.20
  -7   9  -2   13.40   18.60
  -9  -9  -2   42.90   26.40
   9  -9   2   49.70   22.30
  -9  -9  -2  104.19   29.70
   9   9   2   44.60   27.60
  -9   9  -2   63.29   25.60
   9   9   2   29.80   19.00
  11  -9   2   -3.80   24.10
 -11  -9  -2   -6.40   27.80
 -11   9  -2   18.80   28.60
  11   9   2   52.79   24.20
  11   9   2   27.10   29.40
 -13  -9  -2   67.99   38.30
  13  -9   2   48.60   30.30
 -13   9  -2   49.50   36.80
  13   9   2   48.60   38.50
  13   9   2   34.00   28.80
 -12 -10   2   11.60   32.50
  12 -10  -2   30.70   33.20
  12 -10  -2   -0.70   22.90
  12  10  -2   15.10   23.20
  12  10  -2   49.70   32.10
 -12  10   2   64.19   35.00
  10 -10  -2   25.90   23.60
  10 -10  -2  -11.50   25.50
 -10 -10   2   26.10   28.20
  10  10  -2   21.00   23.40
 -10  10   2   14.10   26.80
  10  10  -2    7.20   19.60
   8 -10  -2   69.29   20.60
  -8 -10   2  138.49   26.80
  -8 -10   2  173.98   21.00
   8  10  -2   83.29   21.30
  -8  10   2   79.39   27.80
   8  10  -2   32.50   18.20
  -6 -10   2  537.85   47.10
  -6 -10   2  581.84   42.80
   6 -10  -2  419.86   44.00
  -6  10   2  581.74   48.60
   6  10  -2  551.44   47.40
   6  10  -2  491.35   44.90
   4 -10  -2  427.16   37.10
  -4 -10   2  437.56   39.00
   4  10  -2  439.46   39.30
   4  10  -2  438.26   37.40
  -4  10   2  388.86   39.60
   2 -10  -2  164.28   20.00
   2  10  -2  153.48   19.50
   2  10  -2  164.38   22.30
   0 -10   2    3.80    8.80
   0 -10  -2    8.40    9.10
   0  10  -2   20.60   11.40
   2 -10   2   15.20   11.10
   2  10   2   27.60   12.10
   2  10   2   17.90   12.10
  -2  10  -2   31.90   16.20
   4 -10   2   50.99   15.50
  -4 -10  -2   81.39   18.70
  -4 -10  -2   76.09   16.80
   4  10   2   78.19   16.00
  -4  10  -2   37.70   17.80
   4  10   2   58.19   14.90
   6 -10   2    8.20   14.90
  -6 -10  -2   44.10   20.00
  -6 -10  -2   19.20   16.60
   6  10   2   -6.30   13.00
  -6  10  -2   11.00   19.20
   6  10   2    2.90   15.60
  -8 -10  -2   38.90   21.90
   8 -10   2   12.60   17.20
  -8 -10  -2   -9.80   20.50
  -8  10  -2    6.80   20.90
   8  10   2    5.70   17.10
   8  10   2   19.40   21.00
  10 -10   2  122.69   29.70
 -10 -10  -2   96.69   30.30
  10  10   2   80.99   25.00
  10  10   2  154.78   35.20
 -10  10  -2   47.70   29.20
  12 -10   2    8.20   26.30
 -12 -10  -2   13.50   31.30
  12  10   2   -4.30   24.10
 -12  10  -2    1.60   30.30
  12  10   2    3.60   32.20
 -13 -11   2   20.50   36.70
  13 -11  -2  -15.70   26.60
  13  11  -2    7.00   26.70
 -13  11   2   33.20   43.90
  13  11  -2    8.00   36.00
 -11 -11   2   22.60   30.00
  11 -11  -2   13.70   22.80
  11  11  -2   19.60   26.20
  11  11  -2   -0.60   22.00
 -11  11   2   11.50   33.80
   9 -11  -2   18.50   18.20
  -9 -11   2  -15.80   23.80
  -9  11   2   29.50   27.20
   9  11  -2   26.00   18.60
   9  11  -2   39.20   24.60
  -7 -11   2  149.39   26.80
   7 -11  -2   60.19   19.60
  -7 -11   2  109.79   18.40
   7  11  -2   71.19   19.10
  -7  11   2  126.89   26.00
  -5 -11   2   59.49   19.30
   5 -11  -2   49.90   16.40
  -5 -11   2   58.19   14.60
   5  11  -2   47.40   15.50
   5  11  -2   36.50   16.70
  -5  11   2   36.40   18.50
   3 -11  -2    6.50   12.00
   3  11  -2    2.90   11.30
   3  11  -2    0.50   11.20
   1 -11  -2  298.77   28.20
   1  11  -2  324.87   30.70
   1 -11   2   13.60   10.70
  -1 -11  -2    3.10    9.50
   1  11   2   10.20   12.20
  -3 -11  -2  185.28   25.20
   3 -11   2  151.58   22.40
  -3 -11  -2  181.78   24.70
  -3  11  -2  177.88   26.60
   3  11   2  196.38   24.20
   3  11   2  177.68   23.20
  -5 -11  -2  413.36   36.40
  -5 -11  -2  314.77   35.80
   5 -11   2  315.37   34.70
   5  11   2  346.17   34.60
   5  11   2  416.36   36.30
  -5  11  -2  397.06   39.00
   7 -11   2  -15.30   14.70
  -7 -11  -2   -0.70   18.20
  -7 -11  -2   -3.20   19.80
   7  11   2   -6.80   17.40
   7  11   2   22.80   16.40
  -7  11  -2   -0.70   20.10
  -9 -11  -2   14.80   27.40
   9 -11   2   14.10   21.20
  -9 -11  -2   15.50   24.60
   9  11   2   70.79   27.50
   9  11   2   20.90   19.70
  -9  11  -2   45.70   27.60
  11 -11   2   37.60   26.50
 -11 -11  -2   41.00   29.40
  11  11   2    3.10   22.10
 -11  11  -2   58.59   33.50
  11  11   2   26.60   31.70
 -13 -11  -2   32.00   37.90
  13 -11   2   66.29   34.20
  13  11   2   12.50   28.10
 -13  11  -2    3.20   38.00
  12 -12  -2  -13.10   24.70
 -12 -12   2   11.00   32.00
 -12  12   2   94.39   39.90
  12  12  -2   10.90   24.70
  12  12  -2   24.30   32.40
  10 -12  -2    9.60   21.30
 -10 -12   2   11.10   27.30
  10  12  -2   21.20   21.20
  10  12  -2   36.50   28.10
 -10  12   2   39.80   30.10
   8 -12  -2  -32.80   14.70
  -8 -12   2   43.90   25.10
  -8 -12   2   18.10   16.80
   8  12  -2    8.80   18.50
  -8  12   2  -14.50   24.30
   8  12  -2   19.10   18.10
  -6 -12   2  371.66   41.10
   6 -12  -2  268.27   34.90
  -6 -12   2  375.46   32.80
  -6  12   2  308.57   39.20
   6  12  -2  303.27   38.40
   6  12  -2  295.77   35.10
  -4 -12   2   33.50   17.20
   4 -12  -2    6.40   13.20
  -4  12   2   33.00   17.60
   4  12  -2   28.80   13.60
   4  12  -2   14.00   13.00
   2 -12  -2   14.50   11.60
   2  12  -2   16.10   13.60
   2  12  -2   13.10   11.20
   0 -12  -2   35.10   11.90
   0 -12   2   25.30   11.40
   0  12  -2   50.89   15.80
   2 -12   2  669.63   54.19
   2  12   2  703.13   54.49
   2  12   2  720.23   56.19
   4 -12   2    7.20   12.80
  -4 -12  -2   -0.50   15.00
  -4 -12  -2   21.70   15.40
   4  12   2    3.10   12.40
  -4  12  -2   25.80   17.50
   4  12   2   16.10   13.60
   6 -12   2   15.50   16.90
  -6 -12  -2   -1.20   18.00
  -6 -12  -2  -16.10   15.30
   6  12   2  -12.70   15.00
  -6  12  -2    8.80   19.90
   6  12   2  -14.90   12.60
  -8 -12  -2   58.19   23.20
  -8 -12  -2   24.00   24.50
   8 -12   2   18.80   18.70
   8  12   2   27.40   18.10
   8  12   2   28.00   22.20
  -8  12  -2   53.59   26.30
 -10 -12  -2   13.70   28.30
  10 -12   2   57.29   25.00
 -10  12  -2   38.20   31.40
  10  12   2   23.10   22.20
  10  12   2   95.99   34.00
  12 -12   2    9.40   27.50
 -12 -12  -2  -11.50   28.00
  12  12   2   20.90   25.30
 -12  12  -2   59.49   35.60
  12  12   2   58.29   36.80
 -11 -13   2   80.19   34.40
  11 -13  -2   25.20   24.90
  11  13  -2   -3.20   32.80
 -11  13   2  -16.30   31.60
  11  13  -2   29.70   24.30
   9 -13  -2   -6.20   17.00
  -9 -13   2  -16.30   24.40
   9  13  -2   -6.30   17.80
   9  13  -2   -3.90   20.00
  -9  13   2   18.20   30.60
  -7 -13   2   71.79   22.80
  -7 -13   2   82.59   20.40
   7 -13  -2   20.30   16.50
  -7  13   2  100.29   25.60
   7  13  -2   65.99   19.90
   7  13  -2   33.40   17.50
   5 -13  -2   35.30   16.00
  -5 -13   2   46.80   16.50
  -5 -13   2   72.19   21.00
  -5  13   2   77.39   21.50
   5  13  -2   23.10   15.70
   5  13  -2   28.30   15.80
   3 -13  -2   12.10   11.30
   3  13  -2   39.90   16.00
   3  13  -2   13.20   12.00
   1  13  -2  168.38   27.60
   1 -13   2   82.39   16.20
  -1 -13  -2   91.79   16.60
  -3 -13  -2   67.19   18.70
  -3 -13  -2   94.69   18.50
   3 -13   2   44.50   14.70
  -3  13  -2   58.99   19.80
   3  13   2   67.39   16.60
   3  13   2   64.99   17.70
  -5 -13  -2  205.28   32.20
   5 -13   2  244.08   30.20
  -5 -13  -2  309.47   33.30
   5  13   2  244.88   30.30
  -5  13  -2  205.18   32.90
   5  13   2  245.38   31.10
  -7 -13  -2  -15.20   20.60
   7 -13   2  -14.40   17.00
  -7 -13  -2   23.40   23.30
  -7  13  -2   51.89   25.30
   7  13   2    5.70   16.80
   7  13   2   46.70   21.30
  -9 -13  -2   63.09   37.10
   9 -13   2   47.10   21.80
  -9 -13  -2   47.40   27.20
   9  13   2   19.10   20.20
  -9  13  -2   29.50   27.40
   9  13   2   47.00   26.70
 -11 -13  -2   26.00   28.80
  11 -13   2   -6.40   24.70
  11  13   2   67.89   35.90
 -11  13  -2    4.50   30.10
  11  13   2  -22.40   20.30
 -12 -14   2   -6.20   33.10
  12 -14  -2   -7.30   25.90
 -12  14   2  -31.10   38.00
  12  14  -2    7.80   32.50
  12  14  -2    7.00   24.20
 -10 -14   2   88.79   32.00
  10 -14  -2   28.10   23.80
 -10  14   2   99.39   37.30
  10  14  -2   68.19   31.90
  10  14  -2   52.99   24.30
  -8 -14   2   10.80   24.50
   8 -14  -2   -5.30   17.70
   8  14  -2   -6.00   17.60
   8  14  -2    6.80   18.70
  -8  14   2   26.80   24.70
   6 -14  -2  250.97   33.40
  -6 -14   2  320.37   33.30
  -6 -14   2  243.58   35.00
   6  14  -2  266.37   34.70
   6  14  -2  252.17   32.70
  -6  14   2  285.17   37.90
  -4 -14   2  425.56   40.00
   4 -14  -2  422.46   38.30
   4  14  -2  379.36   38.90
   4  14  -2  447.16   38.40
   2 -14  -2  455.55   39.10
   2  14  -2  446.96   41.00
   0 -14  -2  572.14   47.40
   0 -14   2  635.64   48.00
   0  14  -2  568.74   49.50
   2 -14   2  244.28   27.30
   2  14   2  191.78   25.40
   2  14   2  243.78   29.20
   4 -14   2   12.90   14.30
  -4 -14  -2    9.70   15.60
  -4 -14  -2   31.90   18.60
   4  14   2   23.50   16.00
   4  14   2   -5.80   12.50
  -4  14  -2  -21.20   17.00
   6 -14   2  -15.60   16.10
  -6 -14  -2  -14.80   17.80
  -6 -14  -2   40.20   19.90
   6  14   2    7.60   15.70
   6  14   2   -1.40   13.70
  -6  14  -2    1.60   21.20
  -8 -14  -2    4.60   24.20
   8 -14   2  -32.10   16.60
  -8 -14  -2  -20.00   22.60
   8  14   2   25.50   23.90
  -8  14  -2   -7.60   24.30
   8  14   2    7.20   17.30
  10 -14   2  -18.00   17.90
 -10 -14  -2   51.39   30.40
  10  14   2   12.70   22.70
 -10  14  -2   55.39   32.30
  10  14   2   17.40   30.80
  12 -14   2   26.90   30.80
 -12 -14  -2   27.70   32.30
  12  14   2  -41.60   23.70
 -12  14  -2  -29.00   33.30
  12  14   2  -30.00   36.80
 -11 -15   2   19.10   31.90
  11 -15  -2   37.10   25.40
  11  15  -2   96.59   34.60
  11  15  -2  -31.60   21.20
 -11  15   2   58.09   36.40
   9 -15  -2   -5.30   18.30
  -9 -15   2   50.89   29.20
   9  15  -2   43.70   22.10
   9  15  -2   36.20   23.60
  -9  15   2   26.90   27.00
  -7 -15   2  108.89   29.60
  -7 -15   2   87.99   23.90
   7 -15  -2   51.49   22.60
  -7  15   2   77.19   27.90
   7  15  -2   63.89   22.60
   7  15  -2   79.29   22.10
  -5 -15   2   -1.60   16.60
   5 -15  -2    8.10   14.80
  -5  15   2  -12.00   18.90
   5  15  -2   -0.50   14.20
   5  15  -2  -20.30   12.70
   3 -15  -2   -3.20   10.70
   3  15  -2  -12.80   12.30
   3  15  -2    1.40   12.60
  -1 -15   2  362.86   32.30
   1 -15  -2  331.27   32.20
   1  15  -2  351.56   35.70
  -1 -15  -2  225.28   27.40
   1 -15   2  213.48   26.60
   3 -15   2  186.18   26.90
  -3 -15  -2  212.08   31.20
   3  15   2  298.07   32.40
   3  15   2  229.08   28.20
   5 -15   2   56.79   19.10
  -5 -15  -2   73.89   22.30
  -5 -15  -2   70.89   22.00
  -5  15  -2    8.20   18.60
   5  15   2   47.00   18.10
   5  15   2   53.09   17.80
  -7 -15  -2   31.70   21.40
  -7 -15  -2   -2.70   23.70
   7 -15   2   -0.40   19.20
   7  15   2   30.90   22.10
  -7  15  -2   -4.90   22.60
   7  15   2   41.40   19.90
  -9 -15  -2   36.70   28.50
   9 -15   2   39.90   23.90
   9  15   2   22.60   20.70
  -9  15  -2   28.80   28.10
   9  15   2   19.10   26.80
 -11 -15  -2   33.90   31.10
  11 -15   2    4.90   25.10
 -11  15  -2    6.50   34.60
  11  15   2   -0.30   34.30
  11  15   2    0.40   23.00
 -12 -16   2   75.09   41.40
  12 -16  -2   43.00   30.80
  12  16  -2    0.00   27.90
  12  16  -2   35.50   40.70
 -12  16   2   -5.80   39.30
 -10 -16   2   23.30   32.40
  10 -16  -2    2.80   19.30
  10  16  -2   65.69   29.00
 -10  16   2   25.80   31.60
  10  16  -2   10.00   22.90
   8 -16  -2   11.20   19.40
  -8 -16   2   43.00   26.40
   8  16  -2   30.90   20.10
  -8  16   2   57.39   29.40
   8  16  -2  -11.80   18.70
   6 -16  -2  117.39   24.80
  -6 -16   2  195.98   31.30
  -6 -16   2  179.38   28.40
   6  16  -2  127.89   25.50
   6  16  -2  106.19   27.10
  -6  16   2  177.08   33.60
   4 -16  -2  103.19   20.60
  -4 -16   2  105.99   25.40
   4  16  -2  105.49   21.20
   4  16  -2   99.89   20.30
   2 -16  -2  142.89   21.50
   2  16  -2  122.19   23.10
   0 -16  -2  254.27   28.80
   0 -16   2  235.68   28.40
   0  16  -2  232.98   31.70
  -2 -16  -2   26.90   13.80
   2 -16   2   53.49   15.90
   2  16   2   23.00   16.60
   2  16   2   41.40   15.50
  -4 -16  -2   34.30   18.90
   4 -16   2   27.20   15.20
  -4 -16  -2   -6.70   16.80
   4  16   2    8.10   13.60
   4  16   2   47.90   17.60
  -6 -16  -2   -8.30   17.30
  -6 -16  -2   -9.30   20.90
   6 -16   2    6.50   17.20
   6  16   2   -1.90   16.70
  -6  16  -2   -3.00   20.10
   6  16   2   14.00   16.70
  -8 -16  -2  -23.50   26.60
  -8 -16  -2  -35.90   22.50
   8 -16   2    1.20   21.20
   8  16   2   -4.80   22.50
  -8  16  -2   22.00   27.80
   8  16   2   -1.70   18.60
 -10 -16  -2   61.19   32.90
  10 -16   2   -3.80   23.40
  10  16   2   51.89   24.80
 -10  16  -2   58.79   30.40
  10  16   2   -1.30   29.90
  12 -16   2   19.70   32.00
 -12  16  -2   -5.10   37.30
  12  16   2  -30.90   25.40
  11 -17  -2  -14.60   24.20
 -11 -17   2   24.30   33.80
 -11  17   2   20.00   37.30
  11  17  -2   87.69   38.10
  11  17  -2  -16.90   21.20
  -9 -17   2   50.29   30.60
   9 -17  -2    1.20   20.30
   9  17  -2   23.40   21.60
  -9  17   2   39.50   32.20
   9  17  -2   10.70   23.80
  -7 -17   2  131.89   30.40
  -7 -17   2  115.89   27.30
   7 -17  -2   66.89   23.10
   7  17  -2   42.90   22.50
  -7  17   2   29.10   26.30
   7  17  -2   55.79   22.20
  -5 -17   2  -10.70   20.60
   5 -17  -2   -6.90   15.10
   5  17  -2   12.10   15.90
   5  17  -2   36.40   16.50
   3 -17  -2   -8.40   11.20
   3  17  -2   28.00   15.50
   1 -17  -2  115.99   20.70
  -1 -17   2  108.29   19.40
   1  17  -2  142.69   25.40
  -1 -17  -2   98.59   19.50
   1 -17   2   77.09   18.00
   3 -17   2   56.89   17.50
   3  17   2   74.19   18.00
   3  17   2   89.49   21.60
   5 -17   2   97.99   24.10
  -5 -17  -2  191.68   32.50
  -5 -17  -2  245.58   32.60
  -5  17  -2  204.08   33.50
   5  17   2  174.58   29.30
   5  17   2  169.08   27.40
  -7 -17  -2   13.00   26.30
   7 -17   2  -31.40   18.00
  -7 -17  -2   -5.70   21.30
   7  17   2   14.80   18.40
  -7  17  -2    3.50   23.80
   7  17   2  -18.80   19.50
  -9 -17  -2   69.79   31.50
   9 -17   2   55.19   26.00
  -9  17  -2   35.70   32.10
   9  17   2   83.59   32.50
   9  17   2   26.40   22.00
  11 -17   2   12.80   28.30
 -11 -17  -2  -23.30   27.30
  11  17   2   52.39   39.90
 -11  17  -2   50.19   37.40
  11  17   2   38.00   25.50
  10 -18  -2   32.30   23.00
 -10 -18   2   26.30   31.20
 -10  18   2   81.19   39.10
  10  18  -2   58.29   31.90
  10  18  -2   41.60   25.20
   8 -18  -2    3.60   20.70
  -8 -18   2   -7.00   23.30
   8  18  -2   10.70   19.60
   8  18  -2   18.10   22.40
  -8  18   2    9.30   28.70
   6 -18  -2   61.99   21.10
  -6 -18   2  132.79   28.00
  -6 -18   2   93.59   26.60
   6  18  -2   48.70   21.00
   6  18  -2   51.79   20.10
   4 -18  -2    6.30   15.40
  -4 -18   2   23.50   19.90
   4  18  -2   -0.80   14.90
   4  18  -2    4.40   15.20
   2 -18  -2  125.69   21.70
   2  18  -2  164.18   28.00
   0 -18   2  683.03   56.99
   0 -18  -2  774.32   58.09
   0  18  -2  662.33   59.79
  -2 -18  -2  133.49   22.70
   2 -18   2  143.69   23.60
   2  18   2  122.89   24.70
  -4 -18  -2  150.58   28.10
  -4 -18  -2   59.39   23.30
   4 -18   2   74.29   20.40
   4  18   2   88.49   20.70
   4  18   2  107.79   23.90
   6 -18   2   57.69   22.70
  -6 -18  -2   25.90   21.60
  -6 -18  -2   46.90   26.30
  -6  18  -2   47.80   25.60
   6  18   2   26.20   19.00
   6  18   2   21.70   18.90
   8 -18   2   -2.20   22.50
  -8 -18  -2   -3.00   25.70
  -8 -18  -2   70.29   32.40
   8  18   2   40.50   25.50
   8  18   2   13.50   19.80
  -8  18  -2  -11.00   28.00
 -10 -18  -2  113.99   36.30
  10 -18   2   60.59   27.40
 -10  18  -2   -7.60   32.70
  10  18   2    4.30   21.10
  10  18   2   57.69   34.40
 -11 -19   2  -16.70   34.40
  11 -19  -2   10.80   27.10
 -11  19   2    0.30   37.60
  11  19  -2   39.20   35.50
  11  19  -2    8.20   26.40
   9 -19  -2   38.90   24.40
  -9 -19   2    1.30   31.60
   9  19  -2  -10.30   21.20
   9  19  -2   42.00   24.90
  -9  19   2   42.20   31.20
   7 -19  -2   32.70   22.40
  -7 -19   2   21.80   25.70
  -7 -19   2   30.40   26.30
   7  19  -2   -4.30   17.70
   7  19  -2   27.50   21.60
  -7  19   2  -28.40   24.60
  -5 -19   2   20.70   21.80
   5 -19  -2  -13.20   15.70
   5  19  -2    9.60   16.50
   5  19  -2   51.19   21.60
   3 -19  -2   -4.10   13.20
   3  19  -2   12.70   16.90
   1 -19  -2  -12.70   12.20
  -1 -19   2   12.40   14.30
   1  19  -2   42.00   21.20
  -1 -19  -2   27.30   15.80
   1 -19   2   42.50   15.80
   1  19   2   20.00   18.70
   3 -19   2  194.28   29.30
  -3 -19  -2  194.98   28.50
   3  19   2  233.18   34.20
   3  19   2  268.47   32.60
   5 -19   2   70.89   22.20
  -5 -19  -2   71.89   27.00
  -5 -19  -2   73.69   25.80
   5  19   2   72.09   23.10
   5  19   2   64.19   21.70
  -7 -19  -2   14.50   27.70
  -7 -19  -2    6.40   22.00
   7 -19   2   -4.50   19.60
  -7  19  -2   40.20   28.60
   7  19   2   -2.80   19.90
   7  19   2  -31.20   15.80
  -9 -19  -2   35.30   32.50
   9 -19   2  -20.20   22.90
   9  19   2   11.20   21.20
   9  19   2   27.00   31.20
  -9  19  -2  -30.40   27.10
  11 -19   2    8.50   28.70
 -11 -19  -2  -22.30   37.50
  11  19   2  -40.90   37.50
 -11  19  -2   40.40   39.30
  11  19   2   -7.20   26.10
  10 -20  -2   39.30   25.10
 -10 -20   2   19.90   36.50
 -10  20   2   47.10   36.10
  10  20  -2  -33.40   24.70
  10  20  -2   18.60   27.10
  -8 -20   2   28.30   29.60
   8 -20  -2  -24.20   21.60
   8  20  -2  -12.30   21.10
  -8  20   2   35.70   29.30
   8  20  -2  -13.10   19.70
   6 -20  -2   72.89   22.90
  -6 -20   2   69.79   28.70
  -6 -20   2   97.59   29.20
   6  20  -2   90.59   24.30
   6  20  -2   91.39   26.90
  -4 -20   2  180.78   33.80
   4 -20  -2   98.99   23.70
   4  20  -2  127.09   27.00
   2 -20  -2  158.98   24.90
  -2 -20   2  113.09   22.80
   2  20  -2  176.18   30.40
   0 -20   2  385.36   42.50
   0 -20  -2  403.96   43.40
   0  20  -2  420.56   47.40
   2 -20   2   90.49   21.30
  -2 -20  -2   93.59   21.70
   2  20   2   70.99   23.70
   4 -20   2   41.20   18.50
  -4 -20  -2   92.09   27.10
  -4 -20  -2   94.19   26.80
   4  20   2   63.99   22.80
   4  20   2   46.40   19.40
  -6 -20  -2   16.10   22.70
   6 -20   2    5.60   21.10
  -6 -20  -2   48.00   28.00
   6  20   2   23.20   20.10
   6  20   2    6.80   18.90
  -8 -20  -2  -28.20   34.90
   8 -20   2   10.00   24.10
  -8 -20  -2   30.00   26.80
   8  20   2   -9.00   25.10
  -8  20  -2    0.60   27.20
   8  20   2   24.70   22.20
 -10 -20  -2   22.20   31.10
  10 -20   2   32.70   28.40
  10  20   2   45.50   35.70
  10  20   2   26.80   25.60
 -10  20  -2    6.80   33.00
   9 -21  -2   17.30   22.60
  -9 -21   2   -4.10   31.20
   9  21  -2   11.30   25.20
  -9  21   2  113.19   38.60
   9  21  -2   21.60   25.20
   7 -21  -2   24.00   20.60
  -7 -21   2   17.20   25.30
  -7 -21   2    2.00   31.50
   7  21  -2   37.30   24.20
   7  21  -2   50.19   22.70
   5 -21  -2   -5.70   16.10
  -5 -21   2  -12.70   20.20
   5  21  -2   10.00   18.00
   5  21  -2    2.60   18.20
   3 -21  -2  -12.50   13.90
   3  21  -2   41.80   21.50
   1 -21  -2  110.69   23.30
  -1 -21   2   87.49   22.40
   1  21  -2   90.89   26.90
   1 -21   2    1.10   14.20
  -1 -21  -2   13.50   15.30
   1  21   2   25.60   19.50
   3 -21   2   42.50   18.40
  -3 -21  -2   18.30   16.50
   3  21   2   -4.00   19.00
  -5 -21  -2  144.99   33.90
   5 -21   2   81.39   25.40
  -5 -21  -2   93.09   29.60
   5  21   2   99.09   27.00
   5  21   2   86.29   24.40
   7 -21   2   -7.60   22.30
  -7 -21  -2   -5.70   23.30
  -7 -21  -2   30.20   31.50
   7  21   2  -13.40   17.80
   7  21   2   22.80   24.20
  -9 -21  -2   27.40   32.00
   9 -21   2   58.49   31.10
   9  21   2   -6.70   23.30
   9  21   2   48.70   33.00
  -9  21  -2   10.90   31.90
 -10 -22   2   12.50   37.40
  10 -22  -2   -0.90   25.90
  10  22  -2   45.60   28.30
 -10  22   2   40.70   38.00
  10  22  -2   18.00   30.50
  -8 -22   2   -6.60   27.60
   8 -22  -2    1.70   23.20
   8  22  -2   37.40   27.50
   8  22  -2   -6.50   20.80
  -6 -22   2  -30.30   23.70
  -6 -22   2   46.30   29.70
   6 -22  -2   19.10   19.80
   6  22  -2   38.10   23.10
   6  22  -2   11.10   21.30
   4 -22  -2    9.90   17.20
   4  22  -2    4.30   20.30
   2 -22  -2   67.89   21.00
  -2 -22   2  101.29   23.10
   2  22  -2   83.69   26.20
   0 -22   2  281.27   36.10
   0 -22  -2  237.98   33.80
   0  22  -2  281.87   40.30
   2 -22   2   30.00   18.10
  -2 -22  -2  -32.80   13.40
   2  22   2  -20.70   18.40
  -4 -22  -2   72.49   21.60
  -4 -22  -2   80.49   27.10
  -4 -22  -2   89.79   27.50
   4 -22   2   -6.00   14.80
   4  22   2    7.20   21.10
   4  22   2   31.30   19.30
  -6 -22  -2    2.00   29.00
   6 -22   2    2.50   21.30
  -6 -22  -2   -9.20   24.40
   6  22   2   25.90   19.60
   6  22   2   50.19   24.10
   8 -22   2   14.20   26.60
  -8 -22  -2   31.70   28.30
   8  22   2   43.50   28.30
   8  22   2    8.30   21.80
  10 -22   2   -1.20   29.80
 -10 -22  -2  -29.60   34.40
 -10  22  -2   63.89   39.10
  10  22   2   10.00   35.70
  10  22   2  -16.40   25.60
   9 -23  -2   44.40   26.60
  -9 -23   2  -33.00   27.60
   9  23  -2  -52.19   26.20
   9  23  -2   17.40   24.30
  -7 -23   2   51.39   31.90
   7 -23  -2   -0.10   22.60
   7  23  -2    5.00   20.30
   7  23  -2   30.60   28.30
   5 -23  -2   -9.80   16.50
  -5 -23   2   28.00   26.60
   5  23  -2   11.10   21.50
   3 -23  -2   -7.10   14.70
  -3 -23   2   -4.80   14.70
   3  23  -2  -10.40   19.70
  -1 -23   2  111.09   24.40
   1 -23  -2  119.79   24.20
   1  23  -2  119.19   31.10
   1 -23   2  -16.90   14.60
  -1 -23  -2    7.00   17.20
  -1  23  -2   41.20   29.10
   1  23   2   -6.50   21.50
   3 -23   2  158.98   28.20
  -3 -23  -2  141.59   28.50
   3  23   2  254.87   37.70
   5 -23   2  135.69   30.50
  -5 -23  -2  190.58   37.60
  -5 -23  -2  171.58   38.80
   5  23   2  162.68   31.10
   5  23   2  195.98   35.50
  -7 -23  -2  -14.60   33.60
   7 -23   2    8.60   23.30
  -7 -23  -2    3.40   25.20
   7  23   2   -7.30   20.40
   7  23   2  -23.40   22.20
  -9 -23  -2  -24.30   31.50
   9 -23   2  -18.70   27.90
  -9  23  -2   20.00   35.10
   9  23   2   46.20   34.10
   9  23   2  -28.60   22.40
  -8 -24   2   -8.90   29.40
   8 -24  -2    0.50   24.40
   8  24  -2   16.30   27.10
   8  24  -2    4.20   23.80
   6 -24  -2  -10.10   23.70
  -6 -24   2  119.69   35.30
  -6 -24   2   90.89   36.30
   6  24  -2   54.89   26.90
   4 -24  -2    1.50   17.60
   4  24  -2   12.60   21.60
  -2 -24   2  104.09   26.10
   2 -24  -2   71.29   22.20
   2  24  -2  132.49   32.40
   0 -24   2    7.10   17.40
   0 -24  -2   29.90   18.10
   0  24  -2   28.40   23.90
  -2 -24  -2   79.59   22.40
   2 -24   2   70.69   21.70
   2  24   2   75.09   27.50
   4 -24   2   -0.40   16.90
  -4 -24  -2  -14.10   23.60
  -4 -24  -2   -4.80   16.10
  -4 -24  -2  -19.20   22.80
   4  24   2  -23.30   22.20
  -6 -24  -2    4.30   26.00
   6 -24   2    0.50   21.70
  -6 -24  -2   34.10   33.10
   6  24   2   28.60   22.80
   6  24   2   32.20   24.50
  -8 -24  -2   -5.80   29.40
   8 -24   2   -8.60   26.60
   8  24   2    6.70   28.40
   8  24   2   18.70   24.10
   7 -25  -2    1.00   23.00
  -7 -25   2   -0.30   29.60
   7  25  -2  -33.80   21.40
   7  25  -2   10.70   25.50
   5 -25  -2  -23.40   19.10
  -5 -25   2   -2.80   27.80
   5  25  -2   20.40   26.00
   3 -25  -2   24.60   18.50
  -3 -25   2   -8.40   14.80
   3  25  -2   -9.50   23.20
  -1 -25   2   32.70   19.80
   1 -25  -2   40.60   20.60
   1  25  -2   22.40   25.90
   1 -25   2   26.50   19.10
  -1 -25  -2    6.50   17.80
  -1  25  -2   21.60   27.90
   1  25   2    9.80   23.90
   3 -25   2   90.89   24.00
  -3 -25  -2   92.69   26.70
   3  25   2  136.69   31.60
  -5 -25  -2  -16.60   30.10
  -5 -25  -2   10.80   29.40
  -5 -25  -2   32.50   21.60
   5 -25   2   -9.00   21.00
   5  25   2   55.29   25.80
  -7 -25  -2   25.20   30.80
   7 -25   2  -30.80   22.60
  -7 -25  -2   37.40   39.40
   7  25   2   24.30   24.80
   7  25   2   20.10   25.70
  -8 -26   2  -27.60   30.80
   8 -26  -2   10.70   27.90
   8  26  -2   12.20   27.60
   8  26  -2  -27.00   28.20
  -6 -26   2   11.50   36.00
  -6 -26   2   50.89   34.20
   6 -26  -2   21.10   23.40
   6  26  -2   40.50   28.70
  -4 -26   2   39.30   21.50
   4 -26  -2   15.60   21.60
   4  26  -2    0.80   25.30
   2 -26  -2   34.00   19.80
  -2 -26   2   14.30   20.20
   2  26  -2   43.80   28.50
   0 -26  -2   86.09   23.60
   0 -26   2  102.79   24.40
   0  26   2   46.00   29.00
   0  26  -2   67.69   31.10
   2 -26   2   -4.60   18.60
  -2 -26  -2    1.20   17.90
  -2  26  -2   28.40   28.90
   2  26   2   18.30   26.70
  -4 -26  -2   47.60   29.60
   4 -26   2   42.10   22.40
  -4 -26  -2   54.59   30.40
  -4 -26  -2   48.70   24.00
   4  26   2   66.29   31.30
  -6 -26  -2  -16.90   33.90
   6 -26   2   -0.70   22.90
  -6 -26  -2   12.20   22.20
  -6 -26  -2  -15.00   26.50
   6  26   2   10.30   22.70
   6  26   2   39.50   27.90
   8 -26   2    1.60   27.90
  -8 -26  -2    1.20   33.60
   8  26   2    5.20   33.60
   8  26   2    8.60   25.70
  -7 -27   2    4.30   35.40
   7 -27  -2   28.50   25.90
   7  27  -2   30.10   31.00
   5 -27  -2   15.40   20.70
  -5 -27   2   36.10   20.20
  -5 -27   2   -0.90   29.60
   5  27  -2   -0.10   24.90
   3 -27  -2    2.70   18.10
  -3 -27   2   15.30   21.10
   3  27  -2   28.90   27.60
   1 -27  -2   19.80   19.20
  -1 -27   2   -5.50   19.30
   1  27  -2  -11.10   24.80
   1 -27   2   -1.60   19.40
  -1 -27  -2   -6.40   18.70
   1  27   2    2.80   24.60
  -1  27  -2   46.00   30.40
  -3 -27  -2   77.59   26.80
   3 -27   2   36.40   21.80
   3  27   2   89.59   29.00
  -5 -27  -2   61.59   36.20
  -5 -27  -2   31.40   24.50
  -5 -27  -2   71.29   34.90
   5 -27   2    9.10   22.50
   5  27   2   -4.70   24.50
  -7 -27  -2   11.00   34.30
   7 -27   2   -8.60   26.80
   7  27   2   10.10   25.50
   7  27   2   -4.70   28.70
  -6 -28   2   82.29   40.20
   6 -28  -2   14.70   25.30
   6  28  -2   44.00   31.10
  -4 -28   2  -18.20   18.30
  -4 -28   2  -40.10   28.90
   4 -28  -2    9.50   21.80
   4  28  -2   26.60   29.10
  -2 -28   2   27.60   21.70
   2 -28  -2  -12.80   16.60
   2  28  -2   32.40   33.80
   0 -28  -2  -10.10   20.10
   0 -28   2    8.00   20.60
   0  28  -2    2.30   28.70
   0  28   2    8.00   26.70
   2 -28   2   30.90   21.30
  -2 -28  -2   18.60   22.40
   2  28   2  -27.70   25.10
  -2  28  -2  -19.00   29.00
  -4 -28  -2   22.70   25.40
   4 -28   2   36.00   23.10
  -4 -28  -2   -4.00   28.70
  -4 -28  -2   -8.70   32.20
   4  28   2  -12.10   25.50
  -6 -28  -2   32.30   38.40
   6 -28   2  -26.60   24.90
  -6 -28  -2    0.00   22.50
  -6 -28  -2  -15.50   30.20
   6  28   2   18.80   28.00
   5 -29  -2    9.20   23.10
  -5 -29   2   11.00   34.30
  -5 -29   2   31.60   23.30
   5  29  -2    6.30   25.90
  -3 -29   2   21.40   23.20
   3 -29  -2   21.20   22.30
   3  29  -2   43.70   32.70
   1 -29  -2   14.00   21.60
  -1 -29   2    6.30   20.60
   1  29  -2    0.60   29.10
  -1  29   2   15.40   30.40
   1 -29   2  -30.10   17.90
  -1 -29  -2   11.70   21.80
  -1  29  -2   96.19   35.00
   1  29   2   37.30   30.50
  -3 -29  -2   48.90   25.90
   3 -29   2   43.80   22.90
   3  29   2   92.09   32.70
  -3  29  -2  -12.80   33.50
  -5 -29  -2   33.00   34.90
  -5 -29  -2  -11.00   24.60
   5 -29   2   27.90   27.10
  -5 -29  -2   92.09   41.40
   5  29   2  -14.20   29.30
  -4 -30   2   -4.40   23.30
   4 -30  -2   14.00   23.70
  -4 -30   2   82.99   39.00
   4  30  -2   45.20   32.50
   2 -30  -2   12.00   22.00
  -2 -30   2   35.50   24.30
   2  30  -2   11.30   34.90
   0 -30  -2    5.20   23.00
   0 -30   2   20.60   23.70
   0  30   2   32.80   32.70
   0  30  -2   17.40   31.70
  -2 -30  -2    4.10   22.80
   2 -30   2   17.00   24.50
   2  30   2   31.00   32.80
  -2  30  -2  118.49   38.80
  -4 -30  -2  -11.20   34.20
  -4 -30  -2  -11.30   22.60
  -4 -30  -2   12.30   32.70
   4 -30   2   -5.20   22.80
   4  30   2   41.50   34.80
  -3 -31   2    8.70   24.50
   3 -31  -2   15.40   22.60
   3  31  -2   66.79   37.80
   1 -31  -2   -6.90   21.40
  -1 -31   2  -11.10   22.00
  -1  31   2    6.10   31.00
   1  31  -2  -25.90   31.50
   1 -31   2  -22.20   20.80
  -1 -31  -2   30.60   24.90
   1  31   2   29.70   34.50
  -1  31  -2  -26.10   34.00
  -3 -31  -2  -20.00   24.20
   3 -31   2   -2.20   23.10
   3  31   2  -25.10   29.10
  -3  31  -2    9.60   35.40
   0 -32   2   24.00   26.50
   0 -32  -2   -5.20   23.60
   0  32  -2   27.00   35.80
   0  32   2   45.00   37.50
  14   0  -3   13.60   38.20
 -14   0   3   35.80   40.10
  14   0  -3  -26.80   23.80
  12   0  -3   42.80   29.10
  12   0  -3    6.10   22.50
 -12   0   3   63.09   34.70
  10   0  -3    0.90   19.30
  10   0  -3   31.40   22.50
 -10   0   3   23.00   26.30
  -8   0   3   28.70   21.20
   8   0  -3   -3.20   15.80
   8   0  -3    7.30   15.00
   8   0  -3    3.80    9.10
  -6   0   3  102.89   21.70
  -6   0   3  115.79   14.00
   6   0  -3   88.49   17.30
   6   0  -3   74.19   10.70
   6   0  -3   93.09   18.50
   4   0  -3  338.47   29.90
   4   0  -3  289.27   28.60
  -4   0   3  398.26   30.40
  -4   0   3  321.17   26.90
   2   0  -3  160.98   14.90
  -2   0   3  185.88   16.30
  -2   0   3  185.58   17.40
  -2   0   3  216.58   17.00
  -2   0   3  187.98   18.00
   2   0  -3  193.08   18.60
   2   0  -3  197.18   17.80
   2   0  -3  205.68   16.80
   2   0  -3  174.48   16.00
   0   0   3  296.37   23.30
   0   0  -3  314.27   22.60
   0   0  -3  304.07   23.60
   0   0  -3  289.67   23.70
   2   0   3  395.76   33.10
  -2   0  -3  410.86   33.70
   2   0   3  449.86   31.90
  -2   0  -3  439.76   31.70
   2   0   3  437.96   33.50
  -2   0  -3  427.56   31.90
   2   0   3  399.06   31.50
  -2   0  -3  386.26   33.20
   4   0   3  579.14   40.60
   4   0   3  534.85   42.30
  -4   0  -3  440.46   40.10
  -4   0  -3  582.04   44.70
  -4   0  -3  593.54   43.70
   6   0   3   33.30   14.20
  -6   0  -3   10.70   17.70
   6   0   3   10.70   12.00
   8   0   3   24.90   17.80
   8   0   3   62.19   19.30
  -8   0  -3   38.90   21.40
 -10   0  -3   12.00   25.10
  10   0   3  -14.90   17.60
  10   0   3  -11.90   23.20
  12   0   3  -13.10   23.40
 -12   0  -3   -2.60   28.40
  13  -1  -3   34.70   32.40
 -13  -1   3   10.60   36.90
  13  -1  -3   20.00   24.60
 -13   1   3   -1.60   34.50
  13   1  -3    6.30   25.70
  13   1  -3   -4.80   32.70
 -11  -1   3   38.90   30.40
  11  -1  -3   83.79   29.00
  11  -1  -3   48.10   23.50
  11   1  -3   48.50   27.70
  11   1  -3   35.60   22.20
 -11   1   3   71.79   32.50
   9  -1  -3   79.79   21.60
  -9  -1   3  100.39   26.70
   9  -1  -3   54.29   19.30
   9   1  -3   69.79   19.90
   9   1  -3   56.49   20.90
  -9   1   3  100.99   27.80
  -7  -1   3   -5.30   17.30
  -7  -1   3   14.30   10.30
   7  -1  -3   -3.90    7.70
   7  -1  -3    8.20   14.40
   7  -1  -3    3.60   14.00
  -7   1   3   -0.40   17.70
   7   1  -3  -18.30   11.50
   7   1  -3   -6.60   12.90
   7   1  -3   -7.30    6.60
  -5  -1   3  171.08   22.90
   5  -1  -3  121.39   19.50
  -5  -1   3  142.19   16.60
   5  -1  -3  157.88   21.10
  -5   1   3  184.28   15.70
   5   1  -3  136.89   19.90
  -5   1   3  151.78   22.50
   5   1  -3  102.39   18.70
   3  -1  -3  241.58   23.00
   3  -1  -3  263.17   22.90
   3  -1  -3  232.58   23.90
   3  -1  -3  282.97   21.80
  -3  -1   3  247.78   23.30
  -3  -1   3  237.78   22.20
   3   1  -3  247.98   22.20
   3   1  -3  247.08   24.20
  -3   1   3  267.17   21.50
   3   1  -3  258.27   22.50
  -3   1   3  244.28   23.70
  -1  -1   3 1115.29   75.49
   1  -1  -3 1094.59   75.69
   1  -1  -3 1075.69   75.79
  -1  -1   3  961.70   74.59
  -1  -1   3 1142.49   76.09
   1  -1  -3 1117.99   75.39
  -1   1   3 1049.09   75.19
   1   1  -3 1089.89   75.69
  -1   1   3 1072.99   75.69
  -1   1   3 1091.89   75.59
   1   1  -3 1094.39   75.89
   1   1  -3 1103.09   74.89
   1  -1   3  124.69   14.00
   1  -1   3  149.88   14.20
  -1  -1  -3  125.69   13.80
  -1  -1  -3  120.69   13.70
  -1  -1  -3  138.79   13.90
   1  -1   3  122.89   13.00
   1   1   3  123.19   14.10
   1   1   3  141.69   14.00
  -1   1  -3  138.79   14.70
  -1   1  -3  117.29   13.40
   1   1   3  126.39   13.00
  -1   1  -3  147.39   14.80
  -3  -1  -3   71.69   13.30
   3  -1   3   60.49    9.30
   3  -1   3   57.09   13.30
  -3  -1  -3   60.19   10.70
  -3  -1  -3   51.79   10.40
  -3  -1  -3   85.69   16.10
   3  -1   3   74.89   12.50
  -3  -1  -3   71.09   11.60
   3  -1   3   80.99   10.00
   3   1   3   80.99   13.10
   3   1   3   63.99   12.20
  -3   1  -3   85.49   16.30
  -3   1  -3   65.09   12.00
  -3   1  -3   71.99   14.70
   3   1   3   77.99   10.80
  -3   1  -3   61.39    9.80
  -5  -1  -3  393.06   37.30
   5  -1   3  403.36   32.60
   5  -1   3  359.26   34.90
  -5  -1  -3  410.66   35.30
   5   1   3  369.26   32.80
   5   1   3  423.26   34.90
  -5   1  -3  384.56   37.00
   7  -1   3   11.20   14.20
  -7  -1  -3   -0.70   17.90
   7  -1   3    7.00   14.80
   7   1   3   23.50   14.60
  -7   1  -3    8.90   18.70
   7   1   3   27.90   15.40
   9  -1   3   49.90   22.40
   9  -1   3   45.20   20.20
  -9  -1  -3   55.79   24.30
   9   1   3   30.00   18.90
   9   1   3   36.20   22.10
  -9   1  -3   41.60   23.70
 -11  -1  -3   55.39   28.90
  11  -1   3   -4.60   19.50
  11  -1   3   83.09   27.70
 -11   1  -3   83.29   30.50
  11   1   3   45.80   24.70
  11   1   3  111.19   30.20
 -13  -1  -3    5.60   32.00
  13  -1   3    5.50   25.40
  13   1   3   23.50   26.60
 -13   1  -3   14.40   31.00
  14  -2  -3  -29.20   36.00
 -14  -2   3   -2.00   41.10
  14  -2  -3   11.30   28.10
 -14   2   3   21.30   39.90
  14   2  -3   -4.40   26.10
  14   2  -3  -44.90   34.90
 -12  -2   3   67.09   35.20
  12  -2  -3   62.49   29.80
  12  -2  -3   14.40   23.50
  12   2  -3   12.40   23.00
  12   2  -3   48.40   30.60
 -12   2   3   24.00   32.10
 -10  -2   3   38.90   26.60
  10  -2  -3   64.29   23.40
  10  -2  -3   46.20   21.30
  10   2  -3    1.90   17.90
 -10   2   3    6.60   25.70
  10   2  -3    3.50   20.60
   8  -2  -3   99.19   22.30
   8  -2  -3  126.39   22.90
  -8  -2   3  179.38   27.20
   8   2  -3  104.49   22.10
   8   2  -3   81.49   20.90
  -8   2   3  176.48   28.40
  -6  -2   3  136.09   24.90
   6  -2  -3  184.18   24.00
   6  -2  -3  179.48   24.30
   6   2  -3  144.99   22.70
   6   2  -3  174.08   23.30
  -6   2   3  246.98   29.30
  -4  -2   3  184.38   20.10
  -4  -2   3  230.18   24.60
   4  -2  -3  217.08   22.70
   4  -2  -3  218.78   23.60
   4  -2  -3  193.48   19.00
   4   2  -3  201.68   24.10
  -4   2   3  261.57   25.90
  -4   2   3  196.38   18.90
   4   2  -3  213.48   21.30
  -2  -2   3  482.25   36.50
   2  -2  -3  511.55   38.20
   2  -2  -3  471.95   36.50
  -2  -2   3  444.06   37.10
  -2  -2   3  508.35   37.70
   2  -2  -3  495.95   36.80
  -2  -2   3  493.75   36.20
   2  -2  -3  502.55   37.10
  -2   2   3  507.45   37.90
  -2   2   3  527.65   36.80
   2   2  -3  492.75   36.40
  -2   2   3  493.65   37.00
  -2   2   3  459.05   36.70
   2   2  -3  529.05   36.50
   2   2  -3  481.85   38.20
   0  -2   3  174.98   16.50
   0  -2  -3  193.38   17.50
   0  -2   3  176.28   14.70
   0  -2   3  209.48   16.50
   0  -2  -3  201.88   17.70
   0   2  -3  183.28   16.90
   0   2   3  207.38   16.90
   0   2  -3  179.68   17.40
   0   2  -3  205.88   15.50
  -2  -2  -3  169.28   18.50
  -2  -2  -3  172.58   20.10
  -2  -2  -3  150.88   16.20
   2  -2   3  179.78   16.90
   2  -2   3  153.38   18.40
   2  -2   3  204.08   20.40
  -2  -2  -3  168.38   16.50
   2  -2   3  148.19   16.00
   2   2   3  178.58   18.50
   2   2   3  181.78   16.30
   2   2   3  176.98   16.90
  -2   2  -3  159.08   16.60
  -2   2  -3  165.48   16.10
  -2   2  -3  205.28   21.80
   2   2   3  168.08   19.00
   4  -2   3  425.16   31.80
   4  -2   3  382.06   33.40
  -4  -2  -3  389.36   32.50
  -4  -2  -3  424.46   36.30
  -4  -2  -3  409.76   34.30
  -4   2  -3  389.86   36.60
   4   2   3  392.76   33.70
  -4   2  -3  368.56   31.10
   4   2   3  429.86   33.00
   6  -2   3   60.49   17.20
   6  -2   3   33.90   13.60
  -6  -2  -3   57.19   11.30
  -6  -2  -3   31.30   18.30
  -6  -2  -3   46.70   17.10
   6   2   3   16.10   13.80
   6   2   3   44.40   14.00
  -6   2  -3   10.10   18.30
  -8  -2  -3   26.00   21.20
   8  -2   3   34.50   17.10
   8  -2   3   -3.40   15.80
   8   2   3   23.40   17.50
   8   2   3   14.90   15.80
  10  -2   3   72.49   23.70
  10  -2   3   77.99   26.30
 -10  -2  -3  116.59   29.90
  10   2   3   90.19   28.50
 -10   2  -3   84.29   28.20
  10   2   3   75.99   24.20
 -12  -2  -3  122.99   36.60
  12  -2   3   50.89   26.60
 -12   2  -3   48.70   33.20
  12   2   3   66.79   35.70
  12   2   3   21.20   24.20
 -13  -3   3  -19.30   34.70
  13  -3  -3   14.60   26.30
  13  -3  -3   14.80   32.20
 -13   3   3   15.10   35.90
  13   3  -3  -14.70   23.70
  13   3  -3  -40.40   30.20
 -11  -3   3   72.19   31.40
  11  -3  -3   16.00   23.60
  11  -3  -3    5.80   20.80
  11   3  -3   59.99   28.20
 -11   3   3   36.70   31.20
  11   3  -3   19.10   22.90
   9  -3  -3   53.29   21.40
   9  -3  -3   14.00   17.10
  -9  -3   3   64.59   25.40
   9   3  -3   32.10   18.60
  -9   3   3   53.29   25.40
   9   3  -3   27.20   18.40
   7  -3  -3   72.49   19.10
  -7  -3   3  107.29   22.50
   7  -3  -3   88.39   19.40
   7   3  -3   64.59   17.20
  -7   3   3  102.89   23.50
   7   3  -3   88.59   19.00
  -5  -3   3   38.50   17.10
   5  -3  -3   65.09   16.30
   5  -3  -3   45.80   14.50
   5  -3  -3   61.39   10.70
   5   3  -3   46.60   13.70
  -5   3   3  101.29   18.90
   5   3  -3   43.80   14.70
   3  -3  -3   21.20    8.50
   3  -3  -3   28.00   11.20
   3  -3  -3    3.30    9.80
   3  -3  -3   20.00   10.80
  -3  -3   3    4.10   10.60
  -3   3   3   13.50   11.10
   3   3  -3    9.90    9.70
   3   3  -3    9.70    8.60
   3   3  -3   19.50   11.20
  -1  -3   3   62.79   10.00
   1  -3  -3   67.39   12.00
  -1  -3   3   55.89    8.20
   1  -3  -3   74.39    9.90
   1  -3  -3   68.59   10.30
  -1   3   3   89.49   10.10
  -1   3   3   81.19   11.80
   1   3  -3   81.59   11.60
  -1  -3  -3  864.61   62.49
  -1  -3  -3  883.51   60.59
   1  -3   3  866.11   60.39
   1  -3   3  845.92   61.79
  -1  -3  -3  848.52   61.59
   1  -3   3  849.72   61.59
   1   3   3  885.51   60.69
  -1   3  -3  848.62   61.89
   1   3   3  894.51   62.39
   1   3   3  849.72   61.39
   3  -3   3   16.60    9.70
  -3  -3  -3   16.70    9.90
  -3  -3  -3    4.60    8.30
  -3  -3  -3    9.10   12.90
   3  -3   3    0.90    6.00
   3   3   3   -3.60    8.90
  -3   3  -3   -3.10    9.60
   3   3   3    1.30    8.40
   3   3   3   -4.70    9.30
  -3   3  -3   14.40   13.30
   5  -3   3   88.29   13.60
  -5  -3  -3   87.39   16.30
  -5  -3  -3   37.90   17.20
   5  -3   3   60.59   15.20
   5   3   3   63.99   15.30
  -5   3  -3   39.30   17.80
  -5   3  -3   34.80   12.00
   5   3   3   60.19   14.40
   7  -3   3  -18.90   14.40
  -7  -3  -3   -6.90   16.50
  -7  -3  -3   21.40   18.00
  -7  -3  -3   -3.40   10.70
   7  -3   3   18.60   13.90
   7   3   3   -1.40   13.50
   7   3   3   -7.00   12.80
  -7   3  -3    8.50   18.50
  -9  -3  -3  107.19   27.80
   9  -3   3  139.99   24.80
   9  -3   3   50.59   21.40
   9   3   3  102.09   24.50
  -9   3  -3   35.80   24.50
   9   3   3   65.09   22.30
  11  -3   3   60.79   27.30
 -11  -3  -3   36.30   27.00
  11  -3   3   -8.30   20.10
  11   3   3    4.90   21.40
 -11   3  -3    6.00   24.20
  11   3   3    4.30   28.90
 -13  -3  -3   29.30   34.10
  13  -3   3  -15.80   23.30
  13   3   3   15.20   27.30
 -13   3  -3   27.50   31.30
 -14  -4   3  -24.50   40.70
  14  -4  -3  -15.10   25.70
  14   4  -3   58.89   31.50
 -14   4   3   60.99   47.30
  12  -4  -3    7.30   21.90
 -12  -4   3   -8.30   32.60
  12  -4  -3    6.60   28.00
 -12   4   3   24.50   35.60
  12   4  -3   35.40   30.40
  12   4  -3    7.10   22.80
  10  -4  -3   26.20   20.90
  10  -4  -3   60.09   24.90
 -10  -4   3   74.99   30.10
  10   4  -3   20.70   19.90
  10   4  -3    5.70   22.10
 -10   4   3   82.69   30.60
   8  -4  -3    7.40   16.00
  -8  -4   3    4.90   19.00
   8  -4  -3   23.80   16.80
   8   4  -3   15.70   15.00
  -8   4   3   19.70   21.40
   8   4  -3  -15.30   13.30
  -6  -4   3   45.20   16.80
   6  -4  -3   13.80   14.30
   6  -4  -3   36.40   13.90
   6   4  -3    2.10   11.90
  -6   4   3   90.09   19.20
   6   4  -3   20.40   14.50
   4  -4  -3    6.60    8.20
  -4  -4   3   17.00   13.60
   4  -4  -3   -0.80   10.50
   4  -4  -3   -0.10   10.80
  -4   4   3   18.60   13.20
   4   4  -3    4.50   11.10
   4   4  -3    9.10   10.30
   2  -4  -3   13.20   10.60
  -2  -4   3    7.40    9.50
  -2  -4   3   20.80    7.70
  -2  -4   3   26.80   10.30
   2  -4  -3   33.40   10.10
   2  -4  -3   24.70   11.30
  -2   4   3   13.00   10.80
  -2   4   3    6.30   10.40
   2   4  -3   13.10    8.60
   2   4  -3    0.00   10.00
  -2   4   3   32.30    9.40
   0  -4  -3 1644.44  114.49
   0  -4  -3 1653.43  112.59
   0  -4   3 1580.44  113.29
   0  -4   3 1582.94  112.89
   0  -4  -3 1599.34  112.59
   0   4  -3 1661.33  113.09
   0   4   3 1604.44  112.69
   0   4   3 1729.63  112.79
  -2  -4  -3  202.08   21.70
   2  -4   3  246.68   23.80
   2  -4   3  246.28   20.50
  -2  -4  -3  222.28   22.60
  -2  -4  -3  224.58   19.80
   2   4   3  232.38   20.20
  -2   4  -3  186.88   18.90
   2   4   3  207.28   20.90
  -2   4  -3  284.37   25.50
   2   4   3  193.48   21.00
   2   4   3  183.98   20.30
   4  -4   3  974.10   69.59
   4  -4   3  977.80   71.19
   4  -4   3  965.70   68.49
  -4  -4  -3  964.30   72.69
  -4  -4  -3  999.20   71.49
   4   4   3 1070.09   71.49
  -4   4  -3  950.80   73.29
  -4   4  -3  874.91   69.09
   4   4   3 1002.30   71.49
  -6  -4  -3  163.58   22.40
  -6  -4  -3  117.09   21.90
   6  -4   3  158.28   19.40
   6  -4   3  104.29   19.60
  -6   4  -3  101.99   21.80
   6   4   3  176.98   21.80
   6   4   3  100.89   19.80
   8  -4   3   60.29   20.40
  -8  -4  -3   59.59   24.40
  -8  -4  -3   54.49   24.00
   8  -4   3   70.39   19.00
  -8   4  -3   17.50   20.60
   8   4   3   23.60   16.20
   8   4   3   63.29   21.60
  10  -4   3   14.10   20.20
  10  -4   3   32.10   22.20
 -10  -4  -3   22.80   25.00
  10   4   3  -35.60   23.30
  10   4   3  -15.50   17.00
 -10   4  -3  -29.00   22.20
  12  -4   3   -8.60   23.90
 -12  -4  -3   34.20   30.30
  12   4   3   46.20   33.00
  12   4   3   61.49   28.30
 -12   4  -3  -19.10   26.90
 -13  -5   3   27.40   36.60
  13  -5  -3  -56.19   31.80
  13  -5  -3   11.90   24.10
 -13   5   3    4.00   36.60
  13   5  -3   77.99   36.80
  13   5  -3    6.40   24.40
  11  -5  -3   42.60   23.20
  11  -5  -3   34.30   26.80
 -11  -5   3   77.49   32.60
  11   5  -3   39.10   22.70
  11   5  -3   -0.70   24.50
 -11   5   3  -52.79   26.80
   9  -5  -3   66.19   21.40
   9  -5  -3   51.89   19.70
  -9  -5   3   62.59   24.40
   9   5  -3   10.30   18.00
   9   5  -3   19.20   17.10
  -9   5   3   51.89   24.20
  -7  -5   3  457.65   42.80
   7  -5  -3  397.36   40.90
   7  -5  -3  469.85   41.40
   7   5  -3  461.65   41.80
  -7   5   3  495.35   44.60
   7   5  -3  403.06   39.80
   5  -5  -3   80.69   17.40
   5  -5  -3   11.60   13.30
   5  -5  -3   54.29   11.10
  -5  -5   3   90.89   18.30
  -5   5   3   66.19   18.60
   5   5  -3   80.69   17.70
   5   5  -3   40.90   13.20
  -3  -5   3  -11.20   10.50
   3  -5  -3   24.60   15.10
   3  -5  -3   -0.90   10.00
   3  -5  -3   16.10   10.80
   3   5  -3    4.30   10.10
   3   5  -3    0.10    9.00
  -3   5   3   -2.60   10.90
  -1  -5   3 2184.48  148.29
   1  -5  -3 2076.69  147.49
  -1  -5   3 2129.99  147.29
   1   5  -3 2104.09  148.39
  -1   5   3 2165.88  147.69
  -1  -5  -3  436.96   36.20
  -1  -5  -3  456.25   37.80
   1  -5   3  487.35   36.30
  -1  -5  -3  497.75   38.80
   1  -5   3  506.45   38.20
   1   5   3  533.75   36.90
   1   5   3  493.95   38.30
  -1   5  -3  475.85   35.70
  -1   5  -3  481.85   38.90
   3  -5   3   19.50   10.30
  -3  -5  -3   33.20   14.20
  -3  -5  -3   14.10   10.50
  -3   5  -3   28.40    8.40
   3   5   3   21.60   10.40
   3   5   3   14.00   10.20
  -3   5  -3   10.60   14.00
   5  -5   3  156.28   18.90
   5  -5   3  132.09   20.40
  -5  -5  -3  153.38   20.50
  -5  -5  -3  124.09   23.00
   5   5   3  156.08   21.70
   5   5   3  140.19   20.70
  -5   5  -3  109.99   23.60
  -7  -5  -3   61.39   22.00
   7  -5   3   52.29   18.30
  -7  -5  -3  107.09   21.90
   7  -5   3   92.59   19.00
  -7   5  -3   72.89   22.10
   7   5   3   83.49   21.80
   7   5   3   41.70   17.30
   9  -5   3   42.60   22.50
  -9  -5  -3  143.59   31.40
   9  -5   3   36.90   21.10
  -9  -5  -3   82.79   27.20
   9   5   3   -1.50   17.70
  -9   5  -3    4.00   20.60
   9   5   3   53.69   24.70
  11  -5   3   -0.10   23.00
  11  -5   3  -11.40   26.30
 -11  -5  -3   20.40   26.20
  11   5   3  -15.10   20.90
  11   5   3   10.30   27.70
 -11   5  -3   -9.70   22.70
  13  -5   3  -26.60   23.70
 -13  -5  -3   65.79   36.20
 -13   5  -3   44.40   34.00
  13   5   3  -21.70   24.20
  12  -6  -3   28.20   23.70
 -12  -6   3   40.10   33.10
  12  -6  -3  110.79   35.00
  12   6  -3   42.30   31.70
  12   6  -3   44.80   24.00
 -12   6   3  -39.50   33.10
 -10  -6   3   37.60   28.30
  10  -6  -3   35.40   25.80
  10  -6  -3   27.60   20.80
  10   6  -3   71.39   25.00
 -10   6   3   47.70   30.30
  10   6  -3   70.39   22.10
   8  -6  -3   13.80   17.00
  -8  -6   3  101.59   23.60
   8  -6  -3   29.20   18.60
   8   6  -3   11.50   15.00
   8   6  -3   33.00   16.20
  -8   6   3   12.20   23.40
   6  -6  -3   30.70   15.30
   6  -6  -3   44.50   10.90
   6  -6  -3   26.70   14.70
  -6  -6   3   53.39   18.60
   6   6  -3   37.10   16.60
   6   6  -3   12.00   12.80
  -6   6   3   36.20   19.10
  -4  -6   3   97.39   11.80
   4  -6  -3   76.69   16.90
  -4  -6   3  118.39   19.50
   4  -6  -3   89.19   16.30
   4   6  -3  103.19   16.40
  -4   6   3  106.29   19.40
   4   6  -3  108.69   19.00
   2  -6  -3 1442.66  103.59
   2  -6  -3 1484.55  104.29
   2   6  -3 1520.15  105.29
   2   6  -3 1499.15  103.39
  -2   6   3 1428.66  103.99
   0  -6  -3  109.59   14.00
   0  -6  -3  133.79   14.90
   0   6   3  123.59   14.70
   0   6  -3  136.29   15.70
   0   6   3  132.39   17.00
  -2  -6  -3 3709.63  258.67
  -2  -6  -3 3784.02  258.37
   2  -6   3 3874.91  257.47
  -2   6  -3 3727.73  258.57
   2   6   3 3627.64  257.67
   2   6   3 3924.51  257.67
  -2   6  -3 3581.34  256.87
  -4  -6  -3  273.07   30.30
  -4  -6  -3  235.18   25.30
   4  -6   3  226.58   25.90
   4   6   3  227.28   25.50
  -4   6  -3  226.58   22.00
   4   6   3  228.28   24.60
  -4   6  -3  210.48   28.20
  -6  -6  -3    9.70   14.50
   6  -6   3   -1.80   12.20
   6  -6   3   23.10   13.60
  -6  -6  -3   -0.20   15.50
  -6   6  -3    0.00   16.30
   6   6   3    0.10   12.60
   6   6   3   -4.90   13.90
  -8  -6  -3  133.19   26.70
   8  -6   3   82.09   22.00
   8  -6   3   85.19   21.50
  -8  -6  -3  118.09   25.10
   8   6   3   25.30   18.20
   8   6   3  119.59   25.20
  -8   6  -3   93.19   26.10
 -10  -6  -3   16.30   26.10
 -10  -6  -3   82.09   34.80
  10  -6   3   17.20   24.40
  10  -6   3   46.10   23.40
  10   6   3   38.90   25.80
  10   6   3    6.30   21.00
 -10   6  -3   57.99   29.70
  12  -6   3   43.20   26.60
 -12  -6  -3   44.10   33.40
  12   6   3   30.00   24.90
 -12   6  -3   49.20   33.20
  12   6   3   29.00   33.60
  13  -7  -3   27.30   34.40
 -13  -7   3  -38.90   34.80
  13  -7  -3    6.20   24.20
 -13   7   3  -18.60   36.10
  13   7  -3  -15.10   23.40
  13   7  -3  -42.90   32.80
  11  -7  -3   23.90   22.20
 -11  -7   3   69.49   33.40
  11  -7  -3   17.10   27.10
 -11   7   3    5.30   32.00
  11   7  -3   26.90   20.80
  11   7  -3   46.70   28.50
  -9  -7   3   43.90   25.50
   9  -7  -3   18.10   21.90
   9  -7  -3   15.20   18.70
   9   7  -3   19.70   19.90
   9   7  -3  -24.70   15.40
  -9   7   3   41.20   27.90
   7  -7  -3  283.87   23.40
   7  -7  -3  274.27   32.20
   7  -7  -3  175.68   27.50
  -7  -7   3  229.18   32.30
  -7   7   3  277.97   34.30
   7   7  -3  200.88   30.70
   7   7  -3  243.58   30.40
   5  -7  -3  216.68   22.30
  -5  -7   3  280.37   29.50
   5  -7  -3  191.78   25.90
   5  -7  -3  186.28   24.60
  -5  -7   3  222.78   19.40
  -5   7   3  241.58   29.20
   5   7  -3  163.28   24.70
   5   7  -3  198.48   25.00
   3  -7  -3   63.19   13.10
  -3  -7   3   68.49   15.00
   3   7  -3   57.19   12.70
  -3   7   3   51.19   15.40
   3   7  -3   35.60   13.60
   1  -7  -3  219.68   21.80
   1   7  -3  222.88   23.70
   1  -7   3   28.30    9.60
  -1  -7  -3    0.90    8.00
  -1  -7  -3    1.50    9.80
   1   7   3   14.00    9.70
  -1   7  -3   12.00   14.50
   3  -7   3    1.40   10.80
  -3  -7  -3    4.40   11.30
  -3  -7  -3   -6.70   12.90
   3   7   3  -11.60    9.80
  -3   7  -3   27.80   10.30
   3   7   3    7.70   10.60
  -3   7  -3   27.70   15.10
   5  -7   3   45.10   15.40
  -5  -7  -3   40.20   14.50
   5  -7   3   38.90   11.40
  -5  -7  -3   91.99   21.20
   5   7   3   67.79   17.10
   5   7   3   61.29   14.90
  -5   7  -3   55.99   17.40
  -7  -7  -3   13.60   18.50
   7  -7   3   23.00   15.90
  -7  -7  -3   -1.90   17.90
   7  -7   3   26.00   16.30
   7   7   3   24.70   15.10
   7   7   3   -8.40   17.20
  -7   7  -3   21.20   19.30
   9  -7   3   66.89   23.50
   9  -7   3   32.30   21.70
  -9  -7  -3   69.59   25.80
  -9  -7  -3   35.50   28.10
   9   7   3   67.49   27.40
  -9   7  -3   60.69   28.50
   9   7   3   16.80   18.90
  11  -7   3   45.70   24.30
 -11  -7  -3   74.69   32.30
  11   7   3   44.40   22.30
 -11   7  -3   19.60   29.10
  11   7   3   16.30   28.20
 -13  -7  -3   51.49   37.20
  13  -7   3   -4.70   27.10
 -13   7  -3   57.39   35.90
  13   7   3  -14.60   25.20
  12  -8  -3   26.10   30.30
  12  -8  -3   22.80   23.70
 -12  -8   3   64.69   36.50
  12   8  -3   -1.20   22.00
 -12   8   3   -3.80   33.00
  12   8  -3   21.20   29.40
  10  -8  -3   -5.40   23.70
  10  -8  -3   -7.10   18.90
 -10  -8   3  -11.40   24.90
 -10   8   3   19.60   27.70
  10   8  -3   22.90   21.00
  10   8  -3  -24.60   16.90
   8  -8  -3   52.79   19.40
  -8  -8   3   41.00   21.40
   8  -8  -3   44.70   18.90
  -8   8   3   32.10   22.90
   8   8  -3   12.20   16.30
   8   8  -3   33.10   19.80
  -6  -8   3  105.19   13.20
   6  -8  -3   86.19   16.60
   6  -8  -3   76.09   18.80
  -6  -8   3   89.29   22.00
   6  -8  -3   96.89   19.10
   6   8  -3   89.09   20.00
  -6   8   3  108.49   22.90
   6   8  -3   98.39   18.10
   4  -8  -3  106.09   19.50
  -4  -8   3  157.58   22.40
   4   8  -3  142.19   19.60
  -4   8   3  185.28   24.40
   4   8  -3  150.08   22.90
   2  -8  -3   54.79   12.30
   2   8  -3   54.29   13.90
   2   8  -3   52.89   11.50
   0  -8  -3  117.39   15.00
   0   8  -3  102.29   16.10
  -2  -8  -3  779.42   58.49
   2  -8   3  793.32   57.29
  -2  -8  -3  756.52   59.09
  -2   8  -3  771.32   59.49
   2   8   3  789.92   57.49
   2   8   3  726.73   57.89
   4  -8   3  987.80   77.79
  -4  -8  -3 1042.40   78.69
   4   8   3  954.80   77.69
  -4   8  -3 1093.89   80.19
   4   8   3 1200.88   78.69
   6  -8   3   18.80   10.40
  -6  -8  -3   23.50   18.40
  -6  -8  -3   17.70   14.60
   6  -8   3   17.90   14.00
   6   8   3   42.60   18.10
  -6   8  -3   36.00   18.60
   6   8   3    1.20   12.30
   8  -8   3   12.10   18.10
  -8  -8  -3   63.39   25.00
  -8  -8  -3   82.19   25.70
   8   8   3   14.00   16.00
   8   8   3   61.79   24.20
  -8   8  -3   25.00   22.70
  10  -8   3   36.60   23.40
 -10  -8  -3   23.50   25.10
 -10   8  -3   14.40   26.20
  10   8   3   71.59   29.30
  10   8   3    2.90   19.60
 -12  -8  -3  -13.80   29.30
  12  -8   3    9.80   26.30
  12   8   3   28.50   24.90
 -12   8  -3   16.50   30.30
  12   8   3   31.90   33.50
  13  -9  -3  -30.40   34.30
 -13  -9   3  -14.30   35.40
  13  -9  -3  -33.80   24.70
  13   9  -3   13.00   33.80
 -13   9   3    6.50   37.10
  13   9  -3   35.40   29.00
  11  -9  -3   41.20   29.10
 -11  -9   3   39.40   30.80
  11  -9  -3   24.70   22.40
  11   9  -3   64.69   25.00
 -11   9   3   34.30   30.70
  11   9  -3  -26.10   22.60
   9  -9  -3   41.20   23.50
  -9  -9   3   49.80   26.40
   9  -9  -3   26.60   19.40
   9   9  -3   25.60   23.10
  -9   9   3   71.49   27.50
   9   9  -3   -4.70   17.30
  -7  -9   3  274.67   34.20
  -7  -9   3  282.57   24.10
   7  -9  -3  316.97   27.10
   7  -9  -3  242.28   31.80
   7  -9  -3  190.98   28.60
  -7   9   3  322.37   38.10
   7   9  -3  228.18   32.00
   7   9  -3  196.68   29.10
  -5  -9   3  601.74   45.70
   5  -9  -3  586.14   48.80
  -5  -9   3  566.24   49.10
   5   9  -3  597.64   50.49
   5   9  -3  624.84   48.60
  -5   9   3  586.54   50.59
  -3  -9   3   61.99   15.30
   3  -9  -3   35.40   12.80
  -3   9   3   33.90   15.90
   3   9  -3   31.00   12.20
   3   9  -3   24.60   13.10
   1  -9  -3   26.30   10.70
   1   9  -3   23.90   11.90
   1  -9   3   25.60   10.20
  -1  -9  -3   52.99   11.40
   1   9   3   35.30   11.10
   3  -9   3  850.41   66.39
  -3  -9  -3  784.92   67.09
  -3  -9  -3 1041.20   68.69
   3   9   3  898.31   66.99
  -3   9  -3  898.01   68.19
   3   9   3  875.71   66.39
  -5  -9  -3   21.50   16.90
  -5  -9  -3   42.80   15.90
   5  -9   3   25.20   14.30
   5   9   3   38.20   14.30
   5   9   3   63.89   17.20
  -5   9  -3   46.30   18.60
  -7  -9  -3   17.30   19.80
   7  -9   3   -7.70   14.80
  -7  -9  -3    4.10   16.80
   7   9   3  -16.50   17.20
  -7   9  -3  -13.90   18.90
   7   9   3  -15.30   12.20
   9  -9   3   40.60   21.80
  -9  -9  -3   57.99   26.10
  -9  -9  -3  122.99   31.90
   9   9   3   34.20   19.30
   9   9   3   77.09   29.30
  -9   9  -3   52.59   26.50
  11  -9   3   56.09   28.20
 -11  -9  -3   32.20   28.00
 -11   9  -3    9.10   27.00
  11   9   3    4.10   22.20
  11   9   3    7.80   29.00
 -13  -9  -3   73.59   38.20
  13  -9   3  -37.10   26.30
 -13   9  -3    5.40   32.10
  13   9   3    5.00   26.90
  12 -10  -3   -5.00   23.30
  12 -10  -3   24.00   32.30
 -12 -10   3   -1.50   32.50
  12  10  -3  -26.00   20.60
 -12  10   3   36.70   37.00
  12  10  -3    9.10   30.40
  10 -10  -3  -10.30   20.70
  10 -10  -3   54.89   27.70
 -10 -10   3   19.00   28.40
 -10  10   3   47.00   32.10
  10  10  -3   14.50   21.10
  10  10  -3    0.80   23.50
   8 -10  -3   47.80   19.40
  -8 -10   3  102.39   19.70
  -8 -10   3   24.40   23.00
   8  10  -3   58.29   21.70
   8  10  -3   30.90   18.10
  -8  10   3  139.89   30.20
   6 -10  -3   30.00   15.10
  -6 -10   3   74.49   13.90
  -6 -10   3   84.19   19.50
   6  10  -3   16.10   14.80
  -6  10   3   65.69   22.50
   6  10  -3   62.79   19.20
  -4 -10   3   13.00   14.70
   4 -10  -3   13.20   12.90
   4  10  -3    9.50   13.90
  -4  10   3   19.10   16.80
   4  10  -3   -0.70   11.10
   2 -10  -3   29.70   11.40
   2  10  -3   23.00   12.50
   2  10  -3   13.30   11.00
   0 -10  -3   37.60   11.80
   0 -10   3   41.00   11.20
   0  10  -3   51.39   13.50
  -2 -10  -3   74.69   16.90
  -2 -10  -3   73.49   18.10
   2 -10   3   66.69   15.30
  -2  10  -3   91.79   20.20
   2  10   3   81.69   15.70
   2  10   3   76.69   16.90
  -4 -10  -3  384.86   35.50
  -4 -10  -3  340.27   35.30
   4 -10   3  349.07   34.30
   4  10   3  387.96   34.90
  -4  10  -3  427.56   37.30
   4  10   3  324.77   33.20
   6 -10   3   45.90   18.20
  -6 -10  -3   50.59   21.80
  -6 -10  -3   51.39   19.00
   6  10   3   32.20   16.90
  -6  10  -3    9.30   19.20
   6  10   3   26.90   15.40
   8 -10   3   54.49   21.20
  -8 -10  -3   69.49   25.40
  -8 -10  -3   15.80   20.70
   8  10   3   32.30   19.50
  -8  10  -3    1.90   20.90
   8  10   3   53.39   25.00
 -10 -10  -3   27.80   26.20
  10 -10   3   12.70   23.40
  10  10   3   50.29   31.20
 -10  10  -3   36.20   27.50
  10  10   3    3.80   19.30
 -12 -10  -3   -9.20   32.40
  12 -10   3   27.40   28.80
  12  10   3   20.90   24.30
  12  10   3   28.00   33.80
 -12  10  -3   48.30   33.80
  13 -11  -3  -37.70   23.10
 -13 -11   3   20.90   38.10
  13  11  -3   39.40   37.20
 -13  11   3  -34.10   39.70
  13  11  -3   18.20   28.40
 -11 -11   3   50.29   31.40
  11 -11  -3   22.40   24.00
 -11  11   3   16.80   33.60
  11  11  -3  -11.50   20.70
  11  11  -3   56.89   27.80
   9 -11  -3  -22.70   16.30
  -9 -11   3    4.30   24.40
   9  11  -3   33.00   19.80
  -9  11   3   42.70   27.40
   9  11  -3    9.30   24.40
  -7 -11   3  338.97   40.90
  -7 -11   3  363.06   30.30
   7 -11  -3  395.46   32.70
   7  11  -3  217.68   33.40
   7  11  -3  219.68   34.80
  -7  11   3  361.56   43.00
   5 -11  -3   65.79   18.20
  -5 -11   3   72.29   15.20
  -5 -11   3   81.09   20.60
   5  11  -3   79.59   19.80
   5  11  -3   84.79   17.40
  -5  11   3   95.39   23.00
   3 -11  -3   -4.10   10.70
   3  11  -3   -1.10   11.00
   3  11  -3   -1.10   10.90
   1 -11  -3   20.50   10.90
   1  11  -3   38.20   13.80
  -1 -11  -3  331.17   28.70
   1 -11   3  285.17   28.60
   1  11   3  328.67   29.10
  -3 -11  -3  174.38   24.00
  -3 -11  -3  160.58   24.90
   3 -11   3  118.59   20.70
   3  11   3  159.48   22.10
   3  11   3  193.98   24.90
  -3  11  -3  170.68   25.40
   5 -11   3   43.00   15.40
  -5 -11  -3   52.99   19.70
  -5 -11  -3   46.60   17.70
   5  11   3   33.70   14.50
  -5  11  -3   47.00   20.70
   5  11   3   44.20   15.40
  -7 -11  -3    9.10   19.50
  -7 -11  -3   31.00   20.80
   7 -11   3   20.20   18.00
   7  11   3   -6.30   15.10
   7  11   3   13.40   19.50
  -7  11  -3   14.90   20.20
  -9 -11  -3   38.10   26.40
   9 -11   3   38.60   20.80
  -9 -11  -3   16.10   29.10
  -9  11  -3   21.30   25.60
   9  11   3   37.30   21.20
   9  11   3   91.59   29.90
 -11 -11  -3   39.80   29.10
  11 -11   3   16.50   26.30
  11  11   3   72.99   37.00
 -11  11  -3   39.60   31.10
  11  11   3   47.80   26.40
 -12 -12   3   24.30   35.70
  12 -12  -3  -11.50   23.50
 -12  12   3   53.69   39.70
  12  12  -3  -14.50   27.80
  12  12  -3   44.90   27.70
  10 -12  -3   24.70   22.70
 -10 -12   3    8.10   26.90
 -10  12   3   49.70   35.20
  10  12  -3   34.10   22.00
  10  12  -3   31.00   28.30
   8 -12  -3   11.10   16.80
  -8 -12   3   21.90   24.30
   8 -12  -3   57.89   20.20
   8  12  -3   10.70   17.80
   8  12  -3   17.50   17.90
  -8  12   3   55.89   28.40
   6 -12  -3   41.50   17.80
  -6 -12   3   99.59   18.30
  -6 -12   3  107.59   23.10
  -6  12   3   98.69   24.50
   6  12  -3   86.69   20.90
   6  12  -3   83.49   19.10
  -4 -12   3   56.59   18.30
   4 -12  -3   46.40   15.60
  -4  12   3   36.90   18.30
   4  12  -3   34.10   15.20
   4  12  -3   48.00   15.20
   2 -12  -3  237.68   25.00
   2  12  -3  264.57   30.50
   0 -12   3  233.08   25.80
   0 -12  -3  242.58   26.40
   0  12  -3  241.18   28.20
   2 -12   3  557.34   45.80
  -2 -12  -3  560.04   47.50
   2  12   3  579.94   46.20
   2  12   3  570.24   49.00
  -4 -12  -3  181.88   25.80
  -4 -12  -3  148.99   25.30
   4 -12   3  156.38   23.50
   4  12   3  148.69   23.50
  -4  12  -3  145.29   25.80
   4  12   3  151.08   22.40
  -6 -12  -3  -11.70   17.90
  -6 -12  -3    3.80   18.70
   6 -12   3   14.20   17.00
   6  12   3  -22.60   15.50
  -6  12  -3   23.50   20.30
   6  12   3    9.50   13.30
  -8 -12  -3   39.90   28.00
   8 -12   3   35.20   20.40
  -8 -12  -3  106.59   26.80
  -8  12  -3   45.40   27.90
   8  12   3   59.79   24.50
   8  12   3   17.40   18.00
 -10 -12  -3   30.50   28.70
  10 -12   3   10.40   22.40
  10  12   3   34.00   23.60
  10  12   3   42.70   31.60
 -10  12  -3   19.50   29.70
  12 -12   3   -4.50   29.40
 -12 -12  -3   74.99   33.70
  12  12   3   29.90   26.80
  12  12   3   47.80   36.30
 -12  12  -3   35.30   38.00
  11 -13  -3    1.00   25.40
 -11 -13   3   41.10   34.20
  11  13  -3   78.19   31.10
  11  13  -3   53.99   25.30
 -11  13   3   -5.80   34.00
   9 -13  -3   18.50   20.50
  -9 -13   3    0.60   26.00
  -9  13   3    8.20   29.20
   9  13  -3   18.50   19.80
   9  13  -3  -12.10   19.00
   7 -13  -3  192.68   29.60
  -7 -13   3  323.37   28.80
  -7 -13   3  236.28   35.10
   7  13  -3  123.89   28.60
  -7  13   3  329.87   38.80
   7  13  -3  217.18   30.70
  -5 -13   3  248.88   31.70
   5 -13  -3  206.08   28.60
   5  13  -3  231.78   31.50
   5  13  -3  248.88   30.40
  -5  13   3  263.57   33.30
   3 -13  -3    2.10   12.20
   3  13  -3   -1.60   11.40
   3  13  -3  -10.00   10.80
   1 -13  -3   37.00   12.80
   1  13  -3   53.49   17.60
   1 -13   3  -13.40   10.40
  -1 -13  -3   21.00   12.10
   1  13   3    5.20   11.50
   3 -13   3   10.60   12.20
  -3 -13  -3   -4.00   13.70
  -3 -13  -3   18.80   15.30
  -3  13  -3    3.50   16.90
   3  13   3    8.80   14.10
   3  13   3   10.90   12.60
  -5 -13  -3   37.30   17.30
  -5 -13  -3   42.90   19.00
   5 -13   3   36.00   16.30
   5  13   3   27.20   14.80
  -5  13  -3   52.39   21.60
   5  13   3   29.90   15.30
   7 -13   3  -12.00   18.90
  -7 -13  -3   15.80   22.70
  -7 -13  -3   16.40   22.50
   7  13   3   12.30   16.10
   7  13   3   -4.00   19.20
  -7  13  -3  -27.20   22.40
   9 -13   3   20.10   21.90
  -9 -13  -3   54.49   28.90
  -9 -13  -3   60.29   30.20
  -9  13  -3   81.29   29.10
   9  13   3    8.70   20.30
   9  13   3   76.59   30.50
  11 -13   3   15.10   25.20
 -11 -13  -3   12.20   28.90
 -11  13  -3   26.10   33.50
  11  13   3  -16.90   20.90
  11  13   3   87.49   38.30
 -12 -14   3  103.19   40.90
  12 -14  -3   31.60   29.00
 -12  14   3   37.20   41.80
  12  14  -3  -19.40   23.50
  12  14  -3   27.70   33.20
  10 -14  -3   41.20   23.50
 -10 -14   3   11.90   28.50
  10  14  -3   37.90   23.50
 -10  14   3   67.29   33.40
  10  14  -3    5.70   26.50
  -8 -14   3   25.90   25.10
   8 -14  -3   -5.40   17.00
   8  14  -3   -3.10   18.70
   8  14  -3   33.80   19.80
  -8  14   3    9.40   25.70
   6 -14  -3   24.40   17.90
  -6 -14   3   57.59   17.60
  -6 -14   3   25.60   17.80
   6  14  -3    1.60   15.30
   6  14  -3   62.19   19.80
  -6  14   3   61.99   23.10
  -4 -14   3   62.99   19.90
   4 -14  -3   27.50   14.60
   4  14  -3   75.29   16.20
   4  14  -3    9.20   14.00
   2 -14  -3  198.08   25.30
   2  14  -3  221.88   29.10
   0 -14  -3   95.59   17.50
   0 -14   3   79.79   17.00
   0  14  -3   76.99   18.20
   2 -14   3  110.59   19.40
  -2 -14  -3   78.29   16.60
   2  14   3   97.79   18.60
   2  14   3  153.18   23.20
   4 -14   3  152.78   24.50
  -4 -14  -3  139.59   27.90
  -4 -14  -3  222.08   29.30
   4  14   3  177.48   25.20
   4  14   3  199.38   28.20
  -4  14  -3  165.28   28.50
  -6 -14  -3   32.70   19.60
  -6 -14  -3   37.30   21.80
   6 -14   3  -18.30   15.40
   6  14   3   21.50   15.40
  -6  14  -3    7.30   19.00
   6  14   3    7.70   17.30
  -8 -14  -3   75.29   27.40
  -8 -14  -3   55.89   27.90
   8 -14   3   -5.90   20.40
  -8  14  -3    7.10   26.10
   8  14   3   -6.40   17.90
   8  14   3   29.00   26.20
  10 -14   3   19.50   23.40
 -10 -14  -3   38.40   29.40
  10  14   3   27.20   24.50
  10  14   3   53.39   32.30
 -10  14  -3   48.40   32.20
  12 -14   3   -2.00   29.70
 -12 -14  -3   28.90   33.60
 -12  14  -3   32.10   37.70
  12  14   3   32.20   39.70
  12  14   3   -7.70   24.70
 -11 -15   3   18.10   34.60
  11 -15  -3   35.40   28.00
  11  15  -3   22.40   25.40
  11  15  -3   40.90   31.40
 -11  15   3   62.09   39.70
   9 -15  -3   33.80   20.50
  -9 -15   3   89.79   31.10
   9  15  -3   46.00   22.30
   9  15  -3   -4.10   22.10
  -9  15   3   56.99   31.60
   7 -15  -3  132.59   26.00
  -7 -15   3  123.99   30.90
  -7 -15   3  139.69   26.10
   7  15  -3  121.99   25.30
  -7  15   3  179.98   33.60
   7  15  -3  113.49   27.90
  -5 -15   3  147.99   29.00
   5 -15  -3  187.18   25.60
  -5  15   3  135.99   28.80
   5  15  -3  185.48   26.00
   5  15  -3  118.99   25.40
   3 -15  -3   10.20   12.50
   3  15  -3   20.60   14.30
   1 -15  -3  443.66   35.90
   1  15  -3  340.37   36.80
   1 -15   3  231.48   26.70
  -1 -15  -3  203.98   26.50
  -3 -15  -3  -16.90   13.30
  -3 -15  -3   -0.90   15.20
   3 -15   3    5.20   13.10
   3  15   3   20.30   12.60
   3  15   3   -8.70   12.20
  -5 -15  -3  -11.00   16.40
   5 -15   3  -17.70   15.60
  -5 -15  -3   42.20   20.10
   5  15   3   41.90   17.40
   5  15   3    7.50   16.80
  -5  15  -3   45.20   21.20
  -7 -15  -3    6.00   22.70
   7 -15   3   30.80   21.60
  -7 -15  -3  -26.50   23.30
   7  15   3   10.00   22.40
  -7  15  -3   39.00   23.40
   7  15   3  -10.70   16.10
  -9 -15  -3   27.10   28.10
   9 -15   3   31.10   24.70
  -9  15  -3   23.00   30.90
   9  15   3   61.69   23.30
   9  15   3   41.60   29.60
 -11 -15  -3   -1.70   30.70
  11 -15   3   -1.80   26.10
  11  15   3   -4.00   23.60
  11  15   3   -5.50   35.70
 -11  15  -3   -9.30   34.10
 -12 -16   3   10.80   36.50
  12 -16  -3   18.80   29.50
  12  16  -3    2.60   34.80
  12  16  -3   29.80   27.50
 -12  16   3   50.09   42.20
 -10 -16   3   21.30   31.90
  10 -16  -3   20.90   24.10
  10  16  -3   19.40   23.00
 -10  16   3   -5.40   32.20
  10  16  -3   11.60   24.00
  -8 -16   3   25.50   26.10
   8 -16  -3   25.40   20.20
   8  16  -3   -6.50   17.90
  -8  16   3   17.60   27.30
   8  16  -3  -11.50   17.50
  -6 -16   3   24.10   20.30
  -6 -16   3   73.49   22.20
   6 -16  -3   16.80   19.10
   6  16  -3   51.49   18.80
  -6  16   3   67.69   26.40
   6  16  -3   49.99   20.90
   4 -16  -3   34.60   16.40
  -4 -16   3   40.50   20.00
   4  16  -3   45.70   16.20
   4  16  -3   57.19   18.40
   2 -16  -3    3.10   11.90
   2  16  -3   37.70   18.10
   0 -16   3   71.89   16.50
   0 -16  -3   75.49   17.30
   0  16  -3   63.69   18.70
  -2 -16  -3    2.60   11.40
   2 -16   3   19.30   14.10
   2  16   3    1.80   13.60
   2  16   3   43.10   16.90
  -4 -16  -3   76.39   22.70
   4 -16   3   97.89   21.70
  -4 -16  -3  126.79   26.60
   4  16   3  155.88   25.80
   4  16   3  110.19   22.40
  -6 -16  -3   14.60   19.50
   6 -16   3   23.50   19.60
  -6 -16  -3   37.20   23.50
   6  16   3   25.90   17.80
  -6  16  -3   19.40   20.80
   6  16   3   44.70   20.10
  -8 -16  -3    4.40   24.90
  -8 -16  -3   46.90   30.60
   8 -16   3   56.89   26.30
   8  16   3   41.10   28.00
  -8  16  -3   34.00   25.00
   8  16   3   22.30   21.10
 -10 -16  -3  -13.60   28.40
  10 -16   3   -8.40   23.60
  10  16   3   60.29   34.20
  10  16   3   15.80   22.80
 -10  16  -3  -21.40   29.50
 -11 -17   3   50.49   35.50
  11 -17  -3  -30.80   23.00
  11  17  -3   39.20   27.40
  11  17  -3   28.50   31.90
 -11  17   3   75.29   41.40
  -9 -17   3  -27.40   27.10
   9 -17  -3   15.80   20.90
   9  17  -3  -19.80   19.60
  -9  17   3   11.60   30.70
   9  17  -3   -9.50   20.20
  -7 -17   3   22.80   22.80
   7 -17  -3   -0.50   19.90
  -7 -17   3   41.10   23.60
   7  17  -3   14.00   19.20
   7  17  -3   18.10   19.30
  -7  17   3  -36.90   23.70
   5 -17  -3  262.57   33.90
  -5 -17   3  351.56   41.20
   5  17  -3  227.78   35.30
   5  17  -3  289.77   34.70
   3 -17  -3   53.69   16.30
   3  17  -3    4.40   15.80
   1 -17  -3  121.89   21.00
  -1 -17   3   96.19   19.50
   1  17  -3  134.49   24.80
   1 -17   3  270.17   32.00
  -1 -17  -3  276.47   32.60
  -3 -17  -3   46.50   20.20
   3 -17   3   22.00   15.80
  -3 -17  -3   61.99   19.80
   3  17   3   20.80   14.70
   3  17   3   37.50   18.20
   5 -17   3   91.69   23.80
  -5 -17  -3  152.48   30.20
  -5 -17  -3  115.59   27.00
   5  17   3   96.99   23.10
   5  17   3   62.29   22.10
  -5  17  -3  116.39   28.70
   7 -17   3    1.00   19.50
  -7 -17  -3   -8.70   26.40
  -7 -17  -3   11.70   23.90
  -7  17  -3    8.20   25.00
   7  17   3   10.30   21.30
   7  17   3  -12.90   17.10
   9 -17   3    0.30   23.50
  -9 -17  -3    9.50   27.40
   9  17   3   -6.70   28.70
   9  17   3   31.60   23.00
  -9  17  -3   58.59   30.80
 -11 -17  -3   17.00   31.30
  11 -17   3   24.20   28.90
  11  17   3   12.60   37.50
 -11  17  -3   30.20   33.20
  11  17   3   -6.60   25.90
 -10 -18   3   58.29   33.30
  10 -18  -3   41.30   24.80
 -10  18   3  -38.50   31.10
  10  18  -3    3.60   22.50
  10  18  -3   24.70   29.30
  -8 -18   3   40.10   28.10
   8 -18  -3   63.09   22.70
   8  18  -3    9.80   22.60
  -8  18   3   50.89   28.40
   8  18  -3   56.99   22.80
   6 -18  -3   94.99   24.90
  -6 -18   3  144.79   28.50
  -6 -18   3   79.39   27.80
   6  18  -3   87.89   26.80
   6  18  -3  108.79   24.20
   4 -18  -3    9.40   15.10
  -4 -18   3   -4.00   19.70
   4  18  -3    5.80   15.40
   4  18  -3   -3.40   14.70
   2 -18  -3   33.00   15.90
   2  18  -3   57.99   20.80
   0 -18   3  -26.70   10.90
   0 -18  -3    1.20   12.20
   0  18  -3   44.50   18.60
   2 -18   3  129.59   23.20
  -2 -18  -3  173.18   25.80
   2  18   3  156.28   28.40
  -4 -18  -3  146.39   30.30
   4 -18   3  185.08   28.60
  -4 -18  -3  267.77   34.70
   4  18   3  206.58   30.80
   4  18   3  162.38   28.50
  -6 -18  -3  -11.70   20.30
   6 -18   3    9.60   20.70
  -6 -18  -3   22.40   25.20
  -6  18  -3   13.70   23.20
   6  18   3   19.70   18.50
   6  18   3   46.70   19.80
  -8 -18  -3   -3.30   29.90
   8 -18   3    9.70   21.90
  -8 -18  -3   58.69   29.70
   8  18   3   32.10   21.10
   8  18   3   -6.50   26.10
  -8  18  -3   -3.00   27.20
 -10 -18  -3   37.50   31.90
  10 -18   3   37.40   27.00
  10  18   3    6.50   33.40
 -10  18  -3   11.60   32.90
  10  18   3   12.10   24.60
  11 -19  -3   55.89   29.30
 -11 -19   3   70.39   38.90
 -11  19   3  -34.30   38.60
  11  19  -3   71.19   35.80
  11  19  -3  -32.60   24.60
  -9 -19   3   24.60   31.20
   9 -19  -3   -5.50   21.40
   9  19  -3  -33.10   22.10
  -9  19   3   42.70   32.60
   9  19  -3    2.30   23.80
  -7 -19   3   18.40   24.70
  -7 -19   3   24.50   24.00
   7 -19  -3    3.70   20.90
   7  19  -3    8.80   19.20
   7  19  -3    2.40   21.30
  -5 -19   3   15.90   21.20
   5 -19  -3  -15.90   15.90
   5  19  -3   25.20   17.40
   5  19  -3    3.50   17.40
   3 -19  -3  -16.50   11.80
   3  19  -3   -2.30   15.40
   1 -19  -3  220.38   30.50
  -1 -19   3  200.28   28.80
   1  19  -3  260.97   34.40
   1 -19   3   20.20   14.90
  -1 -19  -3   48.90   17.30
  -1  19  -3   90.49   23.20
  -3 -19  -3   32.20   19.60
  -3 -19  -3   24.30   21.80
   3 -19   3   54.49   19.60
  -3 -19  -3   37.40   16.70
   3  19   3   62.79   19.60
   3  19   3   17.40   19.40
  -5 -19  -3    3.70   23.10
  -5 -19  -3    7.30   21.20
   5 -19   3   58.39   21.60
   5  19   3   19.90   18.80
   5  19   3   14.10   17.50
  -7 -19  -3   21.20   28.40
   7 -19   3  -11.10   20.90
  -7 -19  -3   10.20   24.90
   7  19   3   16.90   19.90
   7  19   3  -34.00   19.70
  -7  19  -3  -19.50   24.90
  -9 -19  -3   -3.10   29.00
   9 -19   3   17.20   26.50
  -9  19  -3   16.00   30.80
   9  19   3   31.70   23.80
   9  19   3   20.60   30.30
 -11 -19  -3   63.49   38.80
  11 -19   3   -3.40   29.70
 -11  19  -3   31.90   39.60
  11  19   3   35.50   29.60
  10 -20  -3   34.60   24.40
 -10 -20   3  -24.50   34.20
  10  20  -3    3.50   28.10
  10  20  -3   22.20   28.00
 -10  20   3   -8.10   34.80
  -8 -20   3   -8.60   26.70
   8 -20  -3  -22.90   19.90
   8  20  -3  -22.60   23.60
  -8  20   3  -10.90   31.30
   8  20  -3   -3.40   20.80
  -6 -20   3   -2.40   24.30
  -6 -20   3   40.70   25.80
   6 -20  -3   16.60   18.70
   6  20  -3   53.39   23.80
   6  20  -3   -0.80   16.90
   4 -20  -3   15.70   16.80
   4  20  -3  -11.90   16.40
  -2 -20   3   24.40   15.70
   2 -20  -3   66.29   18.70
   2  20  -3   46.70   21.20
   0 -20   3   72.49   19.90
   0 -20  -3   77.79   20.10
   0  20  -3  136.49   28.50
   2 -20   3    2.00   14.90
  -2 -20  -3    4.70   15.30
   2  20   3   -5.60   15.90
   4 -20   3  122.79   26.10
  -4 -20  -3  244.78   36.70
  -4 -20  -3  132.49   30.40
   4  20   3  173.68   28.30
   4  20   3  189.68   32.30
  -6 -20  -3    4.50   23.40
  -6 -20  -3   15.30   28.10
   6 -20   3   46.00   23.20
   6  20   3   12.50   20.20
   6  20   3   20.60   19.40
  -8 -20  -3   29.40   28.60
   8 -20   3  -35.80   23.50
  -8 -20  -3   62.19   36.70
   8  20   3    8.20   21.30
  -8  20  -3   40.80   29.20
   8  20   3    4.10   26.00
 -10 -20  -3   32.80   33.00
  10 -20   3   23.00   28.40
  10  20   3   46.80   36.90
 -10  20  -3   39.50   32.90
  10  20   3   26.30   26.60
  -9 -21   3  -62.09   29.40
   9 -21  -3   13.20   23.40
  -9  21   3   34.20   32.80
   9  21  -3   12.40   23.40
   9  21  -3   19.50   25.40
  -7 -21   3   82.19   29.10
   7 -21  -3   60.09   25.80
   7  21  -3  132.19   28.70
   7  21  -3   61.39   23.50
  -5 -21   3   20.60   23.40
   5 -21  -3   -8.60   16.50
   5  21  -3  -24.70   16.60
   3 -21  -3   15.90   16.00
   3  21  -3   27.60   20.80
   1 -21  -3   60.59   19.80
  -1 -21   3   64.49   20.60
   1  21  -3  118.29   27.10
  -1 -21  -3   54.69   19.20
   1 -21   3   22.80   17.60
  -1  21  -3   78.19   26.00
   1  21   3  101.49   26.10
  -3 -21  -3   13.90   20.70
  -3 -21  -3   33.10   18.40
   3 -21   3   12.20   17.50
   3  21   3   18.20   19.80
   5 -21   3   16.30   21.80
  -5 -21  -3   63.09   27.30
  -5 -21  -3   83.29   28.00
   5  21   3   45.60   20.70
   5  21   3   -0.10   18.60
   7 -21   3   40.40   24.60
  -7 -21  -3   -5.90   30.10
  -7 -21  -3   10.60   24.50
   7  21   3   -3.60   24.40
  -7  21  -3   28.70   27.30
   7  21   3   18.20   19.70
   9 -21   3   10.50   27.90
  -9 -21  -3   48.70   33.00
  -9  21  -3   -6.70   30.00
   9  21   3  -19.90   22.40
   9  21   3   79.29   36.20
 -10 -22   3   19.10   37.30
  10 -22  -3   23.00   25.80
 -10  22   3   11.80   40.60
  10  22  -3   30.40   31.10
  10  22  -3   77.69   33.20
  -8 -22   3  -10.90   28.60
   8 -22  -3   48.90   25.20
   8  22  -3   14.80   21.20
   8  22  -3   40.20   25.70
  -6 -22   3   46.00   27.60
   6 -22  -3   42.10   21.40
  -6 -22   3  -27.00   24.50
   6  22  -3   39.90   24.90
   6  22  -3    6.80   21.30
   4 -22  -3   17.40   18.00
   4  22  -3    5.50   19.10
  -2 -22   3   44.80   18.50
   2 -22  -3   49.40   19.50
   2  22  -3   91.79   27.30
   0 -22  -3   19.80   16.00
   0 -22   3  -12.70   14.30
   0  22  -3  -17.90   20.10
  -2 -22  -3   96.89   23.30
   2 -22   3   98.59   22.80
   2  22   3   99.19   27.60
  -4 -22  -3  142.89   33.50
   4 -22   3  110.59   25.60
  -4 -22  -3  116.99   26.00
  -4 -22  -3   98.29   28.80
   4  22   3  127.79   28.30
   4  22   3  101.89   25.30
   6 -22   3  -14.00   20.50
  -6 -22  -3   21.40   30.40
  -6 -22  -3   23.90   24.20
   6  22   3   19.70   21.10
   6  22   3   16.10   21.30
   8 -22   3    5.70   28.00
  -8 -22  -3   75.39   30.10
   8  22   3   53.99   25.40
   8  22   3   25.90   29.70
  -8  22  -3   68.59   33.70
  -9 -23   3   29.40   32.20
   9 -23  -3  -19.80   22.90
   9  23  -3   14.50   27.80
   9  23  -3   47.70   27.90
   7 -23  -3  -21.20   20.90
  -7 -23   3  -34.30   26.90
   7  23  -3   23.50   25.40
   7  23  -3    2.90   21.30
   5 -23  -3    4.70   18.60
  -5 -23   3   25.70   26.90
   5  23  -3  -20.60   18.90
  -3 -23   3   -0.10   14.30
   3 -23  -3   25.40   17.30
   3  23  -3   26.80   21.30
   1 -23  -3  100.49   24.00
  -1 -23   3   80.99   22.80
   1  23  -3  162.38   33.30
   1 -23   3  140.59   26.50
  -1 -23  -3  133.29   27.30
  -1  23  -3  220.78   39.80
   1  23   3  216.78   37.40
  -3 -23  -3   42.90   21.60
  -3 -23  -3   46.30   26.30
   3 -23   3   33.50   19.70
   3  23   3    4.80   20.90
  -5 -23  -3   82.09   31.50
   5 -23   3   19.00   21.30
  -5 -23  -3   77.79   30.50
   5  23   3   66.39   27.20
   5  23   3   66.79   22.30
   7 -23   3   -3.90   23.10
  -7 -23  -3    8.30   32.50
  -7 -23  -3  -42.00   23.50
   7  23   3  -11.10   23.40
   7  23   3    0.60   20.50
   9 -23   3   32.80   31.00
  -9 -23  -3   19.10   33.50
   9  23   3   54.69   37.90
   9  23   3   30.20   27.10
  -9  23  -3    3.00   32.10
  -8 -24   3   -2.00   31.10
   8 -24  -3   20.90   26.50
   8  24  -3   -9.60   23.60
   8  24  -3    1.50   28.70
  -6 -24   3   -7.70   29.80
  -6 -24   3    8.30   30.20
   6 -24  -3    6.20   21.40
   6  24  -3   14.80   26.40
   4 -24  -3   -2.10   17.10
   4  24  -3  -10.40   20.00
  -2 -24   3   28.10   18.20
   2 -24  -3   15.00   16.90
   2  24  -3   28.80   25.90
   0 -24   3   13.30   18.40
   0 -24  -3   20.80   18.20
   0  24  -3   66.59   28.30
   2 -24   3   52.09   21.70
  -2 -24  -3   63.29   21.50
  -2  24  -3   76.89   29.30
   2  24   3   77.79   29.60
   4 -24   3   85.99   25.20
  -4 -24  -3  126.09   27.70
  -4 -24  -3   64.89   29.00
  -4 -24  -3  125.39   33.70
   4  24   3   69.39   26.80
  -6 -24  -3  -23.40   31.50
  -6 -24  -3   -9.40   26.20
   6 -24   3   11.40   24.30
   6  24   3   29.70   20.80
   6  24   3    5.30   22.00
   8 -24   3  -12.20   25.70
  -8 -24  -3   18.70   30.30
   8  24   3    7.70   21.80
   8  24   3  -14.90   29.40
   7 -25  -3   -4.80   22.00
  -7 -25   3   58.69   34.80
   7  25  -3   83.79   31.60
  -5 -25   3   87.29   32.90
   5 -25  -3   82.59   27.00
   5  25  -3   84.89   31.20
  -3 -25   3   24.90   18.90
   3 -25  -3   13.80   18.20
   3  25  -3   16.40   23.80
  -1 -25   3   71.39   23.60
   1 -25  -3  102.59   24.70
   1  25  -3   90.39   29.50
   1 -25   3    8.70   17.90
  -1 -25  -3    3.80   17.70
  -1  25  -3  -17.70   25.40
   1  25   3  -13.50   22.40
  -3 -25  -3    9.50   19.40
   3 -25   3    5.80   19.80
  -3 -25  -3  -54.99   20.20
   3  25   3   18.90   23.40
  -5 -25  -3   67.59   30.70
   5 -25   3  -25.80   20.60
  -5 -25  -3   21.00   31.60
  -5 -25  -3    6.50   19.60
   5  25   3   -1.30   20.40
   5  25   3  -11.20   21.20
  -7 -25  -3    3.80   26.80
   7 -25   3   23.10   26.80
  -7 -25  -3   13.30   36.80
   7  25   3   -3.90   22.20
   7  25   3   18.40   27.30
   8 -26  -3  -14.70   26.50
  -8 -26   3  -36.40   30.80
   8  26  -3   -8.90   27.40
   8  26  -3   18.00   31.30
   6 -26  -3   -6.00   22.20
  -6 -26   3  -26.20   30.40
   6  26  -3   38.10   29.30
   4 -26  -3   -8.80   18.70
  -4 -26   3   -5.70   17.50
   4  26  -3   34.60   25.60
  -2 -26   3  103.59   27.80
   2 -26  -3  102.79   25.80
   2  26  -3   99.69   33.80
   0 -26   3    6.80   20.10
   0 -26  -3    6.60   18.20
   0  26  -3  -45.70   22.60
  -2 -26  -3  158.38   31.30
   2 -26   3  103.89   27.30
  -2  26  -3  175.68   39.10
   2  26   3  195.88   38.40
  -4 -26  -3   83.99   33.40
   4 -26   3   97.89   27.50
  -4 -26  -3  128.29   37.50
  -4 -26  -3   96.69   27.60
   4  26   3   88.99   31.40
  -6 -26  -3   -8.40   37.30
  -6 -26  -3   26.90   22.90
  -6 -26  -3   47.40   32.40
   6 -26   3    9.30   26.10
   6  26   3   16.40   26.00
   6  26   3    5.40   22.90
   7 -27  -3   29.60   28.20
  -7 -27   3   95.39   39.70
   7  27  -3   64.39   33.70
  -5 -27   3   52.89   35.10
   5 -27  -3   36.70   24.30
   5  27  -3   20.60   28.80
  -3 -27   3   -1.60   20.60
   3 -27  -3   -7.70   18.80
   3  27  -3   39.90   29.20
   1 -27  -3   26.90   19.80
  -1 -27   3   -0.60   19.80
   1  27  -3  -18.70   23.30
  -1 -27  -3   -5.70   19.20
   1 -27   3  -14.00   18.20
   1  27   3   54.69   29.00
  -1  27  -3   49.60   30.80
   3 -27   3   10.70   20.60
  -3 -27  -3   94.79   32.00
  -3 -27  -3   17.30   21.50
   3  27   3   28.70   26.90
  -3  27  -3   47.00   33.40
   5 -27   3   46.00   26.90
  -5 -27  -3   16.60   32.20
  -5 -27  -3   -3.20   36.50
  -5 -27  -3  -28.30   19.70
   5  27   3    6.10   25.10
  -7 -27  -3    1.50   30.20
   7 -27   3  -15.10   26.80
  -7 -27  -3  -29.10   21.10
  -7 -27  -3   24.20   44.20
   7  27   3   84.79   34.40
   7  27   3    9.70   25.60
  -6 -28   3    6.60   35.80
   6 -28  -3    9.80   26.80
   6  28  -3  -11.60   28.80
  -4 -28   3    6.00   19.30
   4 -28  -3    4.90   20.80
   4  28  -3  -11.90   25.60
  -2 -28   3    3.50   20.40
   2 -28  -3   -6.30   18.40
   2  28  -3    7.70   27.70
   0 -28  -3  -10.20   18.80
   0 -28   3   -8.80   20.60
   0  28   3  -50.79   24.70
   0  28  -3  -36.70   24.50
   2 -28   3  -14.10   19.30
  -2 -28  -3   22.40   22.90
   2  28   3   -5.30   26.90
  -2  28  -3   -8.80   28.50
   4 -28   3   44.70   25.50
  -4 -28  -3   74.89   28.40
  -4 -28  -3  129.59   39.00
  -4 -28  -3   88.09   34.30
   4  28   3   16.20   30.20
  -6 -28  -3   25.60   33.50
  -6 -28  -3   75.59   41.90
  -6 -28  -3   21.00   25.10
   6 -28   3  -24.60   24.10
   6  28   3  -21.60   24.80
  -5 -29   3   32.80   36.70
   5 -29  -3   -7.50   24.20
  -5 -29   3    6.90   21.80
   5  29  -3   32.10   30.90
  -3 -29   3   28.00   23.00
   3 -29  -3  -26.00   16.50
   3  29  -3   -0.50   29.80
   1 -29  -3   60.39   24.00
  -1 -29   3   31.90   25.00
   1  29  -3   50.99   31.30
   1 -29   3   45.70   26.40
  -1 -29  -3   44.60   25.00
   1  29   3   53.79   35.10
  -1  29  -3   91.19   37.60
  -3 -29  -3   11.30   23.60
  -3 -29  -3   -3.90   31.20
  -3 -29  -3  -33.70   27.60
   3 -29   3  -38.30   17.20
   3  29   3   22.40   29.40
  -3  29  -3   44.00   37.30
  -5 -29  -3   12.50   37.50
  -5 -29  -3  -20.00   31.80
  -5 -29  -3   10.30   26.10
   5 -29   3  -40.80   21.90
   5  29   3  -32.90   26.80
   4 -30  -3   -5.40   24.20
  -4 -30   3   -1.40   24.60
  -4 -30   3   29.40   38.90
   4  30  -3   25.30   33.00
   2 -30  -3   62.79   24.90
  -2 -30   3   42.30   24.90
   2  30  -3   40.00   34.50
   0 -30  -3   21.40   23.30
   0 -30   3   -5.60   22.30
   0  30  -3   21.20   32.10
   0  30   3  -20.10   30.40
  -2 -30  -3   43.50   25.90
   2 -30   3   -7.00   21.60
   2  30   3   60.99   33.50
  -2  30  -3  -16.70   32.80
  -4 -30  -3  -10.10   29.10
   4 -30   3   -3.60   23.00
  -4 -30  -3    1.40   23.90
  -4 -30  -3    2.60   36.70
  -4  30  -3   54.19   40.50
   4  30   3  -10.40   33.20
  -3 -31   3  -21.30   24.10
   3 -31  -3   28.80   23.40
   3  31  -3   -4.50   32.40
  -1 -31   3    6.10   22.50
   1 -31  -3   32.40   24.80
  -1  31   3   81.59   38.00
   1  31  -3   78.79   37.10
  -1 -31  -3   51.39   28.30
   1 -31   3   16.10   24.00
   1  31   3   18.30   34.10
  -1  31  -3  -18.90   31.80
  -3 -31  -3  -14.40   32.40
   3 -31   3   21.80   23.80
  -3 -31  -3  -17.60   31.90
  -3 -31  -3  -16.80   26.40
   3  31   3   54.29   34.10
  -3  31  -3  -28.10   33.90
   0 -32   3   16.70   26.60
   0 -32  -3    3.30   24.20
   0  32   3  -35.40   30.90
   0  32  -3   33.80   37.60
 -14   0   4   61.89   44.60
  14   0  -4  -14.80   25.80
  14   0  -4    6.80   35.80
  12   0  -4   18.60   24.10
 -12   0   4   60.99   34.20
  12   0  -4   29.70   27.20
  10   0  -4   32.30   22.20
 -10   0   4   21.90   27.80
  10   0  -4   14.40   20.00
   8   0  -4   30.00   16.40
  -8   0   4   -9.80   19.50
   8   0  -4   24.60   15.10
   6   0  -4  106.29   18.80
  -6   0   4  146.89   24.10
   6   0  -4   89.89   18.70
  -4   0   4  503.05   41.30
  -4   0   4  540.75   40.50
   4   0  -4  495.85   40.60
   4   0  -4  544.75   40.40
   4   0  -4  517.75   42.30
   2   0  -4 2404.06  160.68
  -2   0   4 2265.77  159.08
  -2   0   4 2388.06  159.28
   2   0  -4 2350.06  160.98
   2   0  -4 2294.57  159.08
  -2   0   4 2243.28  160.38
  -2   0   4 2305.87  160.78
   0   0  -4  504.25   38.30
   0   0  -4  540.35   38.10
   0   0  -4  497.75   36.50
   0   0   4  502.35   37.60
   0   0   4  491.95   36.30
   0   0   4  520.35   37.90
   2   0   4   82.09   11.30
   2   0   4   70.39   10.50
  -2   0  -4   65.29   13.00
   2   0   4   76.09   13.70
   2   0   4   62.29   12.80
  -2   0  -4   77.59   14.70
  -2   0  -4   56.49   11.10
  -4   0  -4  395.16   30.60
  -4   0  -4  367.86   30.30
  -4   0  -4  405.16   34.90
   4   0   4  371.76   30.30
   4   0   4  388.66   33.00
  -4   0  -4  391.66   35.50
  -6   0  -4   88.99   19.40
   6   0   4   40.60   13.00
  -6   0  -4   15.80   17.60
   6   0   4   -0.20   12.80
   8   0   4   16.00   17.40
   8   0   4   19.50   18.10
  -8   0  -4   24.70   19.60
  10   0   4   94.19   27.30
 -10   0  -4   65.09   27.80
  10   0   4   69.49   24.20
 -12   0  -4    9.80   28.30
  12   0   4   45.80   27.10
  13  -1  -4   94.19   35.40
 -13  -1   4   80.99   41.40
  13  -1  -4  -36.70   20.80
  13   1  -4   12.00   26.40
 -13   1   4   35.60   39.10
  13   1  -4  -24.00   31.00
 -11  -1   4   62.59   32.20
  11  -1  -4   40.00   25.90
  11  -1  -4   61.99   25.20
  11   1  -4   39.80   26.50
 -11   1   4   40.90   31.10
  11   1  -4   30.60   21.30
   9  -1  -4   27.00   18.90
  -9  -1   4   46.20   24.50
   9  -1  -4    8.10   16.30
  -9   1   4   65.19   26.40
   9   1  -4   37.00   19.90
   9   1  -4   34.00   18.20
   7  -1  -4    9.10   14.20
  -7  -1   4  -20.90   17.20
   7  -1  -4    0.20   12.70
   7  -1  -4    4.40    7.40
  -7   1   4   15.10   19.80
   7   1  -4  -17.70   11.70
   7   1  -4    0.10   13.20
  -7   1   4    3.00    8.80
  -5  -1   4  313.87   29.70
   5  -1  -4  300.67   26.00
   5  -1  -4  290.17   29.60
   5  -1  -4  305.77   28.50
  -5   1   4  296.37   30.00
   5   1  -4  291.47   28.20
  -5   1   4  283.57   25.60
   5   1  -4  266.87   28.80
   3  -1  -4   13.90    9.70
   3  -1  -4   17.80    9.50
  -3  -1   4   18.40   10.20
  -3  -1   4   16.00    8.30
   3  -1  -4    9.00    8.30
   3  -1  -4   27.70   10.60
   3   1  -4   21.10    9.30
   3   1  -4   11.40    9.10
   3   1  -4   12.50    8.90
  -3   1   4   10.40    8.20
   3   1  -4    2.30    8.40
  -3   1   4    6.50    9.90
   1  -1  -4    6.30    7.50
   1  -1  -4    0.90    8.00
  -1  -1   4    1.70    6.20
  -1  -1   4    8.60    5.60
   1  -1  -4   -4.70    7.10
  -1  -1   4    0.40    5.90
   1   1  -4    6.30    6.50
  -1   1   4    4.70    6.60
   1   1  -4   18.70    8.30
  -1   1   4   -2.50    5.40
   1   1  -4    2.50    7.50
  -1   1   4    2.40    7.10
   1  -1   4  501.95   38.30
   1  -1   4  511.45   38.00
  -1  -1  -4  508.05   39.30
  -1  -1  -4  516.75   39.10
   1  -1   4  577.74   39.50
  -1  -1  -4  459.35   38.10
   1   1   4  491.55   37.70
   1   1   4  525.95   38.80
  -1   1  -4  520.25   38.90
  -1   1  -4  533.75   39.90
   1   1   4  517.45   39.20
  -1   1  -4  508.85   38.50
   3  -1   4  364.86   28.60
  -3  -1  -4  351.36   27.20
  -3  -1  -4  336.87   31.40
  -3  -1  -4  362.56   30.60
   3  -1   4  360.46   27.60
  -3  -1  -4  352.66   28.30
  -3  -1  -4  338.07   28.50
  -3   1  -4  336.27   27.80
  -3   1  -4  324.37   31.40
  -3   1  -4  345.97   31.10
  -3   1  -4  360.06   28.50
   3   1   4  355.36   28.60
   5  -1   4  321.57   27.90
   5  -1   4  294.77   30.80
  -5  -1  -4  286.17   34.90
  -5  -1  -4  318.07   27.30
  -5  -1  -4  351.86   32.60
   5   1   4  338.37   28.70
   5   1   4  306.37   30.40
  -5   1  -4  347.17   27.20
  -5   1  -4  379.46   33.70
  -5   1  -4  309.57   35.80
   7  -1   4    6.90   14.70
  -7  -1  -4   31.60   20.50
   7  -1   4   64.39   15.30
  -7  -1  -4    8.00   18.00
  -7   1  -4   23.30   18.90
   7   1   4   29.30   14.60
   7   1   4    8.30   14.20
   9  -1   4   28.10   20.80
  -9  -1  -4   11.00   21.20
   9  -1   4    2.90   18.10
   9   1   4    8.70   20.20
   9   1   4    3.70   18.10
  -9   1  -4    4.70   21.10
 -11  -1  -4    8.30   27.30
  11  -1   4   40.20   33.50
  11  -1   4  -14.00   21.40
  11   1   4  -11.20   26.10
  11   1   4    8.90   23.00
 -11   1  -4   54.29   29.70
 -13  -1  -4  -30.90   30.40
  13  -1   4   -0.10   26.00
  13   1   4   42.70   27.50
 -13   1  -4   -2.40   30.20
  14  -2  -4    6.20   27.40
 -14  -2   4    2.60   43.10
  14  -2  -4  -12.10   37.00
  14   2  -4    8.10   28.10
  14   2  -4  -12.00   33.70
 -14   2   4   54.39   46.10
 -12  -2   4   21.90   33.10
  12  -2  -4  -10.20   26.10
  12  -2  -4   10.10   23.10
  12   2  -4   66.19   30.20
 -12   2   4  111.69   39.20
  12   2  -4  -13.90   22.10
 -10  -2   4   29.70   27.30
  10  -2  -4   18.10   19.00
  10  -2  -4   47.40   23.80
  10   2  -4   22.80   22.50
  10   2  -4    4.80   18.00
 -10   2   4   21.90   27.70
  -8  -2   4   25.40   21.50
   8  -2  -4   23.70   10.60
   8  -2  -4   17.80   15.90
   8  -2  -4   17.60   15.90
   8   2  -4   15.20   15.50
  -8   2   4   32.00   22.10
   8   2  -4   29.60   17.30
   6  -2  -4  186.48   25.70
   6  -2  -4  210.98   25.80
   6  -2  -4  224.98   21.00
  -6  -2   4  206.88   27.80
  -6   2   4  279.37   30.70
   6   2  -4  174.48   24.30
   6   2  -4  201.78   26.40
  -6   2   4  206.68   21.00
   4  -2  -4   56.69   13.40
   4  -2  -4   97.69   16.00
  -4  -2   4   79.99   16.00
   4  -2  -4   78.49   12.30
   4   2  -4   53.99   13.10
   4   2  -4   69.99   15.30
  -4   2   4   69.69   16.30
  -4   2   4   61.19   11.40
  -2  -2   4  366.56   34.40
   2  -2  -4  411.06   33.20
   2  -2  -4  417.56   34.20
  -2  -2   4  406.66   31.20
  -2  -2   4  431.06   30.40
  -2  -2   4  407.66   33.10
   2  -2  -4  420.56   32.70
   2  -2  -4  437.86   32.00
  -2   2   4  417.66   33.60
   2   2  -4  435.46   30.70
  -2   2   4  449.46   31.90
   2   2  -4  410.06   33.80
  -2   2   4  441.46   32.90
   2   2  -4  385.76   33.90
   0  -2  -4  305.77   26.70
   0  -2   4  318.17   25.30
   0  -2   4  303.77   23.30
   0  -2   4  307.57   25.60
   0  -2  -4  316.27   26.40
   0   2  -4  302.97   26.60
   0   2   4  321.17   25.40
   0   2  -4  313.57   23.80
   0   2   4  309.47   24.30
   0   2  -4  308.67   26.10
   0   2   4  337.47   25.90
  -2  -2  -4   -8.90    7.10
   2  -2   4   -3.70    9.50
  -2  -2  -4    2.40   10.50
  -2  -2  -4   -9.70    9.00
  -2  -2  -4   -1.40    9.40
   2  -2   4    7.10    7.70
   2  -2   4   -5.00    7.70
  -2   2  -4   13.40   12.90
   2   2   4   -6.20    6.60
  -2   2  -4   -5.30   10.90
   2   2   4   22.00    8.00
  -2   2  -4    5.10    8.40
   2   2   4    6.60    8.90
   2   2   4    5.20    9.70
   4  -2   4  445.86   32.40
   4  -2   4  387.46   32.10
  -4  -2  -4  442.96   36.60
   4  -2   4  401.36   34.50
  -4  -2  -4  419.66   33.90
  -4  -2  -4  430.96   37.60
  -4  -2  -4  399.86   33.40
   4   2   4  437.96   33.70
  -4   2  -4  394.56   38.00
   4   2   4  398.36   34.70
  -4   2  -4  445.56   32.80
  -6  -2  -4   17.80   15.50
   6  -2   4    4.50   12.20
   6  -2   4  -14.70   13.00
  -6  -2  -4   32.70   10.10
  -6  -2  -4   16.10   17.00
   6   2   4    7.90   12.60
   6   2   4   28.00   14.10
  -6   2  -4   33.00   18.70
   8  -2   4  100.49   21.00
  -8  -2  -4  127.29   27.70
   8  -2   4   41.70   19.00
  -8  -2  -4   60.59   23.80
   8   2   4  113.59   22.60
   8   2   4   50.79   18.90
  -8   2  -4   76.79   24.00
 -10  -2  -4   41.20   26.20
  10  -2   4   -3.40   19.20
  10  -2   4   29.20   24.90
  10   2   4    8.30   20.80
 -10   2  -4    1.80   24.10
  10   2   4  -22.70   24.20
 -12  -2  -4   34.70   31.10
  12  -2   4   -2.80   23.20
 -12   2  -4  -10.60   27.30
  12   2   4  -17.00   21.20
 -13  -3   4   73.19   40.60
  13  -3  -4   35.10   34.70
  13  -3  -4  -20.30   24.00
 -13   3   4   14.80   37.90
  13   3  -4   84.29   35.80
  13   3  -4   62.39   29.40
 -11  -3   4   19.50   29.70
  11  -3  -4   38.40   24.10
  11  -3  -4   14.10   21.10
  11   3  -4   30.30   22.10
 -11   3   4   66.69   34.40
  11   3  -4  -30.10   21.80
   9  -3  -4   28.70   18.20
   9  -3  -4   31.70   20.00
  -9  -3   4    4.30   24.00
   9   3  -4    9.20   16.70
  -9   3   4   55.19   24.90
   9   3  -4    7.80   18.20
  -7  -3   4   46.50   19.00
   7  -3  -4    4.30   13.60
   7  -3  -4   19.70   15.40
   7   3  -4    9.40   13.30
  -7   3   4   34.70   19.20
   7   3  -4   21.40   15.10
   5  -3  -4  414.06   34.80
   5  -3  -4  387.16   35.30
  -5  -3   4  333.57   34.70
   5  -3  -4  419.66   32.30
   5   3  -4  395.46   33.80
   5   3  -4  386.76   35.60
  -5   3   4  373.26   35.90
   3  -3  -4  405.36   33.20
   3  -3  -4  466.05   33.70
   3  -3  -4  424.86   32.90
   3  -3  -4  368.96   34.50
  -3  -3   4  382.56   33.00
  -3   3   4  426.26   33.40
   3   3  -4  415.06   32.80
   3   3  -4  448.96   33.00
  -3   3   4  398.86   33.30
   3   3  -4  435.26   35.40
  -1  -3   4  121.49   13.40
   1  -3  -4  109.89   15.70
   1  -3  -4   98.79   15.10
  -1  -3   4  123.39   14.10
  -1   3   4  111.69   15.20
   1   3  -4  121.29   15.60
  -1   3   4  119.99   12.60
   1  -3   4 3042.60  218.28
   1  -3   4 3227.38  219.48
  -1  -3  -4 3229.58  219.48
  -1  -3  -4 3262.37  219.48
   1  -3   4 3184.68  218.78
  -1  -3  -4 3010.90  218.08
  -1   3  -4 3013.70  218.28
   1   3   4 3310.87  219.48
  -1   3  -4 3170.28  218.98
   1   3   4 3357.06  217.48
   1   3   4 3170.18  218.08
   3  -3   4  500.05   40.30
   3  -3   4  552.94   41.20
  -3  -3  -4  552.04   40.80
  -3  -3  -4  519.45   43.00
  -3  -3  -4  542.15   42.50
   3   3   4  582.44   41.40
  -3   3  -4  524.45   40.50
  -3   3  -4  537.15   44.10
   3   3   4  543.45   40.50
  -5  -3  -4  294.57   28.80
   5  -3   4  338.37   27.70
  -5  -3  -4  306.27   31.50
  -5  -3  -4  334.57   33.20
   5  -3   4  313.67   30.10
   5   3   4  364.26   30.10
  -5   3  -4  311.97   27.30
  -5   3  -4  331.27   37.20
   5   3   4  310.17   30.10
  -7  -3  -4  127.29   27.40
   7  -3   4  160.48   25.50
   7  -3   4  138.49   21.50
  -7  -3  -4  136.39   17.20
  -7  -3  -4  185.08   28.60
  -7   3  -4   65.29   24.10
   7   3   4  118.99   22.30
   7   3   4  169.78   23.30
   9  -3   4   41.20   21.60
   9  -3   4   14.40   19.80
  -9  -3  -4   75.79   25.80
   9   3   4   12.90   20.00
  -9   3  -4   62.79   23.80
   9   3   4   66.49   24.00
 -11  -3  -4   26.60   27.20
  11  -3   4   19.10   23.00
 -11   3  -4   -2.80   25.90
  11   3   4    6.40   22.30
  11   3   4   50.69   29.90
  13  -3   4   29.30   26.60
 -13  -3  -4   38.40   34.80
 -13   3  -4   51.19   33.00
  13   3   4   17.40   26.80
  14  -4  -4    3.20   29.00
  14   4  -4   -6.20   27.20
 -14   4   4   22.70   47.60
 -12  -4   4  -10.40   29.70
  12  -4  -4   13.10   23.50
  12  -4  -4  -14.90   26.20
  12   4  -4   28.70   29.70
  12   4  -4   18.90   23.90
 -12   4   4   11.20   32.70
  10  -4  -4   13.40   21.60
 -10  -4   4   -4.20   27.00
  10  -4  -4   26.20   20.40
  10   4  -4   17.80   19.90
 -10   4   4  -11.00   25.30
  10   4  -4  -40.90   17.80
  -8  -4   4    4.00   20.70
   8  -4  -4    3.40   15.40
   8  -4  -4  -17.40   14.10
   8   4  -4   10.30   16.10
  -8   4   4    6.50   21.60
   8   4  -4   -7.40   14.40
   6  -4  -4  585.54   48.10
  -6  -4   4  601.14   49.20
   6  -4  -4  624.84   49.00
   6  -4  -4  606.84   44.30
  -6   4   4  572.24   49.40
   6   4  -4  511.25   48.30
   6   4  -4  541.55   47.00
   4  -4  -4   83.79   15.60
  -4  -4   4  125.19   18.90
   4  -4  -4  102.89   14.50
   4  -4  -4   82.79   16.30
  -4   4   4  108.49   18.90
   4   4  -4   79.19   14.60
   4   4  -4   94.29   17.80
   2  -4  -4   54.49   10.70
  -2  -4   4   34.50   10.20
  -2  -4   4   42.00    8.60
  -2  -4   4   20.90   10.20
   2  -4  -4   45.30   10.40
   2  -4  -4   31.30   11.80
   2  -4  -4   52.19   12.10
  -2   4   4   30.40   11.50
   2   4  -4   38.70    9.10
   2   4  -4   32.10   11.80
  -2   4   4   45.80   10.90
   0  -4   4 4186.18  295.57
   0  -4   4 4230.58  296.07
   0  -4  -4 4422.96  297.57
   0   4   4 4247.98  295.37
   0   4   4 4362.46  297.47
   0   4   4 4408.56  295.57
   0   4  -4 4451.35  295.97
  -2  -4  -4  367.36   31.40
  -2  -4  -4  356.56   28.80
   2  -4   4  411.76   29.20
   2  -4   4  304.27   29.10
  -2  -4  -4  428.56   31.80
   2   4   4  407.06   29.40
  -2   4  -4  352.76   27.80
  -2   4  -4  342.67   31.90
   2   4   4  359.16   29.30
   2   4   4  336.77   31.70
   4  -4   4   17.00    9.00
   4  -4   4   33.70   12.20
  -4  -4  -4   62.39   16.40
  -4   4  -4    4.50    7.10
   4   4   4   18.80   11.30
  -4   4  -4   45.60   16.60
  -6  -4  -4   58.49   17.30
   6  -4   4   39.60   13.60
   6  -4   4   -2.60   13.70
  -6  -4  -4   12.60   16.90
  -6   4  -4   30.80   17.70
   6   4   4   -2.50   12.60
   6   4   4   52.99   15.50
   8  -4   4   43.00   20.30
  -8  -4  -4  111.29   27.70
  -8  -4  -4   58.19   22.90
  -8  -4  -4   64.79   14.80
   8  -4   4   49.40   18.40
   8   4   4   48.20   18.00
   8   4   4   46.80   20.30
  -8   4  -4   20.50   21.70
 -10  -4  -4   28.60   26.70
  10  -4   4   33.60   22.20
  10  -4   4   20.80   23.80
  10   4   4   13.30   20.60
  10   4   4   -1.90   24.50
 -10   4  -4   -6.90   25.10
  12  -4   4  -28.90   22.50
 -12  -4  -4  -10.90   29.30
  12   4   4   18.70   25.20
 -12   4  -4   -6.00   27.20
  13  -5  -4   51.69   27.20
 -13  -5   4   39.10   39.50
  13  -5  -4   22.20   33.80
  13   5  -4  -15.20   23.40
  13   5  -4   72.89   36.30
 -13   5   4   74.29   43.40
  11  -5  -4   14.20   21.20
  11  -5  -4   27.10   26.20
 -11  -5   4   17.80   30.50
  11   5  -4   -0.10   20.80
 -11   5   4   19.10   32.60
  11   5  -4  -13.40   23.90
  -9  -5   4   54.69   25.00
   9  -5  -4   46.20   20.10
   9  -5  -4   29.10   18.40
  -9   5   4   97.99   30.70
   9   5  -4   21.80   18.70
   9   5  -4   34.30   17.90
   7  -5  -4   63.89   12.90
  -7  -5   4   70.09   21.30
   7  -5  -4   62.19   17.40
   7  -5  -4   80.19   18.50
   7   5  -4   30.40   15.40
  -7   5   4   77.09   23.40
   7   5  -4   16.80   14.80
  -5  -5   4   87.59   18.00
   5  -5  -4   83.79   17.30
   5  -5  -4   64.29   16.40
   5  -5  -4   78.39   13.70
   5   5  -4   52.19   16.00
   5   5  -4   52.19   15.00
  -5   5   4  130.19   20.90
   3  -5  -4  241.38   24.80
   3  -5  -4  236.48   23.40
  -3  -5   4  221.58   23.30
   3  -5  -4  243.38   23.70
   3  -5  -4  256.17   24.90
   3   5  -4  252.47   22.80
  -3   5   4  255.87   24.50
   3   5  -4  263.87   25.60
   1  -5  -4 1803.12  125.69
  -1  -5   4 1896.61  125.59
  -1  -5   4 1731.23  126.49
   1  -5  -4 1782.02  125.69
  -1   5   4 1822.02  125.99
   1   5  -4 1864.11  127.09
  -1  -5  -4 5628.74  376.86
   1  -5   4 5493.75  378.06
   1  -5   4 5488.75  376.56
  -1  -5  -4 5454.95  377.66
  -1  -5  -4 5398.56  378.96
  -1  -5  -4 5589.74  376.76
  -1   5  -4 5515.25  376.46
   1   5   4 5794.22  377.06
  -1   5  -4 5326.67  377.86
   3  -5   4  214.78   25.00
  -3  -5  -4  284.47   27.50
  -3  -5  -4  312.17   28.40
   3  -5   4  296.47   25.60
   3   5   4  299.67   25.60
  -3   5  -4  290.77   28.60
   3   5   4  266.17   24.90
  -5  -5  -4  323.17   30.40
   5  -5   4  258.87   23.20
   5  -5   4  188.28   26.40
  -5   5  -4  251.07   23.10
   5   5   4  238.68   27.70
  -5   5  -4  321.07   31.50
   7  -5   4   -3.90   14.40
  -7  -5  -4   48.00   20.40
   7  -5   4   44.30   16.40
  -7  -5  -4   37.10   20.10
   7   5   4   40.20   19.40
  -7   5  -4   36.60   20.30
   7   5   4   13.90   14.30
   9  -5   4   41.80   22.30
   9  -5   4   63.59   23.70
  -9  -5  -4  138.99   33.60
  -9  -5  -4   29.10   24.00
   9   5   4   26.70   22.50
   9   5   4   22.80   19.40
  -9   5  -4   27.90   24.20
 -11  -5  -4   15.00   27.70
  11  -5   4  -30.10   19.80
  11   5   4   35.20   24.00
 -11   5  -4   -1.50   25.90
  11   5   4   -8.00   28.70
  13  -5   4   63.59   30.50
 -13  -5  -4  135.49   39.70
  13   5   4   23.10   28.10
 -13   5  -4   57.59   36.40
 -12  -6   4  112.89   39.70
  12  -6  -4  -13.20   28.70
  12  -6  -4   21.90   23.30
  12   6  -4    7.70   20.80
  12   6  -4   82.39   31.20
 -12   6   4   38.50   39.00
 -10  -6   4   16.30   26.30
  10  -6  -4   15.00   24.00
  10  -6  -4   30.20   20.90
 -10   6   4   33.20   30.80
  10   6  -4   31.10   23.20
  10   6  -4    9.10   17.20
   8  -6  -4  103.89   22.70
   8  -6  -4  148.39   25.70
  -8  -6   4  137.79   27.40
   8   6  -4  107.39   21.90
  -8   6   4  147.69   30.10
   8   6  -4   79.19   21.00
   6  -6  -4  913.81   71.99
   6  -6  -4  906.41   67.69
   6  -6  -4  898.91   70.69
  -6  -6   4  924.11   71.39
  -6   6   4  979.30   72.29
   6   6  -4  975.60   73.19
   6   6  -4  921.61   70.49
   4  -6  -4   85.49   15.10
   4  -6  -4   71.79   14.80
   4  -6  -4   67.29   15.90
  -4  -6   4   90.49   17.50
   4   6  -4   71.89   17.20
  -4   6   4  103.79   18.20
   4   6  -4   65.19   14.90
   2  -6  -4  368.66   30.90
   2  -6  -4  387.16   30.70
   2   6  -4  362.26   32.70
   2   6  -4  378.96   29.70
   0  -6  -4  682.83   49.99
   0  -6   4  678.03   50.19
   0  -6  -4  695.33   49.99
   0  -6   4  695.93   51.39
   0  -6  -4  751.82   53.09
   0   6   4  654.53   50.09
   0   6  -4  678.33   50.69
  -2  -6  -4  102.19   16.80
   2  -6   4   88.99   14.00
  -2   6  -4   95.09   12.20
   2   6   4  112.99   15.90
   2   6   4  111.89   14.60
   4  -6   4   19.90   13.20
  -4  -6  -4   26.60   13.00
  -4  -6  -4   63.69   17.50
   4   6   4   24.50   11.50
   4   6   4   22.40   12.00
  -4   6  -4   46.60   16.60
  -6  -6  -4   23.00   17.60
   6  -6   4  -20.80   11.90
  -6  -6  -4   30.10   16.10
   6   6   4    7.30   14.70
   6   6   4    0.10   12.70
  -6   6  -4   27.10   19.90
  -8  -6  -4  157.08   30.20
  -8  -6  -4   59.59   23.40
   8  -6   4   57.89   20.00
   8  -6   4   82.79   21.10
   8   6   4   48.10   19.60
  -8   6  -4   82.59   26.00
   8   6   4  124.59   26.20
  10  -6   4   46.00   24.50
 -10  -6  -4   85.99   35.90
 -10  -6  -4   59.59   28.90
  10  -6   4    7.40   21.50
  10   6   4   -5.10   20.90
  10   6   4   28.80   26.50
 -10   6  -4   20.60   27.90
 -12  -6  -4  -18.70   29.50
  12  -6   4    4.90   24.50
  12   6   4   93.49   49.70
 -12   6  -4   34.10   31.00
  12   6   4   31.20   25.10
  13  -7  -4   19.20   25.20
  13  -7  -4   15.70   34.70
 -13  -7   4   -6.10   37.60
 -13   7   4  -32.90   37.30
  13   7  -4   22.30   26.60
  13   7  -4   79.29   39.70
  11  -7  -4   71.29   29.20
  11  -7  -4   58.99   25.60
 -11  -7   4   75.19   32.90
 -11   7   4   39.60   33.50
  11   7  -4   46.90   24.40
  11   7  -4   31.80   27.20
  -9  -7   4  -14.00   23.10
   9  -7  -4   34.80   21.80
   9  -7  -4   -1.00   18.80
   9   7  -4   10.80   17.50
   9   7  -4    0.60   18.40
  -9   7   4   18.70   27.10
  -7  -7   4   93.89   23.50
   7  -7  -4  117.99   16.30
   7  -7  -4   74.19   19.20
   7  -7  -4   86.99   19.80
  -7   7   4  127.99   24.00
   7   7  -4   28.10   16.80
   7   7  -4   68.39   19.50
   5  -7  -4   22.10   14.60
  -5  -7   4   50.19   17.80
   5  -7  -4   30.20   12.50
  -5  -7   4   30.80    7.90
   5  -7  -4   50.29   14.70
   5   7  -4   22.70   13.20
  -5   7   4   39.30   17.40
   5   7  -4   52.19   15.90
  -3  -7   4    6.60   12.20
   3  -7  -4  -12.70   10.00
  -3   7   4    5.60   13.80
   3   7  -4   13.20   10.70
   3   7  -4   -3.40   11.60
   1  -7  -4 1763.02  122.59
   1   7  -4 1751.22  123.69
  -1  -7  -4  360.56   32.50
   1  -7   4  363.36   29.60
  -1  -7  -4  370.26   29.90
  -1   7  -4  350.96   32.80
   1   7   4  399.96   30.40
  -1   7  -4  365.76   29.80
   3  -7   4  419.56   34.30
  -3  -7  -4  388.76   35.60
  -3  -7  -4  391.56   35.50
  -3   7  -4  406.26   32.10
  -3   7  -4  400.36   36.80
   3   7   4  396.56   33.70
   3   7   4  405.66   34.20
  -5  -7  -4  175.58   23.80
  -5  -7  -4  170.68   26.10
   5  -7   4  200.98   24.10
   5   7   4  252.47   26.30
   5   7   4  152.08   22.40
  -5   7  -4  123.99   25.40
  -7  -7  -4   30.20   21.60
  -7  -7  -4   37.80   21.50
   7  -7   4   26.20   16.00
   7   7   4    9.40   14.60
   7   7   4    0.40   17.10
  -7   7  -4    1.40   19.30
   9  -7   4   38.80   22.90
  -9  -7  -4    6.30   21.30
  -9  -7  -4   34.60   29.40
   9  -7   4   74.39   23.70
  -9   7  -4   19.80   23.90
   9   7   4    5.40   25.40
   9   7   4   35.20   19.80
 -11  -7  -4   13.60   29.40
  11  -7   4   -7.30   22.80
  11   7   4   20.30   28.90
 -11   7  -4    9.00   27.90
  11   7   4   28.00   24.10
  13  -7   4   -6.70   26.20
 -13  -7  -4  -11.40   33.40
  13   7   4   21.20   26.40
 -13   7  -4   56.29   37.60
  12  -8  -4  -16.70   21.80
 -12  -8   4   27.00   35.40
  12  -8  -4   15.20   29.70
 -12   8   4  -13.50   35.30
  12   8  -4   39.90   25.80
  12   8  -4    4.50   29.50
  10  -8  -4   -4.20   19.90
 -10  -8   4   59.29   30.40
  10  -8  -4    4.60   22.30
  10   8  -4    5.90   20.00
 -10   8   4   30.30   30.40
  10   8  -4   24.50   21.10
   8  -8  -4  150.18   26.30
   8  -8  -4  140.19   26.40
  -8  -8   4  183.98   30.70
  -8   8   4  181.68   32.50
   8   8  -4  138.39   25.00
   8   8  -4  152.78   27.00
   6  -8  -4  506.65   39.70
   6  -8  -4  415.16   41.00
   6  -8  -4  466.15   42.90
  -6  -8   4  479.65   43.60
   6   8  -4  508.45   42.00
   6   8  -4  454.35   43.70
  -6   8   4  519.65   45.10
  -4  -8   4   23.40   14.80
   4  -8  -4   13.10   13.10
  -4   8   4    6.50   14.50
   4   8  -4   -5.90   10.90
   4   8  -4   -1.00   11.30
   2  -8  -4  844.52   62.69
   2   8  -4  817.62   61.89
   2   8  -4  902.11   64.69
   0  -8  -4   48.30   10.90
   0   8   4   28.60   10.60
   0   8  -4   42.00   11.20
  -2  -8  -4  270.07   26.80
  -2  -8  -4  255.47   27.00
   2  -8   4  255.87   24.40
   2   8   4  258.17   24.70
  -2   8  -4  251.07   29.30
  -4  -8  -4  105.89   20.10
  -4  -8  -4  138.99   21.60
   4  -8   4  110.39   19.10
   4   8   4  133.59   19.50
   4   8   4  117.29   19.10
  -4   8  -4  143.49   24.40
  -4   8  -4   95.79   21.80
   6  -8   4   85.29   19.60
  -6  -8  -4   81.59   22.90
  -6  -8  -4   97.49   20.90
   6   8   4  110.99   20.30
   6   8   4   91.79   18.90
  -6   8  -4   53.79   20.10
   8  -8   4   68.09   22.30
  -8  -8  -4   80.79   27.80
  -8  -8  -4   48.70   24.30
  -8   8  -4   48.90   25.00
   8   8   4   13.80   16.50
   8   8   4   76.69   25.70
 -10  -8  -4    8.70   24.80
  10  -8   4   28.10   25.00
 -10  -8  -4   85.89   39.10
  10   8   4   22.40   21.10
 -10   8  -4   43.50   30.40
  10   8   4   29.60   27.50
 -12  -8  -4   26.20   31.40
  12  -8   4   18.80   26.90
 -12   8  -4    1.80   29.90
  12   8   4   27.40   25.90
  12   8   4   21.20   35.00
  13  -9  -4   32.80   38.50
  13  -9  -4   27.50   28.50
 -13  -9   4    7.10   37.10
  13   9  -4   80.09   39.40
 -13   9   4   44.50   42.70
  13   9  -4   -0.20   26.60
  11  -9  -4   32.50   28.60
  11  -9  -4   36.20   24.10
 -11  -9   4   30.50   34.30
  11   9  -4   79.29   27.60
  11   9  -4   58.29   25.30
 -11   9   4    1.00   30.60
   9  -9  -4  115.49   26.10
   9  -9  -4   73.39   23.40
  -9  -9   4   74.69   27.40
   9   9  -4   51.59   20.90
   9   9  -4   66.89   21.90
  -9   9   4  131.99   30.60
   7  -9  -4   70.69   16.30
   7  -9  -4   66.39   19.00
   7  -9  -4   57.99   18.50
  -7  -9   4   54.89   21.50
   7   9  -4   59.79   18.80
   7   9  -4   27.00   16.20
  -7   9   4  108.89   25.30
  -5  -9   4   29.70   10.20
   5  -9  -4    1.70   12.60
  -5  -9   4   48.90   16.90
   5   9  -4   32.10   14.10
   5   9  -4   22.50   14.10
  -5   9   4   54.89   17.80
   3  -9  -4  901.41   64.99
  -3  -9   4  833.32   65.59
  -3   9   4  822.82   65.79
   3   9  -4  892.11   67.19
   3   9  -4  890.31   64.49
   1  -9  -4  127.39   16.90
   1   9  -4  130.19   18.40
  -1  -9  -4   39.70   11.20
  -1  -9  -4   38.50   13.60
   1  -9   4   19.50   10.90
   1   9   4   38.50   11.40
  -1   9  -4   32.30   12.00
   3  -9   4 1841.62  131.59
  -3  -9  -4 1663.23  132.49
   3   9   4 1866.31  131.49
   3   9   4 2051.99  132.39
  -3   9  -4 1861.71  132.99
   5  -9   4  100.39   20.00
  -5  -9  -4  183.28   25.80
  -5   9  -4  183.58   27.00
   5   9   4  129.19   21.20
  -7  -9  -4   32.70   21.00
   7  -9   4   10.30   16.30
  -7  -9  -4   19.60   20.80
   7   9   4   12.80   20.20
   7   9   4  -10.20   13.80
  -7   9  -4   26.90   20.40
  -9  -9  -4   91.99   32.20
   9  -9   4   15.60   20.30
  -9  -9  -4   -9.20   23.80
   9   9   4   17.90   18.80
  -9   9  -4   -4.70   21.70
   9   9   4   52.59   28.50
  11  -9   4   68.59   29.60
 -11  -9  -4  -20.70   23.80
  11   9   4  -44.80   28.00
  11   9   4   -6.80   20.70
 -11   9  -4   23.00   28.60
  13  -9   4   -6.50   27.90
 -13  -9  -4   -4.70   33.20
  13   9   4   42.70   29.50
 -13   9  -4   61.89   35.80
  12 -10  -4   21.90   33.40
 -12 -10   4   14.60   35.50
  12 -10  -4   47.20   26.50
 -12  10   4   45.20   39.70
  12  10  -4   18.60   26.50
  12  10  -4  -22.00   27.10
  10 -10  -4   27.00   22.30
 -10 -10   4   60.59   31.70
  10 -10  -4   75.99   29.30
 -10  10   4   74.49   32.60
  10  10  -4   64.39   25.50
  10  10  -4   84.29   24.60
   8 -10  -4  150.88   27.50
   8 -10  -4  128.09   21.00
   8 -10  -4   92.79   22.90
  -8 -10   4  105.19   28.80
   8  10  -4  109.29   23.40
   8  10  -4  150.78   28.70
  -8  10   4  161.58   32.50
   6 -10  -4  848.52   59.89
   6 -10  -4  624.64   59.49
  -6 -10   4  798.32   56.69
  -6 -10   4  795.72   61.69
   6  10  -4  713.83   62.59
   6  10  -4  732.83   60.19
  -6  10   4  735.63   62.49
  -4 -10   4   -3.60   13.90
   4 -10  -4   -9.30   10.70
  -4  10   4   28.90   17.00
   4  10  -4    6.10   12.50
   4  10  -4    3.70   12.10
   2 -10  -4  105.59   17.10
   2  10  -4  140.39   20.10
   0 -10  -4  146.79   18.90
   0  10  -4  132.49   19.80
   2 -10   4   12.70   11.50
  -2 -10  -4   24.70   15.10
  -2 -10  -4   16.50   13.30
  -2  10  -4   -1.10   15.70
   2  10   4   16.30   11.50
   4 -10   4  161.38   23.30
  -4 -10  -4  155.28   23.50
   4  10   4  156.28   22.50
  -4  10  -4  216.58   28.00
   6 -10   4   47.60   17.50
  -6 -10  -4   -3.90   16.20
  -6 -10  -4   21.10   20.20
   6  10   4    1.90   14.20
   6  10   4   29.90   17.70
  -6  10  -4   16.90   20.20
  -8 -10  -4   -4.10   25.20
  -8 -10  -4  -24.00   20.40
   8 -10   4   18.60   18.60
   8  10   4    0.20   16.50
   8  10   4  -13.10   20.90
  -8  10  -4    5.60   20.60
 -10 -10  -4   65.89   27.90
  10 -10   4   53.69   25.50
  10  10   4  121.19   33.60
  10  10   4   29.00   20.90
 -10  10  -4   28.60   26.10
  12 -10   4   -9.70   25.00
 -12 -10  -4   35.60   32.80
  12  10   4   20.50   26.00
  12  10   4   -8.90   34.20
 -12  10  -4  -31.70   27.60
  13 -11  -4   22.40   25.40
 -13 -11   4   18.40   41.10
  13  11  -4   20.40   36.40
  13  11  -4  -21.90   27.20
 -13  11   4   17.50   43.70
 -11 -11   4   38.20   32.80
  11 -11  -4   19.40   24.50
  11  11  -4   14.90   22.70
  11  11  -4   48.80   24.60
 -11  11   4   44.90   35.50
   9 -11  -4   -6.40   16.80
  -9 -11   4   36.20   26.70
   9  11  -4   47.80   20.90
  -9  11   4   -0.70   27.30
   9  11  -4    6.20   21.40
  -7 -11   4   44.10   22.30
   7 -11  -4  123.29   21.20
  -7 -11   4   90.69   16.10
   7 -11  -4   43.90   17.40
  -7  11   4  139.59   27.90
   7  11  -4   66.89   20.30
   7  11  -4   53.19   19.20
  -5 -11   4   14.50   15.10
   5 -11  -4    3.10   13.80
   5  11  -4   13.80   14.60
   5  11  -4   17.00   13.90
  -5  11   4    6.50   18.00
   3 -11  -4  513.95   41.70
   3  11  -4  513.15   44.20
   3  11  -4  489.55   41.10
   1 -11  -4    8.30   10.30
   1  11  -4    0.60   11.70
   1 -11   4  225.28   25.00
  -1 -11  -4  231.88   24.00
   1  11   4  260.37   26.20
  -1  11  -4  235.98   26.30
  -3 -11  -4  258.37   31.80
   3 -11   4  202.78   26.90
  -3 -11  -4  274.37   31.20
  -3  11  -4  286.97   32.70
   3  11   4  272.07   27.50
   3  11   4  311.07   30.20
  -5 -11  -4  -27.80   14.00
   5 -11   4    2.00   13.70
  -5 -11  -4   29.10   18.20
   5  11   4   19.80   14.80
   5  11   4  -11.80   12.80
  -5  11  -4   -4.90   19.00
   7 -11   4   68.59   22.00
  -7 -11  -4   46.10   23.20
  -7 -11  -4   91.09   24.20
  -7  11  -4   48.10   24.00
   7  11   4    4.20   17.10
   7  11   4   86.69   24.30
  -9 -11  -4   44.50   31.20
   9 -11   4  -10.50   18.40
  -9 -11  -4   15.40   26.40
   9  11   4   11.20   20.50
  -9  11  -4  -10.00   25.30
   9  11   4   38.70   28.40
 -11 -11  -4   26.90   28.20
  11 -11   4  -10.60   25.60
  11  11   4   24.10   34.50
 -11  11  -4   35.20   31.00
  11  11   4   29.10   25.20
  12 -12  -4   -9.90   25.00
 -12 -12   4   37.80   37.80
  12  12  -4    2.90   24.60
  12  12  -4   54.79   32.10
 -12  12   4   60.09   41.40
 -10 -12   4  -16.30   28.60
  10 -12  -4   -1.80   20.20
  10  12  -4   15.50   21.10
  10  12  -4   11.90   25.20
 -10  12   4    7.90   30.30
   8 -12  -4  100.29   23.00
   8 -12  -4  142.79   24.40
  -8 -12   4  203.48   34.30
   8  12  -4   99.89   25.30
   8  12  -4   95.89   23.40
  -8  12   4  139.39   33.50
  -6 -12   4  568.14   46.10
  -6 -12   4  539.75   49.70
   6 -12  -4  520.65   48.70
  -6  12   4  653.03   52.59
   6  12  -4  546.15   48.80
   6  12  -4  587.34   51.49
   4 -12  -4  250.67   29.80
  -4 -12   4  278.67   33.50
  -4  12   4  328.07   32.50
   4  12  -4  253.97   31.90
   4  12  -4  265.57   29.50
   2 -12  -4  476.95   40.70
   2  12  -4  518.75   43.50
   0 -12   4  473.15   38.80
   0 -12  -4  474.85   38.80
   0  12  -4  472.65   41.90
  -2 -12  -4   76.09   14.30
  -2 -12  -4   35.60   16.20
   2 -12   4   67.19   15.80
   2  12   4   60.99   15.60
  -4 -12  -4  273.57   31.70
   4 -12   4  211.58   28.30
  -4 -12  -4  225.58   30.60
   4  12   4  226.28   28.20
   4  12   4  299.57   29.70
  -4  12  -4  194.58   30.30
   6 -12   4   -3.50   15.50
  -6 -12  -4   41.20   22.00
  -6 -12  -4   -1.20   19.60
  -6  12  -4    6.70   21.00
   6  12   4   30.50   18.00
   6  12   4   15.90   15.70
   8 -12   4   30.20   21.10
  -8 -12  -4   38.70   26.20
  -8 -12  -4   82.69   26.30
  -8  12  -4   29.30   24.20
   8  12   4   44.80   25.50
   8  12   4   71.89   22.90
 -10 -12  -4  -20.40   24.60
  10 -12   4   29.60   24.00
 -10  12  -4   65.99   32.40
  10  12   4   64.99   32.40
  10  12   4   -7.50   20.40
  12 -12   4    4.30   30.60
 -12 -12  -4  -33.70   26.90
  12  12   4   58.89   37.30
 -12  12  -4   38.60   36.70
  12  12   4  -19.90   25.30
 -11 -13   4   -3.00   32.00
  11 -13  -4   27.70   25.10
 -11  13   4  -20.40   36.50
  11  13  -4   -1.00   24.70
  11  13  -4   25.30   23.60
   9 -13  -4   16.80   20.40
  -9 -13   4   17.60   27.20
   9  13  -4   52.79   25.20
  -9  13   4  -36.20   27.00
   9  13  -4   -5.00   18.10
   7 -13  -4   42.00   18.70
  -7 -13   4   94.39   24.20
  -7 -13   4   47.90   16.90
   7  13  -4   58.19   21.10
  -7  13   4  109.79   28.60
   7  13  -4   12.40   18.00
   5 -13  -4    9.80   14.30
  -5 -13   4   11.60   17.40
  -5  13   4   39.10   18.40
   5  13  -4   34.30   15.20
   5  13  -4    3.70   13.70
   3 -13  -4   46.90   15.50
   3  13  -4   63.99   17.20
   3  13  -4   96.39   17.50
   1 -13  -4  890.81   66.39
   1  13  -4  869.41   68.09
   1 -13   4   62.19   15.40
  -1 -13  -4   82.19   15.50
  -1  13  -4   58.89   16.90
   1  13   4   77.09   17.00
  -3 -13  -4   93.49   20.30
   3 -13   4   69.29   17.20
  -3 -13  -4   85.19   20.90
   3  13   4  108.19   19.00
  -3  13  -4   61.59   20.20
   3  13   4   49.20   17.10
  -5 -13  -4  194.98   29.00
   5 -13   4  127.59   24.20
  -5 -13  -4  183.98   27.70
  -5  13  -4  186.88   29.70
   5  13   4  115.29   22.80
   5  13   4  221.88   27.10
  -7 -13  -4   -5.30   22.80
   7 -13   4    9.70   19.30
  -7 -13  -4  -16.90   21.20
   7  13   4   -5.90   20.50
   7  13   4   17.50   18.30
  -7  13  -4  -11.10   22.30
  -9 -13  -4   38.70   30.70
  -9 -13  -4   31.20   28.10
   9 -13   4   10.20   22.40
   9  13   4   22.10   21.50
   9  13   4   -3.10   26.90
  -9  13  -4    2.90   24.50
  11 -13   4   -1.90   26.60
 -11 -13  -4   29.90   29.90
  11  13   4   11.30   35.00
 -11  13  -4   22.10   32.70
  11  13   4  -14.00   22.80
  12 -14  -4   19.70   28.50
 -12 -14   4   13.90   36.70
 -12  14   4  -21.50   41.70
  12  14  -4    8.40   30.00
  12  14  -4   13.50   27.40
  10 -14  -4   19.20   23.30
 -10 -14   4    0.10   28.30
  10  14  -4   17.60   22.50
  10  14  -4   12.90   25.30
 -10  14   4   84.19   35.60
   8 -14  -4    0.30   22.30
  -8 -14   4   73.39   27.10
   8 -14  -4   32.00   18.20
   8  14  -4   25.10   20.50
   8  14  -4   12.40   18.80
  -8  14   4   36.60   28.20
   6 -14  -4  251.07   33.60
  -6 -14   4  314.47   39.70
  -6 -14   4  345.17   32.40
   6  14  -4  229.98   35.80
   6  14  -4  330.27   36.40
  -6  14   4  339.37   40.90
   4 -14  -4  114.09   20.60
  -4 -14   4   99.99   21.90
   4  14  -4   85.79   21.00
   4  14  -4   47.20   17.20
   2 -14  -4   22.00   11.70
   2  14  -4   10.50   12.50
   0 -14   4  143.59   21.20
   0 -14  -4  157.78   21.80
   0  14  -4  167.18   24.70
  -2 -14  -4   17.20   14.30
   2 -14   4   -8.40   11.40
  -2 -14  -4    2.40   10.40
   2  14   4   -6.90   11.60
   2  14   4   14.60   14.70
  -4 -14  -4   10.10   16.80
  -4 -14  -4    7.50   16.70
   4 -14   4   -8.40   14.00
   4  14   4   -2.50   12.80
   4  14   4    5.90   14.70
  -4  14  -4    0.90   17.00
  -6 -14  -4   50.49   22.50
   6 -14   4    5.70   17.40
  -6 -14  -4   72.29   21.80
   6  14   4   32.00   18.20
  -6  14  -4   15.30   19.90
   6  14   4    0.50   16.10
   8 -14   4   46.80   24.80
  -8 -14  -4   52.79   26.30
  -8 -14  -4   65.19   29.20
  -8  14  -4   81.29   31.10
   8  14   4   67.49   28.90
   8  14   4   62.89   22.90
 -10 -14  -4   39.40   28.40
  10 -14   4   34.30   25.80
  10  14   4  -12.60   31.60
 -10  14  -4   12.40   28.70
  10  14   4  -17.60   20.60
  12 -14   4  -30.30   29.60
 -12 -14  -4   -8.10   30.90
 -12  14  -4  -17.90   33.50
  12  14   4  -12.00   38.00
  12  14   4   -4.40   27.40
  11 -15  -4    8.70   27.00
 -11 -15   4   -0.90   31.20
  11  15  -4   34.90   30.00
 -11  15   4    6.90   38.10
  11  15  -4   19.80   25.70
   9 -15  -4   68.79   22.70
  -9 -15   4   86.69   33.40
   9  15  -4   57.89   24.00
  -9  15   4   77.69   34.10
   9  15  -4   28.00   23.50
  -7 -15   4  115.19   23.30
  -7 -15   4  149.09   31.40
   7 -15  -4   75.39   22.80
   7  15  -4  117.19   25.00
  -7  15   4  138.99   32.20
   7  15  -4   76.49   23.90
   5 -15  -4    1.70   14.70
  -5 -15   4   34.50   20.10
   5  15  -4    3.10   14.80
   5  15  -4   27.50   15.60
   3 -15  -4  -15.70   10.40
   3  15  -4   14.90   13.90
   1 -15  -4  235.58   27.10
   1  15  -4  199.98   29.10
   1 -15   4   25.00   13.80
  -1 -15  -4   47.10   14.20
  -1  15  -4   35.00   16.20
  -3 -15  -4  209.98   30.00
   3 -15   4  182.88   26.30
  -3 -15  -4  220.98   30.70
   3  15   4  211.48   30.20
   3  15   4  170.48   25.50
  -5 -15  -4  186.38   29.00
  -5 -15  -4  114.19   26.70
   5 -15   4  116.79   24.00
   5  15   4  132.19   24.30
   5  15   4  148.59   24.90
  -5  15  -4  107.49   25.90
  -7 -15  -4   12.70   24.60
   7 -15   4   -0.20   20.40
  -7 -15  -4   17.80   25.20
   7  15   4   10.70   19.10
   7  15   4   21.80   23.90
  -7  15  -4  -12.40   18.60
  -9 -15  -4   13.40   26.90
  -9 -15  -4   21.90   31.50
   9 -15   4  -19.00   22.30
  -9  15  -4   -8.40   29.20
   9  15   4   31.80   29.10
   9  15   4   54.39   23.20
 -11 -15  -4    5.90   30.90
  11 -15   4   74.89   31.60
 -11  15  -4  -19.10   34.90
  11  15   4    9.20   36.80
  11  15   4   27.10   24.90
  12 -16  -4    1.20   26.70
 -12 -16   4   48.20   38.60
 -12  16   4   40.50   44.50
  12  16  -4    5.80   28.30
  12  16  -4   23.60   32.50
 -10 -16   4   38.40   34.00
  10 -16  -4    4.80   22.30
 -10  16   4    5.70   33.60
  10  16  -4   -9.70   25.90
  10  16  -4   13.80   23.30
  -8 -16   4   -4.10   21.20
   8 -16  -4    0.00   18.50
   8  16  -4   -3.80   18.10
  -8  16   4  -23.20   26.20
   8  16  -4  -24.60   19.00
  -6 -16   4  499.15   42.20
   6 -16  -4  325.17   42.50
  -6 -16   4  433.06   45.00
  -6  16   4  454.65   46.50
   6  16  -4  391.86   41.90
   6  16  -4  444.26   45.80
  -4 -16   4   47.20   21.00
   4 -16  -4   26.90   15.10
   4  16  -4  -10.20   12.70
   4  16  -4   -5.30   13.80
   2 -16  -4  195.88   24.90
   2  16  -4  180.58   28.00
   0 -16  -4  448.96   38.10
   0 -16   4  426.36   38.10
   0  16  -4  408.36   41.10
  -2 -16  -4   11.60   13.60
   2 -16   4   16.50   13.70
  -2 -16  -4   23.20   15.30
   2  16   4  -18.70   11.10
   2  16   4    2.40   15.50
  -4 -16  -4  121.49   26.90
   4 -16   4   88.59   21.70
  -4 -16  -4  157.38   27.00
   4  16   4   99.59   23.20
   4  16   4   93.79   21.70
  -4  16  -4   94.99   25.20
  -6 -16  -4   17.90   23.40
   6 -16   4   30.00   21.10
  -6 -16  -4   47.50   25.40
  -6  16  -4   68.39   26.00
   6  16   4  -25.60   15.30
   6  16   4   27.90   20.70
  -8 -16  -4   61.09   31.40
  -8 -16  -4   10.00   28.50
   8 -16   4    8.50   24.00
  -8  16  -4    9.30   24.10
   8  16   4   78.19   30.10
   8  16   4   -0.30   21.10
  10 -16   4   35.30   26.90
 -10 -16  -4  -27.90   26.50
 -10  16  -4   39.80   32.90
  10  16   4  -31.30   21.50
  10  16   4   12.00   33.00
  11 -17  -4   29.30   26.80
 -11 -17   4   20.30   35.30
  11  17  -4   27.90   27.00
 -11  17   4   24.90   43.20
  11  17  -4   15.10   29.60
   9 -17  -4   14.40   21.00
  -9 -17   4   13.10   31.60
   9  17  -4   27.60   24.20
   9  17  -4    0.60   21.20
  -9  17   4    8.80   31.50
  -7 -17   4   16.00   22.10
  -7 -17   4   12.30   21.30
   7 -17  -4   23.90   21.20
   7  17  -4   44.20   21.50
  -7  17   4  -18.30   24.70
   7  17  -4   15.10   20.50
   5 -17  -4   18.10   17.10
  -5 -17   4   21.90   20.10
   5  17  -4   17.20   16.80
   5  17  -4   40.10   19.30
   3 -17  -4   73.89   17.90
   3  17  -4  153.78   26.80
   1 -17  -4   26.90   14.30
  -1 -17   4   33.50   13.70
   1  17  -4   17.70   17.30
   1 -17   4   41.10   16.20
  -1 -17  -4   30.10   13.70
  -1  17  -4   25.30   17.50
  -3 -17  -4  293.07   37.30
  -3 -17  -4  286.97   37.40
  -3 -17  -4  249.78   31.40
   3 -17   4  286.87   33.80
   3  17   4  296.37   37.80
   3  17   4  249.38   32.00
  -5 -17  -4   92.59   26.60
   5 -17   4   87.39   24.00
  -5 -17  -4   99.79   25.30
   5  17   4   92.39   23.80
  -5  17  -4   38.70   23.80
   5  17   4   62.79   20.70
  -7 -17  -4   31.40   23.80
   7 -17   4  -25.30   19.20
  -7 -17  -4   -9.20   28.60
  -7  17  -4   36.50   26.10
   7  17   4   23.30   24.00
   7  17   4  -13.70   17.20
  -9 -17  -4   55.99   30.70
   9 -17   4  -10.40   24.80
  -9  17  -4   15.90   31.10
   9  17   4    2.40   21.80
   9  17   4  -11.30   29.40
  11 -17   4   56.79   30.00
 -11 -17  -4   10.40   31.70
 -11  17  -4  -13.10   32.20
  11  17   4   23.10   38.50
  11  17   4  -26.80   25.00
  10 -18  -4  -26.30   18.40
 -10 -18   4    6.10   32.70
 -10  18   4   25.80   37.00
  10  18  -4    3.50   26.20
  10  18  -4  -51.99   20.30
   8 -18  -4   39.80   21.20
  -8 -18   4   12.60   26.00
   8  18  -4    7.00   23.10
  -8  18   4  104.49   33.70
   8  18  -4   26.00   21.70
  -6 -18   4   35.80   24.80
   6 -18  -4    5.60   16.60
   6  18  -4   24.20   18.90
   6  18  -4   47.10   21.40
   4 -18  -4  142.19   24.40
   4  18  -4  134.49   25.50
   2 -18  -4   -1.20   12.30
   2  18  -4   29.20   18.20
   0 -18  -4   51.29   17.00
   0 -18   4   72.29   17.20
   0  18  -4   31.80   19.70
  -2 -18  -4   15.90   14.80
   2 -18   4  -12.80   13.20
   2  18   4   28.00   16.70
  -4 -18  -4   93.29   26.70
  -4 -18  -4  111.09   27.40
   4 -18   4   61.79   20.10
   4  18   4   52.69   21.90
   4  18   4   47.90   20.00
   6 -18   4   14.70   21.30
  -6 -18  -4   32.60   21.00
  -6 -18  -4   14.40   25.50
   6  18   4   22.80   18.50
  -6  18  -4   30.60   24.50
   6  18   4    7.00   19.80
   8 -18   4   24.10   25.30
  -8 -18  -4   79.79   35.80
  -8 -18  -4   11.80   27.00
  -8  18  -4   -6.90   26.20
   8  18   4   51.29   29.70
   8  18   4   22.80   20.80
  10 -18   4   18.00   26.00
 -10 -18  -4   15.20   30.30
  10  18   4  -25.80   23.30
  10  18   4   34.10   35.90
 -10  18  -4    9.00   33.40
 -11 -19   4   26.50   36.70
  11 -19  -4   24.20   28.20
 -11  19   4  -43.50   35.20
  11  19  -4   46.70   29.50
  11  19  -4    9.30   32.80
  -9 -19   4   46.40   33.50
   9 -19  -4   -3.60   20.20
  -9  19   4   51.39   36.30
   9  19  -4   36.20   26.70
   9  19  -4    1.00   23.30
   7 -19  -4   30.80   20.20
  -7 -19   4  -13.90   21.20
   7  19  -4   -7.00   20.30
   7  19  -4   21.10   20.00
  -5 -19   4   36.80   23.30
   5 -19  -4   40.30   19.60
   5  19  -4   31.40   19.80
   5  19  -4   20.90   20.00
   3 -19  -4   23.70   15.60
   3  19  -4   51.99   21.10
   1 -19  -4   64.09   18.00
  -1 -19   4   74.19   18.10
   1  19  -4   69.89   22.10
   1 -19   4   20.50   15.40
  -1 -19  -4   -9.20   13.10
  -1  19  -4   11.90   18.30
   3 -19   4   69.89   19.50
  -3 -19  -4   69.79   25.10
  -3 -19  -4   79.09   24.60
  -3 -19  -4   51.39   17.20
   3  19   4   76.79   23.70
   3  19   4   30.60   17.70
   5 -19   4   48.70   22.70
  -5 -19  -4   47.20   24.30
  -5 -19  -4  114.09   29.10
   5  19   4   82.29   24.00
   5  19   4   63.89   21.50
  -7 -19  -4   13.20   25.10
   7 -19   4  -10.00   21.30
  -7 -19  -4  -35.20   28.50
   7  19   4   17.20   20.90
  -7  19  -4  -19.60   21.60
   7  19   4   14.50   23.60
   9 -19   4   29.10   29.20
  -9 -19  -4   44.30   32.60
  -9  19  -4  -14.70   28.50
   9  19   4   15.80   32.00
   9  19   4   29.40   24.50
  10 -20  -4   38.90   24.10
 -10 -20   4   98.69   40.40
 -10  20   4  -68.19   34.40
  10  20  -4   61.19   29.70
  10  20  -4    3.90   29.20
  -8 -20   4   13.90   29.60
   8 -20  -4    2.80   22.40
   8  20  -4   34.00   23.40
   8  20  -4   47.30   27.40
  -6 -20   4   35.70   26.70
   6 -20  -4   -7.50   17.30
   6  20  -4   29.40   20.10
   6  20  -4   16.70   21.10
   4 -20  -4   55.89   20.30
   4  20  -4   31.50   20.40
   2 -20  -4   69.59   19.30
   2  20  -4   42.30   22.10
   0 -20  -4  161.58   26.70
   0 -20   4  175.18   27.10
   0  20  -4  177.78   32.30
  -2 -20  -4   64.69   19.50
   2 -20   4   45.80   19.10
   2  20   4   60.99   23.00
  -4 -20  -4   32.40   17.60
   4 -20   4   53.49   20.60
  -4 -20  -4   -3.90   19.80
  -4 -20  -4   25.50   23.20
   4  20   4    9.30   16.60
   4  20   4   36.40   21.50
   6 -20   4    9.10   21.40
  -6 -20  -4    9.80   27.60
  -6 -20  -4  -21.60   21.50
   6  20   4    5.20   18.80
   6  20   4   26.80   20.10
  -8 -20  -4   -6.10   34.10
  -8 -20  -4  -13.00   28.20
   8 -20   4   42.90   27.60
   8  20   4   -4.30   21.50
   8  20   4   15.60   29.40
  -8  20  -4   42.00   27.20
  10 -20   4  -11.10   29.40
 -10 -20  -4  -64.59   29.60
  10  20   4    2.90   25.90
 -10  20  -4  -27.90   30.90
  10  20   4  -29.40   34.90
   9 -21  -4  -19.10   22.00
  -9 -21   4  -29.60   29.20
   9  21  -4   19.90   25.00
   9  21  -4   14.90   25.60
   7 -21  -4  -24.20   19.80
  -7 -21   4  -22.10   22.50
   7  21  -4    5.60   23.60
   7  21  -4   -6.10   20.40
   5 -21  -4   24.40   19.70
  -5 -21   4   -5.70   23.10
   5  21  -4   17.90   23.10
   3 -21  -4   28.20   16.90
   3  21  -4   72.49   24.80
  -1 -21   4  116.59   24.10
   1 -21  -4  135.39   25.00
   1  21  -4  138.49   29.90
  -1 -21  -4   25.50   17.30
   1 -21   4   -0.50   15.80
  -1  21  -4   29.80   21.80
  -3 -21  -4  215.08   36.80
  -3 -21  -4  210.58   34.50
  -3 -21  -4  193.48   30.40
   3 -21   4  125.29   27.00
   3  21   4  176.98   32.50
  -5 -21  -4  128.79   32.90
   5 -21   4  111.49   27.80
  -5 -21  -4  121.89   31.60
   5  21   4   82.79   25.80
   5  21   4   69.49   22.70
  -7 -21  -4   40.80   33.90
  -7 -21  -4   17.10   28.60
   7 -21   4   15.00   24.80
  -7  21  -4   56.39   31.00
   7  21   4   -8.40   20.50
   7  21   4   27.40   25.00
   9 -21   4   -7.80   28.60
  -9 -21  -4   13.20   35.00
   9  21   4   61.19   36.80
  -9  21  -4   11.20   29.80
   9  21   4   25.30   26.50
 -10 -22   4   -9.50   35.30
  10 -22  -4   24.10   24.80
  10  22  -4   59.99   35.60
  10  22  -4   14.10   30.10
  -8 -22   4   22.00   30.80
   8 -22  -4   49.50   28.10
   8  22  -4   32.60   30.90
   8  22  -4   -7.80   22.10
  -6 -22   4  159.78   37.20
   6 -22  -4  123.89   27.20
   6  22  -4   79.29   27.50
   6  22  -4   89.69   27.00
   4 -22  -4  -11.70   16.30
   4  22  -4   28.40   21.00
   2 -22  -4   15.10   16.40
  -2 -22   4    8.80   15.60
   2  22  -4  -13.10   19.90
   0 -22   4  126.99   24.80
   0 -22  -4  109.09   24.10
   0  22  -4  110.19   29.80
   2 -22   4   10.40   16.90
  -2 -22  -4   22.10   17.70
  -2  22  -4   39.20   26.70
   2  22   4  -24.00   19.70
  -4 -22  -4   64.89   21.10
  -4 -22  -4   45.10   26.60
   4 -22   4   74.99   23.10
  -4 -22  -4   47.30   28.10
   4  22   4   58.89   21.80
   4  22   4   66.19   25.70
  -6 -22  -4    5.30   24.10
  -6 -22  -4  -11.40   29.30
   6 -22   4   18.70   22.20
   6  22   4   -9.90   18.40
   6  22   4   11.90   23.00
  -8 -22  -4   50.29   41.10
   8 -22   4   -8.40   26.60
  -8 -22  -4   45.90   27.30
   8  22   4   22.40   31.70
   8  22   4   17.40   24.50
  -8  22  -4   18.40   30.30
  -9 -23   4   63.09   37.40
   9 -23  -4   13.20   25.90
   9  23  -4    4.40   29.10
   9  23  -4    8.90   26.30
  -7 -23   4   -1.00   26.20
   7 -23  -4    1.20   21.30
   7  23  -4   13.20   24.00
   7  23  -4   -2.20   21.70
   5 -23  -4   19.40   19.70
  -5 -23   4    8.00   25.60
   5  23  -4   -1.80   23.90
   3 -23  -4   69.39   22.20
   3  23  -4   86.59   28.00
  -1 -23   4   16.60   17.60
   1 -23  -4   38.10   19.00
   1  23  -4   87.69   28.60
  -1 -23  -4   -0.50   16.60
   1 -23   4   11.50   17.20
  -1  23  -4   49.30   26.50
   1  23   4  -21.50   21.40
  -3 -23  -4   44.10   22.00
  -3 -23  -4   29.30   25.80
   3 -23   4   60.69   23.70
  -3 -23  -4   52.79   26.80
   3  23   4   64.19   27.80
  -5 -23  -4  -16.90   23.70
  -5 -23  -4   24.90   20.90
  -5 -23  -4   42.20   27.20
   5 -23   4    5.80   21.60
   5  23   4   -1.00   20.90
   5  23   4    7.40   19.30
   7 -23   4   24.60   25.50
  -7 -23  -4    5.20   26.30
  -7 -23  -4    3.40   34.30
   7  23   4   16.00   27.00
   7  23   4   11.20   22.20
  -9 -23  -4   20.40   34.90
   9 -23   4   -3.80   27.90
   9  23   4   33.20   26.80
  -9  23  -4   34.60   37.00
   9  23   4   15.80   36.10
  -8 -24   4  -11.30   30.20
   8 -24  -4    6.50   25.10
   8  24  -4  -40.10   26.30
   8  24  -4  -24.40   23.30
  -6 -24   4   47.40   32.20
   6 -24  -4    3.90   20.50
   6  24  -4    3.50   25.30
   4 -24  -4   -1.60   18.60
   4  24  -4   72.99   26.60
  -2 -24   4   56.59   22.10
   2 -24  -4   39.20   19.10
   2  24  -4   25.30   25.70
   0 -24  -4   15.00   19.30
   0 -24   4   48.30   20.90
   0  24  -4   44.10   27.40
   2 -24   4  115.49   27.30
  -2 -24  -4  128.09   27.00
  -2  24  -4  142.19   33.60
   2  24   4  114.99   29.60
  -4 -24  -4  -15.10   25.80
   4 -24   4   30.80   21.70
  -4 -24  -4   -3.20   20.70
  -4 -24  -4    1.30   25.60
   4  24   4   15.90   22.90
  -6 -24  -4  -33.40   32.30
  -6 -24  -4  -13.00   24.50
   6 -24   4    3.10   24.60
   6  24   4    1.70   19.90
   6  24   4   31.00   27.10
  -8 -24  -4   -7.90   30.30
   8 -24   4  -35.20   25.10
   8  24   4    9.00   22.60
   8  24   4  -45.00   28.20
  -7 -25   4    3.20   33.50
   7 -25  -4   -0.60   22.10
   7  25  -4    5.70   26.50
  -5 -25   4   14.90   29.40
   5 -25  -4   16.00   20.90
   5  25  -4    0.20   26.00
   3 -25  -4    8.30   18.10
  -3 -25   4   35.50   20.80
   3  25  -4   32.60   25.20
  -1 -25   4  115.29   26.40
   1 -25  -4  126.19   27.00
   1  25  -4  127.29   34.00
  -1 -25  -4    4.20   18.60
   1 -25   4    3.80   17.90
  -1  25  -4   37.90   27.60
   1  25   4   16.80   24.40
  -3 -25  -4   46.30   23.90
   3 -25   4   93.29   25.60
  -3 -25  -4   84.59   31.20
  -3 -25  -4   84.49   31.60
  -3  25  -4   87.69   32.80
   3  25   4   57.99   29.00
  -5 -25  -4   52.09   23.30
   5 -25   4   52.79   26.30
  -5 -25  -4   93.49   35.40
  -5 -25  -4  102.19   34.50
   5  25   4   30.80   22.00
   5  25   4   95.89   30.80
   7 -25   4   41.00   29.20
  -7 -25  -4   33.10   29.70
  -7 -25  -4   11.90   36.80
   7  25   4   19.00   29.00
   7  25   4   19.80   24.00
   8 -26  -4   -7.20   26.20
  -8 -26   4   58.49   37.30
   8  26  -4  -13.10   30.00
  -6 -26   4   18.00   36.40
   6 -26  -4   50.19   25.40
   6  26  -4   48.60   31.40
   4 -26  -4   39.20   22.80
  -4 -26   4   19.90   18.70
   4  26  -4   51.79   28.20
   2 -26  -4   53.49   21.50
  -2 -26   4   -6.50   19.30
   2  26  -4   88.79   32.00
   0 -26  -4   27.40   21.50
   0 -26   4   45.60   22.20
   0  26  -4   60.09   29.10
  -2 -26  -4   65.59   25.20
   2 -26   4   57.09   23.50
  -2  26  -4   42.70   31.40
   2  26   4   18.50   25.60
  -4 -26  -4   48.00   32.30
   4 -26   4   12.70   22.60
  -4 -26  -4   23.80   23.20
  -4 -26  -4   45.60   28.60
   4  26   4  -22.70   20.70
  -6 -26  -4  -13.00   35.10
  -6 -26  -4   33.70   25.50
  -6 -26  -4   11.70   29.70
   6 -26   4   -4.80   25.00
   6  26   4   23.80   26.80
   6  26   4  -14.60   22.40
   7 -27  -4  -44.80   21.00
  -7 -27   4   40.90   36.40
   7  27  -4  -48.30   26.90
  -5 -27   4  -12.10   29.90
   5 -27  -4   -4.50   21.70
   5  27  -4   17.70   29.70
   3 -27  -4   27.10   19.00
  -3 -27   4   -7.60   19.80
   3  27  -4   -4.30   25.70
   1 -27  -4   59.59   23.10
  -1 -27   4    3.90   22.20
   1  27  -4   61.89   33.30
  -1 -27  -4   -2.50   20.00
   1 -27   4   -8.70   18.80
  -1  27  -4  -21.30   29.00
   1  27   4   -9.50   25.00
  -3 -27  -4   72.79   26.40
  -3 -27  -4   34.90   30.10
  -3 -27  -4   67.79   33.40
   3 -27   4   68.49   25.10
  -3  27  -4   37.50   31.70
   3  27   4   25.10   29.30
  -5 -27  -4    2.00   24.10
   5 -27   4   56.39   28.20
  -5 -27  -4   31.20   32.50
  -5 -27  -4   75.79   37.20
   5  27   4    7.10   28.30
   7 -27   4    4.30   29.40
  -7 -27  -4  -20.60   24.50
  -7 -27  -4   58.69   43.90
  -7 -27  -4   37.80   32.90
   7  27   4   19.00   25.80
   7  27   4   15.40   32.10
   6 -28  -4   80.49   28.20
  -6 -28   4   43.10   38.70
   6  28  -4   24.80   31.80
   4 -28  -4    5.60   22.70
  -4 -28   4   33.80   21.60
   4  28  -4   27.60   30.80
   2 -28  -4    6.80   19.30
  -2 -28   4    4.20   21.20
   2  28  -4   29.50   30.50
   0 -28   4   28.60   23.10
   0 -28  -4   -7.40   19.40
   0  28  -4   -0.20   28.10
   0  28   4   -5.20   27.70
   2 -28   4   -9.50   20.30
  -2 -28  -4   -1.60   21.10
   2  28   4  -15.20   27.90
  -2  28  -4    4.50   29.30
  -4 -28  -4   51.49   26.40
   4 -28   4   38.30   24.70
  -4 -28  -4   31.10   30.40
  -4 -28  -4   19.80   34.80
   4  28   4   40.40   30.80
  -4  28  -4   48.80   38.70
  -6 -28  -4  -43.90   23.40
  -6 -28  -4    3.10   39.80
   6 -28   4   -4.40   27.10
  -6 -28  -4    7.80   31.60
   6  28   4   -7.90   28.00
  -5 -29   4   -7.80   21.10
   5 -29  -4   -8.40   22.90
  -5 -29   4   37.50   36.10
   5  29  -4    5.50   30.90
   3 -29  -4   71.39   27.00
  -3 -29   4   68.19   28.30
   3  29  -4   63.69   31.50
  -1 -29   4   11.90   22.80
   1 -29  -4   14.60   22.50
   1  29  -4    4.80   31.00
   1 -29   4   -0.80   22.30
  -1 -29  -4   23.60   23.60
  -1  29  -4   -1.90   30.50
   1  29   4   22.70   28.80
  -3 -29  -4    9.80   32.50
   3 -29   4    4.30   23.30
  -3 -29  -4   34.90   26.00
  -3 -29  -4   40.20   34.50
  -3  29  -4   95.69   39.60
   3  29   4   26.80   30.80
  -5 -29  -4   -0.10   33.80
  -5 -29  -4  -13.90   23.10
  -5 -29  -4  -13.50   37.40
   5 -29   4    1.80   25.90
   5  29   4   -8.40   29.00
   4 -30  -4    4.90   24.20
  -4 -30   4  -32.50   22.50
   4  30  -4  -29.70   28.30
  -2 -30   4   30.90   25.40
   2 -30  -4   -4.10   21.70
   2  30  -4   30.50   31.10
   0 -30  -4   -2.10   22.60
   0 -30   4    1.20   22.40
   0  30   4   45.40   33.40
   0  30  -4   31.50   33.40
  -2 -30  -4   -9.20   23.70
   2 -30   4  -16.10   22.00
  -2 -30  -4   52.89   32.40
   2  30   4   14.20   32.80
  -2  30  -4  -12.80   35.60
  -4 -30  -4  -10.20   23.50
  -4 -30  -4  -22.10   34.60
   4 -30   4   21.00   25.00
  -4 -30  -4  -19.00   32.20
  -4  30  -4   70.19   41.40
   4  30   4   25.10   35.90
   3 -31  -4   11.40   25.50
  -3 -31   4  -30.80   22.10
   3  31  -4   -4.70   31.80
   1 -31  -4   22.80   23.90
  -1 -31   4    0.20   25.50
   1  31  -4   11.80   34.00
  -1  31   4   42.30   38.00
   1 -31   4   16.80   24.80
  -1 -31  -4   17.80   25.30
   1  31   4   27.90   34.60
  -1  31  -4  -28.00   31.00
   3 -31   4   17.00   25.40
  -3 -31  -4   13.10   38.30
  -3 -31  -4    7.80   34.20
  -3 -31  -4   -0.80   25.10
  -3  31  -4   40.50   39.40
   3  31   4   30.90   33.30
 -14   0   5   48.70   46.60
  14   0  -5   27.00   36.60
  14   0  -5    8.20   29.50
 -12   0   5  160.38   42.90
  12   0  -5   30.40   28.50
  12   0  -5   45.00   25.70
  10   0  -5   43.10   20.50
  10   0  -5   57.19   23.20
 -10   0   5   89.59   31.50
  -8   0   5   21.70   20.20
   8   0  -5   -1.60   15.60
   8   0  -5   38.20   17.10
   6   0  -5  113.69   20.20
  -6   0   5  159.88   23.70
   6   0  -5   95.39   20.60
   4   0  -5   84.49   14.70
   4   0  -5   70.49   15.00
   4   0  -5  138.09   17.00
  -4   0   5  124.89   17.60
   4   0  -5   72.89   13.60
  -2   0   5    0.80    7.60
   2   0  -5    2.90    8.80
  -2   0   5    6.90    6.30
   2   0  -5    2.20    9.40
   2   0  -5    2.30    6.90
   0   0  -5  406.86   32.90
   0   0   5  413.06   29.80
   0   0  -5  375.86   30.20
   0   0  -5  374.66   31.80
   0   0   5  428.96   31.70
  -2   0  -5   91.29   14.30
  -2   0  -5  112.29   16.70
   2   0   5  120.39   15.90
  -2   0  -5   76.99   15.70
   4   0   5  783.72   60.59
  -4   0  -5  837.12   62.99
  -4   0  -5  797.52   62.79
  -4   0  -5  827.02   59.69
   6   0   5   41.20   15.60
  -6   0  -5   78.79   19.20
   8   0   5   10.50   18.40
   8   0   5   64.69   20.40
  -8   0  -5    9.70   20.10
  10   0   5   58.19   26.00
  10   0   5   12.50   20.50
 -10   0  -5   55.29   27.40
  12   0   5    5.30   24.50
 -12   0  -5    9.70   27.50
  13  -1  -5   40.50   26.60
  13  -1  -5   18.10   32.00
 -13  -1   5   79.09   43.60
 -13   1   5   62.69   41.80
  13   1  -5   56.29   29.50
  13   1  -5   14.00   33.10
  11  -1  -5   47.30   23.80
 -11  -1   5   29.10   34.40
  11  -1  -5   12.60   23.20
  11   1  -5   94.49   29.00
 -11   1   5   26.70   33.60
  11   1  -5   39.20   23.90
   9  -1  -5   16.00   17.30
   9  -1  -5   19.40   18.50
  -9  -1   5   23.70   23.60
   9   1  -5    0.10   16.50
  -9   1   5   27.50   25.00
   9   1  -5   48.30   19.80
   7  -1  -5   -4.30    7.00
   7  -1  -5   11.40   13.90
   7  -1  -5   23.60   15.00
  -7  -1   5   -3.30   18.40
   7   1  -5   -1.80   13.40
  -7   1   5   35.80   19.70
   7   1  -5  -14.80   11.30
  -5  -1   5  221.08   26.30
   5  -1  -5  187.38   24.20
   5  -1  -5  230.38   22.90
   5  -1  -5  178.88   25.00
  -5   1   5  233.48   26.80
   5   1  -5  190.98   25.10
   5   1  -5  207.18   23.40
   3  -1  -5   70.19   14.00
   3  -1  -5   68.99   11.00
   3  -1  -5   89.59   12.50
  -3  -1   5   70.09    8.90
   3  -1  -5   93.59   13.80
   3   1  -5   84.49   12.10
   3   1  -5   77.69    8.90
   3   1  -5   95.19   14.80
   3   1  -5   98.39   16.10
   1  -1  -5  188.78   19.20
  -1  -1   5  189.38   17.30
  -1  -1   5  180.18   16.70
   1  -1  -5  186.68   19.00
   1  -1  -5  173.88   20.00
  -1   1   5  171.48   18.10
  -1   1   5  191.38   17.80
   1   1  -5  192.48   18.60
   1   1  -5  181.98   20.20
   1   1  -5  199.48   18.30
   1  -1   5  647.64   46.80
  -1  -1  -5  603.14   45.30
   1  -1   5  608.04   45.00
  -1  -1  -5  590.94   46.80
  -1  -1  -5  593.94   46.70
  -1   1  -5  610.14   46.40
  -1   1  -5  664.23   47.20
   1   1   5  598.04   44.80
   1   1   5  647.44   46.80
  -1   1  -5  609.34   45.90
  -3  -1  -5  195.48   19.30
   3  -1   5  193.38   20.10
  -3  -1  -5  194.68   22.80
  -3  -1  -5  205.68   20.20
  -3  -1  -5  189.98   23.50
   3  -1   5  179.08   18.70
  -3   1  -5  189.08   23.90
  -3   1  -5  170.78   19.10
   3   1   5  180.38   18.80
  -3   1  -5  173.38   22.30
  -5  -1  -5  162.88   24.60
  -5  -1  -5  102.09   16.00
  -5  -1  -5  193.58   19.00
  -5  -1  -5  159.68   23.90
   5  -1   5  188.88   22.60
   5  -1   5  171.78   17.50
  -5   1  -5  186.78   19.50
  -5   1  -5  133.79   23.90
  -5   1  -5  100.59   16.00
  -5   1  -5  143.69   23.40
   5   1   5  125.69   19.70
   5   1   5  204.78   18.60
   7  -1   5  133.99   18.10
  -7  -1  -5   63.39   21.80
   7  -1   5   77.89   19.30
  -7  -1  -5  144.59   25.20
  -7   1  -5  114.69   23.80
   7   1   5   43.90   17.40
  -9  -1  -5   37.80   22.90
   9  -1   5   33.60   20.00
   9  -1   5   62.69   21.90
   9   1   5   19.30   21.50
   9   1   5   43.90   21.70
  -9   1  -5   37.20   23.90
  11  -1   5   25.20   23.20
 -11  -1  -5   19.10   27.30
 -11   1  -5   23.50   26.90
  11   1   5   24.00   22.90
  13  -1   5    3.70   27.40
 -13  -1  -5   21.40   31.70
  13   1   5   12.40   26.80
 -13   1  -5    0.50   30.60
 -14  -2   5   34.00   46.40
  14  -2  -5   67.69   38.50
  14  -2  -5   48.90   30.50
  14   2  -5   22.10   30.70
 -14   2   5   86.09   49.40
  12  -2  -5   -0.50   22.90
  12  -2  -5   48.90   29.40
 -12  -2   5  110.29   38.40
 -12   2   5   98.79   38.70
  12   2  -5   26.40   24.40
  12   2  -5   82.89   31.80
  10  -2  -5   27.00   21.70
  10  -2  -5   29.10   20.00
 -10  -2   5   78.19   30.40
  10   2  -5    8.20   20.30
 -10   2   5   16.20   29.50
  10   2  -5   34.10   21.50
   8  -2  -5   17.20   16.30
  -8  -2   5   39.50   22.60
   8  -2  -5    3.50   15.50
   8   2  -5   35.60   17.00
   8   2  -5   31.40   17.20
  -8   2   5   12.40   21.10
   6  -2  -5   12.30   13.50
   6  -2  -5   17.00   14.60
  -6  -2   5   30.20   15.90
   6  -2  -5   26.00   11.40
   6   2  -5   10.10   13.00
   6   2  -5   10.20   12.10
  -6   2   5   48.10   17.80
   4  -2  -5  239.78   23.60
  -4  -2   5  256.47   24.30
   4  -2  -5  263.37   24.20
   4  -2  -5  237.38   26.80
   4  -2  -5  234.18   24.00
   4   2  -5  220.98   26.10
   4   2  -5  246.08   28.20
  -4   2   5  277.27   25.00
   4   2  -5  238.28   23.30
  -2  -2   5  436.86   33.90
   2  -2  -5  457.95   36.10
   2  -2  -5  519.75   37.10
  -2  -2   5  444.46   36.00
   2  -2  -5  457.05   37.30
   2   2  -5  459.25   37.60
  -2   2   5  499.25   38.90
   2   2  -5  476.15   34.50
  -2   2   5  490.05   34.60
   2   2  -5  421.06   36.80
   0  -2   5   28.70    9.50
   0  -2  -5   22.40   10.60
   0  -2  -5   14.10   10.60
   0  -2   5   14.20    6.60
   0   2   5   34.10    8.70
   0   2  -5   17.30   10.40
   0   2  -5   13.30    7.50
   0   2   5   15.20    9.50
   0   2  -5   34.30   11.20
   2  -2   5    8.80   10.70
  -2  -2  -5   11.70   10.10
  -2  -2  -5    3.90   11.90
  -2  -2  -5   22.30   10.70
  -2   2  -5   12.30   10.20
  -2   2  -5   -9.50   12.40
   2   2   5   -1.30    6.80
  -2   2  -5    4.40   11.90
   2   2   5    1.20    7.70
   2   2   5   18.00   10.00
   4  -2   5  576.74   46.10
  -4  -2  -5  600.64   48.10
  -4  -2  -5  569.54   45.80
  -4  -2  -5  589.74   44.80
   4  -2   5  584.74   44.80
  -4  -2  -5  582.24   49.00
   4   2   5  599.84   44.60
  -4   2  -5  536.65   48.90
  -4   2  -5  626.64   45.60
   4   2   5  596.74   46.20
  -4   2  -5  671.83   49.50
   6  -2   5    9.10   14.60
  -6  -2  -5   59.89   18.90
  -6   2  -5   85.89   20.10
   6   2   5   10.50   14.00
   8  -2   5   95.09   23.50
  -8  -2  -5  136.79   29.20
  -8  -2  -5  255.37   34.10
   8  -2   5  181.28   23.80
   8   2   5   78.89   22.00
   8   2   5  158.18   24.90
  -8   2  -5   79.79   26.40
 -10  -2  -5   72.89   28.70
  10  -2   5   82.99   24.90
  10  -2   5   33.90   21.80
  10   2   5   23.10   25.60
  10   2   5   42.70   23.50
 -10   2  -5  -13.70   23.90
 -12  -2  -5   51.79   31.90
  12  -2   5   13.20   24.40
  12   2   5   35.20   26.40
 -12   2  -5   70.39   31.10
 -13  -3   5   79.49   43.60
  13  -3  -5    0.00   25.90
  13  -3  -5   24.90   30.80
 -13   3   5   39.50   40.60
  13   3  -5    1.30   32.00
  13   3  -5   58.99   27.60
  11  -3  -5   30.30   24.50
  11  -3  -5  -18.20   19.20
 -11  -3   5   -7.30   30.20
  11   3  -5   37.40   24.30
 -11   3   5   12.20   32.20
  11   3  -5    9.50   20.60
   9  -3  -5   13.60   18.10
  -9  -3   5    9.50   23.60
   9  -3  -5    4.20   16.10
  -9   3   5   46.60   26.20
   9   3  -5   11.60   17.40
   9   3  -5   11.30   17.90
   7  -3  -5  130.69   21.80
  -7  -3   5  144.89   25.60
   7  -3  -5  155.08   18.50
   7  -3  -5   75.39   19.40
   7   3  -5   90.19   20.30
   7   3  -5  111.19   20.50
  -7   3   5  155.18   26.40
  -5  -3   5   78.49   17.30
   5  -3  -5   49.60   15.50
   5  -3  -5   76.99   13.70
   5  -3  -5   48.30   14.60
   5   3  -5   25.40   14.00
   5   3  -5   50.49   14.10
  -5   3   5   74.19   17.30
   3  -3  -5   36.30   11.70
  -3  -3   5   53.49    7.10
   3  -3  -5   69.79   12.60
   3  -3  -5   58.99   11.80
  -3  -3   5   37.90   12.30
   3  -3  -5   65.99   13.70
   3   3  -5   64.29   11.30
   3   3  -5   65.29   12.00
   3   3  -5   60.79   14.80
   1  -3  -5  243.48   23.10
  -1  -3   5  238.98   21.10
   1  -3  -5  251.97   24.50
   1  -3  -5  231.08   23.20
  -1  -3   5  247.58   21.00
   1   3  -5  249.38   22.50
  -1   3   5  261.17   22.10
  -1   3   5  235.18   22.80
   1   3  -5  251.17   24.80
  -1  -3  -5   82.19   14.10
  -1  -3  -5   51.49   13.70
  -1  -3  -5   90.39   13.50
   1  -3   5   84.99   13.20
  -1   3  -5   78.09   14.70
   1   3   5   67.99   12.00
  -1   3  -5   86.39   14.00
  -1   3  -5   58.99   13.40
  -3  -3  -5  279.27   27.60
   3  -3   5  347.87   28.00
  -3  -3  -5  297.87   30.30
  -3  -3  -5  337.57   30.20
  -3  -3  -5  326.87   30.00
   3   3   5  336.47   27.90
  -3   3  -5  370.16   29.80
   3   3   5  346.47   27.30
  -3   3  -5  354.36   32.00
  -5  -3  -5   37.50   12.30
   5  -3   5   14.00    9.40
  -5  -3  -5   29.00   17.20
   5  -3   5   14.00   11.80
  -5  -3  -5   36.20   15.10
   5   3   5    2.30   12.40
  -5   3  -5   29.90   19.10
   5   3   5   14.70   12.30
  -7  -3  -5   31.30   20.60
  -7  -3  -5   36.20   21.80
   7  -3   5   17.00   13.80
  -7  -3  -5   16.70   12.00
   7  -3   5  -10.80   15.80
  -7   3  -5   12.10   19.80
   7   3   5    9.30   14.60
   7   3   5    2.00   14.20
   9  -3   5   40.60   21.50
   9  -3   5   30.60   21.20
  -9  -3  -5  147.19   34.30
  -9  -3  -5   20.20   24.00
   9   3   5   48.70   22.00
   9   3   5   74.69   24.30
  -9   3  -5   18.10   23.20
  11  -3   5  -16.00   20.10
 -11  -3  -5  -19.30   25.10
 -11   3  -5    6.30   25.10
  11   3   5   25.90   22.70
  13  -3   5   18.10   28.50
 -13  -3  -5   10.10   32.80
 -13   3  -5   39.00   32.10
  13   3   5   15.10   26.90
  12  -4  -5   56.09   29.00
 -12  -4   5   86.89   38.60
  12  -4  -5  -14.90   20.90
  12   4  -5    3.40   22.80
  12   4  -5   82.39   33.10
 -12   4   5   57.09   38.70
  10  -4  -5   10.50   20.10
  10  -4  -5   62.09   25.00
 -10  -4   5   53.69   29.90
 -10   4   5   37.90   29.30
  10   4  -5   41.70   23.90
  10   4  -5   43.30   21.40
   8  -4  -5   -0.70   15.70
  -8  -4   5   34.00   22.60
   8  -4  -5    8.20   15.70
   8   4  -5   -2.30   15.00
  -8   4   5    2.90   20.90
   8   4  -5    2.40   14.40
   6  -4  -5  154.08   18.50
   6  -4  -5  106.39   20.10
   6  -4  -5  120.69   21.50
  -6  -4   5  239.28   27.60
   6   4  -5  105.89   18.80
  -6   4   5  113.89   24.00
   6   4  -5   80.89   19.20
   4  -4  -5  118.69   16.70
  -4  -4   5  120.39   18.40
   4  -4  -5   90.39   18.20
   4  -4  -5  121.89   18.00
   4   4  -5   91.69   18.40
  -4   4   5  126.69   19.10
   4   4  -5  107.49   16.00
   2  -4  -5   -4.50    9.50
  -2  -4   5   -3.50    6.30
   2  -4  -5   -8.90    9.50
   2  -4  -5   -0.90    8.50
  -2  -4   5   -3.50    6.80
   2  -4  -5   -1.50   10.40
  -2  -4   5    1.80    9.00
   2   4  -5   13.60   11.40
  -2   4   5    3.00    9.70
   0  -4  -5 3012.10  204.68
   0  -4   5 3006.90  204.28
   0  -4   5 2775.02  202.68
   0  -4  -5 2875.81  204.78
   0  -4   5 2830.42  202.28
   0   4   5 2895.21  202.08
   0   4  -5 2992.30  202.68
   0   4   5 3119.89  206.08
   0   4   5 3092.49  202.28
  -2  -4  -5  121.89   13.90
  -2  -4  -5  131.39   19.20
   2  -4   5  117.99   14.50
  -2  -4  -5  108.59   17.40
   2   4   5  118.49   14.40
  -2   4  -5  127.99   19.10
  -4  -4  -5  297.27   32.10
  -4  -4  -5  270.17   27.00
   4  -4   5  231.88   25.30
  -4  -4  -5  254.57   26.90
   4   4   5  264.17   25.00
  -4   4  -5  243.48   30.70
   4   4   5  242.98   26.30
  -6  -4  -5    4.20   17.00
   6  -4   5   17.80   13.10
  -6  -4  -5   23.80   13.50
  -6  -4  -5   22.30   16.80
   6  -4   5   13.50   14.20
  -6   4  -5   45.30   19.20
   6   4   5   42.70   16.70
   6   4   5   24.00   13.80
   8  -4   5   62.19   22.60
  -8  -4  -5  126.19   30.00
   8  -4   5   86.49   21.70
  -8  -4  -5  151.88   32.00
  -8  -4  -5  115.69   17.90
   8   4   5  109.99   23.10
  -8   4  -5   38.50   23.40
   8   4   5  128.89   25.20
 -10  -4  -5   40.40   27.70
  10  -4   5   32.40   22.00
 -10   4  -5    1.60   24.40
  10   4   5   25.20   25.20
  10   4   5   49.50   23.30
 -12  -4  -5   19.10   30.70
  12  -4   5   24.80   26.10
 -12   4  -5   35.50   30.50
  12   4   5   26.30   26.70
 -13  -5   5   68.79   42.40
  13  -5  -5   42.30   26.80
  13  -5  -5  -11.80   30.90
  13   5  -5   40.70   27.50
  13   5  -5    8.40   32.80
 -13   5   5  135.69   49.40
 -11  -5   5   37.90   31.70
  11  -5  -5    4.90   21.00
  11  -5  -5    2.40   25.90
  11   5  -5    9.20   22.10
 -11   5   5  -18.90   32.60
  11   5  -5   45.30   23.50
   9  -5  -5   73.29   20.70
   9  -5  -5    7.80   17.10
  -9  -5   5   28.60   24.50
   9   5  -5   15.10   17.70
  -9   5   5   41.40   28.90
   9   5  -5    4.70   17.50
  -7  -5   5  264.47   33.20
   7  -5  -5  243.48   23.80
   7  -5  -5  179.38   27.80
   7  -5  -5  215.68   28.40
   7   5  -5  180.08   26.10
   7   5  -5  172.68   27.10
  -7   5   5  289.17   34.00
  -5  -5   5  285.77   28.70
   5  -5  -5  284.97   32.50
   5  -5  -5  278.27   29.00
   5  -5  -5  292.67   27.10
  -5   5   5  304.37   29.90
   5   5  -5  264.97   27.60
   5   5  -5  296.47   33.00
   3  -5  -5  195.88   23.60
   3  -5  -5  182.58   21.30
   3  -5  -5  231.68   23.90
  -3  -5   5  203.08   22.30
   3  -5  -5  251.37   24.80
  -3   5   5  234.38   23.20
   3   5  -5  192.98   24.00
   3   5  -5  188.68   20.00
  -1  -5   5   70.29   12.10
   1  -5  -5   84.49   11.10
   1  -5  -5   58.69   14.10
   1  -5  -5   70.49   10.40
   1  -5  -5   62.39   14.80
   1   5  -5   59.89   12.20
  -1   5   5   69.09   11.00
  -1  -5  -5  602.14   48.20
  -1  -5  -5  644.54   45.10
  -1  -5  -5  614.74   44.90
   1  -5   5  588.34   46.80
  -1  -5  -5  602.54   46.90
   1   5   5  658.63   45.50
  -1   5  -5  602.14   47.20
  -3  -5  -5  363.16   33.40
   3  -5   5  375.06   30.70
  -3  -5  -5  361.16   32.80
   3   5   5  335.77   30.20
  -3   5  -5  347.87   33.70
  -3   5  -5  341.27   29.10
   3   5   5  394.26   30.40
   5  -5   5   20.70   13.00
  -5  -5  -5   80.99   18.00
  -5   5  -5   61.49   19.00
   5   5   5   11.30   12.80
  -7  -5  -5   -1.30   17.30
  -7  -5  -5   32.90   14.90
  -7  -5  -5   55.49   22.00
   7  -5   5    6.50   14.60
   7  -5   5   16.00   16.30
   7   5   5   18.60   15.30
   7   5   5   24.10   18.30
  -7   5  -5   10.30   18.60
  -9  -5  -5   75.39   33.40
   9  -5   5   34.60   20.90
  -9  -5  -5   36.20   26.00
   9  -5   5   10.50   20.20
   9   5   5   23.90   22.90
  -9   5  -5   11.50   22.80
   9   5   5   40.70   20.40
 -11  -5  -5   -6.00   26.60
  11  -5   5  -30.80   20.90
  11   5   5   24.70   28.10
  11   5   5   19.00   24.00
 -11   5  -5   19.70   26.10
 -13  -5  -5   39.60   36.70
  13  -5   5   10.00   27.10
  13   5   5    9.30   28.30
 -13   5  -5    1.90   32.70
  12  -6  -5   86.39   33.70
 -12  -6   5   65.69   37.50
  12  -6  -5   59.29   25.40
  12   6  -5   58.49   26.80
  12   6  -5   54.19   31.20
 -12   6   5   22.80   42.40
  10  -6  -5   45.50   25.90
 -10  -6   5   41.50   30.30
  10  -6  -5   12.40   20.80
  10   6  -5   57.29   21.80
 -10   6   5   15.70   29.50
  10   6  -5   -7.60   18.60
   8  -6  -5   69.39   15.80
   8  -6  -5   42.70   21.20
  -8  -6   5   48.70   23.40
   8  -6  -5   23.00   17.60
  -8   6   5  121.29   28.20
   8   6  -5   52.79   17.70
   8   6  -5   56.79   19.40
   6  -6  -5   21.90   15.00
  -6  -6   5   43.70   18.40
   6  -6  -5   40.90   17.00
   6  -6  -5   21.80   12.30
   6   6  -5   -5.80   12.90
  -6   6   5   54.79   19.10
   6   6  -5    1.70   12.80
  -4  -6   5   52.39   15.00
   4  -6  -5   51.59   13.90
   4  -6  -5   31.50   14.50
   4  -6  -5   25.20   13.30
   4   6  -5   28.50   13.70
   4   6  -5   29.60   12.30
  -4   6   5   50.99   15.60
   2  -6  -5  699.63   53.79
   2  -6  -5  717.83   53.79
   2   6  -5  786.22   56.29
   0  -6   5 4360.66  296.57
   0  -6  -5 4660.53  298.57
   0  -6  -5 4338.57  295.37
   0  -6  -5 4157.28  295.17
   0  -6   5 4216.98  295.77
   0   6   5 4222.68  295.67
   0   6  -5 4313.17  296.07
  -2  -6  -5   94.29   17.20
   2  -6   5  101.19   14.70
  -2  -6  -5  101.99   17.90
   2   6   5  106.99   15.10
  -2   6  -5  121.99   19.80
   4  -6   5 1085.39   86.59
  -4  -6  -5 1294.07   88.89
   4   6   5 1119.19   86.49
  -4   6  -5 1211.68   89.19
   4   6   5 1268.77   86.49
  -6  -6  -5    3.30   18.10
  -6  -6  -5   33.80   17.90
   6  -6   5   26.60   14.00
  -6   6  -5   21.10   19.60
   6   6   5   19.90   14.40
   6   6   5   35.10   16.00
   8  -6   5   27.40   17.80
   8  -6   5   34.80   19.60
  -8  -6  -5   88.09   28.10
  -8  -6  -5   46.10   23.60
  -8  -6  -5   67.79   18.90
   8   6   5   29.30   19.30
  -8   6  -5   13.60   23.00
   8   6   5   51.29   23.40
 -10  -6  -5   89.49   38.20
 -10  -6  -5   29.70   28.90
  10  -6   5    6.40   23.20
 -10   6  -5   -4.00   24.60
  10   6   5   17.30   22.10
  10   6   5   24.40   26.20
 -12  -6  -5  -33.50   28.40
  12  -6   5   11.10   25.60
 -12   6  -5   30.30   30.10
  12   6   5   10.60   22.90
  13  -7  -5   -2.70   33.90
 -13  -7   5   10.30   38.50
  13  -7  -5   24.20   26.90
  13   7  -5   -0.60   31.00
 -13   7   5   27.50   43.50
  13   7  -5   66.49   33.40
  11  -7  -5   -6.80   20.30
 -11  -7   5   58.69   34.60
  11  -7  -5   42.00   26.90
  11   7  -5   16.50   21.70
 -11   7   5   20.80   33.70
  11   7  -5   -3.90   21.60
   9  -7  -5   -2.70   17.90
  -9  -7   5   29.10   26.30
   9  -7  -5   13.00   20.50
   9   7  -5   -9.20   17.30
   9   7  -5   16.60   17.60
  -9   7   5   18.30   25.90
   7  -7  -5  516.85   46.60
  -7  -7   5  501.45   46.30
   7  -7  -5  531.35   42.40
   7  -7  -5  398.26   44.60
  -7   7   5  615.04   48.50
   7   7  -5  516.85   44.90
   7   7  -5  497.15   47.30
   5  -7  -5  334.07   30.50
  -5  -7   5  295.97   30.90
   5  -7  -5  307.47   30.20
   5  -7  -5  286.77   31.80
  -5   7   5  356.66   32.70
   5   7  -5  302.37   29.70
   5   7  -5  334.77   32.60
   3  -7  -5   62.89   15.00
   3  -7  -5  109.09   18.40
  -3  -7   5   89.19   16.60
   3   7  -5   79.79   17.60
   3   7  -5   85.49   14.50
  -3   7   5   88.29   16.90
   1  -7  -5 1368.56   94.99
   1   7  -5 1326.07   96.49
   1  -7   5  401.26   30.90
  -1  -7  -5  383.16   31.00
  -1  -7  -5  393.46   33.40
  -1  -7  -5  403.26   35.00
  -1   7  -5  394.56   30.90
  -1   7  -5  349.77   34.10
   1   7   5  396.36   31.70
  -3  -7  -5  108.49   20.20
   3  -7   5  106.99   17.30
  -3  -7  -5  159.68   22.10
  -3   7  -5  125.39   21.90
   3   7   5  119.89   17.80
   3   7   5  103.99   18.00
  -5  -7  -5   30.60   18.30
   5  -7   5   19.00   14.20
  -5  -7  -5   32.40   15.20
   5   7   5   49.70   15.50
   5   7   5    4.40   12.70
  -5   7  -5   16.10   17.00
  -7  -7  -5   43.70   22.50
  -7  -7  -5   -6.90   20.00
   7  -7   5   -4.10   14.70
   7   7   5   -2.60   14.40
   7   7   5   -1.90   17.80
  -7   7  -5   31.10   21.40
  -9  -7  -5   44.10   24.10
  -9  -7  -5   58.19   32.60
   9  -7   5   50.89   23.50
   9   7   5   28.60   20.50
  -9   7  -5   36.00   26.70
   9   7   5   54.89   27.80
  11  -7   5    6.60   24.30
 -11  -7  -5   21.70   32.20
  11   7   5   -1.40   28.40
 -11   7  -5   -0.30   27.60
  11   7   5   37.30   24.10
 -13  -7  -5  -12.30   35.10
  13  -7   5  -13.80   27.00
  13   7   5   -6.30   26.30
 -13   7  -5    5.80   34.40
  12  -8  -5   36.70   24.50
 -12  -8   5    8.90   34.30
  12  -8  -5   18.30   30.70
  12   8  -5   44.20   29.10
  12   8  -5   68.59   28.30
 -12   8   5   38.30   39.10
  10  -8  -5   35.80   23.40
  10  -8  -5   32.50   25.00
 -10  -8   5   71.59   29.90
  10   8  -5   29.80   22.60
 -10   8   5   38.80   32.80
  10   8  -5   32.90   21.10
   8  -8  -5    2.60   17.60
   8  -8  -5   59.49   18.40
  -8  -8   5   53.19   23.80
   8  -8  -5   57.09   20.00
   8   8  -5  -21.40   15.40
  -8   8   5   79.39   26.70
   8   8  -5   22.10   18.90
   6  -8  -5   76.99   18.90
   6  -8  -5   57.39   17.10
   6  -8  -5   94.19   17.60
  -6  -8   5  136.49   22.70
   6   8  -5   22.50   15.30
  -6   8   5   79.49   21.60
   6   8  -5   42.50   17.80
   4  -8  -5  254.27   28.70
  -4  -8   5  207.88   26.90
   4  -8  -5  256.87   26.70
   4   8  -5  228.58   28.30
  -4   8   5  254.67   29.30
   4   8  -5  229.18   25.40
   2  -8  -5 1991.60  143.19
   2   8  -5 2115.59  145.49
   0  -8  -5  243.38   26.20
   0  -8  -5  192.48   19.60
   0   8   5  196.78   20.00
   0   8  -5  190.38   21.00
  -2  -8  -5  340.47   33.50
   2  -8   5  375.76   30.80
  -2  -8  -5  364.96   33.20
   2   8   5  344.77   30.70
  -2   8  -5  356.46   34.00
  -4  -8  -5  320.87   33.50
   4  -8   5  313.47   31.00
  -4  -8  -5  322.97   33.20
  -4   8  -5  316.17   26.90
   4   8   5  342.77   31.00
   4   8   5  299.37   29.70
  -4   8  -5  323.97   36.70
   6  -8   5   10.60   15.80
  -6  -8  -5   76.69   21.90
  -6  -8  -5   40.80   18.80
   6   8   5   97.69   19.90
   6   8   5   24.70   15.20
  -6   8  -5   73.69   21.00
  -8  -8  -5   -7.50   19.70
  -8  -8  -5   72.09   28.00
   8  -8   5   23.80   19.70
   8   8   5   13.90   24.10
   8   8   5   13.30   18.20
  -8   8  -5   22.70   22.30
 -10  -8  -5   23.00   35.30
 -10  -8  -5  -16.10   23.20
  10  -8   5  -15.10   21.30
  10   8   5   23.50   27.30
  10   8   5    5.30   20.80
 -10   8  -5   26.10   27.10
 -12  -8  -5   27.60   32.50
  12  -8   5   29.60   27.70
  12   8   5   25.10   27.10
 -12   8  -5   12.00   30.30
 -13  -9   5  -20.10   38.20
  13  -9  -5   17.10   36.90
  13  -9  -5  -14.70   26.80
 -13   9   5   25.60   43.80
  13   9  -5  -11.40   26.90
  13   9  -5   63.29   35.10
  11  -9  -5  -25.10   21.30
 -11  -9   5    6.30   31.40
  11  -9  -5   32.90   27.50
  11   9  -5   41.40   26.10
 -11   9   5   20.10   35.10
  11   9  -5   42.50   25.30
   9  -9  -5   70.29   24.30
  -9  -9   5  102.99   30.20
   9  -9  -5  101.59   27.30
   9   9  -5   59.49   24.60
  -9   9   5  169.08   36.10
   9   9  -5   82.09   23.00
   7  -9  -5  200.88   30.30
  -7  -9   5  247.48   35.40
   7  -9  -5  270.37   34.10
   7  -9  -5  319.47   29.40
   7   9  -5  214.68   33.00
   7   9  -5  253.67   31.00
  -7   9   5  336.97   39.00
   5  -9  -5   83.99   18.20
   5  -9  -5  127.09   20.20
  -5  -9   5  110.89   20.10
   5   9  -5   83.79   17.70
   5   9  -5   69.49   18.60
  -5   9   5  117.19   21.70
   3  -9  -5  380.36   32.10
   3   9  -5  326.97   34.40
   3   9  -5  355.56   30.80
   1  -9  -5  364.56   30.50
   1   9  -5  360.16   32.20
  -1  -9  -5    1.20    9.10
   1  -9   5    3.30    9.50
  -1  -9  -5  -14.90   11.90
  -1   9  -5   -7.70    9.60
   1   9   5   21.20   10.40
   3  -9   5  142.29   19.80
  -3  -9  -5  113.29   20.70
  -3  -9  -5  137.09   21.60
   3   9   5  115.99   18.50
  -5  -9  -5    5.40   18.10
   5  -9   5   -7.30   12.90
  -5  -9  -5   -2.80   14.90
  -5   9  -5  -14.20   17.50
   5   9   5  -10.20   11.90
   5   9   5   11.00   13.60
  -7  -9  -5   -4.40   19.40
   7  -9   5   22.90   17.80
  -7  -9  -5   46.60   22.00
   7   9   5   29.90   21.30
   7   9   5   32.80   17.00
  -7   9  -5    8.70   20.40
  -9  -9  -5   24.20   25.90
  -9  -9  -5   39.60   30.90
   9  -9   5   -4.30   20.60
   9   9   5   -7.40   17.40
  -9   9  -5   31.80   23.90
   9   9   5   39.40   27.40
 -11  -9  -5   11.40   29.30
  11  -9   5   32.50   26.70
  11   9   5   14.30   30.40
  11   9   5   16.40   24.50
 -11   9  -5   11.20   26.60
  12 -10  -5   44.60   25.80
 -12 -10   5  104.79   41.00
  12 -10  -5   15.40   33.30
 -12  10   5   35.40   41.40
  12  10  -5   29.30   28.90
  12  10  -5   13.80   25.40
 -10 -10   5   75.99   31.20
  10 -10  -5   41.90   23.20
  10 -10  -5  118.89   30.10
 -10  10   5   53.99   33.30
  10  10  -5   29.00   21.30
  10  10  -5   28.80   22.90
   8 -10  -5  120.39   25.60
   8 -10  -5   88.69   19.70
  -8 -10   5   79.79   26.80
   8 -10  -5   84.49   21.50
   8  10  -5   54.39   20.90
  -8  10   5  104.19   29.60
   8  10  -5   96.29   25.20
  -6 -10   5   40.40   19.00
   6 -10  -5   50.19   16.80
   6 -10  -5   23.10   14.00
  -6 -10   5    3.20   10.00
   6  10  -5   26.80   14.90
   6  10  -5   25.60   16.70
  -6  10   5   55.19   19.50
  -4 -10   5  307.67   32.20
   4 -10  -5  257.57   29.40
  -4  10   5  292.07   32.30
   4  10  -5  257.87   32.50
   4  10  -5  256.77   27.20
   2 -10  -5 1357.36   99.29
   2  10  -5 1415.26  101.39
   0 -10  -5   72.49   14.40
   0  10  -5  116.79   17.50
  -2 -10  -5  357.96   35.70
  -2 -10  -5  428.86   33.20
   2 -10   5  344.47   32.80
  -2 -10  -5  395.06   35.40
  -2  10  -5  346.97   36.20
   2  10   5  395.16   33.50
  -4 -10  -5   54.49   16.90
   4 -10   5   46.90   16.00
  -4 -10  -5   15.30   17.10
  -4  10  -5   96.69   23.00
   4  10   5   45.60   15.00
   4  10   5   66.59   16.80
  -6 -10  -5   55.49   23.90
  -6 -10  -5   76.69   22.90
   6 -10   5   41.60   18.00
   6  10   5   29.40   16.00
   6  10   5   24.90   18.70
  -6  10  -5    6.40   20.90
  -8 -10  -5   10.20   27.40
  -8 -10  -5   -4.80   20.50
   8 -10   5   30.50   18.90
   8  10   5  -17.20   16.60
   8  10   5   26.60   24.60
  -8  10  -5   12.00   22.60
  10 -10   5  -40.30   20.30
 -10 -10  -5   42.20   39.30
 -10 -10  -5   -4.10   25.50
 -10  10  -5   -7.80   24.50
  10  10   5   20.10   22.80
  10  10   5   13.10   29.00
 -12 -10  -5   24.70   34.30
  12 -10   5  -11.50   27.90
  12  10   5  -32.40   24.40
 -12  10  -5   -3.50   28.60
  13 -11  -5  -15.50   24.40
 -13 -11   5  -19.00   41.70
 -13  11   5   14.90   47.00
  13  11  -5  -64.09   28.80
  13  11  -5   -1.30   30.90
 -11 -11   5   44.70   36.00
  11 -11  -5   53.59   26.40
  11  11  -5   40.00   25.10
  11  11  -5   38.80   26.30
 -11  11   5   62.49   37.50
   9 -11  -5  -23.70   18.50
  -9 -11   5    1.00   25.30
  -9  11   5    4.50   28.20
   9  11  -5    2.40   17.80
   9  11  -5  -11.60   20.90
  -7 -11   5  393.26   32.40
  -7 -11   5  426.66   41.50
   7 -11  -5  367.96   38.20
   7 -11  -5  431.56   38.30
  -7  11   5  401.26   45.40
   7  11  -5  284.37   41.60
   7  11  -5  373.36   38.30
   5 -11  -5  351.06   33.60
  -5 -11   5  321.67   34.20
   5  11  -5  281.77   36.30
   5  11  -5  311.87   32.20
  -5  11   5  409.66   39.80
   3 -11  -5   78.29   16.70
   3  11  -5   99.69   19.60
   3  11  -5   74.99   15.50
   1 -11  -5   28.80   11.80
   1  11  -5   15.50   13.60
   1 -11   5    6.40   10.60
  -1 -11  -5   28.90   11.00
  -1 -11  -5    1.30   12.50
   1  11   5   20.70   11.20
  -1  11  -5   28.30   13.70
  -3 -11  -5   19.40   14.70
   3 -11   5   -8.70   11.30
  -3 -11  -5   16.10   15.30
   3  11   5   11.50   12.60
   3  11   5   43.10   15.50
  -3  11  -5   27.20   17.90
  -5 -11  -5   55.39   18.70
  -5 -11  -5   79.69   20.80
   5 -11   5   87.99   19.60
  -5  11  -5   40.80   22.40
   5  11   5   42.60   16.30
   5  11   5   72.09   18.50
  -7 -11  -5   -5.10   22.10
   7 -11   5   41.80   21.80
  -7 -11  -5    8.40   21.60
  -7  11  -5   41.00   23.70
   7  11   5   34.40   18.20
   7  11   5   26.00   21.80
  -9 -11  -5   25.30   30.90
   9 -11   5   19.10   20.50
  -9 -11  -5    4.20   26.20
   9  11   5   15.70   26.20
   9  11   5    5.40   19.00
  -9  11  -5  -33.10   25.20
  11 -11   5  -16.30   25.00
 -11 -11  -5   -9.60   26.60
  11  11   5  -41.00   31.70
 -11  11  -5   39.40   31.50
  11  11   5   25.70   25.50
  12 -12  -5   27.20   27.80
 -12 -12   5   14.30   36.50
  12  12  -5   38.10   28.50
  12  12  -5   52.69   31.30
 -12  12   5   73.99   44.10
  10 -12  -5    4.80   22.30
 -10 -12   5   42.90   30.40
  10  12  -5   43.20   23.10
  10  12  -5   -2.30   22.60
 -10  12   5   35.90   33.80
   8 -12  -5   89.99   21.70
   8 -12  -5   56.69   20.70
  -8 -12   5   28.60   25.90
  -8  12   5   95.99   30.80
   8  12  -5   31.80   21.90
   8  12  -5   24.40   19.80
   6 -12  -5  -11.30   13.60
  -6 -12   5   23.20   17.70
  -6 -12   5   20.40   13.20
  -6  12   5    9.40   21.70
   6  12  -5    9.90   15.20
   6  12  -5  -14.90   13.20
   4 -12  -5  298.07   32.20
  -4 -12   5  293.77   33.90
   4  12  -5  290.37   36.00
   4  12  -5  279.47   29.10
   2 -12  -5  265.17   26.90
   2  12  -5  295.97   32.70
   0 -12  -5    3.20   10.20
   0 -12   5    8.80   10.10
   0  12  -5   74.29   16.30
   2 -12   5   58.59   15.40
  -2 -12  -5   72.49   19.10
  -2 -12  -5   69.49   18.90
  -2 -12  -5   59.09   14.20
   2  12   5   84.29   16.90
   4 -12   5  362.16   37.20
  -4 -12  -5  388.06   40.30
  -4 -12  -5  486.05   40.40
   4  12   5  458.65   38.70
   4  12   5  345.17   36.20
  -4  12  -5  370.06   39.90
   6 -12   5   21.70   17.80
  -6 -12  -5   56.69   23.80
  -6 -12  -5   78.69   23.40
   6  12   5   44.70   18.00
  -6  12  -5   37.30   23.70
   6  12   5   19.60   19.00
  -8 -12  -5   16.60   24.70
  -8 -12  -5   63.19   28.40
   8 -12   5   58.29   23.50
  -8  12  -5    3.20   25.20
   8  12   5   21.30   19.20
   8  12   5   -1.90   24.40
 -10 -12  -5   33.30   28.20
  10 -12   5    3.90   24.20
  10  12   5   -4.90   29.60
  10  12   5  -10.70   21.30
 -10  12  -5   41.10   30.80
 -12 -12  -5   -6.20   29.00
  12 -12   5   31.10   33.60
 -12  12  -5  -23.30   31.40
  12  12   5   51.59   29.10
  11 -13  -5   13.80   25.80
 -11 -13   5  -28.10   34.00
 -11  13   5   50.59   40.30
  11  13  -5  -11.20   23.40
  11  13  -5  -21.10   21.50
   9 -13  -5  -18.10   19.20
  -9 -13   5  -33.10   25.40
  -9  13   5  -10.20   28.00
   9  13  -5    8.00   20.50
   9  13  -5   14.10   23.10
  -7 -13   5  466.05   46.90
   7 -13  -5  444.36   44.60
  -7 -13   5  511.65   41.10
   7 -13  -5  537.75   46.10
   7  13  -5  432.96   47.40
  -7  13   5  471.25   52.99
   7  13  -5  404.76   44.70
  -5 -13   5  185.48   29.40
   5 -13  -5  156.18   24.40
   5  13  -5  169.08   24.00
   5  13  -5  130.69   26.80
  -5  13   5  205.38   29.50
   3 -13  -5   17.80   12.60
   3  13  -5    1.70   12.50
   1 -13  -5  716.83   56.39
   1  13  -5  750.02   58.89
  -1 -13  -5   35.20   15.30
   1 -13   5   10.10   11.90
  -1 -13  -5   45.40   13.30
   1  13   5   28.00   13.00
  -1  13  -5   33.40   14.30
  -3 -13  -5   35.80   19.10
   3 -13   5   21.20   14.40
  -3 -13  -5   24.00   16.70
   3  13   5   14.40   16.40
   3  13   5   51.09   15.00
  -3  13  -5   53.79   19.70
  -5 -13  -5   21.30   20.00
   5 -13   5    0.40   14.20
  -5 -13  -5   15.40   17.70
  -5  13  -5    6.80   19.30
   5  13   5   33.80   15.60
   5  13   5   -0.80   14.60
   7 -13   5   50.59   22.50
  -7 -13  -5   56.79   27.20
  -7 -13  -5   -3.00   23.80
  -7  13  -5   20.80   25.20
   7  13   5    5.50   17.40
   7  13   5   18.20   23.80
  -9 -13  -5  109.99   33.30
  -9 -13  -5   32.20   27.40
   9 -13   5    3.90   19.70
  -9  13  -5   14.90   27.80
   9  13   5   48.70   31.50
   9  13   5   33.00   21.90
 -11 -13  -5  -48.60   25.20
  11 -13   5   28.90   29.20
  11  13   5  -20.20   22.40
 -11  13  -5  -23.40   29.30
  11  13   5   26.90   35.40
  12 -14  -5   35.10   28.70
 -12 -14   5    0.10   38.80
 -12  14   5   -6.80   43.00
  12  14  -5   12.70   28.40
  12  14  -5    7.00   30.40
 -10 -14   5   58.49   31.60
  10 -14  -5   30.70   25.10
  10  14  -5   16.90   24.30
 -10  14   5   45.90   34.40
  10  14  -5    6.80   23.70
   8 -14  -5   15.80   18.40
   8 -14  -5  -26.10   21.40
  -8 -14   5    1.70   23.70
   8  14  -5    4.70   19.30
  -8  14   5   48.60   29.30
   8  14  -5  -20.80   17.10
   6 -14  -5  114.89   23.20
  -6 -14   5  118.79   25.40
   6  14  -5   90.89   21.60
   6  14  -5   75.99   23.70
  -6  14   5  124.29   27.40
   4 -14  -5   74.19   17.80
  -4 -14   5   73.29   21.00
   4  14  -5   46.50   16.00
   4  14  -5   13.20   16.90
   2 -14  -5   90.89   17.80
   2  14  -5  102.89   20.60
   0 -14   5   70.69   16.10
   0 -14  -5   97.29   17.70
   0  14  -5  105.09   19.60
  -2 -14  -5   67.29   15.80
   2 -14   5   44.70   15.00
  -2 -14  -5   42.00   17.40
   2  14   5   37.50   15.10
  -4 -14  -5  109.59   24.70
  -4 -14  -5  113.09   24.90
   4 -14   5  128.29   23.20
   4  14   5  106.49   21.80
   4  14   5  132.89   23.20
  -4  14  -5  114.69   26.30
  -6 -14  -5   64.69   25.60
  -6 -14  -5   46.70   22.40
   6 -14   5   75.99   23.10
  -6  14  -5   70.39   25.50
   6  14   5   70.39   23.70
   6  14   5   34.20   19.20
  -8 -14  -5   49.20   27.30
   8 -14   5  -11.70   20.70
  -8 -14  -5  -27.80   22.20
   8  14   5   25.10   20.50
   8  14   5   21.50   27.00
  -8  14  -5    2.40   27.40
  10 -14   5  -11.50   23.80
 -10 -14  -5  -19.70   27.70
 -10  14  -5  -30.40   25.30
  10  14   5   17.90   23.90
  10  14   5  -17.30   31.70
  12 -14   5  -35.30   30.20
 -12 -14  -5   19.40   31.60
 -12  14  -5   14.00   37.10
  12  14   5   -2.80   28.40
 -11 -15   5  -28.60   31.70
  11 -15  -5   14.80   26.70
 -11  15   5   54.39   41.90
  11  15  -5  -27.70   23.90
  11  15  -5  -25.60   26.30
  -9 -15   5   72.49   33.50
   9 -15  -5   -5.20   17.50
   9  15  -5   15.50   23.70
  -9  15   5   68.19   34.20
   9  15  -5   -5.90   19.90
  -7 -15   5   87.99   28.30
   7 -15  -5   65.49   21.60
  -7 -15   5   87.59   24.20
   7  15  -5   65.79   21.90
   7  15  -5   46.60   21.30
  -7  15   5  137.79   29.70
  -5 -15   5  283.27   35.50
   5 -15  -5  207.58   29.00
   5  15  -5  258.57   30.30
   5  15  -5  202.18   31.10
   3 -15  -5   37.50   15.10
   3  15  -5   22.20   14.90
   1 -15  -5   -6.00   11.00
   1  15  -5   -4.80   13.40
   1 -15   5   11.70   12.20
  -1 -15  -5   -6.60   11.50
  -1  15  -5    5.20   13.70
  -3 -15  -5   46.40   18.70
  -3 -15  -5   40.50   18.00
   3 -15   5   30.30   15.90
  -3 -15  -5    6.30   11.50
   3  15   5   -4.90   13.90
   3  15   5   18.90   16.90
  -5 -15  -5   36.90   20.90
   5 -15   5   14.60   18.10
  -5 -15  -5    8.40   17.70
  -5  15  -5   32.30   22.00
   5  15   5   -1.40   14.60
   5  15   5   16.70   17.60
  -7 -15  -5   24.10   25.90
   7 -15   5    7.10   23.40
  -7 -15  -5   -4.40   25.30
   7  15   5   -3.00   18.40
  -7  15  -5   45.50   25.30
   7  15   5   18.70   23.80
  -9 -15  -5   31.90   32.70
   9 -15   5   28.90   27.30
  -9 -15  -5   15.30   29.10
  -9  15  -5   31.90   31.40
   9  15   5   31.70   23.20
   9  15   5   13.60   29.20
  11 -15   5  -26.00   27.20
 -11 -15  -5  -11.80   29.60
 -11  15  -5   49.99   38.00
  11  15   5    7.20   36.80
  11  15   5   20.90   25.50
  12 -16  -5  -11.80   27.10
 -12 -16   5   37.10   41.20
 -12  16   5   33.10   46.30
  12  16  -5  -32.10   28.00
  12  16  -5   16.10   29.40
  10 -16  -5   29.80   24.10
 -10 -16   5    6.70   32.80
  10  16  -5   23.80   29.50
  10  16  -5   49.30   26.60
 -10  16   5   12.40   38.30
   8 -16  -5   13.30   34.30
  -8 -16   5   -9.80   23.80
   8 -16  -5    1.20   19.20
   8  16  -5    8.60   21.60
  -8  16   5   -5.40   26.60
   8  16  -5   49.80   21.40
   6 -16  -5   16.40   18.90
  -6 -16   5   35.80   23.30
   6  16  -5   11.00   17.60
   6  16  -5    2.20   19.70
   4 -16  -5   12.10   14.60
   4  16  -5   14.50   16.00
   2 -16  -5  292.37   31.20
   2  16  -5  360.86   38.60
   0 -16  -5   11.30   12.00
   0 -16   5   21.80   13.40
   0  16  -5    8.70   15.80
   2 -16   5   92.19   18.80
  -2 -16  -5   91.39   21.40
  -2 -16  -5   79.89   18.50
   2  16   5  106.19   19.70
  -4 -16  -5  103.99   26.10
  -4 -16  -5   97.79   25.30
   4 -16   5   61.49   19.40
   4  16   5  125.59   23.60
  -4  16  -5   83.89   26.20
   4  16   5  107.19   23.80
  -6 -16  -5   -0.90   22.70
  -6 -16  -5   31.70   23.50
   6 -16   5   18.00   20.00
  -6  16  -5   35.00   22.30
   6  16   5   16.70   17.40
   6  16   5   26.80   19.90
  -8 -16  -5  -15.30   25.30
  -8 -16  -5   64.79   32.00
   8 -16   5   66.79   28.00
   8  16   5   10.40   20.20
   8  16   5   82.49   30.80
  -8  16  -5   35.00   26.10
  10 -16   5   -5.80   25.90
 -10 -16  -5    0.00   27.90
  10  16   5   20.50   25.00
  10  16   5   13.20   33.20
 -10  16  -5   24.70   30.70
  11 -17  -5  -17.00   24.00
 -11 -17   5   23.70   35.00
  11  17  -5   21.90   28.10
  11  17  -5   11.30   28.20
 -11  17   5  -13.60   42.20
   9 -17  -5   -3.90   19.10
  -9 -17   5   23.30   32.40
  -9  17   5   -5.00   30.30
   9  17  -5   -7.70   22.00
   9  17  -5   23.00   24.10
   7 -17  -5    5.10   18.90
  -7 -17   5   53.09   26.10
   7  17  -5   14.90   19.60
   7  17  -5   32.70   21.30
  -7  17   5   45.90   28.40
   5 -17  -5   19.40   16.60
  -5 -17   5   25.90   22.00
   5  17  -5   10.10   16.00
   5  17  -5    9.00   17.70
   3 -17  -5   21.00   15.00
   3  17  -5   -0.70   14.60
   1 -17  -5   34.60   14.90
   1  17  -5   44.60   19.80
  -1 -17  -5   28.50   14.10
   1 -17   5   14.10   14.10
  -1  17  -5    5.40   16.70
  -3 -17  -5   49.40   20.10
  -3 -17  -5   41.10   20.90
  -3 -17  -5   28.90   14.80
   3 -17   5   27.70   17.50
   3  17   5   27.50   16.00
   3  17   5   36.00   19.50
   5 -17   5    1.90   18.80
  -5 -17  -5   13.90   20.30
  -5 -17  -5   -6.40   21.60
   5  17   5  -14.30   16.20
  -5  17  -5   -8.70   21.10
   5  17   5   46.70   21.40
  -7 -17  -5   43.60   27.80
   7 -17   5   -0.80   21.90
  -7 -17  -5   50.49   30.00
  -7  17  -5   42.10   28.10
   7  17   5   62.89   27.70
   7  17   5    4.80   18.80
  -9 -17  -5   51.29   36.70
   9 -17   5   -8.60   23.50
  -9 -17  -5    9.30   29.20
   9  17   5   16.50   22.40
   9  17   5   53.09   32.60
  -9  17  -5    5.70   27.90
 -11 -17  -5  -21.50   33.90
  11 -17   5   51.69   30.50
  11  17   5   -9.20   26.20
 -11  17  -5   18.30   33.50
  11  17   5   -3.30   39.10
  10 -18  -5   10.20   25.70
 -10 -18   5   33.50   34.30
  10  18  -5   21.60   27.50
 -10  18   5   72.49   39.60
  10  18  -5   21.90   27.90
  -8 -18   5  -12.80   28.80
   8 -18  -5   -8.70   18.40
  -8  18   5   17.80   28.80
   8  18  -5  -17.20   20.00
   8  18  -5   47.60   27.30
  -6 -18   5   34.80   24.70
   6 -18  -5   23.00   20.80
   6  18  -5   92.09   27.40
   6  18  -5   29.00   20.20
   4 -18  -5  -14.10   14.30
   4  18  -5   -1.90   18.70
   2 -18  -5  114.99   21.90
   2  18  -5  115.49   25.10
   0 -18  -5   12.40   13.70
   0 -18   5   22.00   14.80
   0  18  -5   23.90   18.70
   2 -18   5   46.10   17.80
  -2 -18  -5   31.70   15.70
  -2 -18  -5   37.20   19.30
   2  18   5   36.30   19.90
  -2  18  -5   49.60   20.60
   2  18   5   47.60   17.30
  -4 -18  -5  191.08   32.30
  -4 -18  -5  168.08   33.70
   4 -18   5  142.99   27.00
   4  18   5  175.08   28.20
   4  18   5  236.98   35.00
  -6 -18  -5    7.60   20.50
  -6 -18  -5   69.49   27.50
   6 -18   5  -12.20   20.40
  -6  18  -5   33.20   25.60
   6  18   5   37.80   21.70
   6  18   5  -12.40   16.80
   8 -18   5   42.60   28.00
  -8 -18  -5   50.39   30.50
  -8 -18  -5   70.59   36.80
   8  18   5   45.30   23.00
  -8  18  -5   29.60   28.10
   8  18   5  132.89   35.80
  10 -18   5   -9.50   26.50
 -10 -18  -5  -29.80   28.70
  10  18   5    9.30   36.40
 -10  18  -5   -6.10   30.40
  10  18   5  -41.20   22.90
 -11 -19   5  -35.30   36.50
  11 -19  -5    3.90   25.20
 -11  19   5   67.19   44.00
  11  19  -5   51.09   34.60
  11  19  -5   48.30   32.60
  -9 -19   5  -63.19   28.20
   9 -19  -5   26.70   21.30
   9  19  -5   11.90   24.60
  -9  19   5   -9.40   33.90
   9  19  -5   -3.90   23.50
  -7 -19   5   94.69   31.30
   7 -19  -5   66.59   22.90
   7  19  -5   35.90   23.30
   7  19  -5   68.99   26.70
   5 -19  -5   56.69   20.20
  -5 -19   5   86.89   26.10
   5  19  -5   37.00   21.70
   3 -19  -5   12.50   14.80
   3  19  -5   12.90   18.00
   1 -19  -5   77.49   18.60
  -1 -19   5   42.10   16.80
   1  19  -5   58.59   21.80
   1 -19   5   -7.70   14.50
  -1 -19  -5    5.90   14.60
  -1  19  -5   -0.20   17.20
  -3 -19  -5  119.19   29.00
  -3 -19  -5  135.29   28.80
  -3 -19  -5  203.88   29.20
   3 -19   5  109.59   24.20
   3  19   5  144.09   25.40
   3  19   5  235.68   33.40
  -5 -19  -5   48.00   24.40
   5 -19   5   24.10   22.40
  -5 -19  -5   63.59   26.90
   5  19   5   49.99   22.80
   5  19   5   52.09   20.50
   7 -19   5   25.60   24.70
  -7 -19  -5   12.10   24.60
  -7 -19  -5   94.79   35.70
   7  19   5   14.60   25.70
   7  19   5   16.60   20.90
  -7  19  -5    0.40   24.50
  -9 -19  -5   50.69   32.40
   9 -19   5   24.00   28.00
  -9  19  -5   -0.10   29.70
   9  19   5    5.20   24.60
   9  19   5   72.69   35.70
 -10 -20   5  -71.69   32.50
  10 -20  -5    1.40   24.00
 -10  20   5   52.89   42.10
  10  20  -5  -26.80   24.10
  10  20  -5    4.10   27.50
  -8 -20   5   30.80   29.70
   8 -20  -5    5.90   21.00
   8  20  -5  -12.10   20.80
   8  20  -5   -9.90   20.70
  -6 -20   5  128.89   33.20
   6 -20  -5  138.79   28.70
   6  20  -5  132.39   32.80
   6  20  -5  144.09   29.40
   4 -20  -5   80.99   22.10
   4  20  -5   94.79   25.40
   2 -20  -5  138.19   24.40
   2  20  -5  110.79   27.00
   0 -20  -5    3.30   14.30
   0 -20   5   12.80   15.90
   0  20  -5   -1.40   18.20
  -2 -20  -5   83.69   21.60
  -2 -20  -5   60.99   22.90
   2 -20   5   57.69   20.00
   2  20   5   86.29   24.90
  -2  20  -5   86.59   25.40
   4 -20   5   66.19   21.90
  -4 -20  -5   44.30   25.00
  -4 -20  -5   39.20   26.90
  -4 -20  -5   73.89   21.10
   4  20   5   96.39   25.10
   4  20   5   53.19   21.60
   6 -20   5   -8.60   20.60
  -6 -20  -5   13.40   26.70
  -6 -20  -5  -19.90   21.80
   6  20   5    2.80   19.90
   6  20   5   29.60   23.90
  -8 -20  -5   63.09   32.30
   8 -20   5   25.80   28.00
  -8 -20  -5   26.90   37.50
   8  20   5   22.50   22.10
  -8  20  -5   40.10   30.40
   8  20   5   46.40   32.50
 -10 -20  -5  -11.50   30.60
  10 -20   5  -20.70   28.60
  10  20   5   -4.60   26.70
 -10  20  -5  -15.20   31.70
  10  20   5  -25.50   34.40
  -9 -21   5   -8.60   29.40
   9 -21  -5   31.20   24.90
   9  21  -5    5.40   28.60
   9  21  -5   -5.40   23.70
  -7 -21   5   37.30   28.80
   7 -21  -5   13.60   22.60
   7  21  -5  -20.00   22.40
   7  21  -5   42.00   23.30
  -5 -21   5    4.70   24.40
   5 -21  -5  -11.50   18.70
   5  21  -5   37.80   25.20
   3 -21  -5   12.80   14.70
   3  21  -5   25.90   20.70
   1 -21  -5   21.00   16.30
  -1 -21   5   28.20   17.20
   1  21  -5   21.90   23.00
  -1 -21  -5   27.20   17.50
   1 -21   5   34.60   18.10
  -1  21  -5   27.90   22.20
  -3 -21  -5   56.19   20.60
  -3 -21  -5   38.60   23.80
   3 -21   5   29.30   19.90
  -3 -21  -5   24.40   23.80
   3  21   5   45.80   24.70
   3  21   5   55.19   21.00
  -5 -21  -5    4.60   24.40
   5 -21   5   30.60   24.00
  -5 -21  -5   36.60   21.20
  -5 -21  -5   84.49   31.40
   5  21   5   59.19   25.80
   5  21   5   18.90   20.10
   7 -21   5    7.20   25.30
  -7 -21  -5   16.40   28.60
  -7 -21  -5   -2.80   32.20
   7  21   5   -4.30   25.90
   7  21   5    7.60   21.00
  -7  21  -5   27.10   28.30
   9 -21   5   41.30   33.00
  -9 -21  -5   44.80   35.60
   9  21   5   68.69   37.80
   9  21   5   16.10   24.70
  -9  21  -5  -22.10   28.80
 -10 -22   5   41.10   40.50
  10 -22  -5  -25.50   21.90
  10  22  -5   50.99   33.10
  10  22  -5    2.20   27.50
  -8 -22   5    4.50   30.20
   8 -22  -5   54.89   25.90
   8  22  -5   23.30   28.10
   8  22  -5   18.30   23.00
   6 -22  -5    2.90   20.90
  -6 -22   5   52.79   32.20
   6  22  -5  -23.90   22.00
   4 -22  -5    7.70   18.20
   4  22  -5   16.60   22.50
   2 -22  -5   92.29   22.50
  -2 -22   5  116.89   24.50
   2  22  -5   80.19   27.00
   0 -22  -5   41.00   20.00
   0 -22   5    2.50   16.60
   0  22  -5   31.00   23.50
   2 -22   5    7.50   18.20
  -2 -22  -5   84.19   25.80
  -2 -22  -5   49.90   20.40
  -2  22  -5   74.79   28.60
   2  22   5   73.59   27.20
  -4 -22  -5  162.58   31.00
  -4 -22  -5  163.88   36.60
   4 -22   5  135.79   29.40
  -4 -22  -5  254.87   40.20
   4  22   5  178.38   31.60
   4  22   5  268.57   39.30
   6 -22   5  -12.00   22.40
  -6 -22  -5   20.90   26.10
  -6 -22  -5   20.70   30.40
   6  22   5  -29.60   17.90
   6  22   5    5.70   25.10
  -8 -22  -5   27.20   38.40
   8 -22   5   11.20   29.80
  -8 -22  -5   -1.50   30.70
  -8  22  -5   16.90   30.00
   8  22   5   53.39   26.80
   8  22   5   20.40   33.90
  -9 -23   5   22.60   37.30
   9 -23  -5    0.40   25.20
   9  23  -5   18.30   32.60
   9  23  -5    3.50   26.60
   7 -23  -5   86.49   27.30
  -7 -23   5  101.49   37.30
   7  23  -5   41.90   27.70
   7  23  -5   55.19   27.60
  -5 -23   5  -10.10   26.30
   5 -23  -5    6.20   19.80
   5  23  -5   -1.10   22.70
   3 -23  -5   -5.20   16.80
   3  23  -5  -30.10   19.40
   1 -23  -5  -12.50   16.10
  -1 -23   5    9.30   18.00
   1  23  -5   11.50   24.90
   1 -23   5    2.80   18.40
  -1 -23  -5   19.20   17.80
  -1  23  -5   45.70   25.70
   3 -23   5   15.70   20.70
  -3 -23  -5   92.99   30.20
  -3 -23  -5   25.70   26.00
  -3 -23  -5    2.00   19.00
  -3  23  -5   20.70   29.20
   3  23   5   44.10   25.30
   5 -23   5    7.50   22.40
  -5 -23  -5  -15.50   17.20
  -5 -23  -5    5.50   29.50
  -5 -23  -5  -34.70   23.20
   5  23   5   -6.10   22.70
   5  23   5  -19.50   18.00
   7 -23   5    1.30   24.40
  -7 -23  -5    9.20   28.50
  -7 -23  -5  -16.90   33.60
   7  23   5   -8.10   21.10
   7  23   5    6.80   27.70
   9 -23   5    8.80   30.90
  -9 -23  -5   -1.00   32.90
  -9  23  -5    1.90   32.10
   9  23   5  -16.00   37.00
   9  23   5   13.00   27.90
  -8 -24   5   61.49   35.40
   8 -24  -5   36.40   26.90
   8  24  -5  -22.50   26.10
   8  24  -5   16.60   25.90
  -6 -24   5  -19.40   29.00
   6 -24  -5    3.80   20.50
   6  24  -5   16.30   25.80
   4 -24  -5    1.70   18.00
   4  24  -5    1.90   21.50
   2 -24  -5  115.49   25.50
  -2 -24   5  157.48   29.30
   2  24  -5   83.09   32.30
   0 -24   5   33.40   20.10
   0 -24  -5   12.00   18.20
   0  24  -5   17.80   23.50
  -2 -24  -5  139.39   32.70
   2 -24   5  154.28   30.10
  -2 -24  -5   88.29   25.70
  -2  24  -5  167.68   35.40
   2  24   5  121.99   32.10
  -4 -24  -5   35.20   24.00
   4 -24   5   55.19   23.20
  -4 -24  -5   16.20   27.50
  -4 -24  -5   47.00   28.70
   4  24   5   34.90   26.90
  -6 -24  -5   13.10   35.20
   6 -24   5   -1.80   24.20
  -6 -24  -5    1.10   28.20
  -6 -24  -5   36.60   23.90
   6  24   5   15.70   21.80
   6  24   5   -0.20   26.50
   8 -24   5   48.10   30.80
  -8 -24  -5   47.20   32.90
   8  24   5   84.39   38.90
   8  24   5  -16.00   23.70
   7 -25  -5   12.30   24.20
  -7 -25   5   42.40   37.20
   7  25  -5   17.80   29.00
   5 -25  -5   -0.50   20.40
  -5 -25   5   41.90   33.10
   5  25  -5   47.20   28.40
  -3 -25   5   27.20   20.10
   3 -25  -5    8.10   17.20
   3  25  -5   35.80   25.90
   1 -25  -5   43.20   20.50
  -1 -25   5   11.20   20.20
   1  25  -5    6.40   26.10
  -1 -25  -5   37.10   20.40
   1 -25   5   24.60   20.60
   1  25   5   25.80   26.10
  -1  25  -5   60.59   30.00
  -3 -25  -5   52.59   24.00
  -3 -25  -5   30.20   29.70
   3 -25   5   58.19   24.90
  -3 -25  -5   53.79   31.50
  -3  25  -5   54.69   31.40
   3  25   5   57.59   28.70
  -5 -25  -5   57.99   25.60
   5 -25   5  -10.90   22.10
  -5 -25  -5   22.50   31.80
  -5 -25  -5    5.20   27.70
   5  25   5    3.70   25.90
   5  25   5   21.60   21.80
  -7 -25  -5  -12.80   26.90
   7 -25   5    2.70   27.10
  -7 -25  -5   11.20   36.30
  -7 -25  -5  -12.90   23.30
   7  25   5   11.00   29.60
   7  25   5   27.30   24.60
  -8 -26   5   17.90   37.30
   8 -26  -5   64.89   29.50
   8  26  -5   31.30   32.10
   6 -26  -5   13.80   21.90
  -6 -26   5  -53.09   31.90
   6  26  -5  -18.80   26.60
   4 -26  -5   -1.40   20.10
   4  26  -5   15.90   28.20
  -2 -26   5  203.88   34.30
   2 -26  -5  136.89   28.70
   2  26  -5   99.49   33.50
   0 -26   5    8.70   20.40
   0 -26  -5    9.90   19.10
   0  26  -5   71.09   31.20
  -2 -26  -5   55.49   23.60
   2 -26   5   74.59   24.40
  -2 -26  -5   84.29   29.60
  -2  26  -5   74.69   33.00
   2  26   5   14.40   28.10
  -4 -26  -5   43.40   31.70
  -4 -26  -5   38.10   23.70
   4 -26   5   34.90   23.50
  -4 -26  -5   18.20   29.00
  -4  26  -5   62.69   32.30
   4  26   5   52.99   29.10
  -6 -26  -5  -13.60   24.90
   6 -26   5   26.40   27.30
  -6 -26  -5   -8.20   28.40
  -6 -26  -5   -1.90   38.40
   6  26   5  -42.30   22.30
   6  26   5    8.30   29.10
   7 -27  -5   41.40   26.00
  -7 -27   5   33.70   38.50
   7  27  -5   26.90   33.70
   5 -27  -5   32.10   24.00
  -5 -27   5   19.90   34.40
   5  27  -5   82.69   36.90
   3 -27  -5    9.10   20.10
  -3 -27   5   25.80   23.50
   3  27  -5   29.70   29.60
  -1 -27   5  103.29   28.00
   1 -27  -5   84.29   25.90
   1  27  -5  121.99   36.90
  -1 -27  -5   16.60   22.20
   1 -27   5  -22.40   18.80
   1  27   5    5.10   26.10
  -1  27  -5   16.70   26.20
   3 -27   5   18.50   22.10
  -3 -27  -5   -0.60   21.90
  -3 -27  -5   21.70   30.80
  -3 -27  -5   -9.40   28.90
  -3  27  -5  -42.30   27.20
   3  27   5  -21.60   25.10
  -5 -27  -5  -32.20   22.70
  -5 -27  -5  -33.90   32.70
  -5 -27  -5    1.00   32.20
   5 -27   5   -8.80   24.50
   5  27   5   43.80   31.60
  -6 -28   5   18.40   40.00
   6 -28  -5   24.90   25.30
   6  28  -5   72.99   36.10
   4 -28  -5   24.40   22.10
  -4 -28   5   16.00   22.70
   4  28  -5   28.70   30.20
   2 -28  -5   93.39   26.50
  -2 -28   5  128.09   30.90
   2  28  -5   89.69   33.30
   0 -28  -5   19.40   21.70
   0 -28   5    8.90   22.70
   0  28  -5    5.20   29.00
  -2 -28  -5   -1.60   20.90
  -2 -28  -5   31.30   28.30
   2 -28   5  -16.90   21.50
  -2  28  -5   43.90   35.00
   2  28   5   24.80   30.00
  -4 -28  -5   57.59   29.30
  -4 -28  -5   64.99   34.80
  -4 -28  -5  -39.10   31.10
   4 -28   5   95.39   28.70
  -4  28  -5   25.20   35.70
   4  28   5   34.00   29.40
  -6 -28  -5    0.10   30.60
   6 -28   5    7.40   28.50
  -6 -28  -5  -31.90   26.40
  -6 -28  -5  -37.20   41.90
   6  28   5  -10.10   31.50
  -5 -29   5   69.99   26.60
  -5 -29   5  -36.90   35.30
   5 -29  -5   40.40   26.30
   5  29  -5   28.80   36.30
  -3 -29   5   32.70   25.90
   3 -29  -5   -0.70   20.90
   3  29  -5   15.60   30.70
   1 -29  -5   16.90   22.60
  -1 -29   5   39.40   24.50
   1  29  -5   -3.50   29.80
  -1 -29  -5    0.70   22.70
   1 -29   5  -17.00   22.00
   1  29   5  -12.10   27.20
  -1  29  -5   75.89   35.90
  -3 -29  -5    4.10   32.60
   3 -29   5    7.70   23.50
  -3 -29  -5  -17.80   22.60
  -3 -29  -5  -10.30   30.10
  -3  29  -5  -38.70   31.20
   3  29   5   19.50   27.70
  -5 -29  -5   19.80   38.40
  -5 -29  -5   -5.70   27.90
   5 -29   5    2.90   25.90
  -5 -29  -5   33.20   35.30
   5  29   5   17.40   30.50
   4 -30  -5   27.90   24.90
  -4 -30   5    6.70   25.60
   4  30  -5  -17.60   30.00
   2 -30  -5   -3.10   21.70
  -2 -30   5  -10.60   22.00
   2  30  -5   39.60   35.20
   0 -30  -5   -4.00   22.30
   0 -30   5    4.30   24.00
   0  30   5   55.69   33.30
   0  30  -5  -27.40   30.00
  -2 -30  -5    4.10   30.30
   2 -30   5    2.90   23.70
  -2 -30  -5   27.40   25.30
  -2  30  -5   40.00   36.90
   2  30   5  -27.90   31.20
  -4 -30  -5   12.70   27.90
   4 -30   5   -1.80   24.90
  -4 -30  -5    2.00   34.10
  -4 -30  -5  -33.00   35.90
   4  30   5   45.00   35.50
  -4  30  -5   13.20   38.50
  -3 -31   5   44.90   29.90
   3 -31  -5   45.40   27.20
   3  31  -5   33.20   36.50
   1 -31  -5  -33.00   19.90
  -1 -31   5  -23.90   22.80
   1  31  -5    9.00   34.70
   1 -31   5   -1.70   24.60
  -1 -31  -5  -43.20   20.50
  -1  31  -5   36.50   36.40
   1  31   5  -15.40   29.80
  14   0  -6   34.70   29.40
 -14   0   6   89.69   49.50
  12   0  -6    7.70   24.50
  12   0  -6   63.49   29.90
 -12   0   6   -1.80   38.60
  10   0  -6   60.39   22.90
 -10   0   6   92.19   34.40
  10   0  -6   43.20   22.30
   8   0  -6   41.30   17.80
   8   0  -6   78.29   20.30
  -8   0   6  124.29   27.40
   6   0  -6   33.40   14.60
   6   0  -6   19.80   14.40
  -6   0   6   62.69   18.30
   4   0  -6   28.40   12.50
   4   0  -6   27.80    7.10
   4   0  -6   28.10   12.10
   4   0  -6   30.70   11.10
   2   0  -6  190.68   18.70
   2   0  -6  238.88   23.60
   2   0  -6  243.98   24.00
  -2   0   6  158.58   17.80
   0   0  -6 4610.54  316.37
   0   0   6 4574.94  316.17
   0   0  -6 4614.44  318.07
   0   0   6 4624.34  317.97
   0   0  -6 4750.02  318.77
   2   0   6  196.28   21.50
  -2   0  -6  174.48   21.70
  -2   0  -6  161.58   22.00
  -2   0  -6  222.08   21.50
  -4   0  -6  228.28   28.70
   4   0   6  236.28   23.70
  -4   0  -6  231.48   23.70
  -4   0  -6  203.88   26.60
   6   0   6   60.59   16.20
  -6   0  -6  111.19   22.50
   8   0   6   31.10   18.90
   8   0   6   12.30   18.40
  -8   0  -6   29.00   23.20
 -10   0  -6   24.00   26.50
  10   0   6  -11.80   19.50
 -12   0  -6  -13.10   26.80
  12   0   6   15.00   26.90
  13  -1  -6   32.50   31.20
  13  -1  -6   51.39   27.90
 -13  -1   6    4.50   41.40
  13   1  -6   16.60   26.60
 -13   1   6   71.29   45.00
  13   1  -6   17.20   31.20
  11  -1  -6   -8.10   21.30
  11  -1  -6   99.59   28.00
 -11  -1   6   90.79   35.60
  11   1  -6    9.50   22.00
  11   1  -6   37.40   22.50
 -11   1   6   28.00   33.70
   9  -1  -6   -3.80   16.60
   9  -1  -6   -2.50   18.60
  -9  -1   6   24.90   25.80
   9   1  -6   11.20   18.00
   9   1  -6    3.50   17.40
  -9   1   6   19.70   25.50
   7  -1  -6  153.68   24.30
  -7  -1   6  252.37   30.80
   7  -1  -6  151.48   25.40
   7   1  -6  161.98   24.70
  -7   1   6  237.38   31.50
   7   1  -6  172.08   24.10
   5  -1  -6  277.37   29.10
   5  -1  -6  187.68   23.00
   5  -1  -6  339.67   27.90
   5  -1  -6  257.47   26.30
  -5  -1   6  313.27   28.30
   5   1  -6  320.27   29.70
   5   1  -6  259.27   26.40
  -5   1   6  284.27   28.60
   3  -1  -6  427.96   35.00
  -3  -1   6  388.56   31.00
   3  -1  -6  423.66   32.30
   3  -1  -6  406.46   35.40
   3   1  -6  442.46   35.30
   3   1  -6  409.36   31.10
   3   1  -6  426.46   35.40
   1  -1  -6  779.22   56.29
  -1  -1   6  775.12   55.59
  -1  -1   6  766.52   55.69
   1  -1  -6  793.42   56.89
   1  -1  -6  728.13   57.49
   1   1  -6  766.02   55.99
   1   1  -6  733.93   57.79
  -1   1   6  790.72   56.19
  -1   1   6  805.62   55.99
   1   1  -6  758.22   56.29
  -1  -1  -6   -1.60    9.10
   1  -1   6    6.20    8.80
  -1  -1  -6   -2.50    9.00
  -1   1  -6   -7.40    9.60
  -1   1  -6   14.90   11.00
   1   1   6   -6.40    7.80
  -1   1  -6   -3.30    8.50
  -3  -1  -6  105.99   19.70
  -3  -1  -6  122.09   17.00
  -3  -1  -6   92.89   17.90
   3  -1   6  108.49   14.60
  -3   1  -6  122.79   20.00
  -3   1  -6   82.39   14.70
  -3   1  -6  108.09   18.00
   3   1   6  143.69   16.00
  -5  -1  -6   57.99   19.60
   5  -1   6   75.49   16.40
  -5  -1  -6   61.49   17.80
  -5  -1  -6   66.39   14.10
  -5   1  -6   54.79   18.40
  -5   1  -6   39.10   14.90
   5   1   6   65.39   14.70
  -5   1  -6   21.00   18.20
   7  -1   6  111.89   18.90
  -7  -1  -6  127.29   17.60
  -7  -1  -6  151.98   26.80
   7  -1   6   90.49   20.80
  -7  -1  -6   73.29   22.90
   7   1   6  158.38   20.40
  -7   1  -6   68.59   23.00
   7   1   6   87.59   20.00
  -9  -1  -6   45.70   25.80
   9  -1   6   80.29   23.40
   9  -1   6   37.70   21.60
  -9   1  -6   39.50   25.60
   9   1   6  106.89   24.90
   9   1   6   23.00   20.70
 -11  -1  -6   -9.40   27.30
  11  -1   6   29.40   23.20
 -11   1  -6   19.00   29.00
  11   1   6  -25.20   21.50
 -13  -1  -6  -10.90   29.50
  13  -1   6    7.60   28.10
  13   1   6   33.70   29.90
 -13   1  -6  -11.00   29.60
  14  -2  -6   22.20   29.70
  14   2  -6   19.50   28.90
 -14   2   6   35.20   46.90
 -12  -2   6   34.70   37.70
  12  -2  -6   24.30   25.10
  12  -2  -6   77.19   29.40
 -12   2   6   48.00   39.10
  12   2  -6   72.99   30.00
  12   2  -6   57.89   27.00
  10  -2  -6   10.70   19.20
  10  -2  -6  -13.80   19.70
 -10  -2   6  -10.70   28.20
 -10   2   6    8.50   29.10
  10   2  -6    9.90   19.60
  10   2  -6    0.80   21.30
  -8  -2   6   89.09   25.50
   8  -2  -6   52.89   18.90
   8  -2  -6   76.39   20.50
   8   2  -6   45.50   18.00
  -8   2   6  112.69   26.70
   8   2  -6   59.59   18.90
   6  -2  -6  155.38   24.00
   6  -2  -6  230.08   23.50
   6  -2  -6  152.98   23.70
  -6  -2   6  192.78   27.70
  -6   2   6  204.68   27.10
   6   2  -6  165.28   23.10
   6   2  -6  149.39   24.00
  -4  -2   6 1307.07   94.69
   4  -2  -6 1409.16   96.09
   4  -2  -6 1227.38   94.29
   4  -2  -6 1349.07   94.49
   4  -2  -6 1273.67   96.79
   4  -2  -6 1375.96   94.89
   4   2  -6 1301.57   97.19
   4   2  -6 1381.36   94.49
  -4   2   6 1364.76   94.89
   2  -2  -6  182.18   18.50
   2  -2  -6  141.69   18.50
  -2  -2   6  131.89   14.40
   2  -2  -6  199.28   20.50
   2   2  -6  144.29   18.90
  -2   2   6  133.79   16.10
   2   2  -6  160.98   20.30
   2   2  -6  143.19   15.80
   0  -2  -6  218.38   22.50
   0  -2   6  190.38   17.10
   0  -2   6  215.08   20.10
   0  -2  -6  194.68   21.60
   0   2   6  190.58   18.30
   0   2  -6  200.48   21.80
   0   2  -6  247.48   23.20
   0   2  -6  197.58   17.80
  -2  -2  -6 1251.27   89.69
  -2  -2  -6 1216.98   88.59
  -2  -2  -6 1225.18   89.09
   2   2   6 1176.88   89.89
  -2   2  -6 1281.07   89.19
  -2   2  -6 1271.37   88.99
  -2   2  -6 1231.28   89.99
   4  -2   6  157.18   20.00
  -4  -2  -6  128.59   24.00
  -4  -2  -6  173.98   23.70
  -4  -2  -6  181.88   20.40
   4   2   6  169.48   18.00
   4   2   6  168.18   20.80
  -4   2  -6  128.69   24.60
  -4   2  -6  160.38   21.20
  -4   2  -6  174.28   24.80
  -6  -2  -6  255.57   30.30
   6  -2   6  155.48   24.80
  -6  -2  -6  249.78   31.20
  -6   2  -6  277.57   24.60
   6   2   6  160.18   24.90
  -8  -2  -6  108.09   26.80
  -8  -2  -6  159.28   32.10
   8  -2   6   31.10   19.80
   8  -2   6  120.69   20.60
  -8   2  -6   72.49   24.20
   8   2   6   40.20   19.60
   8   2   6  140.19   22.30
  10  -2   6    5.50   22.10
 -10  -2  -6    6.50   25.30
 -10   2  -6    8.70   24.00
  10   2   6    7.40   29.60
  10   2   6    0.50   21.50
  12  -2   6   20.10   26.80
 -12  -2  -6    8.10   29.70
 -12   2  -6   11.90   28.70
  12   2   6   27.20   26.00
 -13  -3   6   62.39   44.10
  13  -3  -6   72.49   29.80
  13  -3  -6    5.40   32.70
 -13   3   6   74.49   45.30
  13   3  -6   61.69   35.10
  13   3  -6   57.49   28.10
 -11  -3   6    4.80   30.90
  11  -3  -6  -23.00   20.70
  11  -3  -6   21.50   21.60
 -11   3   6   61.29   36.20
  11   3  -6   16.10   21.60
  11   3  -6    6.90   20.90
  -9  -3   6   53.09   26.30
   9  -3  -6    6.90   18.70
   9  -3  -6   12.70   16.30
  -9   3   6   39.00   27.90
   9   3  -6    5.00   16.70
   9   3  -6  -16.70   16.60
   7  -3  -6    4.20   11.80
   7  -3  -6   -8.20   14.80
   7  -3  -6   14.20   13.30
  -7  -3   6  -35.40   17.30
  -7   3   6   27.20   19.90
   7   3  -6    8.70   13.00
   7   3  -6    7.60   12.90
   5  -3  -6  276.47   28.30
  -5  -3   6  287.77   29.50
   5  -3  -6  215.28   27.90
   5  -3  -6  279.27   26.80
  -5   3   6  263.97   27.80
   5   3  -6  247.28   29.40
   5   3  -6  233.38   26.20
  -3  -3   6  177.28   16.40
   3  -3  -6  195.28   19.40
   3  -3  -6  236.78   24.20
   3  -3  -6  199.98   21.60
   3  -3  -6  189.88   20.70
   3   3  -6  227.18   23.70
  -1  -3   6   17.40    7.90
   1  -3  -6    6.60   10.50
   1  -3  -6   25.00   11.00
   1  -3  -6   16.80   11.40
  -1  -3   6   10.50    7.40
  -1   3   6   26.50   10.00
  -1   3   6    5.00    8.60
   1   3  -6   29.20    9.90
   1   3  -6   27.00   11.60
   1   3  -6   32.00   10.60
  -1  -3  -6    7.00   10.90
   1  -3   6   12.30   10.20
  -1  -3  -6   14.60   10.60
  -1  -3  -6   11.90   10.50
  -1   3  -6    4.00   10.60
  -1   3  -6   27.30   13.20
  -1   3  -6   41.90   13.40
   1   3   6    8.20    8.90
   3  -3   6  528.65   38.70
  -3  -3  -6  516.85   41.80
  -3  -3  -6  448.86   41.20
  -3  -3  -6  505.45   40.70
   3   3   6  503.25   37.90
  -3   3  -6  476.45   42.40
  -3   3  -6  491.15   40.70
  -3   3  -6  456.85   42.30
   3   3   6  520.75   38.70
  -5  -3  -6  291.37   28.60
   5  -3   6  173.98   24.10
  -5  -3  -6  293.47   25.40
  -5  -3  -6  231.28   30.30
   5   3   6  195.38   24.80
  -5   3  -6  153.98   27.90
  -7  -3  -6  126.09   26.50
  -7  -3  -6   95.49   25.60
  -7  -3  -6  105.59   17.20
   7  -3   6   29.90   19.20
  -7   3  -6   97.29   24.50
   7   3   6   79.19   20.10
   7   3   6  104.59   19.90
   9  -3   6   55.59   20.80
  -9  -3  -6   91.09   35.00
  -9  -3  -6   73.29   27.90
   9  -3   6   26.70   20.50
  -9   3  -6   35.00   25.10
   9   3   6   83.29   24.80
   9   3   6   26.00   20.50
  11  -3   6   31.90   23.80
 -11  -3  -6   -1.00   28.70
 -11   3  -6   22.90   28.90
  11   3   6  -16.70   22.20
 -13  -3  -6   33.50   33.40
  13  -3   6   12.10   28.30
  13   3   6   28.60   31.90
 -13   3  -6   28.00   33.40
 -12  -4   6   51.79   36.00
  12  -4  -6   93.09   32.20
  12  -4  -6   29.50   25.00
  12   4  -6   94.29   30.70
 -12   4   6  -24.10   37.30
  12   4  -6    5.90   23.80
 -10  -4   6   31.50   29.20
  10  -4  -6   33.50   20.70
  10  -4  -6   52.29   24.50
 -10   4   6   72.09   33.00
  10   4  -6   20.30   19.80
  10   4  -6   18.10   20.60
   8  -4  -6  111.39   23.40
   8  -4  -6  157.48   26.00
  -8  -4   6  112.09   27.80
   8  -4  -6  168.78   21.40
  -8   4   6  171.68   31.60
   8   4  -6  104.39   23.70
   8   4  -6  129.49   23.90
   6  -4  -6  140.29   22.00
  -6  -4   6  240.18   28.30
   6  -4  -6  147.99   20.40
   6  -4  -6  137.29   24.30
  -6   4   6  225.18   27.50
   6   4  -6  125.49   20.40
   6   4  -6  146.39   24.50
   4  -4  -6  337.17   32.70
  -4  -4   6  322.47   30.40
   4  -4  -6  326.67   30.60
   4  -4  -6  356.36   30.70
   4   4  -6  362.46   33.10
   4   4  -6  326.07   29.40
  -4   4   6  381.26   30.90
  -2  -4   6  163.38   16.80
   2  -4  -6  148.29   20.50
   2  -4  -6  146.79   20.20
   2  -4  -6  153.18   19.70
   2   4  -6  151.98   20.30
   0  -4  -6 1116.19   77.69
   0  -4   6  992.20   74.39
   0  -4  -6 1044.30   77.99
   0   4  -6 1101.49   75.29
  -2  -4  -6   37.00   12.50
  -2  -4  -6   22.70   12.10
  -2  -4  -6   49.90   14.10
  -2   4  -6   27.70   13.20
   2   4   6   53.29   10.10
  -2   4  -6   58.39   15.30
  -4  -4  -6  160.18   21.40
  -4  -4  -6  141.79   24.30
   4  -4   6  145.59   19.20
  -4  -4  -6  119.19   20.10
   4   4   6  141.19   19.30
   4   4   6  164.68   19.40
  -4   4  -6  106.69   23.00
   6  -4   6    0.20   14.20
  -6  -4  -6   17.60   17.70
  -6  -4  -6   32.50   12.60
  -6  -4  -6   -1.80   17.20
  -6   4  -6   10.20   19.30
   6   4   6    2.40   13.40
   6   4   6   21.00   15.60
   8  -4   6   44.10   21.80
  -8  -4  -6   32.80   14.90
  -8  -4  -6   68.59   29.00
   8  -4   6   54.49   18.10
  -8  -4  -6   31.20   24.00
  -8   4  -6   52.89   23.70
   8   4   6    4.70   17.40
   8   4   6   44.20   20.40
 -10  -4  -6    3.90   25.90
  10  -4   6   -6.00   23.60
 -10  -4  -6   15.30   34.40
 -10   4  -6   12.30   23.70
  10   4   6   16.30   21.60
  10   4   6  -37.40   24.20
 -12  -4  -6   31.40   30.40
  12  -4   6    2.70   26.00
 -12   4  -6   15.30   27.80
  12   4   6   -2.70   24.80
  13  -5  -6   53.29   29.40
  13  -5  -6   81.89   37.20
 -13  -5   6   60.49   45.10
 -13   5   6  114.39   49.40
  13   5  -6   81.59   35.40
  13   5  -6   51.49   29.00
 -11  -5   6   34.30   30.40
  11  -5  -6   13.60   25.60
  11  -5  -6   16.20   23.00
  11   5  -6   -8.90   20.30
 -11   5   6   75.19   37.40
  11   5  -6   17.50   23.80
   9  -5  -6   -3.20   17.50
  -9  -5   6   -4.60   23.70
   9  -5  -6   -2.40   18.60
   9   5  -6  -12.00   16.40
  -9   5   6   -9.90   26.60
   9   5  -6   41.20   20.40
  -7  -5   6   81.59   22.50
   7  -5  -6   75.29   17.10
   7  -5  -6   86.09   19.90
   7  -5  -6   67.59   19.10
  -7   5   6  113.89   26.00
   7   5  -6   72.49   18.10
   7   5  -6   48.60   17.50
   5  -5  -6   32.50   15.80
  -5  -5   6   -5.60   13.90
   5  -5  -6    7.10   12.70
   5  -5  -6  -13.10   11.00
   5   5  -6    9.30   13.70
  -5   5   6   13.50   15.00
   5   5  -6    5.40   11.70
  -3  -5   6  643.54   48.60
   3  -5  -6  704.13   50.49
  -3  -5   6  632.44   49.90
   3  -5  -6  680.53   52.69
   3  -5  -6  657.13   52.39
   3   5  -6  685.73   49.50
   3   5  -6  719.83   53.69
  -1  -5   6 1574.74  109.39
   1  -5  -6 1543.95  111.09
   1  -5  -6 1590.74  110.89
  -1  -5   6 1434.86  108.69
   1   5  -6 1548.84  109.59
  -1   5   6 1611.34  108.09
  -1  -5  -6   82.99   14.80
  -1  -5  -6   86.49   16.20
  -1  -5  -6   82.79   16.90
   1  -5   6   87.39   15.20
  -1   5  -6   69.19   15.60
   1   5   6   74.29   11.60
  -3  -5  -6  146.69   22.70
   3  -5   6  146.49   19.10
  -3  -5  -6  188.18   24.20
  -3  -5  -6  184.38   24.20
   3   5   6  181.18   20.00
  -3   5  -6  174.88   25.00
   3   5   6  175.68   19.90
  -5  -5  -6   46.10   15.00
   5  -5   6    9.00   12.80
  -5  -5  -6   52.59   19.40
  -5  -5  -6    4.40   13.10
   5   5   6   57.59   15.20
  -5   5  -6   61.89   20.00
   5   5   6   32.20   13.10
  -7  -5  -6   86.49   24.00
  -7  -5  -6   53.89   22.20
   7  -5   6    1.00   16.00
  -7  -5  -6   31.50   14.10
   7   5   6   36.00   19.50
   7   5   6   -2.20   14.00
  -7   5  -6   24.80   20.40
   9  -5   6   97.89   31.70
  -9  -5  -6  160.08   38.90
   9  -5   6   88.79   26.30
  -9  -5  -6   79.79   28.30
   9   5   6  144.19   28.40
   9   5   6   67.59   24.10
  -9   5  -6  122.39   29.50
  11  -5   6   -2.00   24.20
 -11  -5  -6   13.00   28.70
 -11   5  -6   24.10   26.80
  11   5   6  -17.60   23.10
 -13  -5  -6   15.60   33.90
  13  -5   6    4.80   30.10
 -13   5  -6   12.10   31.80
  13   5   6   25.20   29.50
  12  -6  -6   16.20   23.70
  12  -6  -6  -14.70   29.40
 -12  -6   6   49.00   37.30
  12   6  -6   -3.80   25.30
  12   6  -6   57.99   27.90
 -12   6   6  -42.30   38.50
 -10  -6   6  -23.50   27.50
  10  -6  -6   -9.50   22.10
  10  -6  -6  -14.70   19.00
  10   6  -6    9.40   19.10
 -10   6   6   -6.00   31.80
  10   6  -6  -21.20   17.50
   8  -6  -6  114.69   20.00
   8  -6  -6   86.99   21.60
   8  -6  -6   66.89   21.70
  -8  -6   6  123.39   27.90
  -8   6   6   43.60   26.40
   8   6  -6   83.49   21.40
   8   6  -6   42.40   20.20
   6  -6  -6  318.87   32.60
   6  -6  -6  256.67   31.40
  -6  -6   6  352.16   34.60
   6  -6  -6  253.27   28.20
   6   6  -6  238.78   32.50
  -6   6   6  329.57   34.50
   6   6  -6  265.27   30.30
   4  -6  -6  -13.00   11.70
  -4  -6   6  -12.50   12.50
  -4  -6   6   -1.00    7.30
   4  -6  -6   -5.30   11.40
   4  -6  -6   -6.20   11.70
  -4   6   6   24.40   14.10
   4   6  -6   -7.00   12.10
   4   6  -6   -8.30   10.20
   2  -6  -6    7.10   11.00
   2  -6  -6   -0.80    8.80
   2  -6  -6   11.60   11.80
   2  -6  -6    6.40    9.60
   2   6  -6   -7.20   10.70
   0  -6   6   43.40   12.60
   0  -6  -6   17.70   12.20
   0  -6   6   44.40    9.70
   0   6  -6   36.40   10.50
   0   6   6   29.60    9.20
  -2  -6  -6  110.99   19.40
  -2  -6  -6   87.59   13.50
   2  -6   6  129.39   15.80
  -2  -6  -6  112.29   18.90
  -2  -6  -6  109.49   15.20
  -2   6  -6  118.19   20.00
   2   6   6  117.59   15.20
  -4  -6  -6   64.29   17.50
   4  -6   6    0.50   12.30
  -4   6  -6   78.49   17.50
   4   6   6    3.30   11.50
  -6  -6  -6   20.00   16.40
  -6  -6  -6   34.60   18.40
  -6  -6  -6   97.79   23.00
   6  -6   6   26.90   15.00
   6   6   6   33.20   14.80
  -6   6  -6   55.79   20.60
   6   6   6  116.69   20.40
  -8  -6  -6   -6.70   19.00
   8  -6   6   -5.00   17.90
  -8  -6  -6   26.60   16.30
  -8  -6  -6  -14.70   25.20
  -8   6  -6   19.90   21.20
   8   6   6   34.90   23.30
   8   6   6   18.70   18.10
  10  -6   6  -33.20   20.90
 -10  -6  -6   -6.60   36.00
 -10  -6  -6   13.30   26.80
 -10   6  -6    3.90   25.50
  10   6   6   -3.80   22.20
  10   6   6   59.99   27.50
 -12  -6  -6   35.40   31.70
  12  -6   6   -6.70   27.80
  12   6   6  -14.50   23.50
 -12   6  -6  -29.10   28.20
 -13  -7   6   33.00   44.30
  13  -7  -6   70.79   29.00
  13  -7  -6    1.10   32.30
  13   7  -6   42.50   30.80
  13   7  -6   23.40   32.60
 -13   7   6   15.10   44.40
  11  -7  -6   15.80   27.40
 -11  -7   6   60.49   35.50
  11  -7  -6   21.10   23.10
  11   7  -6   38.60   26.30
 -11   7   6   21.20   35.30
  11   7  -6   10.50   22.40
  -9  -7   6   14.60   25.60
   9  -7  -6    4.70   19.00
   9  -7  -6   14.10   20.60
  -9   7   6   14.30   27.70
   9   7  -6  -11.90   16.40
   9   7  -6   33.50   19.70
   7  -7  -6  151.38   24.70
   7  -7  -6  108.49   24.10
  -7  -7   6  134.59   26.70
   7  -7  -6  129.89   21.90
   7   7  -6  150.88   23.70
  -7   7   6  130.59   27.30
   7   7  -6  106.89   24.50
   5  -7  -6  273.57   28.10
   5  -7  -6  235.38   30.10
  -5  -7   6  261.87   28.00
   5  -7  -6  279.77   30.00
   5   7  -6  263.67   27.20
  -5   7   6  300.47   32.60
   5   7  -6  275.07   33.70
   3  -7  -6  100.99   19.30
   3  -7  -6  118.39   17.50
  -3  -7   6  126.79   19.40
   3   7  -6  132.29   16.30
   3   7  -6  134.69   20.70
   1  -7  -6  451.25   35.70
   1  -7  -6  364.46   30.50
   1  -7  -6  372.86   30.60
   1   7  -6  372.56   32.90
   1  -7   6  180.48   19.60
  -1  -7  -6  262.07   25.70
  -1  -7  -6  194.88   19.80
  -1  -7  -6  236.58   24.90
  -1  -7  -6  183.58   19.50
  -1   7  -6  281.07   26.90
   1   7   6  207.18   20.70
  -1   7  -6  211.58   19.80
  -3  -7  -6  362.36   32.50
  -3  -7  -6  272.17   31.50
   3  -7   6  327.37   29.70
   3   7   6  341.17   30.60
   3   7   6  313.27   29.10
  -3   7  -6  341.97   33.10
  -5  -7  -6   29.20   15.10
   5  -7   6   25.20   14.80
  -5  -7  -6   67.09   20.80
   5   7   6   33.00   13.20
  -5   7  -6   29.50   17.10
   5   7   6   70.59   16.30
   7  -7   6   40.60   17.20
  -7  -7  -6   25.40   21.70
  -7  -7  -6   43.10   22.10
  -7   7  -6   19.00   21.40
   7   7   6   29.10   16.90
   7   7   6   82.79   21.60
  -9  -7  -6   21.80   22.90
  -9  -7  -6   39.00   33.20
   9  -7   6   13.80   21.40
   9   7   6  103.79   28.20
  -9   7  -6   12.90   25.70
   9   7   6   18.40   19.90
  11  -7   6    3.60   25.20
 -11  -7  -6    9.80   29.60
  11   7   6    4.00   22.90
 -11   7  -6   -6.60   27.70
  12  -8  -6   26.90   25.10
  12  -8  -6   -6.30   29.30
 -12  -8   6   72.49   38.70
 -12   8   6   45.60   40.20
  12   8  -6    4.80   24.60
  12   8  -6    3.10   26.70
  10  -8  -6  -32.00   20.90
 -10  -8   6   24.40   30.10
  10  -8  -6  -16.70   20.00
  10   8  -6    5.60   19.40
  10   8  -6    9.70   19.60
 -10   8   6   63.39   33.40
   8  -8  -6  209.38   26.90
   8  -8  -6  117.39   26.50
   8  -8  -6  163.48   28.60
  -8  -8   6  196.28   32.30
   8   8  -6  114.99   26.40
  -8   8   6  227.38   35.80
   8   8  -6  147.89   25.90
   6  -8  -6  567.84   50.39
  -6  -8   6  576.54   50.09
   6  -8  -6  497.65   48.40
   6  -8  -6  614.14   48.80
   6   8  -6  609.64   48.80
   6   8  -6  587.54   51.99
  -6   8   6  656.03   51.19
  -4  -8   6   19.30   14.00
   4  -8  -6   10.20   11.60
   4  -8  -6   14.40   13.70
  -4   8   6   35.10   15.90
   4   8  -6   -3.60   11.00
   4   8  -6   -7.40   11.90
   2  -8  -6  165.18   19.30
   2   8  -6  155.18   21.90
   0  -8  -6  857.71   63.29
   0  -8  -6  931.21   67.79
   0   8  -6  862.11   64.29
   0   8   6  864.61   63.69
  -2  -8  -6  102.49   19.30
   2  -8   6  141.19   17.40
  -2  -8  -6   86.99   18.20
  -2  -8  -6  102.79   15.10
  -2   8  -6  119.89   21.70
   2   8   6  120.69   16.40
  -2   8  -6   82.39   13.60
  -4  -8  -6   40.00   15.60
   4  -8   6   -3.40   12.50
  -4  -8  -6   -0.60   17.10
   4   8   6   16.70   12.40
  -4   8  -6    8.50   17.90
   4   8   6    7.10   13.10
   6  -8   6   54.79   18.10
  -6  -8  -6   39.30   21.00
  -6  -8  -6   91.69   20.10
   6   8   6   64.59   19.60
   6   8   6   23.40   15.60
  -6   8  -6   41.10   20.80
  -8  -8  -6   -6.30   22.10
  -8  -8  -6   39.60   28.30
   8  -8   6   10.60   19.90
   8   8   6   62.29   25.40
  -8   8  -6  -23.30   20.90
   8   8   6    2.80   17.10
 -10  -8  -6    5.40   25.50
  10  -8   6  -30.10   21.50
 -10  -8  -6  -16.90   36.10
  10   8   6   17.90   20.90
  10   8   6    0.70   27.00
 -10   8  -6  -20.30   25.70
 -12  -8  -6  -13.50   30.40
  12  -8   6   -5.20   28.70
 -12   8  -6   10.00   30.40
  12   8   6  -11.00   24.50
 -13  -9   6  -11.30   39.80
  13  -9  -6   21.10   35.50
  13  -9  -6   30.30   29.90
  13   9  -6  -18.00   27.40
  13   9  -6   51.29   36.20
 -13   9   6  131.19   48.50
  11  -9  -6   72.89   25.60
 -11  -9   6   79.69   37.40
  11  -9  -6   52.09   29.00
  11   9  -6   -0.20   22.90
  11   9  -6   40.10   25.90
 -11   9   6   24.90   36.60
   9  -9  -6    6.30   19.90
   9  -9  -6   76.49   22.90
  -9  -9   6   57.79   29.70
  -9   9   6   83.49   31.80
   9   9  -6   32.80   19.60
   9   9  -6   45.20   21.10
   7  -9  -6   45.40   18.50
   7  -9  -6   56.99   18.40
  -7  -9   6   77.79   22.60
   7  -9  -6   85.19   20.00
  -7   9   6   86.89   25.00
   7   9  -6   66.79   17.90
   7   9  -6   59.99   20.70
   5  -9  -6  140.29   21.70
  -5  -9   6  150.28   23.50
   5  -9  -6  182.18   24.70
   5   9  -6  104.39   23.70
  -5   9   6  224.08   27.10
   5   9  -6  146.19   21.60
   3  -9  -6 1462.75  107.09
   3   9  -6 1493.95  109.69
   3   9  -6 1534.65  106.29
   1  -9  -6 1014.60   77.49
   1  -9  -6 1012.40   74.29
   1   9  -6 1055.69   76.29
  -1  -9  -6   26.30   10.50
   1  -9   6   22.30   10.80
  -1  -9  -6   48.90   15.10
  -1  -9  -6   15.70   13.70
   1   9   6   17.50   11.30
  -1   9  -6   10.90   10.00
  -3  -9  -6  108.49   20.40
  -3  -9  -6  143.49   22.10
   3  -9   6  118.29   18.60
  -3   9  -6  125.29   22.90
   3   9   6   92.69   17.30
   3   9   6  138.29   19.90
   5  -9   6    4.70   14.90
  -5  -9  -6   22.10   16.50
  -5  -9  -6   -4.10   18.40
  -5   9  -6  -30.30   17.30
   5   9   6    0.50   12.60
   5   9   6   15.10   14.80
  -7  -9  -6   38.40   22.60
   7  -9   6   42.80   20.40
  -7  -9  -6   60.59   23.60
   7   9   6   31.60   17.70
   7   9   6   -0.90   20.80
  -7   9  -6   27.60   22.90
  -9  -9  -6    0.90   31.90
  -9  -9  -6   54.69   27.60
   9  -9   6   48.50   23.60
   9   9   6   21.80   26.40
  -9   9  -6    4.20   24.40
   9   9   6   19.00   18.40
  11  -9   6   49.20   28.80
 -11  -9  -6    0.00   30.20
  11   9   6  -23.10   20.70
 -11   9  -6   11.20   27.90
  11   9   6   29.00   42.30
 -12 -10   6  -12.20   38.40
  12 -10  -6   -8.80   22.80
  12 -10  -6    1.70   31.10
  12  10  -6  -27.70   26.50
  12  10  -6    8.30   25.60
 -12  10   6  -25.10   36.70
 -10 -10   6   56.39   33.00
  10 -10  -6   77.59   27.90
  10 -10  -6   74.89   24.10
  10  10  -6   33.90   22.50
 -10  10   6   55.49   33.70
  10  10  -6   43.80   23.70
  -8 -10   6  262.37   38.70
   8 -10  -6  319.07   30.90
   8 -10  -6  214.78   32.60
   8 -10  -6  223.98   34.20
   8  10  -6  268.87   38.00
   8  10  -6  189.68   30.80
  -8  10   6  292.77   41.70
   6 -10  -6  411.46   39.60
  -6 -10   6  410.96   40.70
   6 -10  -6  477.35   40.40
  -6 -10   6  388.36   33.70
   6  10  -6  419.96   42.30
   6  10  -6  484.35   39.70
  -6  10   6  442.36   41.70
   4 -10  -6   11.60   13.90
  -4 -10   6   46.00   16.40
   4  10  -6   16.20   12.20
  -4  10   6    5.80   17.00
   4  10  -6   11.00   14.70
   2 -10  -6 3387.66  236.98
   2  10  -6 3460.15  239.28
   0 -10  -6  435.76   40.40
   0 -10  -6  438.76   36.20
   0  10   6  454.65   37.10
   0  10  -6  463.45   37.80
  -2 -10  -6   51.49   17.60
   2 -10   6   41.70   13.10
  -2 -10  -6   67.89   13.60
  -2 -10  -6   30.40   15.50
   2  10   6   88.59   15.00
  -2  10  -6   30.90   18.00
  -2  10  -6   83.49   14.80
   4 -10   6    3.80   13.80
  -4 -10  -6   12.20   17.20
  -4 -10  -6   15.50   16.40
   4  10   6   32.80   16.70
  -4  10  -6  -19.50   16.70
   4  10   6   -1.30   12.80
   6 -10   6   22.80   18.30
  -6 -10  -6   87.39   24.20
  -6 -10  -6   83.99   22.80
   6  10   6   38.40   17.50
   6  10   6   65.49   21.90
  -6  10  -6   77.89   25.00
   8 -10   6   -6.50   18.30
  -8 -10  -6  -15.70   27.50
  -8 -10  -6   -5.10   23.00
   8  10   6    1.80   23.50
  -8  10  -6   31.90   22.50
   8  10   6   -0.10   17.30
  10 -10   6   14.10   24.20
 -10 -10  -6   -2.60   26.30
 -10 -10  -6   14.20   38.90
  10  10   6    3.50   21.40
 -10  10  -6   -2.00   25.70
  10  10   6   27.10   31.30
  12 -10   6   14.70   30.00
 -12 -10  -6   11.60   33.70
  12  10   6  -21.30   24.80
 -12  10  -6   12.70   29.80
  13 -11  -6   27.30   27.50
 -13 -11   6   30.70   45.70
 -13  11   6   48.10   50.39
  13  11  -6    8.00   31.80
  13  11  -6   16.80   30.60
  11 -11  -6    0.40   27.20
 -11 -11   6   50.49   37.70
  11 -11  -6   -5.30   22.70
  11  11  -6   15.70   24.40
 -11  11   6   -0.50   36.20
  11  11  -6   12.40   24.30
  -9 -11   6  -33.00   24.00
   9 -11  -6   36.70   22.90
   9  11  -6   -6.70   20.30
  -9  11   6   40.70   30.50
   9  11  -6   14.70   20.10
  -7 -11   6  149.59   31.00
   7 -11  -6  168.38   25.40
   7 -11  -6   66.79   20.50
   7  11  -6  104.19   25.60
  -7  11   6  129.79   28.90
   7  11  -6   96.39   22.60
   5 -11  -6   41.50   18.80
  -5 -11   6   54.69   19.10
   5 -11  -6   53.39   16.00
   5  11  -6   38.20   15.70
  -5  11   6   57.39   20.00
   5  11  -6   37.60   19.00
   3 -11  -6  878.81   64.09
   3  11  -6  804.62   66.59
   1 -11  -6  902.41   65.89
   1  11  -6  868.01   67.49
  -1 -11  -6    5.60   10.20
  -1 -11  -6   -3.80   12.80
   1 -11   6   -2.90    9.90
   1  11   6   11.60   10.70
  -3 -11  -6  766.92   62.49
  -3 -11  -6  877.11   62.59
   3 -11   6  726.23   59.49
   3  11   6  767.42   59.79
   3  11   6  778.12   60.89
  -3  11  -6  720.23   61.79
  -5 -11  -6   23.60   17.30
   5 -11   6   26.40   16.30
  -5 -11  -6   55.49   21.10
   5  11   6   54.79   17.40
  -5  11  -6    6.70   19.20
   5  11   6  -16.30   12.70
  -7 -11  -6    0.40   23.20
  -7 -11  -6  -24.90   20.30
   7 -11   6   35.60   20.80
   7  11   6   14.50   21.90
  -7  11  -6   15.60   22.50
   7  11   6    6.10   17.90
  -9 -11  -6  -20.70   25.00
   9 -11   6   38.40   22.40
  -9 -11  -6   66.99   33.40
   9  11   6    5.70   20.70
   9  11   6   43.10   28.20
  -9  11  -6    7.10   25.90
 -11 -11  -6   -9.90   25.90
  11 -11   6   -7.80   27.50
 -11  11  -6   38.40   31.30
  11  11   6  -27.30   23.00
  11  11   6  -23.10   34.50
  12 -12  -6  -19.10   25.00
 -12 -12   6   54.09   40.00
  12  12  -6   48.40   30.00
  12  12  -6   10.10   26.40
 -12  12   6   10.30   43.40
  10 -12  -6   13.90   23.80
 -10 -12   6   21.50   30.80
 -10  12   6   42.80   35.60
  10  12  -6   13.20   22.90
  10  12  -6   34.10   24.70
   8 -12  -6  125.39   25.50
   8 -12  -6   77.69   23.80
  -8 -12   6  179.78   35.30
  -8  12   6   83.79   30.00
   8  12  -6   94.29   24.00
   8  12  -6   85.39   25.90
  -6 -12   6  246.08   33.80
   6 -12  -6  302.37   33.60
   6 -12  -6  231.38   30.60
  -6  12   6  286.47   35.90
   6  12  -6  296.47   32.60
   6  12  -6  169.38   31.10
  -4 -12   6  -11.80   14.20
   4 -12  -6    3.50   12.60
   4  12  -6    1.70   13.40
   4  12  -6   10.60   12.00
   2 -12  -6   38.40   13.30
   2  12  -6   67.79   17.30
   0 -12  -6   62.79   13.50
   0 -12  -6   37.80   15.10
   0  12  -6   29.70   13.70
  -2 -12  -6  242.48   30.40
  -2 -12  -6  216.58   25.70
   2 -12   6  233.68   26.40
  -2 -12  -6  218.88   29.80
  -2  12  -6  227.88   26.50
   2  12   6  261.47   28.00
  -4 -12  -6   52.19   18.60
   4 -12   6   14.70   15.80
  -4 -12  -6   36.60   17.10
  -4  12  -6   25.30   18.40
   4  12   6   38.70   16.20
   4  12   6   11.20   13.50
   6 -12   6   80.99   22.80
  -6 -12  -6  135.59   28.30
  -6 -12  -6  147.79   28.90
   6  12   6  122.19   24.90
  -6  12  -6  125.59   29.40
   6  12   6   57.49   19.70
  -8 -12  -6    9.80   27.60
  -8 -12  -6   -1.80   24.30
   8 -12   6   14.20   20.80
  -8  12  -6   47.00   27.70
   8  12   6   37.20   26.50
   8  12   6    2.10   19.10
  10 -12   6   54.39   27.00
 -10 -12  -6  -18.00   26.30
  10  12   6   61.69   34.00
 -10  12  -6    6.90   28.90
  10  12   6  -14.40   21.40
  12 -12   6   36.80   33.80
 -12 -12  -6  -31.20   28.70
  12  12   6  -38.00   25.00
 -12  12  -6   25.30   34.90
  11 -13  -6   40.30   25.50
 -11 -13   6   61.29   37.50
  11  13  -6   50.39   27.40
 -11  13   6   11.20   40.50
  11  13  -6    0.00   23.70
  -9 -13   6   42.40   29.30
   9 -13  -6   22.80   21.50
   9  13  -6    6.20   19.50
   9  13  -6  -18.80   20.90
  -9  13   6   23.70   31.20
   7 -13  -6  103.29   26.00
  -7 -13   6  150.48   30.20
   7 -13  -6   80.29   20.80
   7  13  -6   62.19   20.80
   7  13  -6   83.79   23.10
  -7  13   6   59.59   28.90
   5 -13  -6   82.09   18.80
  -5 -13   6   46.60   20.80
   5  13  -6   80.49   18.70
   5  13  -6   39.60   19.70
   3 -13  -6   22.20   13.60
   3  13  -6    1.20   12.90
   1 -13  -6   61.89   15.20
   1  13  -6  101.09   19.60
   1 -13   6   48.90   14.50
  -1 -13  -6   76.79   18.80
  -1 -13  -6   73.19   15.00
  -1  13  -6   45.70   15.10
   1  13   6   43.80   14.40
  -3 -13  -6  222.08   31.50
   3 -13   6  185.88   26.40
  -3 -13  -6  269.67   25.70
  -3 -13  -6  191.78   29.20
   3  13   6  211.38   27.10
   3  13   6  203.08   28.80
  -3  13  -6  241.58   33.30
  -5 -13  -6  -12.60   17.80
   5 -13   6    3.70   15.90
  -5 -13  -6   -0.30   19.10
   5  13   6    4.00   14.60
  -5  13  -6   -7.50   17.70
   5  13   6    1.90   16.50
  -7 -13  -6   33.90   26.40
  -7 -13  -6   76.29   28.10
   7 -13   6   14.60   21.10
   7  13   6   18.80   17.70
  -7  13  -6   50.79   28.20
   7  13   6   76.09   27.20
  -9 -13  -6   11.00   37.40
   9 -13   6   36.10   23.20
  -9 -13  -6    2.10   26.20
  -9  13  -6   12.70   26.70
   9  13   6  -33.00   20.10
   9  13   6   15.60   29.80
  11 -13   6  -33.70   25.80
 -11 -13  -6   15.90   30.20
  11  13   6  -22.70   33.70
 -11  13  -6  -12.10   30.20
  11  13   6  -28.10   22.60
 -12 -14   6   -5.30   40.00
  12 -14  -6    9.60   28.00
  12  14  -6  -30.40   29.10
  12  14  -6   63.49   33.50
 -12  14   6  114.49   48.30
  10 -14  -6   -5.40   22.00
 -10 -14   6   12.00   30.30
  10  14  -6    3.20   25.90
  10  14  -6   18.50   23.00
 -10  14   6   22.80   35.90
   8 -14  -6   11.20   21.60
  -8 -14   6   16.60   25.20
   8 -14  -6    9.80   17.90
   8  14  -6  -19.80   18.00
   8  14  -6    0.40   17.80
  -8  14   6    7.30   28.90
  -6 -14   6  325.17   41.00
   6 -14  -6  306.77   38.00
  -6  14   6  458.05   45.20
   6  14  -6  262.27   39.70
   6  14  -6  374.16   36.60
   4 -14  -6   32.40   14.80
  -4 -14   6   22.60   18.40
   4  14  -6   16.80   14.30
   4  14  -6   10.30   17.00
   2 -14  -6   64.49   15.50
   2  14  -6   71.69   18.10
   0 -14   6    2.80   10.30
   0 -14  -6   -7.50   11.10
   0  14  -6   -0.90   13.90
  -2 -14  -6   45.50   17.90
   2 -14   6   37.90   15.00
  -2 -14  -6   57.79   14.90
  -2 -14  -6   58.39   19.40
   2  14   6   55.39   16.10
  -2  14  -6   51.79   15.70
  -4 -14  -6   24.80   19.00
   4 -14   6   -6.90   15.50
  -4 -14  -6   31.10   17.80
  -4  14  -6   83.49   22.60
   4  14   6    3.20   15.00
   4  14   6   33.80   17.50
   6 -14   6  -12.60   17.20
  -6 -14  -6   59.29   25.00
  -6 -14  -6   26.10   23.80
  -6  14  -6   37.70   22.40
   6  14   6   61.99   22.10
   6  14   6    7.80   18.00
  -8 -14  -6   27.30   29.60
  -8 -14  -6  -18.90   25.10
   8 -14   6   19.00   24.00
  -8  14  -6  -45.20   24.50
   8  14   6   26.90   26.90
   8  14   6   21.30   20.80
  10 -14   6  -24.20   23.70
 -10 -14  -6   36.30   32.90
 -10  14  -6   24.30   30.30
  10  14   6  -41.40   30.70
  10  14   6   27.80   25.30
  11 -15  -6   -9.10   24.30
 -11 -15   6  -20.60   34.40
  11  15  -6   10.30   25.60
 -11  15   6   10.60   41.10
  11  15  -6  -29.90   23.10
  -9 -15   6    8.50   30.80
   9 -15  -6  -23.60   19.00
   9  15  -6   13.10   22.70
  -9  15   6   40.80   33.50
   9  15  -6    1.10   25.60
  -7 -15   6   62.29   25.10
   7 -15  -6   89.39   25.70
   7 -15  -6   28.70   18.90
  -7  15   6  105.89   29.00
   7  15  -6   49.50   20.90
   7  15  -6   37.40   21.30
  -5 -15   6  209.38   32.30
   5 -15  -6  119.89   23.50
   5  15  -6  130.79   23.40
   5  15  -6  173.48   30.50
   3 -15  -6  496.95   42.70
   3  15  -6  477.35   45.60
   1 -15  -6   63.29   15.90
   1  15  -6   68.59   18.80
  -1 -15  -6   21.10   15.90
  -1 -15  -6   33.90   13.50
   1 -15   6   14.30   13.30
   1  15   6   12.40   13.30
  -1  15  -6   13.40   14.80
  -3 -15  -6   17.30   13.00
   3 -15   6  -16.00   13.10
  -3 -15  -6   32.90   18.00
  -3 -15  -6  -17.20   17.80
   3  15   6   -3.90   13.80
   3  15   6    5.70   15.10
  -5 -15  -6   40.40   21.90
   5 -15   6  125.19   25.60
  -5 -15  -6  172.98   29.30
   5  15   6  135.99   26.00
   5  15   6   86.39   22.00
  -5  15  -6  133.69   27.80
   7 -15   6  -11.40   21.70
  -7 -15  -6   34.10   27.80
  -7 -15  -6   22.50   26.60
   7  15   6   27.60   20.60
  -7  15  -6   13.50   23.50
   7  15   6   13.70   25.50
  -9 -15  -6   72.39   36.40
  -9 -15  -6   64.99   31.20
   9 -15   6   34.70   27.40
  -9  15  -6   -1.40   28.20
   9  15   6   57.59   32.70
   9  15   6   32.70   24.30
  11 -15   6    9.40   30.80
 -11 -15  -6    8.80   32.30
 -11  15  -6   11.70   33.00
  11  15   6  -18.40   25.10
  11  15   6   77.19   38.80
 -12 -16   6  -48.80   39.90
  12 -16  -6    5.70   28.50
 -12  16   6   12.40   46.30
  12  16  -6  -24.00   27.90
  12  16  -6  -16.20   29.50
  10 -16  -6   62.79   26.20
 -10 -16   6   43.10   34.50
  10  16  -6    4.90   26.60
  10  16  -6   -7.80   24.10
 -10  16   6   -2.00   35.90
  -8 -16   6   25.60   27.00
   8 -16  -6   48.10   21.80
   8 -16  -6  102.19   30.60
   8  16  -6   55.39   26.20
   8  16  -6   20.10   21.60
  -8  16   6   81.59   32.90
   6 -16  -6   84.29   22.50
  -6 -16   6   88.59   27.40
   6  16  -6  107.39   23.30
   6  16  -6   80.59   25.60
   4 -16  -6   73.49   19.80
   4  16  -6   75.19   21.70
   2 -16  -6   26.40   14.30
   2  16  -6   14.40   14.90
   0 -16   6   21.70   13.80
   0 -16  -6   46.40   15.30
   0  16  -6   30.50   17.20
   2 -16   6    2.30   13.80
  -2 -16  -6   17.50   13.90
  -2 -16  -6   12.70   16.50
  -2 -16  -6  -21.40   15.00
   2  16   6  -14.70   12.10
  -2  16  -6    5.90   14.90
  -4 -16  -6  141.19   28.60
  -4 -16  -6  152.28   28.60
   4 -16   6  110.39   24.10
  -4  16  -6  119.29   27.90
   4  16   6  129.89   24.00
   4  16   6  167.98   29.10
   6 -16   6   45.30   22.80
  -6 -16  -6   94.99   29.50
  -6 -16  -6   28.20   22.60
   6  16   6   68.09   24.10
  -6  16  -6   61.09   26.30
   6  16   6   40.30   19.40
  -8 -16  -6  153.18   36.30
   8 -16   6   61.19   28.40
  -8 -16  -6   24.70   31.30
  -8  16  -6   26.80   26.70
   8  16   6   21.00   21.70
   8  16   6   19.70   28.50
 -10 -16  -6  -23.40   29.30
  10 -16   6   16.50   27.70
  10  16   6   -5.60   34.70
 -10  16  -6   -5.00   30.20
  10  16   6    1.80   24.80
 -11 -17   6   17.90   38.70
  11 -17  -6   13.80   26.80
  11  17  -6   10.00   30.90
 -11  17   6   -9.60   42.30
  11  17  -6   28.80   28.00
  -9 -17   6  -15.80   29.30
   9 -17  -6   18.50   20.80
  -9  17   6  -17.60   31.10
   9  17  -6  -10.20   23.60
   9  17  -6   37.70   25.50
   7 -17  -6   34.20   19.70
  -7 -17   6   49.10   27.50
   7  17  -6   75.09   24.20
   7  17  -6   54.89   24.10
  -5 -17   6   29.70   22.00
   5 -17  -6   27.50   17.30
   5  17  -6   15.30   16.30
   5  17  -6    6.20   17.60
   3 -17  -6   79.49   19.70
   3  17  -6   72.89   21.40
   1 -17  -6  255.87   30.20
   1  17  -6  226.08   32.40
   1 -17   6   -1.70   13.60
  -1 -17  -6   11.60   15.50
  -1 -17  -6   -9.30   12.60
  -1  17  -6   20.90   18.50
  -3 -17  -6  158.38   26.30
  -3 -17  -6  233.38   32.30
  -3 -17  -6  189.98   31.20
   3 -17   6  161.88   26.70
   3  17   6  150.78   25.70
   3  17   6  213.68   31.30
   5 -17   6  -41.30   17.10
  -5 -17  -6   13.00   20.50
  -5 -17  -6    5.40   21.50
   5  17   6   36.10   24.10
   5  17   6  -14.60   17.10
  -5  17  -6    4.60   22.30
   7 -17   6   54.09   26.00
  -7 -17  -6   30.40   27.90
  -7 -17  -6   43.00   30.90
  -7  17  -6   17.60   25.90
   7  17   6    4.00   25.50
   7  17   6   12.60   20.80
  -9 -17  -6   92.19   38.70
  -9 -17  -6   17.10   31.30
   9 -17   6   23.60   27.80
   9  17   6    3.70   24.50
   9  17   6   89.99   34.80
  -9  17  -6  -16.40   27.00
  11 -17   6   24.60   30.30
 -11 -17  -6    3.20   33.60
  11  17   6   33.90   30.00
 -11  17  -6    9.60   32.00
  11  17   6   22.40   40.60
 -10 -18   6   18.70   35.80
  10 -18  -6  -18.60   22.10
 -10  18   6    7.20   41.00
  10  18  -6  -16.80   24.70
  10  18  -6   20.90   27.40
  -8 -18   6   49.50   31.50
   8 -18  -6    3.40   20.70
   8  18  -6   -2.60   20.50
   8  18  -6   31.70   24.90
  -8  18   6  -40.00   28.30
   6 -18  -6    6.00   18.70
  -6 -18   6   26.30   24.80
   6  18  -6   79.29   21.90
   6  18  -6   56.49   25.40
   4 -18  -6   -9.60   15.10
   4  18  -6   13.40   19.10
   2 -18  -6   -3.50   12.80
   2  18  -6   24.00   17.40
   0 -18  -6   15.70   13.90
   0 -18   6    3.60   14.10
   0  18  -6  -14.70   16.10
  -2 -18  -6  147.19   24.60
  -2 -18  -6  138.49   28.00
   2 -18   6  135.49   24.20
  -2  18  -6  167.68   27.00
   2  18   6  120.49   23.80
  -4 -18  -6   16.10   21.10
  -4 -18  -6  -14.80   14.20
   4 -18   6    9.00   18.10
  -4 -18  -6   14.60   20.40
   4  18   6   25.80   20.10
   4  18   6    5.60   16.50
   6 -18   6   42.00   24.60
  -6 -18  -6   33.40   26.70
  -6 -18  -6   56.09   28.90
   6  18   6   91.29   27.50
   6  18   6   -6.90   18.20
  -6  18  -6   59.49   24.10
  -8 -18  -6   60.39   33.90
  -8 -18  -6   32.20   31.90
   8 -18   6   59.29   29.50
  -8  18  -6   36.20   29.30
   8  18   6   29.30   23.70
   8  18   6   69.49   34.00
  10 -18   6  -23.80   26.90
 -10 -18  -6    3.70   31.90
  10  18   6   -9.50   33.90
  10  18   6    2.70   26.50
 -10  18  -6  -40.00   30.90
  11 -19  -6   50.49   28.70
 -11 -19   6  -28.70   38.70
 -11  19   6   54.39   45.60
  11  19  -6    7.30   33.00
  11  19  -6   20.90   30.10
   9 -19  -6   10.90   21.40
  -9 -19   6  -49.70   32.40
   9  19  -6   24.30   26.60
   9  19  -6   19.80   26.30
  -9  19   6   22.50   35.30
   7 -19  -6   -2.90   20.50
  -7 -19   6  -30.30   24.40
   7  19  -6   -5.30   20.10
   7  19  -6   42.60   24.40
  -5 -19   6  120.29   30.90
   5 -19  -6  163.78   27.40
   5  19  -6   89.09   27.80
   3 -19  -6  181.68   27.50
   3  19  -6  146.99   28.70
   1 -19  -6   92.49   20.20
  -1 -19   6   60.89   19.50
   1  19  -6  103.29   25.80
  -1 -19  -6    8.50   14.20
   1 -19   6   -5.00   14.60
  -1 -19  -6   -6.90   15.50
  -1  19  -6    1.40   17.80
  -3 -19  -6  103.19   24.40
  -3 -19  -6  138.89   29.50
  -3 -19  -6  164.28   31.10
   3 -19   6  126.79   25.30
   3  19   6  183.08   31.70
   3  19   6  157.48   26.40
  -3  19  -6  149.09   28.30
   5 -19   6   37.80   24.20
  -5 -19  -6   54.89   27.20
  -5 -19  -6   46.40   26.40
   5  19   6   25.10   20.50
   5  19   6   52.59   25.60
   7 -19   6   32.50   26.90
  -7 -19  -6   68.69   33.50
  -7 -19  -6   29.60   26.00
   7  19   6   34.90   23.40
  -7  19  -6    4.80   26.20
   7  19   6  107.49   32.20
   9 -19   6   54.69   31.80
  -9 -19  -6   16.00   32.10
   9  19   6   37.00   24.80
  -9  19  -6  -21.00   29.10
   9  19   6    2.20   34.00
 -10 -20   6   32.40   39.10
  10 -20  -6   -0.80   24.10
  10  20  -6   42.10   28.60
 -10  20   6   -4.90   40.60
  10  20  -6  -30.00   26.80
  -8 -20   6   59.09   35.20
   8 -20  -6   34.00   22.60
   8  20  -6   80.29   28.00
   8  20  -6   39.60   25.60
  -6 -20   6   20.00   28.20
   6 -20  -6   26.40   20.90
   6  20  -6   69.69   26.70
   4 -20  -6   97.79   23.00
   4  20  -6  166.68   32.20
   2 -20  -6   21.70   16.20
   2  20  -6  -19.40   17.20
   0 -20   6   48.10   19.30
   0 -20  -6   53.49   19.00
   0  20  -6   51.19   23.30
  -2 -20  -6  -16.60   14.40
   2 -20   6    7.20   16.80
  -2 -20  -6  -17.30   17.00
  -2  20  -6   -7.70   18.70
   2  20   6   21.80   21.20
  -4 -20  -6   23.60   20.20
  -4 -20  -6   58.29   27.20
   4 -20   6   19.70   19.50
  -4 -20  -6   20.70   23.50
   4  20   6   73.99   27.70
   4  20   6    9.70   17.40
  -6 -20  -6   14.90   27.20
   6 -20   6    4.30   23.40
  -6 -20  -6    0.80   23.10
  -6  20  -6   39.60   26.90
   6  20   6   32.10   22.40
   6  20   6   -1.20   23.80
   8 -20   6   60.89   32.20
  -8 -20  -6   42.70   31.40
  -8 -20  -6   53.59   39.30
   8  20   6   29.00   24.30
  -8  20  -6   27.60   28.30
   8  20   6   54.19   35.60
  10 -20   6  -15.50   30.30
 -10 -20  -6  -69.79   28.80
  10  20   6  -61.49   34.60
  10  20   6  -21.20   24.40
 -10  20  -6   -7.30   34.00
  -9 -21   6  -53.19   29.40
   9 -21  -6  -11.90   22.10
   9  21  -6   16.80   31.70
   9  21  -6   -7.70   26.30
  -7 -21   6   48.00   31.00
   7 -21  -6    4.50   21.60
   7  21  -6   69.89   26.30
   7  21  -6   53.79   29.00
   5 -21  -6  -35.90   16.60
  -5 -21   6   20.20   25.90
   5  21  -6   48.20   23.40
   3 -21  -6   73.89   21.00
   3  21  -6   97.29   27.60
   1 -21  -6   47.10   18.00
  -1 -21   6   54.39   20.00
   1  21  -6   36.00   24.30
  -1 -21  -6    4.80   16.50
   1 -21   6   -0.70   17.50
  -1 -21  -6  -14.50   16.70
  -1  21  -6   29.30   22.50
  -3 -21  -6   34.60   25.20
   3 -21   6   11.10   18.90
  -3 -21  -6   20.00   19.00
  -3 -21  -6   24.00   24.00
   3  21   6   16.60   18.20
  -3  21  -6   71.19   28.30
   3  21   6   48.60   25.20
  -5 -21  -6   62.69   29.60
   5 -21   6    6.20   23.80
  -5 -21  -6   23.70   25.10
  -5 -21  -6    3.80   18.90
   5  21   6   30.50   26.80
   5  21   6    2.30   18.90
  -7 -21  -6   16.00   27.50
   7 -21   6    7.00   25.50
  -7 -21  -6  -40.50   33.20
   7  21   6    0.90   26.80
  -7  21  -6    8.20   29.90
   7  21   6   -2.30   21.10
  -9 -21  -6   41.00   34.70
   9 -21   6  -18.10   32.10
   9  21   6   89.09   39.00
  -9  21  -6    5.50   29.30
   9  21   6    6.30   24.90
  10 -22  -6   -4.30   24.10
 -10 -22   6   50.39   42.50
  10  22  -6    7.00   29.00
  10  22  -6   35.40   33.80
   8 -22  -6   -9.60   22.90
  -8 -22   6   61.69   33.60
   8  22  -6  -39.40   24.10
   8  22  -6  -15.90   24.00
  -6 -22   6   48.00   32.40
   6 -22  -6   24.40   22.20
   6  22  -6   35.30   26.10
   4 -22  -6    4.80   18.40
   4  22  -6  -28.70   20.60
   2 -22  -6   12.90   16.20
  -2 -22   6   41.90   18.50
   2  22  -6   -8.00   20.80
   0 -22  -6  -21.50   16.00
   0 -22   6  -48.70   15.10
   0  22  -6   31.50   26.20
  -2 -22  -6  137.49   31.50
  -2 -22  -6  106.69   25.90
   2 -22   6  105.89   26.10
   2  22   6  119.49   30.40
  -2  22  -6  148.99   32.90
  -4 -22  -6   87.79   31.80
  -4 -22  -6   30.20   27.90
   4 -22   6    8.60   20.90
  -4 -22  -6  139.29   28.40
   4  22   6   47.00   25.70
   4  22   6   65.89   22.00
   6 -22   6   21.00   24.30
  -6 -22  -6   18.00   23.10
  -6 -22  -6    6.10   26.80
  -6 -22  -6   65.69   32.90
   6  22   6    2.20   24.30
   6  22   6   -7.70   18.70
   8 -22   6   19.50   31.00
  -8 -22  -6   88.49   41.50
  -8 -22  -6   67.89   36.80
  -8  22  -6  -30.20   29.20
   8  22   6   65.49   37.70
   8  22   6  -12.10   23.60
   9 -23  -6  -14.80   25.30
  -9 -23   6  -22.30   35.30
   9  23  -6  -29.80   26.80
   9  23  -6    2.90   27.70
  -7 -23   6  -14.10   30.20
   7 -23  -6   26.90   23.80
   7  23  -6   36.50   28.20
  -5 -23   6   11.00   29.00
   5 -23  -6  -25.10   18.70
   5  23  -6   24.50   27.10
   3 -23  -6  166.18   29.30
   3  23  -6  151.48   34.60
   1 -23  -6  109.99   25.00
  -1 -23   6  115.39   26.60
   1  23  -6  124.19   30.60
   1 -23   6   -4.80   17.10
  -1 -23  -6  -18.10   15.60
  -1 -23  -6   10.90   19.70
  -1  23  -6   18.50   24.20
   3 -23   6  131.09   30.30
  -3 -23  -6  193.98   32.10
  -3 -23  -6  251.77   42.40
  -3 -23  -6  202.58   38.00
   3  23   6  242.08   38.80
  -3  23  -6  198.88   36.60
  -5 -23  -6   33.50   29.90
  -5 -23  -6   30.00   24.20
   5 -23   6    8.10   23.20
  -5 -23  -6   65.09   28.60
   5  23   6    7.60   25.60
   5  23   6   45.80   21.90
  -7 -23  -6   10.10   38.40
   7 -23   6   54.09   29.10
  -7 -23  -6   13.60   32.30
   7  23   6  -20.00   21.60
   7  23   6   11.30   31.20
  -8 -24   6  -18.00   31.20
   8 -24  -6   20.30   26.40
   8  24  -6   14.90   28.90
   6 -24  -6   80.89   26.30
  -6 -24   6  164.48   41.60
   6  24  -6   70.79   32.10
   4 -24  -6  -23.80   17.10
   4  24  -6   -9.30   23.70
   2 -24  -6    1.10   17.40
  -2 -24   6    9.30   16.80
   2  24  -6   26.60   24.70
   0 -24  -6   -1.50   17.10
   0 -24   6   -5.80   18.40
   0  24  -6   18.30   25.10
  -2 -24  -6  -12.60   17.50
   2 -24   6    7.20   20.90
  -2 -24  -6  -21.60   21.30
   2  24   6   -8.50   21.90
  -2  24  -6  -19.90   24.00
  -4 -24  -6    4.00   28.30
  -4 -24  -6  -26.40   26.00
   4 -24   6   36.30   23.20
  -4 -24  -6   18.70   21.40
   4  24   6   30.30   21.20
   4  24   6   23.50   24.60
  -4  24  -6   48.70   30.10
  -6 -24  -6   23.50   24.50
   6 -24   6  -27.40   24.80
  -6 -24  -6  -16.90   26.30
  -6 -24  -6   24.50   34.70
   6  24   6  -35.40   25.40
   6  24   6   -4.10   21.00
  -8 -24  -6  -13.50   41.60
  -8 -24  -6   12.70   36.60
   8 -24   6  -17.70   30.10
   8  24   6   36.50   27.80
   8  24   6   41.60   39.70
  -7 -25   6   50.09   37.50
   7 -25  -6    5.70   25.20
   7  25  -6   11.80   31.30
   5 -25  -6   17.60   22.90
  -5 -25   6  -15.80   31.50
   5  25  -6  -17.80   26.00
  -3 -25   6  139.79   29.90
   3 -25  -6  183.08   32.10
   3  25  -6  224.08   38.70
  -1 -25   6   38.20   23.80
   1 -25  -6   69.59   22.90
   1  25  -6  107.49   33.20
   1 -25   6   -1.40   19.50
  -1 -25  -6   17.90   22.90
  -1 -25  -6   -4.40   18.40
  -1  25  -6    7.20   26.50
  -3 -25  -6   15.90   26.40
  -3 -25  -6   39.90   29.40
   3 -25   6   14.40   22.40
  -3 -25  -6   23.70   22.40
  -3  25  -6   59.49   31.60
   3  25   6   74.89   31.20
   5 -25   6  -21.20   23.80
  -5 -25  -6  -10.40   29.00
  -5 -25  -6   25.40   26.10
  -5 -25  -6   -9.00   32.00
   5  25   6    7.70   23.90
   5  25   6   -4.00   26.90
  -7 -25  -6    3.10   39.70
  -7 -25  -6  -10.20   31.70
  -7 -25  -6    5.50   26.60
   7 -25   6   -7.50   29.00
   7  25   6   -6.20   24.20
   7  25   6   59.99   34.50
  -8 -26   6   27.50   40.90
   8 -26  -6    6.00   29.10
   8  26  -6   37.90   37.60
  -6 -26   6   37.80   38.10
   6 -26  -6   28.40   24.70
   6  26  -6    0.00   28.80
   4 -26  -6   21.50   21.00
   4  26  -6   31.80   27.30
   2 -26  -6   40.00   21.10
  -2 -26   6   11.70   22.20
   2  26  -6   52.59   29.60
   0 -26   6   -5.70   20.10
   0 -26  -6   21.60   19.60
   0  26  -6   18.10   27.30
  -2 -26  -6   23.50   21.70
  -2 -26  -6   34.10   26.60
   2 -26   6   -4.40   20.30
   2  26   6    0.20   23.40
  -2  26  -6    5.40   28.50
  -4 -26  -6   -1.00   28.00
  -4 -26  -6   -2.10   22.50
  -4 -26  -6   29.00   32.20
   4 -26   6   28.50   25.60
   4  26   6   61.59   30.30
  -4  26  -6    1.10   29.60
  -6 -26  -6  -19.70   26.20
  -6 -26  -6   -2.10   35.60
  -6 -26  -6   20.20   32.30
   6 -26   6   35.30   28.00
   6  26   6  -21.40   31.00
   6  26   6   24.10   25.70
  -7 -27   6   44.70   40.80
   7 -27  -6   14.90   27.00
   7  27  -6   16.00   32.80
   5 -27  -6   20.50   24.60
  -5 -27   6   30.30   37.70
   5  27  -6    4.00   29.00
   3 -27  -6    4.10   20.10
  -3 -27   6   25.20   21.80
   3  27  -6   -4.00   25.20
  -1 -27   6   29.70   22.90
   1 -27  -6   -3.80   19.30
   1  27  -6  -38.20   25.20
  -1 -27  -6  -31.90   18.60
   1 -27   6   -5.50   20.80
  -1 -27  -6  -14.20   22.30
  -1  27  -6  -16.80   26.20
   1  27   6   27.00   27.30
  -3 -27  -6   16.60   23.50
   3 -27   6   16.10   24.30
  -3 -27  -6   22.70   29.00
  -3 -27  -6   54.09   30.00
   3  27   6  -18.80   27.70
  -3  27  -6   24.20   31.00
   5 -27   6  -19.90   24.50
  -5 -27  -6   19.60   36.40
  -5 -27  -6   -9.80   29.60
  -5 -27  -6  -12.90   25.20
   5  27   6  -13.00   27.60
   6 -28  -6   76.99   29.40
  -6 -28   6   67.39   43.00
   6  28  -6   63.49   37.70
   4 -28  -6   43.50   24.50
  -4 -28   6   -7.30   22.20
   4  28  -6   43.30   32.80
  -2 -28   6  -19.20   21.70
   2 -28  -6   45.60   23.60
   2  28  -6   77.59   32.10
   0 -28   6   -4.90   21.80
   0 -28  -6    8.80   21.50
   0  28  -6    1.40   31.60
   2 -28   6    9.30   22.80
  -2 -28  -6    7.20   26.60
  -2 -28  -6   -1.90   21.50
   2  28   6  -39.40   26.70
  -2  28  -6  -16.70   30.40
   4 -28   6    3.70   24.00
  -4 -28  -6   25.00   33.10
  -4 -28  -6   -8.40   24.60
  -4 -28  -6  -14.30   31.80
   4  28   6   19.50   29.90
  -4  28  -6   21.10   33.80
  -5 -29   6    4.70   40.00
   5 -29  -6   -9.00   23.60
  -5 -29   6   45.00   26.10
   5  29  -6  -44.80   29.40
   3 -29  -6   84.89   28.60
  -3 -29   6   68.19   28.90
   3  29  -6   71.39   34.30
   1 -29  -6   67.69   27.30
  -1 -29   6   55.59   28.40
   1  29  -6   43.50   34.00
   1 -29   6  -43.80   20.60
  -1 -29  -6    0.00   22.70
  -1 -29  -6  -25.30   24.30
  -1  29  -6   42.50   35.10
   1  29   6   -7.60   31.60
  -3 -29  -6   36.30   32.20
  -3 -29  -6   69.09   28.90
  -3 -29  -6   56.79   35.10
   3 -29   6   44.60   27.20
   3  29   6   47.10   32.80
  -3  29  -6   52.89   37.90
   4 -30  -6    1.50   23.20
  -4 -30   6    7.60   26.70
   4  30  -6   18.30   35.50
   2 -30  -6   84.19   27.80
  -2 -30   6   58.89   29.40
   2  30  -6   81.29   37.10
   0 -30   6  -30.50   23.10
   0 -30  -6   36.70   24.10
   0  30   6  -24.20   29.60
   0  30  -6   20.60   34.70
  -2 -30  -6    2.40   24.30
  -2 -30  -6   40.80   35.20
   2 -30   6   16.70   25.50
   2  30   6   36.90   32.70
  -2  30  -6  -19.90   32.10
  -1 -31   6    7.30   28.60
   1 -31  -6  -17.30   23.40
   1  31  -6  -57.49   28.90
  -1 -31  -6   -0.10   26.20
   1 -31   6   26.30   27.90
  -1 -31  -6   23.40   30.30
   1  31   6    2.70   32.40
  -1  31  -6    7.60   35.70
  12   0  -7   93.39   31.60
 -12   0   7  103.19   43.90
  12   0  -7  121.99   32.10
  10   0  -7   38.80   22.00
 -10   0   7   69.59   31.40
  10   0  -7   28.00   21.50
   8   0  -7   84.99   21.70
   8   0  -7   73.99   19.20
  -8   0   7  129.89   28.80
   6   0  -7  200.28   25.00
   6   0  -7  192.68   24.20
   6   0  -7  167.88   26.70
  -6   0   7  239.78   27.60
   4   0  -7  193.28   20.30
   4   0  -7  188.88   24.20
   4   0  -7  172.58   17.40
   4   0  -7  221.88   24.60
   2   0  -7  496.95   38.60
   2   0  -7  462.25   40.00
   2   0  -7  493.15   40.90
  -2   0   7  538.05   38.30
   0   0   7  476.45   34.50
   0   0  -7  434.56   37.50
   0   0  -7  443.76   38.20
   0   0  -7  478.15   35.30
  -2   0  -7   94.09   16.80
  -2   0  -7   81.89   17.00
  -2   0  -7  127.09   17.50
  -4   0  -7  189.38   26.70
  -4   0  -7  196.88   23.70
   4   0   7  228.18   23.60
  -4   0  -7  185.18   26.50
   8   0   7  154.98   29.10
   8   0   7  238.08   27.20
  -8   0  -7  201.98   35.10
  10   0   7   24.90   23.40
 -10   0  -7   56.29   29.10
  12   0   7  -13.80   25.90
 -12   0  -7   33.50   31.10
  13  -1  -7    0.10   28.70
 -13  -1   7   23.80   44.80
  13  -1  -7  -14.20   25.80
 -13   1   7   58.79   44.40
  13   1  -7   -5.50   29.50
  13   1  -7   30.80   28.30
  11  -1  -7   50.29   24.40
  11  -1  -7   69.69   25.10
 -11  -1   7   61.19   35.80
 -11   1   7   91.99   36.40
  11   1  -7   50.59   25.20
  11   1  -7   46.40   23.10
  -9  -1   7   10.70   26.90
   9  -1  -7    6.90   18.70
   9  -1  -7   21.90   18.80
   9   1  -7   29.30   18.60
   9   1  -7   42.00   19.70
  -9   1   7  115.39   32.40
   7  -1  -7   -1.90   14.20
   7  -1  -7   25.30   15.20
  -7  -1   7  -14.70   18.60
   7   1  -7   -1.40   13.40
  -7   1   7    6.70   19.80
   7   1  -7   -8.60   13.00
   5  -1  -7  284.27   25.40
   5  -1  -7  329.97   30.70
  -5  -1   7  325.77   29.70
   5  -1  -7  292.67   28.50
   5  -1  -7  270.37   30.60
   5   1  -7  287.17   30.60
   5   1  -7  316.67   28.30
   5   1  -7  323.17   30.60
  -5   1   7  318.27   30.00
   3  -1  -7  859.71   62.99
   3  -1  -7  878.31   60.49
  -3  -1   7  812.42   59.49
   3  -1  -7  847.42   62.89
   3   1  -7  781.02   62.79
   3   1  -7  854.21   62.99
  -3   1   7  769.02   59.89
   3   1  -7  851.01   59.59
   1  -1  -7  202.28   21.70
   1  -1  -7  260.37   22.90
  -1  -1   7  219.28   19.20
   1  -1  -7  233.08   24.40
  -1  -1   7  184.38   19.40
  -1   1   7  213.98   21.30
   1   1  -7  211.28   20.70
   1   1  -7  208.38   23.10
   1   1  -7  195.78   21.20
  -1   1   7  206.58   19.70
  -1  -1  -7  577.24   46.50
  -1  -1  -7  639.04   47.00
  -1   1  -7  578.34   46.30
  -1   1  -7  580.64   46.90
  -3  -1  -7  201.38   24.10
  -3  -1  -7  221.18   26.20
  -3  -1  -7  214.38   26.30
  -3   1  -7  200.08   26.60
  -3   1  -7  238.48   27.50
   3   1   7  201.98   21.20
  -3   1  -7  214.68   23.00
  -5  -1  -7   14.40   15.70
  -5  -1  -7   11.80   17.50
   5  -1   7   35.10   13.10
  -5  -1  -7   14.10   11.80
  -5   1  -7   -1.70   17.00
  -5   1  -7   24.20   16.60
  -5   1  -7   16.50   15.10
   5   1   7   12.20   12.00
  -7  -1  -7  140.89   18.80
  -7  -1  -7  211.98   31.40
  -7  -1  -7  117.29   25.80
   7  -1   7   72.29   20.90
   7   1   7   90.59   22.50
  -7   1  -7  237.18   24.40
  -7   1  -7  125.99   27.70
   7   1   7  171.38   21.10
  -9  -1  -7   36.90   27.30
   9  -1   7   22.80   21.20
   9   1   7   44.00   22.80
   9   1   7   16.60   22.70
  -9   1  -7   65.59   29.00
  11  -1   7    7.40   23.30
 -11  -1  -7   31.50   29.80
 -11   1  -7   29.10   29.60
  11   1   7    0.30   23.40
  13  -1   7   52.69   33.10
 -13  -1  -7   28.70   32.40
  13   1   7   13.00   29.60
 -13   1  -7  -21.60   28.90
  12  -2  -7   32.90   26.50
 -12  -2   7   85.49   44.10
  12  -2  -7   91.49   29.10
  12   2  -7   27.80   26.20
  12   2  -7   91.09   28.60
 -12   2   7   52.79   40.90
 -10  -2   7   10.90   29.60
  10  -2  -7   10.00   18.10
  10  -2  -7   -4.70   20.10
 -10   2   7   50.99   31.70
  10   2  -7  -25.20   18.70
  10   2  -7   12.60   20.30
  -8  -2   7  125.99   28.60
   8  -2  -7   36.80   17.90
   8  -2  -7   72.29   20.70
  -8   2   7   88.99   28.00
   8   2  -7   67.99   19.50
   8   2  -7  110.29   22.20
   6  -2  -7  141.19   23.60
   6  -2  -7  177.28   23.10
  -6  -2   7  178.58   25.60
   6  -2  -7  148.09   18.80
   6  -2  -7  141.89   21.30
  -6   2   7  222.48   26.50
   6   2  -7  178.18   22.40
   6   2  -7  142.69   23.40
   4  -2  -7  155.08   23.90
   4  -2  -7  217.48   21.10
   4  -2  -7  254.07   24.30
   4  -2  -7  208.98   21.40
  -4  -2   7  160.38   16.80
   4   2  -7  202.28   17.00
   4   2  -7  199.08   25.00
   4   2  -7  234.08   26.90
   4   2  -7  211.08   20.60
   2  -2  -7  315.37   28.10
  -2  -2   7  294.77   24.20
   2  -2  -7  287.17   27.30
   2  -2  -7  326.67   26.80
   2   2  -7  277.17   24.90
   2   2  -7  269.57   27.20
  -2   2   7  289.67   25.10
   2   2  -7  286.07   28.10
   0  -2   7   -0.10    6.10
   0  -2  -7    5.20   10.20
   0  -2  -7   16.90   11.00
   0   2  -7   15.50   11.30
   0   2  -7    7.70    7.60
   0   2   7    4.40    7.10
   0   2  -7   23.40   10.90
  -2  -2  -7  146.49   20.40
  -2  -2  -7  179.88   21.40
  -2  -2  -7  111.89   18.50
  -2   2  -7  150.38   20.70
  -2   2  -7  144.39   21.20
  -2   2  -7  182.68   22.10
  -4  -2  -7  118.69   21.20
   4  -2   7   95.29   16.90
  -4  -2  -7  120.99   20.00
  -4  -2  -7  131.59   23.10
  -4   2  -7  146.99   23.80
  -4   2  -7  165.48   24.80
   4   2   7  124.89   18.20
  -4   2  -7  182.38   21.90
   6  -2   7    2.50   14.80
  -6  -2  -7   90.69   21.70
  -6  -2  -7   89.69   21.10
  -6   2  -7  103.39   18.50
  -6   2  -7   45.10   19.70
   6   2   7    6.40   14.70
  -8  -2  -7  303.27   41.50
   8  -2   7  167.48   29.80
  -8  -2  -7  139.09   33.30
  -8   2  -7  167.58   34.10
   8   2   7  239.38   28.80
   8   2   7  180.98   28.80
 -10  -2  -7    6.20   25.10
  10  -2   7    6.60   21.80
 -10   2  -7   20.10   25.00
  10   2   7    6.60   22.20
 -12  -2  -7   30.70   32.80
  12  -2   7   32.20   28.70
  12   2   7   12.60   27.10
 -12   2  -7   35.50   31.20
  13  -3  -7    8.50   31.80
  13  -3  -7   -0.80   26.70
 -13  -3   7  -20.10   42.60
  13   3  -7    3.90   26.00
 -13   3   7   17.40   43.50
  13   3  -7   58.49   32.80
  11  -3  -7   25.00   22.90
  11  -3  -7   12.60   24.20
 -11  -3   7   65.39   35.30
  11   3  -7   41.50   23.90
 -11   3   7   93.39   38.30
  11   3  -7   26.10   24.30
  -9  -3   7   11.70   26.50
   9  -3  -7    2.80   17.40
   9  -3  -7   20.40   16.60
   9   3  -7    9.00   18.10
  -9   3   7    7.50   25.60
   9   3  -7   22.00   17.50
  -7  -3   7  200.38   29.10
   7  -3  -7  119.49   23.90
   7  -3  -7  196.78   26.60
   7  -3  -7  224.48   25.60
   7   3  -7  166.98   24.30
  -7   3   7  199.08   31.00
   7   3  -7  175.78   28.00
   5  -3  -7    4.00   11.80
   5  -3  -7   12.00   11.30
   5  -3  -7   14.00   12.90
   5  -3  -7   12.60   11.50
  -5  -3   7   22.50   15.40
  -5   3   7   14.40   14.70
   5   3  -7   -5.20   11.20
   5   3  -7   -4.00   12.70
   3  -3  -7  131.19   18.50
   3  -3  -7  114.29   16.70
  -3  -3   7   92.49   12.20
   3  -3  -7  134.69   19.20
   3   3  -7  106.79   18.70
   3   3  -7  116.69   13.50
   3   3  -7   95.49   17.90
   1  -3  -7  721.23   56.89
  -1  -3   7  756.72   54.99
  -1  -3   7  764.62   55.79
   1  -3  -7  767.02   57.79
   1  -3  -7  749.13   56.39
   1   3  -7  727.63   57.59
   1   3  -7  768.62   55.79
   1   3  -7  770.12   56.39
  -1  -3  -7  264.37   28.00
  -1  -3  -7  279.17   25.10
  -1  -3  -7  299.17   28.80
  -1   3  -7  301.57   28.80
   1   3   7  288.37   24.50
  -1   3  -7  288.47   25.90
  -1   3  -7  304.47   29.00
  -3  -3  -7  446.96   36.90
  -3  -3  -7  345.47   36.00
  -3  -3  -7  409.96   37.10
   3   3   7  391.16   32.50
  -3   3  -7  405.36   37.80
  -3   3  -7  503.25   38.00
  -3   3  -7  366.06   37.50
   3   3   7  467.25   33.80
  -5  -3  -7  115.59   21.30
   5  -3   7   72.59   16.10
  -7  -3  -7   74.69   18.10
  -7  -3  -7   72.29   24.20
  -7  -3  -7  102.39   26.80
   7  -3   7   47.60   19.30
  -7   3  -7   74.89   23.90
   7   3   7   78.19   20.00
   7   3   7   99.59   19.10
  -9  -3  -7  139.29   38.30
   9  -3   7   39.30   22.90
  -9  -3  -7   81.89   29.90
  -9   3  -7    2.40   25.20
   9   3   7   28.40   21.90
   9   3   7   78.89   24.90
 -11  -3  -7   -7.90   27.50
  11  -3   7   -9.50   23.00
  11   3   7   16.60   23.70
 -11   3  -7   35.50   30.20
 -13   3  -7  -11.70   30.20
  12  -4  -7   20.40   25.90
  12  -4  -7  158.58   36.70
 -12  -4   7   92.19   43.40
  12   4  -7   84.89   31.40
  12   4  -7  125.49   32.50
 -12   4   7  226.98   53.09
  10  -4  -7   -4.20   19.20
  10  -4  -7    9.40   21.00
 -10  -4   7   74.79   31.80
  10   4  -7   42.10   21.40
  10   4  -7    4.20   19.40
 -10   4   7   71.79   33.20
   8  -4  -7   14.60   15.40
   8  -4  -7   77.49   19.20
   8  -4  -7   44.60   18.50
  -8  -4   7   81.99   25.10
   8   4  -7   33.30   17.90
   8   4  -7   12.70   16.30
  -8   4   7   87.29   27.70
  -6  -4   7   -1.20   16.00
   6  -4  -7    3.10   13.60
   6  -4  -7    5.20   14.10
   6  -4  -7   -9.90   12.30
   6   4  -7   -6.90   12.00
  -6   4   7  -15.10   15.30
   6   4  -7   18.30   13.60
   4  -4  -7  686.43   50.89
  -4  -4   7  595.54   45.20
   4  -4  -7  594.24   49.80
   4  -4  -7  671.93   48.80
   4  -4  -7  644.14   51.89
  -4  -4   7  642.34   48.50
   4   4  -7  612.34   51.49
   4   4  -7  656.33   47.90
   2  -4  -7  902.11   73.19
   2  -4  -7  990.30   72.99
  -2  -4   7  988.80   70.79
   2  -4  -7 1062.99   73.29
   2   4  -7  992.90   72.69
   0  -4  -7  145.89   21.50
   0  -4  -7  184.28   21.90
   0  -4   7  143.09   15.90
   0   4  -7  156.88   20.50
   0   4  -7  172.38   17.60
   0   4  -7  157.28   21.80
   0   4   7  176.18   19.10
  -2  -4  -7  260.27   28.70
  -2  -4  -7  328.37   29.70
  -2  -4  -7  234.48   28.00
  -2   4  -7  290.57   29.40
  -2   4  -7  260.57   29.50
   2   4   7  240.08   22.70
   4  -4   7  500.45   41.90
  -4  -4  -7  548.35   45.10
  -4  -4  -7  553.04   45.80
  -4  -4  -7  492.95   43.20
   4   4   7  603.74   41.10
  -4   4  -7  491.75   45.80
   4   4   7  458.25   41.50
   6  -4   7  -22.90   13.60
  -6  -4  -7    2.00   18.40
  -6  -4  -7   12.40   17.70
  -6  -4  -7   27.00   13.50
   6   4   7   42.50   16.10
  -6   4  -7   27.00   19.20
   6   4   7   -0.10   13.80
   8  -4   7   76.39   25.50
  -8  -4  -7  222.58   37.00
  -8  -4  -7  145.39   22.60
  -8  -4  -7  134.49   30.80
  -8   4  -7  131.99   30.00
   8   4   7  220.38   26.90
   8   4   7  122.79   25.60
 -10  -4  -7   31.60   28.50
 -10  -4  -7   67.19   39.50
  10  -4   7   50.49   24.30
 -10   4  -7   23.00   26.10
  10   4   7   13.90   23.30
  12  -4   7   10.50   27.60
 -12  -4  -7   46.00   34.20
  12   4   7  -22.90   25.20
 -12   4  -7   25.70   30.30
 -13  -5   7   83.69   47.10
  13  -5  -7   15.90   33.10
  13  -5  -7   18.70   28.30
 -13   5   7   54.29   49.40
  13   5  -7   37.60   30.10
  13   5  -7   65.29   33.90
 -11  -5   7   -9.60   32.30
  11  -5  -7   38.40   27.10
  11  -5  -7   27.50   23.40
  11   5  -7   11.60   23.10
  11   5  -7   10.40   23.30
 -11   5   7   43.50   37.00
  -9  -5   7   57.79   27.50
   9  -5  -7   25.70   19.20
   9  -5  -7   19.50   18.30
   9   5  -7    7.10   17.80
  -9   5   7   48.10   30.80
   9   5  -7   33.40   18.80
  -7  -5   7   25.20   20.00
   7  -5  -7   31.20   15.60
   7  -5  -7   30.70   17.30
   7  -5  -7   23.90   16.50
  -7   5   7   40.00   22.00
   7   5  -7   13.60   15.90
   7   5  -7   19.00   15.40
   5  -5  -7  141.49   24.20
  -5  -5   7  223.48   25.40
   5  -5  -7  191.98   24.10
   5  -5  -7  187.48   23.50
  -5   5   7  248.48   26.50
   5   5  -7  129.79   23.10
   5   5  -7  166.38   21.10
   3  -5  -7  240.78   26.60
   3  -5  -7  251.87   23.40
  -3  -5   7  213.78   21.30
   3  -5  -7  250.17   26.00
   3  -5  -7  286.67   28.90
   3   5  -7  268.37   28.90
   1  -5  -7   24.70   13.00
   1  -5  -7   27.30   12.50
  -1  -5   7   22.50   10.30
   1   5  -7   36.60   12.30
  -1  -5  -7   48.00   14.40
  -1  -5  -7   63.19   15.50
  -1  -5  -7   66.79   13.80
  -1   5  -7   65.19   14.80
   1   5   7   60.79   10.40
   3  -5   7  130.19   17.50
  -3  -5  -7  122.39   21.40
  -3  -5  -7  124.29   20.60
  -3  -5  -7  133.49   22.30
   3   5   7  125.39   18.40
  -3   5  -7  172.98   23.80
   3   5   7  131.19   17.30
  -5  -5  -7   11.30   14.10
   5  -5   7   15.60   12.50
  -5  -5  -7   17.40   18.60
  -5  -5  -7    3.70   15.10
   5   5   7   10.90   13.40
   5   5   7   11.70   12.50
  -5   5  -7    4.50   18.20
   7  -5   7   17.60   17.10
  -7  -5  -7  109.39   26.40
  -7  -5  -7   52.09   23.50
  -7  -5  -7   51.79   16.10
  -7   5  -7   52.29   21.90
   7   5   7   -5.40   15.50
   7   5   7   47.90   20.70
   9  -5   7   15.00   21.80
  -9  -5  -7  -31.30   23.10
  -9  -5  -7   36.80   35.00
   9   5   7   35.80   23.20
  -9   5  -7  -11.50   22.80
   9   5   7  -24.70   17.70
  11  -5   7   64.99   26.40
 -11  -5  -7    8.30   29.30
 -11   5  -7   16.00   27.40
  11   5   7   21.10   25.50
  12  -6  -7   53.99   33.00
  12  -6  -7    9.20   26.60
 -12  -6   7    2.10   38.60
 -12   6   7   78.19   45.20
  12   6  -7   34.70   27.70
  12   6  -7   63.99   28.70
 -10  -6   7  -29.60   28.30
  10  -6  -7  -37.70   18.70
  10  -6  -7   -0.60   19.40
  10   6  -7    8.10   20.80
  10   6  -7  -23.10   19.90
 -10   6   7    1.10   31.80
   8  -6  -7   10.40   18.50
  -8  -6   7   20.10   23.10
   8  -6  -7   70.29   20.60
   8  -6  -7   40.20   17.50
   8   6  -7    7.70   17.50
  -8   6   7   37.50   25.60
   8   6  -7   11.20   18.80
   6  -6  -7   13.90   15.10
   6  -6  -7   13.20   15.00
  -6  -6   7    8.20   16.70
   6  -6  -7    5.10   14.40
  -6   6   7   51.89   18.70
   6   6  -7   34.70   14.10
   6   6  -7    2.70   13.90
   4  -6  -7  546.65   46.20
  -4  -6   7  558.44   40.70
   4  -6  -7  562.64   46.30
  -4  -6   7  480.45   43.40
   4  -6  -7  575.14   44.30
  -4   6   7  533.85   44.10
   4   6  -7  564.64   47.40
   4   6  -7  588.64   43.10
  -2  -6   7  505.35   39.10
   2  -6  -7  508.95   41.90
   2  -6  -7  491.65   42.40
   2   6  -7  456.75   40.90
   0  -6   7  382.46   32.80
   0  -6  -7  431.56   37.60
   0  -6   7  421.46   34.60
   0  -6  -7  421.96   34.40
   0  -6  -7  476.75   38.00
   0   6  -7  418.66   34.20
   0   6   7  443.36   33.10
  -2  -6  -7  111.09   19.30
  -2  -6  -7  105.59   19.70
  -2  -6  -7   90.49   18.60
  -2   6  -7   98.69   19.90
   2   6   7   99.89   14.70
  -4  -6  -7  101.89   21.00
  -4  -6  -7   90.79   19.10
   4  -6   7  101.79   17.40
  -4  -6  -7   70.19   18.40
  -4   6  -7   74.89   20.60
   4   6   7   76.09   15.60
   4   6   7   84.59   16.20
  -6  -6  -7    8.90   14.00
  -6  -6  -7    3.70   18.80
  -6  -6  -7  -13.50   17.70
   6  -6   7   25.30   15.80
  -6   6  -7    8.60   18.50
   6   6   7    0.60   13.90
   6   6   7   56.89   18.10
  -8  -6  -7   49.10   18.00
   8  -6   7   32.20   21.10
  -8  -6  -7   23.00   23.20
  -8  -6  -7  113.99   32.80
   8   6   7   91.09   23.80
  -8   6  -7   67.19   27.40
   8   6   7  114.09   26.40
  10  -6   7  -25.40   20.40
 -10  -6  -7   30.40   29.50
 -10  -6  -7  118.49   42.50
 -10   6  -7   32.70   29.60
  10   6   7   25.70   24.70
 -12  -6  -7   47.60   34.60
  12  -6   7   -2.90   26.70
  12   6   7   20.70   27.80
 -12   6  -7   11.30   32.40
  13  -7  -7  -33.70   31.80
 -13  -7   7   35.00   44.70
  13  -7  -7  -15.30   24.70
  13   7  -7   35.80   31.70
 -13   7   7   -5.70   44.60
  13   7  -7   12.60   29.50
 -11  -7   7   83.39   37.70
  11  -7  -7   -2.30   23.50
  11  -7  -7    8.60   22.60
  11   7  -7   13.00   23.30
 -11   7   7   51.09   37.20
  11   7  -7   62.09   28.20
  -9  -7   7   72.69   28.90
   9  -7  -7   27.00   21.70
   9  -7  -7   49.40   20.70
   9   7  -7    2.60   18.90
   9   7  -7   40.10   20.10
  -9   7   7   61.39   29.60
   7  -7  -7  216.98   25.90
   7  -7  -7  143.79   25.40
   7  -7  -7  147.49   25.00
  -7  -7   7  197.98   29.10
   7   7  -7  113.39   23.30
   7   7  -7  154.58   24.40
  -7   7   7  155.38   28.60
   5  -7  -7   77.59   17.60
   5  -7  -7   64.99   17.60
  -5  -7   7  114.59   20.60
   5  -7  -7  112.29   19.70
  -5   7   7  115.49   21.50
   5   7  -7  119.59   17.60
   5   7  -7   71.89   20.10
   3  -7  -7  207.28   25.80
  -3  -7   7  217.98   22.40
   3  -7  -7  177.88   26.00
   3  -7  -7  227.88   23.50
  -3  -7   7  187.78   23.50
   3   7  -7  195.88   25.90
   1  -7  -7  300.57   30.20
   1  -7  -7  304.57   31.70
   1   7  -7  294.37   28.60
  -1  -7  -7  -24.50   11.00
  -1  -7  -7    4.60   12.00
  -1   7  -7   -5.80   13.50
  -1   7  -7   -2.10    8.00
   1   7   7    0.80    9.30
   3  -7   7   21.10   12.60
  -3  -7  -7   59.19   18.30
  -3  -7  -7   25.00   15.30
  -3   7  -7   28.00   17.00
   3   7   7   20.80   11.40
   3   7   7  103.99   19.50
   5  -7   7   12.50   13.30
  -5  -7  -7    3.10   15.40
  -5  -7  -7   34.50   18.80
  -5  -7  -7    7.40   15.50
   5   7   7   21.80   14.50
   5   7   7    2.70   12.40
  -5   7  -7    0.70   16.80
  -7  -7  -7   -0.90   21.60
  -7  -7  -7   10.10   21.70
   7  -7   7    6.40   16.80
  -7  -7  -7   16.30   17.80
   7   7   7    3.50   15.00
   7   7   7   53.29   21.30
  -7   7  -7   55.19   25.20
  -9  -7  -7   34.90   33.30
  -9  -7  -7    6.70   23.00
   9  -7   7  -35.50   19.40
  -9   7  -7    5.00   25.20
   9   7   7   58.29   27.20
   9   7   7    4.80   19.80
 -11  -7  -7  -12.60   29.40
  11  -7   7    6.30   24.40
  11   7   7   38.10   25.70
 -11   7  -7   15.70   30.10
  12  -8  -7   56.09   28.10
 -12  -8   7  114.69   42.20
  12  -8  -7   47.80   30.40
  12   8  -7    8.90   25.90
  12   8  -7   17.20   28.40
 -12   8   7   15.40   40.60
  10  -8  -7   34.90   24.20
 -10  -8   7   59.49   32.90
  10  -8  -7   40.10   21.80
 -10   8   7   -7.90   31.20
  10   8  -7    9.30   20.30
  10   8  -7   26.80   23.20
   8  -8  -7  109.09   25.10
   8  -8  -7   81.39   22.80
  -8  -8   7  155.98   30.00
   8  -8  -7  114.99   24.60
  -8   8   7  117.59   31.90
   8   8  -7   90.19   22.40
   8   8  -7   72.19   23.10
   6  -8  -7   11.40   15.40
   6  -8  -7   13.30   15.00
  -6  -8   7   12.10   17.30
   6  -8  -7   -3.40   13.80
  -6   8   7   15.20   19.60
   6   8  -7    0.30   13.90
   6   8  -7    7.20   15.30
   4  -8  -7  158.88   24.00
  -4  -8   7  158.68   22.20
   4  -8  -7  122.89   20.00
   4   8  -7  137.99   23.50
  -4   8   7  151.98   22.00
   4   8  -7  141.89   18.50
   2  -8  -7 2294.37  156.98
   2  -8  -7 2258.47  160.28
   2  -8  -7 2186.38  160.48
   2   8  -7 2263.67  159.38
   0  -8  -7  818.22   59.39
   0  -8  -7  862.61   64.59
   0   8   7  808.82   60.09
   0   8  -7  797.22   61.19
  -2  -8  -7   38.30   15.60
  -2  -8  -7   13.30    9.80
   2  -8   7   29.50   12.00
  -2  -8  -7   16.60   14.50
  -2   8  -7   28.00   17.30
   2   8   7   23.20   11.10
  -4  -8  -7   45.20   16.80
   4  -8   7   37.10   14.70
  -4  -8  -7   42.90   19.10
  -4   8  -7   19.10   18.10
   4   8   7   27.90   15.00
   4   8   7   12.70   12.60
  -6  -8  -7    4.70   18.80
  -6  -8  -7   -7.90   17.80
   6  -8   7   12.40   15.90
   6   8   7   -2.40   13.30
   6   8   7   48.80   19.00
  -6   8  -7   36.10   19.80
  -8  -8  -7   71.09   22.40
   8  -8   7   45.30   22.90
  -8  -8  -7   35.50   26.00
  -8  -8  -7   67.19   31.30
   8   8   7   79.09   26.20
  -8   8  -7   30.00   25.50
   8   8   7   43.80   20.10
 -10  -8  -7   60.89   40.00
  10  -8   7  -14.20   22.30
 -10  -8  -7   -1.00   26.50
  10   8   7   -2.80   20.80
  10   8   7    3.20   28.30
 -10   8  -7  -10.40   26.80
  12  -8   7   43.10   30.90
 -12  -8  -7    0.10   31.90
 -12   8  -7  -21.20   27.80
  12   8   7  -21.40   26.20
 -13  -9   7   21.30   45.10
  13  -9  -7   61.39   38.20
  13  -9  -7   36.10   31.30
  13   9  -7   43.00   33.20
  13   9  -7   30.20   34.20
 -13   9   7   37.50   46.40
  11  -9  -7  -16.30   21.70
 -11  -9   7   21.40   35.60
  11  -9  -7   64.69   28.20
  11   9  -7   40.60   25.70
  11   9  -7   14.00   24.30
 -11   9   7  133.49   42.10
   9  -9  -7   19.70   20.50
  -9  -9   7   22.00   27.80
   9  -9  -7    0.30   19.50
   9   9  -7  -11.30   16.70
  -9   9   7   14.60   28.40
   9   9  -7  -11.00   18.00
   7  -9  -7  397.46   36.90
   7  -9  -7  299.87   39.20
  -7  -9   7  433.46   44.20
   7  -9  -7  356.66   37.30
   7   9  -7  312.07   40.50
   7   9  -7  361.06   37.10
  -7   9   7  401.36   45.30
   5  -9  -7  175.68   24.90
  -5  -9   7  204.08   27.90
   5  -9  -7  228.08   27.90
  -5   9   7  251.07   29.10
   5   9  -7  139.19   26.80
   5   9  -7  172.18   23.70
   3  -9  -7   24.70   13.00
   3  -9  -7   23.70   15.80
   3   9  -7   19.50   14.70
   1  -9  -7  338.57   29.00
   1  -9  -7  371.46   34.80
   1   9  -7  305.37   31.60
   1  -9   7  126.29   17.60
  -1  -9  -7  153.58   21.80
  -1  -9  -7  135.59   17.10
  -1  -9  -7  163.78   23.40
   1   9   7  138.89   18.90
  -1   9  -7  120.49   16.90
  -3  -9  -7  253.97   32.00
   3  -9   7  249.88   26.80
  -3  -9  -7  229.18   29.80
   3   9   7  250.77   28.30
  -3   9  -7  233.68   30.70
   3   9   7  201.68   25.40
   5  -9   7   67.29   18.80
  -5  -9  -7   72.39   20.20
  -5  -9  -7   90.49   22.80
  -5   9  -7   81.19   23.10
   5   9   7  101.49   20.00
   5   9   7   32.90   16.10
  -7  -9  -7   51.69   24.60
  -7  -9  -7   49.10   23.80
   7  -9   7  -25.80   16.60
  -7   9  -7   40.70   22.20
   7   9   7   58.29   24.00
   7   9   7   37.30   18.10
   9  -9   7   41.00   22.60
  -9  -9  -7  -19.30   33.10
  -9  -9  -7   37.30   27.10
   9   9   7   47.80   30.90
   9   9   7  -12.80   18.00
  -9   9  -7  -25.20   21.70
 -11  -9  -7   16.60   33.30
  11  -9   7   23.40   28.20
 -11   9  -7    6.70   27.70
  11   9   7    7.70   23.80
  12 -10  -7   29.90   27.40
 -12 -10   7   17.00   39.70
  12 -10  -7    3.30   31.80
  12  10  -7    4.00   26.50
  12  10  -7   -6.30   24.90
 -12  10   7   -8.20   40.00
  10 -10  -7   -9.10   19.40
  10 -10  -7   32.00   24.30
 -10 -10   7   44.50   33.50
 -10  10   7   45.80   34.00
  10  10  -7  -17.80   17.90
  10  10  -7   47.20   23.20
   8 -10  -7   70.49   21.90
   8 -10  -7  113.89   24.60
   8 -10  -7   86.09   25.50
  -8 -10   7  134.29   30.40
  -8  10   7  205.78   35.80
   8  10  -7   43.50   22.60
   8  10  -7   94.39   22.80
   6 -10  -7    4.20   16.10
  -6 -10   7   33.40   19.20
   6 -10  -7  -10.90   13.80
  -6  10   7   14.80   19.60
   6  10  -7    0.40   16.00
   6  10  -7    2.30   14.30
  -4 -10   7  294.67   32.20
   4 -10  -7  273.17   33.00
   4 -10  -7  268.67   30.20
   4  10  -7  232.78   32.00
   4  10  -7  261.17   27.60
   2 -10  -7  853.01   64.39
   2  10  -7  878.81   67.19
   0 -10  -7   11.40   10.10
   0 -10  -7   11.50   14.20
   0  10   7    2.60   10.30
   0  10  -7    2.50   10.50
  -2 -10  -7  720.23   60.29
  -2 -10  -7  755.42   56.49
   2 -10   7  792.02   57.09
  -2 -10  -7  747.03   59.29
  -2  10  -7  752.72   59.59
  -2  10  -7  682.43   55.29
   2  10   7  791.62   57.59
  -4 -10  -7   90.89   22.10
   4 -10   7  107.29   19.80
  -4 -10  -7  103.29   21.30
  -4  10  -7   99.59   24.80
   4  10   7  103.79   19.40
   4  10   7  126.19   22.20
   6 -10   7   -8.00   16.60
  -6 -10  -7   33.00   21.00
  -6 -10  -7   27.30   19.60
   6  10   7    4.10   14.90
   6  10   7   64.59   21.20
  -6  10  -7  -10.30   21.50
  -8 -10  -7  -30.20   22.40
  -8 -10  -7   -9.60   28.20
   8 -10   7   27.30   20.90
   8  10   7    3.80   23.40
   8  10   7   25.80   21.20
  -8  10  -7   -0.60   22.20
 -10 -10  -7  -13.40   26.40
  10 -10   7  -27.70   21.80
 -10 -10  -7   40.10   39.80
 -10  10  -7   11.10   27.90
  10  10   7   -3.30   32.10
  10  10   7    9.80   23.40
 -12 -10  -7   51.59   37.70
  12 -10   7   66.19   34.60
 -12  10  -7  -15.10   29.40
  12  10   7    3.70   27.50
  13 -11  -7  -35.20   26.30
 -13 -11   7  -11.00   44.20
  13  11  -7    5.50   31.20
 -13  11   7    2.90   50.69
  13  11  -7   27.60   33.40
 -11 -11   7   31.30   34.90
  11 -11  -7    7.20   23.70
  11 -11  -7   45.40   30.60
  11  11  -7   -3.40   23.60
  11  11  -7    6.10   24.80
 -11  11   7  -44.80   36.50
  -9 -11   7  -79.79   24.00
   9 -11  -7  -14.10   20.40
  -9  11   7   -8.80   29.30
   9  11  -7  -16.30   18.60
   9  11  -7   27.50   21.30
  -7 -11   7  255.27   38.10
   7 -11  -7  280.77   34.20
   7 -11  -7  300.97   33.80
   7  11  -7  222.28   32.00
   7  11  -7  193.08   34.50
  -7  11   7  304.27   40.50
   5 -11  -7  236.38   30.00
   5 -11  -7  189.38   26.30
  -5 -11   7  215.48   30.20
   5  11  -7  174.68   30.00
  -5  11   7  238.28   30.10
   5  11  -7  192.68   25.20
   3 -11  -7  259.17   28.10
   3  11  -7  320.37   32.30
   1 -11  -7  236.58   30.30
   1 -11  -7  252.97   26.10
   1  11  -7  214.88   27.70
   1 -11   7  -14.10   10.00
  -1 -11  -7  -21.60   11.00
  -1 -11  -7    3.30    9.90
  -1  11  -7   -9.50   10.00
   1  11   7   -2.10   10.80
  -3 -11  -7    7.90   11.50
  -3 -11  -7   13.20   14.50
  -3 -11  -7   65.49   17.90
   3 -11   7   28.00   14.30
   3  11   7    5.10   11.90
  -3  11  -7   15.10   16.40
   3  11   7   34.60   16.10
  -5 -11  -7   -9.30   18.30
  -5 -11  -7   -9.90   16.40
   5 -11   7  -15.80   16.00
   5  11   7   27.50   17.70
  -5  11  -7   -4.80   19.90
   5  11   7  -19.30   12.00
  -7 -11  -7   15.90   23.80
   7 -11   7   42.30   22.90
  -7 -11  -7   57.29   26.80
   7  11   7   41.50   20.60
   7  11   7  105.19   27.40
  -7  11  -7   45.50   24.70
   9 -11   7   29.00   24.40
  -9 -11  -7    0.00   33.40
  -9 -11  -7   49.10   29.70
   9  11   7   -2.40   20.50
   9  11   7   -3.30   27.50
  -9  11  -7   24.30   28.00
  11 -11   7    7.10   29.60
 -11 -11  -7   56.89   30.70
 -11  11  -7   43.50   34.60
  11  11   7   33.10   26.50
 -12 -12   7   -3.70   40.60
  12 -12  -7   29.30   27.60
 -12  12   7   40.00   48.50
  12  12  -7   11.20   27.10
  12  12  -7   80.89   33.30
 -10 -12   7   25.30   30.40
  10 -12  -7  -10.30   22.50
  10  12  -7   -3.80   21.60
  10  12  -7    8.10   22.60
 -10  12   7   59.99   37.00
  -8 -12   7   34.20   26.50
   8 -12  -7    4.10   20.80
   8 -12  -7   39.10   21.30
   8  12  -7   -6.10   19.40
   8  12  -7   10.30   19.20
  -8  12   7   -2.30   25.60
  -6 -12   7   62.19   21.00
   6 -12  -7   25.80   16.30
   6 -12  -7   52.49   21.10
   6  12  -7   39.70   17.00
  -6  12   7   76.99   23.90
   6  12  -7   36.50   18.70
   4 -12  -7  544.25   46.00
  -4 -12   7  507.45   47.00
   4  12  -7  552.24   49.60
   4  12  -7  584.84   45.10
   2 -12  -7  946.61   68.09
   2  12  -7  858.01   70.59
   0 -12  -7  198.28   22.20
   0 -12  -7  158.38   26.30
   0  12  -7  173.48   23.70
  -2 -12  -7  121.39   23.40
  -2 -12  -7  145.39   24.50
  -2 -12  -7  131.59   19.50
   2 -12   7  132.19   19.70
   2  12   7  127.69   20.90
  -2  12  -7  127.39   19.00
   4 -12   7  105.09   21.80
  -4 -12  -7  102.99   23.10
  -4 -12  -7  118.49   23.40
   4  12   7   93.29   21.30
   4  12   7   51.69   17.30
  -4  12  -7   81.09   23.20
  -6 -12  -7   19.80   22.80
   6 -12   7    2.00   18.90
  -6 -12  -7   25.10   22.70
   6  12   7   48.80   19.10
  -6  12  -7   -1.40   22.80
   6  12   7   48.50   21.70
   8 -12   7   40.50   24.40
  -8 -12  -7   38.00   28.10
  -8 -12  -7  114.59   33.50
   8  12   7   45.60   22.30
   8  12   7  149.39   30.90
  -8  12  -7   60.29   28.10
  10 -12   7   23.50   26.40
 -10 -12  -7    3.70   29.00
 -10 -12  -7  -49.50   39.30
  10  12   7  -44.80   20.90
  10  12   7   46.30   33.10
 -10  12  -7    6.40   31.30
 -12 -12  -7  -26.10   31.60
  12  12   7  -29.40   27.10
 -12  12  -7   49.40   37.50
 -11 -13   7   51.79   38.30
  11 -13  -7   20.10   26.40
  11  13  -7    7.10   22.60
 -11  13   7    6.50   40.10
  11  13  -7   38.40   27.80
   9 -13  -7   -2.50   21.30
  -9 -13   7   13.80   27.30
   9  13  -7   21.50   21.20
  -9  13   7   34.70   31.60
   9  13  -7    7.80   23.70
  -7 -13   7   32.00   24.10
   7 -13  -7   23.70   17.60
   7 -13  -7   21.50   23.10
   7  13  -7   25.60   18.60
   7  13  -7   18.50   17.50
  -7  13   7   34.90   26.00
   5 -13  -7   34.80   17.50
  -5 -13   7   95.99   23.20
   5  13  -7   66.39   20.40
   5  13  -7   67.19   17.30
   3 -13  -7  235.48   26.70
   3  13  -7  159.58   27.20
   1 -13  -7  115.09   18.30
   1 -13  -7  111.79   22.40
   1  13  -7  135.69   22.70
  -1 -13  -7   90.49   17.10
   1 -13   7  102.09   17.90
  -1 -13  -7  103.59   21.80
   1  13   7   98.59   17.40
  -1  13  -7  107.89   19.30
   3 -13   7  252.57   28.90
  -3 -13  -7  218.68   31.60
  -3 -13  -7  218.48   26.40
  -3 -13  -7  174.58   28.30
  -3  13  -7  191.78   31.30
   3  13   7  206.68   27.00
  -3  13  -7  217.48   25.60
   3  13   7  206.48   30.00
  -5 -13  -7   15.10   19.70
  -5 -13  -7   -4.70   18.00
   5 -13   7   12.10   17.00
  -5  13  -7  -25.40   17.90
   5  13   7   22.40   16.30
   5  13   7   29.10   20.80
   7 -13   7  -16.90   20.70
  -7 -13  -7   -6.50   24.50
  -7 -13  -7   21.10   25.20
  -7  13  -7    7.30   24.40
   7  13   7  -14.40   24.40
   7  13   7   -4.40   17.80
  -9 -13  -7  -20.70   27.80
  -9 -13  -7   32.10   38.50
   9 -13   7   25.40   23.90
   9  13   7   38.10   24.20
   9  13   7   -0.70   29.10
  -9  13  -7   25.80   30.10
 -11 -13  -7  -22.30   29.70
  11 -13   7   13.60   29.90
 -11  13  -7  -13.60   33.40
  11  13   7  -11.70   26.30
 -12 -14   7   19.70   42.50
  12 -14  -7   -6.50   28.40
  12  14  -7   53.39   32.60
 -12  14   7   35.20   46.70
  12  14  -7   24.60   30.70
  10 -14  -7   12.30   25.00
 -10 -14   7    4.00   31.50
 -10  14   7   51.59   38.70
  10  14  -7    7.90   24.90
  10  14  -7   -1.10   24.60
  -8 -14   7   -1.70   26.70
   8 -14  -7   -5.20   19.30
   8 -14  -7    0.70   24.00
  -8  14   7   17.90   29.50
   8  14  -7   -7.70   20.30
   8  14  -7  -18.50   18.70
  -6 -14   7   15.60   21.20
   6 -14  -7   24.50   22.70
   6 -14  -7  -12.30   14.90
   6  14  -7   -3.70   17.30
   6  14  -7   13.70   16.80
   4 -14  -7  173.18   26.10
  -4 -14   7  210.08   31.70
   4  14  -7  217.88   31.10
   2 -14  -7  108.79   19.20
   2  14  -7  120.69   22.60
   0 -14  -7  -15.60   12.80
   0 -14   7   -7.10   10.00
   0 -14  -7    2.70   11.30
   0  14  -7   -6.50   12.20
  -2 -14  -7   77.49   21.70
  -2 -14  -7   88.19   21.00
   2 -14   7   94.89   18.40
  -2 -14  -7   98.99   18.20
   2  14   7   88.49   19.00
  -2  14  -7   62.09   17.90
  -4 -14  -7  126.79   24.60
   4 -14   7  111.39   23.70
  -4 -14  -7  167.88   27.70
  -4  14  -7  146.49   28.00
   4  14   7  201.38   28.30
   4  14   7  141.39   23.80
  -6 -14  -7   28.50   25.30
  -6 -14  -7   -5.20   23.60
   6 -14   7    0.60   21.20
   6  14   7   12.10   18.80
  -6  14  -7    4.10   21.40
   6  14   7   25.10   21.30
  -8 -14  -7   13.80   28.50
   8 -14   7   -4.20   22.70
  -8 -14  -7   61.19   32.40
  -8  14  -7   69.59   33.40
   8  14   7    4.50   19.60
   8  14   7   29.00   26.40
  10 -14   7  -25.80   25.30
 -10 -14  -7   10.00   31.90
  10  14   7  -16.50   23.30
 -10  14  -7   -3.10   29.20
  10  14   7  -13.50   33.20
 -11 -15   7    4.20   36.70
  11 -15  -7   40.20   29.40
  11  15  -7   22.00   28.70
 -11  15   7   62.79   44.50
  11  15  -7   -1.50   28.40
   9 -15  -7  -14.50   19.90
  -9 -15   7  -32.90   30.20
   9  15  -7   11.50   24.10
  -9  15   7   30.20   32.80
   9  15  -7   16.20   21.90
   7 -15  -7  112.49   28.40
  -7 -15   7   99.19   29.00
   7 -15  -7   67.79   21.40
  -7  15   7   99.89   31.20
   7  15  -7   37.40   20.50
   7  15  -7   65.19   24.40
  -5 -15   7   98.99   25.90
   5 -15  -7   48.40   19.00
   5  15  -7   55.29   18.50
   5  15  -7   47.80   20.90
   3 -15  -7   -0.30   12.70
   3  15  -7    8.70   16.90
   1 -15  -7    6.90   11.40
   1  15  -7    2.30   13.40
  -1 -15  -7  211.28   32.60
  -1 -15  -7  257.77   29.30
   1 -15   7  271.77   29.60
  -1  15  -7  248.18   30.70
   1  15   7  245.08   29.30
  -3 -15  -7  111.79   21.50
   3 -15   7  125.09   22.60
  -3 -15  -7  128.59   26.70
  -3 -15  -7  120.69   25.20
   3  15   7   88.59   21.30
   3  15   7   56.39   22.50
  -3  15  -7  141.89   23.40
  -5 -15  -7   57.59   23.70
  -5 -15  -7   81.09   25.50
   5 -15   7   18.00   20.00
  -5  15  -7   69.19   22.80
   5  15   7   92.99   23.50
   5  15   7   29.00   18.70
   7 -15   7   25.20   24.30
  -7 -15  -7   25.20   29.00
  -7 -15  -7   28.70   29.20
  -7  15  -7   26.70   24.70
   7  15   7   52.79   27.00
   7  15   7   23.60   21.60
  -9 -15  -7   34.40   31.40
   9 -15   7  -14.40   24.00
  -9 -15  -7   36.10   36.20
   9  15   7   -1.20   23.30
  -9  15  -7   23.30   33.10
   9  15   7    3.60   30.30
 -11 -15  -7   36.50   33.70
  11 -15   7  -27.60   30.10
  11  15   7  -20.90   24.60
 -11  15  -7   46.40   37.90
 -12 -16   7   15.70   46.60
  12 -16  -7   31.10   29.70
 -12  16   7   63.79   52.19
  12  16  -7   58.29   33.40
 -10 -16   7   44.00   34.90
  10 -16  -7    8.40   23.70
  10  16  -7   12.70   26.10
  10  16  -7   -7.90   25.70
 -10  16   7   54.79   42.10
   8 -16  -7   39.40   22.30
  -8 -16   7   67.19   31.40
   8 -16  -7   80.69   28.70
  -8  16   7   39.90   32.10
   8  16  -7   20.10   22.70
   8  16  -7   15.40   21.50
   6 -16  -7   97.29   24.30
  -6 -16   7  138.39   31.00
   6  16  -7   79.89   22.30
   6  16  -7  120.69   28.40
   4 -16  -7   84.89   20.40
   4  16  -7   66.29   22.20
   2 -16  -7  304.47   32.30
   2  16  -7  235.28   34.20
   0 -16  -7   -0.50   12.20
   0 -16   7    6.90   13.30
   0 -16  -7   15.30   16.00
   0  16  -7  -16.90   14.50
   2 -16   7  117.29   22.20
  -2 -16  -7   92.59   23.70
  -2 -16  -7  123.99   22.00
  -2 -16  -7  193.88   30.70
   2  16   7  169.48   25.00
  -2  16  -7  207.48   27.60
   4 -16   7   39.10   19.60
  -4 -16  -7   32.10   19.70
  -4 -16  -7   53.59   22.70
  -4 -16  -7   32.50   17.50
   4  16   7   38.80   18.90
   4  16   7   26.50   20.90
  -4  16  -7   57.19   24.70
  -6 -16  -7   28.00   23.30
   6 -16   7  -22.10   22.40
  -6 -16  -7   30.00   26.30
  -6  16  -7   34.30   25.70
   6  16   7   49.70   25.20
   6  16   7   14.10   18.60
  -8 -16  -7   92.39   35.10
  -8 -16  -7   42.10   30.00
   8 -16   7   40.00   28.40
   8  16   7   20.80   23.60
   8  16   7   88.59   31.80
  -8  16  -7   84.69   31.10
  10 -16   7   50.69   31.10
 -10 -16  -7   32.90   34.10
 -10  16  -7   17.40   33.10
  10  16   7   38.40   26.70
  10  16   7   -2.30   34.30
  11 -17  -7    8.20   28.70
 -11 -17   7   65.29   39.10
  11  17  -7   11.90   32.70
 -11  17   7  -11.00   41.40
  11  17  -7   55.59   31.20
   9 -17  -7  -48.30   18.90
  -9 -17   7   31.60   32.90
  -9  17   7   11.10   35.00
   9  17  -7    8.70   26.30
   9  17  -7   -8.20   22.70
   7 -17  -7   98.19   31.00
   7 -17  -7   51.59   22.40
  -7 -17   7  121.49   31.60
   7  17  -7   71.79   29.40
   7  17  -7   62.09   23.50
   5 -17  -7    7.10   16.10
  -5 -17   7  -13.80   20.40
   5  17  -7   11.60   21.00
   3 -17  -7   18.70   15.70
   3  17  -7   23.40   17.20
   1 -17  -7   39.40   15.40
   1  17  -7   87.69   22.60
  -1 -17  -7   11.80   13.50
   1 -17   7   -4.30   14.50
  -1 -17  -7   -2.00   16.50
  -1  17  -7   21.80   16.60
  -3 -17  -7   77.29   25.80
  -3 -17  -7   68.89   24.30
  -3 -17  -7   89.49   20.30
   3 -17   7   51.69   19.50
  -3  17  -7   80.39   20.70
   3  17   7   60.49   19.40
   3  17   7   97.39   25.50
  -5 -17  -7   -5.60   20.50
  -5 -17  -7   26.80   22.80
   5 -17   7    7.60   21.00
   5  17   7  -36.40   21.50
  -5  17  -7  -18.30   22.20
   5  17   7   -2.50   17.00
  -7 -17  -7   53.29   32.60
   7 -17   7   27.70   26.00
  -7 -17  -7   20.80   28.50
   7  17   7   93.59   29.90
   7  17   7   15.70   22.30
  -7  17  -7   54.79   29.20
   9 -17   7   13.10   28.60
  -9 -17  -7   36.00   37.30
  -9 -17  -7   11.80   30.50
  -9  17  -7   13.30   28.30
   9  17   7   -0.50   23.10
   9  17   7   65.89   33.00
  10 -18  -7   16.30   24.50
 -10 -18   7   29.60   37.60
 -10  18   7   -7.30   39.90
  10  18  -7  -37.60   23.90
  10  18  -7   -6.00   27.30
  -8 -18   7    3.20   30.50
   8 -18  -7   56.39   23.80
   8 -18  -7   86.39   44.50
   8  18  -7   90.99   26.00
   8  18  -7    3.40   25.00
  -6 -18   7   20.10   26.10
   6 -18  -7   21.60   19.10
   6  18  -7   36.30   24.10
   6  18  -7   41.60   21.50
   4 -18  -7   46.00   19.70
   4  18  -7  120.39   28.50
   2 -18  -7  216.98   29.20
   2  18  -7  210.88   32.20
   0 -18  -7   19.30   15.10
   0 -18  -7   31.70   18.00
   0 -18   7   20.80   15.30
   0  18  -7    4.00   17.00
   2 -18   7   33.30   17.30
  -2 -18  -7    3.00   17.50
  -2 -18  -7   18.10   20.70
  -2 -18  -7   10.70   15.20
   2  18   7   45.00   17.50
  -2  18  -7   38.00   19.00
  -4 -18  -7   -2.60   21.80
  -4 -18  -7   10.40   17.40
   4 -18   7   16.40   19.20
  -4 -18  -7   15.80   23.20
   4  18   7   -8.50   16.10
   4  18   7   -2.50   21.90
  -6 -18  -7  -14.10   27.50
   6 -18   7    3.40   23.30
  -6 -18  -7   49.90   27.80
   6  18   7   -9.00   18.10
   6  18   7  -15.70   24.40
  -6  18  -7    2.10   24.30
   8 -18   7   52.89   30.40
  -8 -18  -7  139.59   39.30
  -8 -18  -7   94.69   36.20
   8  18   7   89.49   35.40
   8  18   7   41.90   26.00
  -8  18  -7   54.29   32.00
 -10 -18  -7  -46.00   31.30
  10 -18   7   56.19   34.10
  10  18   7    3.90   33.50
  10  18   7   22.20   28.90
 -10  18  -7   16.20   32.00
  11 -19  -7  -27.10   27.00
 -11 -19   7    7.10   40.60
  11  19  -7   47.20   31.40
 -11  19   7   42.40   49.10
  11  19  -7   74.69   36.10
   9 -19  -7   -9.50   22.40
  -9 -19   7  -11.00   33.20
   9  19  -7   29.90   25.70
   9  19  -7    0.90   26.70
  -7 -19   7   33.20   29.90
   7 -19  -7  -30.20   18.80
   7  19  -7  -19.30   19.30
   7  19  -7   25.60   26.20
  -5 -19   7  101.09   28.80
   5 -19  -7   21.00   18.10
   5  19  -7   75.39   26.40
   3 -19  -7   71.79   20.40
   3  19  -7   95.89   26.00
   1 -19  -7   20.00   15.50
  -1 -19   7   14.90   15.10
   1  19  -7    9.50   18.40
   1 -19   7  100.19   23.30
  -1 -19  -7   80.99   24.00
  -1 -19  -7  173.18   25.10
  -1  19  -7  100.49   24.00
  -3 -19  -7   40.00   23.40
  -3 -19  -7    8.70   17.20
  -3 -19  -7   51.29   23.20
   3 -19   7   48.90   20.80
  -3  19  -7   25.10   19.90
   3  19   7   40.10   23.40
   3  19   7   40.10   18.70
  -5 -19  -7   37.40   26.90
   5 -19   7   -3.10   22.10
  -5 -19  -7   16.50   19.50
  -5 -19  -7    4.80   21.60
   5  19   7   -1.20   19.00
   5  19   7  -26.20   22.50
  -7 -19  -7   71.59   31.00
  -7 -19  -7   49.90   33.40
   7 -19   7   45.90   29.10
   7  19   7   40.60   24.10
   7  19   7  110.09   32.60
  -7  19  -7   56.29   30.30
   9 -19   7  -24.50   30.00
  -9 -19  -7  -22.30   37.50
  -9 -19  -7    2.70   31.50
   9  19   7    3.80   25.40
  -9  19  -7  -13.90   29.10
   9  19   7  -13.50   33.40
 -10 -20   7  -13.40   38.30
  10 -20  -7  -52.89   22.50
  10  20  -7  -38.10   25.60
  10  20  -7  -45.30   27.90
  -8 -20   7  -30.50   28.50
   8 -20  -7   17.30   22.80
   8  20  -7   11.70   26.50
   8  20  -7    9.10   23.40
  -6 -20   7   59.59   29.60
   6 -20  -7  -21.90   18.40
   6  20  -7   22.60   24.80
   4 -20  -7   34.70   19.80
   4  20  -7   70.49   26.30
   2 -20  -7  194.58   28.80
   2  20  -7  196.08   33.80
   0 -20  -7  101.79   25.70
   0 -20  -7  188.78   26.70
   0 -20   7  105.29   24.40
   0  20  -7  103.69   28.00
  -2 -20  -7  134.39   32.90
  -2 -20  -7  163.18   31.10
   2 -20   7  133.79   25.60
  -2 -20  -7  132.79   25.70
  -2  20  -7  156.58   30.30
  -4 -20  -7  144.19   28.20
  -4 -20  -7  141.49   32.90
  -4 -20  -7  159.48   32.20
   4 -20   7   85.59   25.80
   4  20   7  145.19   28.00
  -4  20  -7  146.99   30.50
   4  20   7  148.89   33.20
  -6 -20  -7   69.59   30.80
  -6 -20  -7   47.30   32.20
   6 -20   7   13.50   25.30
  -6  20  -7   53.39   28.40
   6  20   7   23.40   22.10
   6  20   7   38.40   28.70
  -8 -20  -7   67.29   39.10
  -8 -20  -7  -12.20   31.40
   8 -20   7   50.09   31.90
  -8  20  -7   27.90   30.90
   8  20   7   75.19   36.40
   8  20   7   58.19   26.50
  -9 -21   7   62.29   38.40
   9 -21  -7  -13.00   21.00
   9  21  -7  -31.60   25.20
   9  21  -7  -20.90   25.10
  -7 -21   7   48.90   33.20
   7 -21  -7  -18.20   23.30
   7  21  -7   -6.40   26.50
  -5 -21   7   17.60   27.20
   5 -21  -7   16.90   18.70
   5  21  -7   49.80   25.90
   3 -21  -7   31.20   19.60
   3  21  -7   11.80   21.40
  -1 -21   7   11.50   16.70
   1 -21  -7   -3.20   15.80
   1  21  -7   16.10   22.70
  -1 -21  -7   25.90   20.00
   1 -21   7   40.40   20.50
  -1 -21  -7   31.30   18.10
  -1  21  -7   40.90   23.50
  -3 -21  -7   90.69   22.50
  -3 -21  -7   65.59   27.60
   3 -21   7   58.19   23.00
  -3 -21  -7   45.10   24.60
   3  21   7   46.50   22.00
  -3  21  -7   99.99   27.00
   3  21   7   69.69   26.70
  -5 -21  -7  -21.80   20.80
  -5 -21  -7  -12.70   20.00
   5 -21   7  -18.30   21.90
  -5 -21  -7   -0.90   24.40
   5  21   7    4.40   19.70
   5  21   7  -18.80   25.00
   7 -21   7   48.50   27.70
  -7 -21  -7  102.99   30.60
  -7 -21  -7   35.60   37.50
   7  21   7   34.90   25.70
  -7  21  -7   70.59   33.10
   7  21   7   59.09   32.60
   9 -21   7  -12.40   33.80
  -9 -21  -7  -24.70   31.00
  -9  21  -7   28.60   31.80
   9  21   7  -14.60   38.30
   9  21   7   34.10   27.40
 -10 -22   7   58.79   46.30
  10 -22  -7    3.80   26.00
  10  22  -7   36.00   33.30
   8 -22  -7   39.30   25.20
  -8 -22   7   55.09   36.90
   8  22  -7   62.49   32.00
   8  22  -7   40.10   27.80
   6 -22  -7   35.50   23.20
  -6 -22   7   22.80   30.70
   6  22  -7   15.80   24.90
   4 -22  -7  130.49   27.60
   4  22  -7  150.58   34.10
  -2 -22   7   81.39   23.70
   2 -22  -7  125.79   24.90
   2  22  -7  114.59   29.60
   0 -22   7   18.40   19.90
   0 -22  -7   29.10   18.80
   0  22  -7   43.30   25.90
  -2 -22  -7   70.89   23.00
   2 -22   7   39.10   20.90
  -2 -22  -7   35.20   24.70
   2  22   7   55.09   25.10
  -2  22  -7   77.09   28.00
   4 -22   7  -26.90   19.00
  -4 -22  -7   26.10   27.30
  -4 -22  -7   30.60   27.40
  -4 -22  -7  -19.90   18.50
   4  22   7    7.50   19.20
  -4  22  -7   35.70   25.10
   4  22   7   -4.40   24.10
  -6 -22  -7   23.00   30.90
   6 -22   7   -1.10   25.60
  -6 -22  -7   23.30   24.70
  -6 -22  -7   31.70   30.40
   6  22   7   19.30   22.20
   6  22   7  -24.50   28.40
  -8 -22  -7   72.59   37.20
  -8 -22  -7  112.89   45.80
   8 -22   7   41.40   33.80
  -8  22  -7   44.00   33.20
   8  22   7   66.29   38.70
   8  22   7   89.29   29.10
  -9 -23   7   -4.70   37.60
   9 -23  -7   12.30   27.10
   9  23  -7   20.60   31.70
   9  23  -7    6.60   30.70
   7 -23  -7   13.20   25.30
  -7 -23   7   -7.50   31.90
   7  23  -7   20.40   27.60
  -5 -23   7    6.30   30.60
   5 -23  -7   27.80   21.20
   5  23  -7   -2.40   23.40
   3 -23  -7   13.00   18.40
   3  23  -7   -7.10   22.40
  -1 -23   7   43.10   21.90
   1 -23  -7   10.20   17.50
   1  23  -7  -17.70   21.10
  -1 -23  -7   36.20   22.00
   1 -23   7   21.40   20.30
  -1 -23  -7   30.00   18.90
  -1  23  -7   50.89   25.40
   3 -23   7   30.10   22.50
  -3 -23  -7   58.79   27.20
  -3 -23  -7   48.60   22.30
  -3 -23  -7   75.39   29.70
   3  23   7   47.60   28.40
  -3  23  -7  116.89   30.90
  -5 -23  -7   29.50   23.60
   5 -23   7   -2.20   22.20
  -5 -23  -7  -16.80   28.30
  -5 -23  -7   40.70   27.00
   5  23   7   27.40   30.00
   5  23   7  -28.10   18.10
  -7 -23  -7   14.60   24.80
  -7 -23  -7   29.30   32.40
   7 -23   7  -44.00   25.70
  -7 -23  -7   13.70   40.70
   7  23   7   35.00   34.30
   7  23   7  -20.40   21.80
  -8 -24   7   39.60   37.50
   8 -24  -7    1.50   26.20
   8  24  -7   76.99   33.90
   6 -24  -7   -3.60   21.90
  -6 -24   7    4.80   35.70
   6  24  -7   13.30   28.40
   4 -24  -7    6.40   19.60
   4  24  -7   64.29   31.70
  -2 -24   7  176.68   32.30
   2 -24  -7  164.58   29.90
   2  24  -7  180.28   38.20
   0 -24   7  -15.00   17.50
   0 -24  -7   -1.70   17.60
   0  24  -7   -9.90   25.50
  -2 -24  -7   19.40   19.70
  -2 -24  -7   31.60   25.60
   2 -24   7    4.10   20.30
   2  24   7   -4.40   23.50
  -2  24  -7   21.20   26.60
  -4 -24  -7   85.69   33.90
  -4 -24  -7   21.30   22.40
  -4 -24  -7   51.19   35.50
   4 -24   7  -10.30   21.70
   4  24   7   31.80   23.60
  -4  24  -7   36.60   27.30
   4  24   7   38.80   28.80
  -6 -24  -7   26.40   25.70
  -6 -24  -7   -9.40   27.00
  -6 -24  -7  -79.19   31.10
   6 -24   7  -14.10   27.50
   6  24   7   22.60   31.30
   6  24   7    8.30   21.20
  -8 -24  -7   42.40   38.40
  -8 -24  -7  -26.00   43.20
   8 -24   7   -1.00   32.70
  -8 -24  -7   65.59   31.30
   8  24   7   10.00   26.70
   8  24   7   -0.80   38.00
   7 -25  -7   45.30   26.60
  -7 -25   7   28.30   37.50
   7  25  -7   26.50   34.00
   5 -25  -7  -12.80   20.70
  -5 -25   7   38.20   36.30
   5  25  -7   30.30   28.60
   3 -25  -7   25.50   20.90
  -3 -25   7   28.00   22.40
   3  25  -7   -8.50   25.20
   1 -25  -7  -22.50   16.70
  -1 -25   7    0.80   20.10
   1  25  -7  -20.90   25.00
  -1 -25  -7   39.90   24.30
   1 -25   7   55.09   24.60
  -1 -25  -7   10.80   20.80
  -1  25  -7   25.00   28.00
  -3 -25  -7    0.10   26.80
  -3 -25  -7   23.30   26.10
  -3 -25  -7   23.20   22.30
   3 -25   7   14.40   21.30
   3  25   7   13.60   26.90
  -3  25  -7   29.30   29.20
   5 -25   7   -9.70   25.60
  -5 -25  -7   16.70   25.40
  -5 -25  -7    5.60   30.30
  -5 -25  -7  -33.30   32.80
   5  25   7  -19.50   20.80
   5  25   7    5.40   31.10
  -7 -25  -7  -28.10   40.90
  -7 -25  -7   33.90   30.70
  -7 -25  -7   45.30   37.60
   7 -25   7  -25.60   30.50
   7  25   7   -2.50   24.80
   7  25   7   36.20   36.40
   6 -26  -7   -0.90   23.30
  -6 -26   7   -6.30   33.30
   6  26  -7   11.90   28.20
   4 -26  -7   -1.80   22.20
   4  26  -7   16.30   28.50
  -2 -26   7  277.87   42.60
   2 -26  -7  315.17   41.30
   2  26  -7  333.77   50.29
   0 -26  -7   17.50   23.60
   0 -26  -7   30.10   21.90
   0 -26   7   21.00   23.60
   0  26  -7    6.10   27.30
  -2 -26  -7   42.40   28.10
  -2 -26  -7   37.00   24.20
   2 -26   7   13.00   22.00
   2  26   7   11.20   26.90
  -2  26  -7    9.10   28.30
  -4 -26  -7   -4.90   29.60
  -4 -26  -7  -15.30   21.70
   4 -26   7   59.79   28.50
  -4 -26  -7   -1.60   29.60
   4  26   7  -10.00   24.40
  -4  26  -7   -2.20   31.10
  -6 -26  -7  -26.10   35.50
  -6 -26  -7  -24.00   24.70
   6 -26   7  -20.00   28.90
  -6 -26  -7   26.40   32.10
   6  26   7   -7.70   23.10
   6  26   7   10.50   33.80
  -7 -27   7  -28.80   39.30
   7 -27  -7  -11.90   26.60
   7  27  -7  -13.10   31.80
   5 -27  -7   12.30   24.40
  -5 -27   7  -15.80   37.70
   5  27  -7  -34.10   27.30
   3 -27  -7   34.70   22.80
  -3 -27   7   27.90   23.10
   3  27  -7   -5.40   26.90
   1 -27  -7    0.10   19.80
  -1 -27   7   15.30   22.30
   1  27  -7    3.10   29.30
  -1 -27  -7  -28.70   19.30
  -1 -27  -7   39.30   25.40
   1 -27   7   -6.90   21.90
  -1  27  -7  -26.50   27.70
   1  27   7   24.90   28.90
   3 -27   7   25.80   24.90
  -3 -27  -7   14.10   23.10
  -3 -27  -7   33.00   31.50
  -3 -27  -7    4.20   27.20
  -3  27  -7   11.90   29.00
   3  27   7   -8.70   27.40
  -5 -27  -7   14.80   32.60
  -5 -27  -7   21.80   27.50
  -5 -27  -7   56.99   40.00
   5 -27   7   24.50   28.10
   5  27   7   21.30   33.10
   6 -28  -7   -1.90   26.00
  -6 -28   7   -8.90   40.10
   6  28  -7    9.40   32.10
  -4 -28   7   70.79   28.50
   4 -28  -7   46.90   26.60
   4  28  -7   91.59   37.50
   2 -28  -7    3.50   20.70
  -2 -28   7   -3.80   21.70
   2  28  -7   25.70   30.90
   0 -28   7   54.29   27.60
   0 -28  -7    9.70   23.90
   0 -28  -7   70.59   26.10
   0  28  -7   52.69   33.60
  -2 -28  -7   43.50   25.70
  -2 -28  -7  111.59   39.60
   2 -28   7   74.79   28.90
  -2 -28  -7   60.99   31.80
  -2  28  -7   91.49   36.80
   2  28   7    5.10   28.60
  -4 -28  -7  -44.40   32.00
  -4 -28  -7   -8.10   25.20
  -4 -28  -7  -27.50   34.40
   4 -28   7   29.40   27.00
   4  28   7   37.30   33.30
  -5 -29   7    7.90   45.10
  -5 -29   7   10.20   25.90
   5 -29  -7    0.90   25.40
   5  29  -7  -20.80   30.80
  -3 -29   7   71.19   29.40
   3 -29  -7   39.00   28.20
   3  29  -7  100.69   38.00
   1 -29  -7   15.80   22.70
  -1 -29   7  -29.90   23.70
   1  29  -7  -15.60   29.80
  -1 -29  -7   42.40   25.10
   1 -29   7   15.40   25.00
  -1 -29  -7  -34.60   23.80
   1  29   7   46.80   34.50
  -1  29  -7   30.20   35.40
   3 -29   7   49.90   28.60
  -3 -29  -7    0.90   31.70
  -3 -29  -7   26.20   26.40
  -3 -29  -7   20.90   33.40
  -3  29  -7   10.90   33.90
   3  29   7   14.70   34.20
   4 -30  -7   24.40   25.50
  -4 -30   7   68.69   31.80
  -2 -30   7   97.19   34.40
   2 -30  -7   59.29   27.20
   2  30  -7   70.09   37.30
   0 -30  -7  -13.80   22.10
   0 -30   7   10.80   24.90
   0 -30  -7  -20.00   25.10
   0  30  -7  -45.80   30.90
  -2 -30  -7   57.59   32.00
  -2 -30  -7   39.50   36.60
   2 -30   7    7.60   25.30
  -2 -30  -7  -18.70   24.40
  -2  30  -7   15.80   35.20
   2  30   7   -4.10   32.90
  -1 -31   7  -19.10   25.80
   1 -31  -7   32.30   26.90
   1  31  -7  -41.80   32.30
 -12   0   8  133.89   44.70
  12   0  -8   13.20   25.90
  12   0  -8   69.29   29.00
 -10   0   8   26.40   31.70
  10   0  -8   36.60   22.90
  10   0  -8   57.39   24.40
   8   0  -8   60.99   19.10
   8   0  -8   23.30   18.50
  -8   0   8  120.69   28.40
  -6   0   8  257.87   29.80
   6   0  -8  224.48   27.90
   6   0  -8  245.08   26.30
   6   0  -8  172.48   26.90
   4   0  -8  618.74   50.89
   4   0  -8  631.04   46.50
   4   0  -8  633.04   51.09
   2   0  -8  470.25   35.90
   2   0  -8  428.06   36.80
  -2   0   8  425.96   36.40
   2   0  -8  443.56   38.20
   0   0   8  737.43   51.49
   0   0  -8  676.13   51.89
   0   0  -8  726.83   54.99
   0   0  -8  700.83   55.19
  -2   0  -8  229.18   26.30
  -2   0  -8  214.28   24.70
  -2   0  -8  203.78   26.10
  -4   0  -8    6.00   11.90
  -4   0  -8   23.10   16.40
  -4   0  -8   36.60   16.10
   4   0   8   13.20   11.10
  -6   0  -8  434.56   42.70
   8   0   8  131.59   27.30
  -8   0  -8  219.98   35.50
 -10   0  -8   26.50   28.80
  10   0   8   22.00   22.60
 -12   0  -8   30.10   32.90
  12   0   8   15.50   28.00
 -13  -1   8   86.89   48.10
  13  -1  -8   92.09   33.40
  13  -1  -8   70.89   30.10
 -13   1   8   20.00   47.80
  13   1  -8   27.70   29.70
  13   1  -8   45.10   31.20
 -11  -1   8   89.29   37.90
  11  -1  -8   57.09   24.80
  11  -1  -8   -8.00   22.70
  11   1  -8   67.09   26.80
  11   1  -8   45.60   25.50
 -11   1   8  130.89   38.80
   9  -1  -8  111.89   26.40
   9  -1  -8  102.39   25.70
  -9  -1   8  140.09   34.30
   9   1  -8  138.29   27.00
   9   1  -8  132.39   27.30
  -9   1   8  247.28   38.80
  -7  -1   8  208.08   28.60
   7  -1  -8  122.79   24.10
   7  -1  -8  136.19   22.90
   7  -1  -8  180.58   25.10
  -7   1   8  215.08   30.20
   7   1  -8  134.79   24.20
   7   1  -8  133.09   23.00
   5  -1  -8   48.10   15.20
   5  -1  -8   41.00   10.20
   5  -1  -8   36.30   15.30
   5  -1  -8   48.80   13.30
   5   1  -8   27.20    7.20
   5   1  -8   32.90   15.10
   5   1  -8   43.20   16.10
   3  -1  -8 1093.59   78.89
  -3  -1   8 1052.99   78.09
   3  -1  -8 1125.49   81.39
   3  -1  -8 1137.19   81.29
   3   1  -8 1098.99   78.29
  -3   1   8 1076.49   78.79
   3   1  -8 1072.39   81.59
   3   1  -8 1145.49   81.29
   1  -1  -8   23.90   12.30
  -1  -1   8   39.30    9.40
   1  -1  -8   18.40   10.70
   1  -1  -8   29.20   11.10
   1   1  -8   29.50   11.60
   1   1  -8    4.30   10.90
   1   1  -8   37.20   10.90
  -1  -1  -8    9.70   11.90
  -1  -1  -8    0.40   10.70
  -1   1  -8   25.10   12.90
  -1   1  -8   25.00   11.30
  -3  -1  -8   90.89   19.50
  -3  -1  -8   91.49   17.80
  -3  -1  -8   82.79   19.10
  -3   1  -8  107.49   20.00
  -3   1  -8   84.89   19.60
  -3   1  -8   85.69   19.80
   5  -1   8   13.80   13.00
  -5  -1  -8   -3.80   15.60
  -5  -1  -8   14.90   13.70
  -5  -1  -8   22.70   17.60
   5   1   8  -17.60   11.00
  -5   1  -8   30.00   18.80
  -5   1  -8   26.70   17.40
  -5   1  -8   58.89   17.30
   7  -1   8  157.38   27.00
  -7  -1  -8  187.08   32.90
  -7  -1  -8  308.87   38.70
  -7  -1  -8  189.48   23.80
  -7   1  -8  301.57   33.30
  -7   1  -8  183.68   32.60
  -7   1  -8  253.07   34.80
   7   1   8  160.08   27.20
   9  -1   8   39.20   22.30
  -9  -1  -8   23.50   25.20
   9   1   8   83.79   24.90
  -9   1  -8   93.59   29.70
 -11  -1  -8    5.00   28.90
  11  -1   8   18.60   25.40
  11   1   8   28.00   25.60
 -11   1  -8  -34.60   25.80
  12  -2  -8   19.70   26.80
 -12  -2   8   36.50   43.40
  12  -2  -8    5.00   23.80
  12   2  -8   12.20   25.40
 -12   2   8   60.59   44.60
  12   2  -8   27.00   25.50
 -10  -2   8   28.60   31.30
  10  -2  -8   19.30   20.20
  10  -2  -8   22.90   22.60
 -10   2   8    8.80   32.80
  10   2  -8   22.20   21.50
  10   2  -8   46.80   22.60
   8  -2  -8   40.00   20.00
  -8  -2   8  152.38   28.90
   8  -2  -8   70.19   20.70
  -8   2   8  121.19   29.00
   8   2  -8   59.99   21.40
   8   2  -8   56.09   19.20
   6  -2  -8   -2.60    9.50
  -6  -2   8    5.00   16.40
   6  -2  -8   12.70   14.70
   6  -2  -8   11.90   13.10
   6  -2  -8    2.70   12.80
   6   2  -8    4.10   12.30
  -6   2   8    2.20   15.90
   6   2  -8   13.60   14.70
   4  -2  -8    5.90   12.00
  -4  -2   8   21.10    7.50
   4  -2  -8    4.80    9.90
   4  -2  -8    5.70   11.70
   4   2  -8    8.50    7.30
   4   2  -8   -4.40   11.50
   4   2  -8   10.40   13.30
   2  -2  -8  564.34   43.70
   2  -2  -8  527.25   44.10
   2  -2  -8  562.34   45.20
  -2  -2   8  553.24   41.80
   2   2  -8  546.05   45.50
   2   2  -8  561.14   42.70
   2   2  -8  538.65   43.90
   0  -2  -8  267.07   24.80
   0  -2   8  215.38   20.20
   0  -2  -8  208.48   24.80
   0   2   8  231.38   21.20
   0   2  -8  272.17   25.50
   0   2  -8  242.18   21.10
   0   2  -8  279.77   28.80
  -2  -2  -8  322.57   31.10
  -2  -2  -8  282.87   29.30
  -2  -2  -8  328.27   31.00
  -2   2  -8  340.67   31.90
  -2   2  -8  333.27   30.70
  -2   2  -8  303.07   31.40
  -4  -2  -8   86.69   20.40
   4  -2   8  108.99   16.90
  -4  -2  -8  131.59   20.50
  -4  -2  -8  134.39   23.50
  -4   2  -8  134.49   21.70
   4   2   8  117.09   17.60
  -4   2  -8  143.49   24.20
  -4   2  -8  117.19   22.10
   6  -2   8   61.99   19.00
  -6  -2  -8   80.19   23.80
  -6  -2  -8   70.99   17.50
  -6  -2  -8  106.69   24.80
   6   2   8   60.29   18.10
  -6   2  -8  125.49   23.50
  -6   2  -8   73.59   23.00
  -6   2  -8  103.79   24.20
  -8  -2  -8   62.29   30.30
  -8  -2  -8   37.70   24.70
   8  -2   8   -9.70   18.80
   8   2   8   53.09   19.40
  -8   2  -8   38.90   23.50
   8   2   8   10.60   18.60
  10  -2   8    9.20   22.40
 -10  -2  -8   16.20   27.30
 -10   2  -8    6.90   27.20
  10   2   8  -10.70   21.50
  12  -2   8  -36.10   25.10
 -12  -2  -8   35.60   33.80
 -12   2  -8    6.00   29.40
  12   2   8   23.00   26.90
  13  -3  -8   40.60   30.00
 -13  -3   8   49.00   48.50
  13  -3  -8   49.50   31.80
 -13   3   8   99.09   51.89
  13   3  -8   76.59   31.00
  13   3  -8   48.30   32.60
  11  -3  -8   10.10   22.80
  11  -3  -8   23.80   22.00
 -11  -3   8   44.20   38.10
  11   3  -8  -10.90   22.10
 -11   3   8   43.50   37.40
  11   3  -8   19.70   24.70
   9  -3  -8   40.00   17.80
  -9  -3   8  108.99   31.80
   9  -3  -8   65.19   23.50
  -9   3   8  174.48   35.80
   9   3  -8   90.99   24.20
   9   3  -8   29.50   20.90
   7  -3  -8   73.29   19.00
  -7  -3   8  106.79   24.80
   7  -3  -8  114.29   18.10
   7  -3  -8  115.49   22.20
   7  -3  -8  111.09   20.70
   7   3  -8  108.89   20.10
   7   3  -8   79.09   20.80
  -7   3   8  165.38   27.30
   5  -3  -8   18.50   14.30
   5  -3  -8   48.00   14.00
   5  -3  -8   32.80   12.80
   5  -3  -8   41.30   15.70
   5   3  -8   32.80   12.60
   5   3  -8   40.00   14.90
   3  -3  -8  786.42   59.09
  -3  -3   8  737.33   54.79
   3  -3  -8  756.12   57.49
   3  -3  -8  739.83   58.79
   3   3  -8  775.12   59.89
   3   3  -8  750.92   58.79
   3   3  -8  761.02   55.49
   1  -3  -8 1606.14  112.89
   1  -3  -8 1581.94  114.49
   1  -3  -8 1663.13  114.09
  -1  -3   8 1518.25  111.59
   1   3  -8 1635.24  113.19
   1   3  -8 1500.25  114.39
   1   3  -8 1641.94  112.29
  -1  -3  -8   81.29   16.40
   1  -3   8   59.19   13.70
  -1  -3  -8   53.29   15.10
  -1   3  -8   85.29   15.80
  -1   3  -8   50.69   15.90
   1   3   8   70.89   11.90
  -1   3  -8   61.19   15.40
  -3  -3  -8  100.09   18.50
  -3  -3  -8   80.39   18.20
  -3  -3  -8  147.19   22.20
   3   3   8  111.49   15.70
  -3   3  -8  158.08   23.60
  -3   3  -8  123.89   23.50
  -3   3  -8  145.59   23.00
   5  -3   8   33.30   15.50
  -5  -3  -8   48.30   18.90
  -5  -3  -8   78.99   22.00
  -5  -3  -8   75.49   17.30
  -5   3  -8   42.70   20.20
  -5   3  -8  109.89   20.90
   5   3   8   60.29   15.30
   7  -3   8   56.39   21.20
  -7  -3  -8   88.59   27.10
  -7  -3  -8  139.99   29.60
  -7  -3  -8  104.09   19.80
   7   3   8  127.59   20.10
  -7   3  -8   62.19   24.40
   7   3   8   97.09   21.30
  -9  -3  -8   87.89   35.70
  -9  -3  -8   45.00   27.30
   9  -3   8   49.10   23.20
   9   3   8   56.19   24.10
  -9   3  -8   62.19   28.50
  11  -3   8    3.70   24.50
 -11  -3  -8  -24.30   26.90
 -11   3  -8  -36.00   25.90
  11   3   8   20.90   25.60
  12  -4  -8   54.49   27.90
  12  -4  -8  -16.40   27.00
 -12  -4   8   30.40   40.50
 -12   4   8  103.29   46.40
  12   4  -8   15.80   25.60
  12   4  -8   92.99   30.00
 -10  -4   8   15.80   30.20
  10  -4  -8   13.10   21.80
  10  -4  -8   30.70   22.80
  10   4  -8    4.90   20.20
 -10   4   8   52.79   34.40
  10   4  -8   15.00   19.20
  -8  -4   8    0.10   23.00
   8  -4  -8   21.30   18.10
   8  -4  -8   23.00   19.00
   8  -4  -8   27.40   18.70
  -8   4   8   41.60   26.00
   8   4  -8   26.90   17.80
   8   4  -8   35.20   17.80
  -6  -4   8   30.70   18.60
   6  -4  -8    6.60   14.00
   6  -4  -8   23.70   14.00
   6  -4  -8   17.40   15.10
   6  -4  -8   29.60   13.30
   6   4  -8   23.60   16.30
   6   4  -8   18.70   13.40
  -6   4   8   36.10   19.10
   4  -4  -8  190.38   23.00
   4  -4  -8  190.38   24.40
   4  -4  -8  173.78   24.40
   4  -4  -8  238.78   22.30
  -4  -4   8  138.09   16.10
   4   4  -8  171.98   24.30
   2  -4  -8  246.78   26.40
  -2  -4   8  197.98   23.50
   2  -4  -8  198.98   24.30
   2  -4  -8  207.58   25.70
   2   4  -8  191.48   23.50
   2   4  -8  233.18   27.20
   0  -4  -8  431.86   37.30
   0  -4  -8  444.26   38.10
   0  -4   8  394.46   32.20
   0   4  -8  425.66   33.20
   0   4  -8  447.56   37.00
   0   4  -8  430.96   37.80
  -2  -4  -8   12.50   13.10
  -2  -4  -8   13.50   12.80
  -2  -4  -8   11.00   13.60
  -2   4  -8   41.40   14.70
  -2   4  -8   44.20   15.90
  -2   4  -8   22.40   14.90
  -4  -4  -8   23.30   14.00
  -4  -4  -8   44.20   16.50
  -4  -4  -8   14.80   16.30
   4  -4   8   27.70   13.00
   4   4   8    4.30   11.40
  -4   4  -8   41.80   18.20
   4   4   8   55.69   12.20
  -4   4  -8   78.29   19.30
  -6  -4  -8   57.39   20.60
   6  -4   8   21.30   15.80
  -6  -4  -8   57.79   16.00
  -6  -4  -8   35.80   20.50
   6   4   8   23.60   15.70
   6   4   8   82.29   17.80
  -6   4  -8   51.49   22.30
   8  -4   8    2.70   21.20
  -8  -4  -8  -22.70   21.90
  -8  -4  -8   29.20   29.60
  -8  -4  -8   19.50   20.80
  -8   4  -8   -0.60   20.70
   8   4   8   -4.30   19.60
   8   4   8    3.60   17.70
 -10  -4  -8   60.59   41.30
 -10  -4  -8  -14.30   26.00
  10  -4   8    5.80   22.40
 -10   4  -8   21.30   28.90
  10   4   8   52.49   25.00
 -12  -4  -8   50.49   32.20
  12  -4   8   12.80   27.90
 -12   4  -8   24.90   31.20
  12   4   8   43.20   29.10
  13  -5  -8   78.09   36.20
  13  -5  -8   39.60   31.10
 -13  -5   8   69.99   47.60
  13   5  -8   67.49   32.20
 -13   5   8  101.59   53.19
  13   5  -8   49.70   32.20
  11  -5  -8    8.40   25.80
  11  -5  -8    9.60   21.90
 -11  -5   8   12.70   35.50
  11   5  -8   38.90   22.80
  11   5  -8   40.60   25.00
 -11   5   8   37.80   39.00
   9  -5  -8  194.38   31.70
  -9  -5   8  315.37   41.60
   9  -5  -8  202.58   33.20
   9  -5  -8  251.27   30.10
  -9   5   8  294.67   43.80
   9   5  -8  126.69   30.00
   9   5  -8  185.98   31.80
   7  -5  -8   71.69   21.60
  -7  -5   8  150.58   27.70
   7  -5  -8   88.49   21.20
   7  -5  -8  137.89   22.00
   7   5  -8   64.59   21.00
  -7   5   8  126.59   26.80
   7   5  -8   81.59   19.00
  -5  -5   8   79.79   18.10
   5  -5  -8  102.19   20.30
   5  -5  -8   97.89   17.80
   5  -5  -8   56.59   17.80
   5  -5  -8  107.69   17.80
   5   5  -8   57.89   14.30
   5   5  -8   33.60   15.90
   3  -5  -8 1473.75  102.99
  -3  -5   8 1383.56   99.79
   3  -5  -8 1381.36  103.29
   3  -5  -8 1401.96  102.99
   3   5  -8 1445.26  103.29
   1  -5  -8   19.80   12.70
   1  -5  -8   32.10   13.90
   1   5  -8   16.40   11.90
  -1  -5  -8   44.10   13.40
  -1  -5  -8   54.69   15.10
  -1  -5  -8   31.50   14.50
  -1   5  -8   44.50   14.70
  -3  -5  -8   44.40   15.40
   3  -5   8   24.90   11.80
  -3  -5  -8   41.30   15.80
  -3  -5  -8   68.49   17.90
  -3   5  -8   45.80   18.70
   3   5   8   37.10   12.00
   3   5   8   76.49   17.40
  -5  -5  -8   -7.70   14.80
  -5  -5  -8   -5.00   12.70
   5  -5   8   -2.00   13.00
  -5  -5  -8  -22.00   16.60
  -5   5  -8    0.00   18.40
   5   5   8    4.80   13.70
   5   5   8   11.60   12.20
  -7  -5  -8   88.99   19.10
  -7  -5  -8   86.89   28.70
  -7  -5  -8   42.40   24.80
   7  -5   8   24.70   18.80
  -7   5  -8   29.90   22.90
   7   5   8  120.19   23.10
   7   5   8   59.79   19.40
  -9  -5  -8   56.49   34.80
  -9  -5  -8    9.30   28.10
   9  -5   8   28.40   23.00
   9   5   8   -2.10   27.20
  -9   5  -8    7.30   24.70
   9   5   8    5.40   21.30
 -11  -5  -8   20.70   32.40
  11  -5   8   26.60   27.70
 -11   5  -8   24.50   31.50
  11   5   8  -12.90   24.70
  12  -6  -8   25.10   26.60
 -12  -6   8   70.69   41.80
  12  -6  -8   48.50   31.00
  12   6  -8   20.10   28.30
  12   6  -8   26.50   25.80
 -12   6   8  112.99   47.50
 -10  -6   8  -12.50   30.20
  10  -6  -8    1.50   22.00
  10  -6  -8  -19.90   19.90
  10   6  -8   -0.60   20.00
  10   6  -8   34.70   23.20
 -10   6   8   13.40   34.30
   8  -6  -8   99.29   23.10
   8  -6  -8   83.79   25.20
   8  -6  -8  109.99   24.00
  -8  -6   8  121.69   28.70
   8   6  -8   98.59   22.80
  -8   6   8  152.18   31.30
   8   6  -8   71.79   22.70
   6  -6  -8   47.60   17.00
   6  -6  -8   12.40   15.80
  -6  -6   8   31.40   18.40
   6  -6  -8   23.30   17.30
   6   6  -8   20.20   13.80
   6   6  -8    5.40   14.50
  -6   6   8   58.39   19.30
   4  -6  -8   17.20   12.70
   4  -6  -8  -10.50   13.20
   4  -6  -8  -10.50   13.20
  -4  -6   8   20.30   13.60
   4  -6  -8   -0.70   12.50
  -4  -6   8   12.20    7.70
   4   6  -8    1.00   13.70
   2  -6  -8  229.58   29.80
   2  -6  -8  225.68   28.70
   2   6  -8  316.47   30.50
   0  -6   8   15.70   11.60
   0  -6  -8   13.60   12.20
   0  -6   8   23.60    8.40
   0  -6  -8   11.00   12.60
   0   6  -8    1.40    9.50
  -2  -6  -8   87.49   18.30
  -2  -6  -8   89.39   19.00
  -2  -6  -8   91.79   19.70
   2   6   8  100.89   14.50
  -2   6  -8  118.89   21.50
  -4  -6  -8    9.70   17.00
  -4  -6  -8    9.50   12.70
  -4  -6  -8   20.00   15.00
   4  -6   8  -14.60   11.40
   4   6   8    8.80   11.80
  -4   6  -8   11.20   16.90
   4   6   8   10.50   13.30
  -6  -6  -8   23.90   20.30
  -6  -6  -8   -3.10   15.30
  -6  -6  -8   28.60   21.60
   6  -6   8   12.20   15.10
  -6   6  -8   42.50   22.30
   6   6   8   68.59   18.90
   6   6   8   36.00   16.50
  -8  -6  -8   22.50   24.30
  -8  -6  -8   52.59   18.60
   8  -6   8   21.40   19.60
  -8  -6  -8   20.80   27.70
   8   6   8   98.19   25.60
   8   6   8    6.20   20.10
  -8   6  -8   28.80   26.60
 -10  -6  -8    7.40   28.00
 -10  -6  -8   59.19   41.40
  10  -6   8   29.70   24.80
 -10   6  -8    3.30   26.90
  10   6   8   34.60   24.60
  12  -6   8  -17.00   26.50
 -12  -6  -8  -14.30   29.80
 -12   6  -8   21.70   33.30
  12   6   8   23.70   30.10
 -13  -7   8   15.80   45.60
  13  -7  -8   47.60   33.60
  13  -7  -8    1.40   28.40
  13   7  -8   40.50   32.60
 -13   7   8   40.90   45.60
  13   7  -8   29.00   30.80
 -11  -7   8   40.10   35.80
  11  -7  -8    9.80   22.80
  11  -7  -8    7.00   26.20
  11   7  -8   59.99   26.80
  11   7  -8   33.40   27.70
 -11   7   8   28.10   37.30
   9  -7  -8   50.09   22.50
   9  -7  -8   68.69   25.40
  -9  -7   8   60.69   29.80
  -9   7   8  104.89   32.70
   9   7  -8   45.60   23.70
   9   7  -8   47.60   22.40
   7  -7  -8    6.80   16.90
   7  -7  -8   42.40   17.00
   7  -7  -8   22.20   18.10
  -7  -7   8   25.10   20.80
   7   7  -8    2.80   14.40
   7   7  -8    6.00   15.20
  -7   7   8   23.20   21.50
   5  -7  -8   18.30   15.20
   5  -7  -8   29.50   14.80
  -5  -7   8   26.50   16.30
  -5  -7   8   31.60    7.90
   5  -7  -8   54.29   17.40
  -5   7   8   38.60   16.40
   5   7  -8   18.90   12.40
   5   7  -8   24.40   16.50
   3  -7  -8 1977.70  132.59
  -3  -7   8 1864.01  133.99
   3  -7  -8 2042.90  136.39
   3  -7  -8 1809.62  135.69
  -3  -7   8 1744.63  132.19
   3   7  -8 1902.71  135.69
   1  -7  -8  369.76   34.40
   1  -7  -8  332.27   34.60
   1   7  -8  361.76   32.70
  -1  -7  -8   22.10   15.20
  -1  -7  -8   15.00   14.00
  -1  -7  -8   51.59   15.30
  -1   7  -8   30.10   15.50
   1   7   8   28.10   10.60
   3  -7   8  146.09   18.90
  -3  -7  -8  100.29   20.50
  -3  -7  -8  125.29   23.70
  -3  -7  -8  103.39   20.80
   3   7   8  111.09   17.20
  -3   7  -8  100.09   22.20
   3   7   8  125.19   19.70
  -5  -7  -8   12.40   15.50
   5  -7   8   30.00   16.10
  -5  -7  -8   44.40   17.10
  -5  -7  -8   35.80   19.10
   5   7   8   56.19   15.80
  -5   7  -8   30.10   20.40
   5   7   8   53.09   16.60
  -7  -7  -8   44.30   24.30
   7  -7   8   43.60   20.20
  -7  -7  -8   32.90   25.60
  -7  -7  -8   58.19   19.10
  -7   7  -8    4.90   23.70
   7   7   8   75.39   22.70
   7   7   8   68.59   20.10
   9  -7   8   83.09   26.40
  -9  -7  -8  144.59   39.00
  -9  -7  -8   24.20   26.90
  -9   7  -8   55.79   29.30
   9   7   8   21.30   22.40
   9   7   8  121.49   30.90
  11  -7   8   37.10   27.50
 -11  -7  -8  -66.79   26.90
 -11   7  -8   25.90   32.50
  11   7   8   11.00   25.00
 -12  -8   8    9.20   38.60
  12  -8  -8   -5.50   29.10
  12  -8  -8   28.60   28.10
  12   8  -8   17.00   27.00
 -12   8   8   17.30   42.90
  12   8  -8   -9.40   25.90
  10  -8  -8  -20.00   20.90
 -10  -8   8  -10.10   31.30
  10  -8  -8   17.60   22.50
 -10   8   8   27.20   34.70
  10   8  -8   15.90   22.00
  10   8  -8  -23.40   20.40
   8  -8  -8   73.09   23.50
  -8  -8   8  115.79   29.60
   8  -8  -8  145.89   26.80
   8  -8  -8   94.69   24.30
   8   8  -8   85.79   22.60
  -8   8   8  126.99   31.90
   8   8  -8   60.89   21.20
   6  -8  -8  172.88   25.20
   6  -8  -8  118.49   24.10
   6  -8  -8  145.49   23.50
  -6  -8   8  161.68   26.50
   6   8  -8  120.69   25.50
   6   8  -8  115.09   21.20
  -6   8   8  156.18   25.80
  -4  -8   8   75.59   13.90
  -4  -8   8   82.29   17.90
   4  -8  -8   61.29   18.60
   4  -8  -8   84.29   16.10
   4   8  -8   77.19   20.00
   2  -8  -8  185.38   27.30
   2  -8  -8  223.08   29.40
   2  -8  -8  205.58   22.80
   2   8  -8  212.08   27.70
   0  -8  -8  383.96   35.40
   0  -8  -8  346.27   35.60
   0   8   8  340.27   29.50
   0   8  -8  344.27   30.80
  -2  -8  -8  546.75   49.90
  -2  -8  -8  604.74   48.70
  -2   8  -8  600.44   49.50
   2   8   8  630.44   46.50
  -4  -8  -8   20.40   19.10
  -4  -8  -8    6.50   15.50
   4  -8   8    4.00   13.10
  -4  -8  -8  -15.00   13.80
  -4   8  -8    2.30   18.00
   4   8   8   14.80   14.40
   4   8   8   -1.80   11.60
   6  -8   8   52.59   20.10
  -6  -8  -8   45.20   18.20
  -6  -8  -8   42.60   21.50
  -6  -8  -8   44.00   22.80
  -6   8  -8   85.19   23.40
   6   8   8  122.99   22.90
   6   8   8   60.79   18.60
  -8  -8  -8  -15.80   17.70
   8  -8   8   25.30   20.60
  -8  -8  -8  -15.40   22.60
  -8  -8  -8   14.10   28.90
  -8   8  -8  -27.80   21.30
   8   8   8    3.70   24.50
   8   8   8   -9.40   18.50
 -10  -8  -8   36.90   30.80
  10  -8   8   42.50   27.60
 -10  -8  -8   87.59   42.30
 -10   8  -8   18.70   29.40
  10   8   8   46.40   25.70
 -12  -8  -8   20.20   35.20
  12  -8   8   54.69   34.10
  12   8   8  -10.40   28.90
 -12   8  -8   22.50   30.50
  13  -9  -8   41.70   31.30
 -13  -9   8   62.29   49.30
  13  -9  -8   20.00   36.50
  13   9  -8   -1.10   31.70
  13   9  -8    2.40   30.30
 -13   9   8   68.79   48.60
  11  -9  -8   17.50   23.90
  11  -9  -8   49.50   26.30
 -11  -9   8  -27.20   37.70
  11   9  -8   12.40   25.30
  11   9  -8   18.30   26.00
 -11   9   8  -10.60   37.80
  -9  -9   8   36.20   27.90
   9  -9  -8   36.50   22.80
   9  -9  -8   14.60   21.00
   9   9  -8   31.90   20.70
  -9   9   8   23.40   29.70
   9   9  -8   29.50   21.20
   7  -9  -8  390.66   38.50
  -7  -9   8  395.36   43.10
   7  -9  -8  299.67   40.80
   7  -9  -8  395.06   39.20
   7   9  -8  341.37   38.90
  -7   9   8  429.46   41.60
   7   9  -8  390.86   41.40
   5  -9  -8    3.30   15.80
  -5  -9   8   -9.40    9.40
   5  -9  -8   28.00   14.60
  -5  -9   8   12.80   15.50
   5   9  -8   11.70   16.80
   5   9  -8   11.10   12.30
  -5   9   8  -10.60   16.20
   3  -9  -8  325.07   34.50
   3  -9  -8  343.07   30.80
   3  -9  -8  344.87   34.90
   3   9  -8  316.37   36.90
   1  -9  -8  613.44   51.99
   1  -9  -8  591.84   52.89
   1  -9  -8  631.94   47.00
   1   9  -8  624.24   49.80
  -1  -9  -8    4.50   12.80
  -1  -9  -8    0.50   13.80
   1   9   8   13.00   10.90
  -1   9  -8  -12.20    9.40
  -3  -9  -8   99.79   22.40
  -3  -9  -8  112.19   21.30
  -3  -9  -8   88.09   16.30
   3  -9   8  102.99   18.80
  -3   9  -8   95.69   21.40
   3   9   8  152.68   22.20
   3   9   8  125.09   19.10
  -5  -9  -8   19.70   20.40
   5  -9   8   19.80   16.20
  -5  -9  -8   31.50   18.30
   5   9   8   50.39   17.60
  -5   9  -8   50.99   22.40
   5   9   8   25.50   14.80
  -7  -9  -8   66.89   26.90
  -7  -9  -8   51.09   28.10
  -7  -9  -8   57.59   20.90
   7  -9   8   49.00   20.50
   7   9   8    9.70   18.20
   7   9   8   83.99   24.60
  -7   9  -8   11.80   22.90
   9  -9   8    5.70   24.10
  -9  -9  -8   16.40   36.00
  -9  -9  -8   25.50   26.90
  -9   9  -8   13.40   26.40
   9   9   8   19.10   21.40
   9   9   8   56.09   30.70
 -11  -9  -8   49.60   35.70
  11  -9   8    5.00   27.90
 -11   9  -8   23.00   31.30
  11   9   8   -1.20   26.10
  12 -10  -8   21.30   31.10
  12 -10  -8   12.80   26.70
 -12 -10   8   17.00   42.30
  12  10  -8    9.20   28.00
 -12  10   8  -14.50   43.60
  12  10  -8   11.40   28.80
 -10 -10   8   17.70   32.10
  10 -10  -8   49.90   24.30
  10 -10  -8   58.79   25.10
  10  10  -8   50.79   28.20
 -10  10   8   67.59   37.60
  10  10  -8   57.99   24.70
   8 -10  -8   48.10   22.00
   8 -10  -8   77.49   22.90
   8 -10  -8   19.00   20.90
  -8 -10   8   52.49   27.20
   8  10  -8   66.59   21.50
  -8  10   8   56.19   28.00
   8  10  -8   29.60   21.40
   6 -10  -8   89.39   21.40
   6 -10  -8  106.19   23.80
  -6 -10   8  156.08   26.80
  -6  10   8  110.99   26.20
   6  10  -8   65.19   21.60
   6  10  -8  111.39   20.90
  -4 -10   8   52.49   17.50
   4 -10  -8   47.50   17.90
   4 -10  -8   22.00   14.30
   4  10  -8   30.60   16.70
   4  10  -8   30.90   12.40
   2 -10  -8  111.49   23.90
   2 -10  -8  121.09   17.60
   2 -10  -8   86.69   20.20
   2  10  -8  104.99   20.60
   0 -10  -8    7.50   13.70
   0 -10  -8   54.69   11.30
   0  10   8   20.60   11.50
   0  10  -8   34.20   13.40
  -2 -10  -8    4.70   10.40
  -2 -10  -8    1.70   13.30
   2 -10   8   11.60   11.70
  -2 -10  -8    8.80   16.00
  -2  10  -8   -1.70   16.40
   2  10   8   -6.40   11.10
  -4 -10  -8   12.40   20.20
  -4 -10  -8   34.80   18.20
   4 -10   8   44.20   16.30
   4  10   8   62.99   16.20
  -4  10  -8   12.70   20.10
   4  10   8   39.40   18.00
   6 -10   8    4.30   18.10
  -6 -10  -8  -14.00   20.50
  -6 -10  -8  -35.90   18.30
   6  10   8   20.30   19.20
  -6  10  -8   39.70   23.30
   6  10   8    9.50   16.20
  -8 -10  -8    8.80   27.40
  -8 -10  -8   24.70   19.90
  -8 -10  -8  110.29   35.50
   8 -10   8   43.30   21.80
   8  10   8   36.80   20.70
   8  10   8   48.00   24.50
  -8  10  -8   19.40   24.50
 -10 -10  -8   27.90   31.50
 -10 -10  -8   46.10   42.90
  10 -10   8  -16.50   25.60
  10  10   8   -1.70   23.70
 -10  10  -8   -1.90   27.70
 -12 -10  -8  -10.20   35.00
  12 -10   8   -1.20   32.00
 -12  10  -8   14.80   32.30
  12  10   8    0.10   30.10
  13  11  -8   55.59   33.30
  11 -11  -8   20.60   25.50
  11 -11  -8   22.40   28.20
 -11 -11   8  -14.90   36.90
  11  11  -8   10.40   25.90
  11  11  -8   -5.80   24.50
 -11  11   8   12.10   42.40
  -9 -11   8   12.30   27.30
   9 -11  -8   45.70   23.50
   9  11  -8    5.90   22.50
   9  11  -8   -7.10   20.20
  -9  11   8   59.89   32.60
   7 -11  -8  104.89   23.70
   7 -11  -8   56.49   19.60
  -7 -11   8   38.10   24.70
  -7  11   8   74.89   27.80
   7  11  -8   87.59   24.90
   7  11  -8   39.30   19.30
   5 -11  -8   45.90   19.90
   5 -11  -8   41.90   16.40
  -5 -11   8   71.69   19.30
   5  11  -8   26.70   14.50
   5  11  -8   25.40   17.50
   3 -11  -8   51.19   15.90
   3 -11  -8  113.49   23.00
   3  11  -8   87.89   19.60
   1 -11  -8  521.55   47.70
   1 -11  -8  512.65   42.30
   1  11  -8  569.14   45.60
  -1 -11  -8   -2.70   13.50
  -1 -11  -8    0.40   14.20
   1 -11   8   -9.00   10.40
  -1 -11  -8   -6.20    9.60
  -1  11  -8    8.70   10.40
   1  11   8  -22.80   10.50
  -3 -11  -8  178.28   26.90
   3 -11   8  185.68   23.50
  -3 -11  -8  135.59   20.40
  -3 -11  -8  161.58   26.40
   3  11   8  166.68   26.00
  -3  11  -8  131.49   27.40
   3  11   8  163.48   23.00
  -5 -11  -8   30.70   18.60
   5 -11   8   22.40   18.60
  -5 -11  -8   13.50   22.90
   5  11   8   11.90   19.50
   5  11   8   16.20   15.00
  -5  11  -8   10.10   22.10
  -7 -11  -8  -11.40   22.80
   7 -11   8   22.90   23.10
  -7 -11  -8   56.49   26.90
  -7  11  -8   13.30   23.70
   7  11   8   38.80   20.00
   7  11   8   23.70   24.20
  -9 -11  -8   -7.40   32.60
   9 -11   8  -12.90   22.40
  -9 -11  -8  -28.30   25.20
  -9  11  -8   55.19   31.80
   9  11   8  -23.10   28.60
   9  11   8   25.20   24.40
 -11 -11  -8  -43.60   26.10
  11 -11   8   -6.10   29.70
  11  11   8    3.60   26.20
 -11  11  -8   79.39   36.70
 -12 -12   8   90.29   47.20
  12 -12  -8   50.89   28.00
  12  12  -8  -37.70   26.10
 -12  12   8   64.19   48.20
  12  12  -8   15.30   30.00
  10 -12  -8    3.10   22.10
 -10 -12   8   20.20   32.40
  10  12  -8   12.20   23.10
 -10  12   8   16.30   33.60
  10  12  -8   32.70   25.30
   8 -12  -8   -2.70   21.40
   8 -12  -8   32.20   21.00
  -8 -12   8   30.90   28.80
   8  12  -8   14.30   21.20
  -8  12   8   52.99   27.80
   8  12  -8    8.20   17.60
   6 -12  -8  171.88   28.60
   6 -12  -8   89.99   22.30
  -6 -12   8  131.49   26.30
   6  12  -8  136.89   22.80
  -6  12   8  147.29   29.40
   6  12  -8  115.19   27.30
   4 -12  -8   56.59   16.30
   4 -12  -8   27.70   19.00
  -4 -12   8   53.89   18.60
   4  12  -8   35.20   17.50
   2 -12  -8  877.11   68.79
   2 -12  -8  973.60   73.79
   2  12  -8  923.21   71.99
   0 -12  -8  196.78   29.60
   0 -12  -8  211.88   24.50
   0  12  -8  234.48   27.10
  -2 -12  -8  499.25   37.90
  -2 -12  -8  383.06   41.00
   2 -12   8  483.15   38.50
  -2 -12  -8  432.16   42.00
  -2  12  -8  399.96   36.90
   2  12   8  421.36   38.60
   4 -12   8   46.00   18.80
  -4 -12  -8   68.89   23.20
  -4 -12  -8   75.69   21.20
   4  12   8   40.30   19.70
   4  12   8   64.19   18.20
  -4  12  -8   75.79   23.30
   6 -12   8  -18.00   19.50
  -6 -12  -8   49.90   24.10
  -6 -12  -8    4.20   23.20
   6  12   8   13.40   21.70
  -6  12  -8   35.10   27.60
   6  12   8   15.80   17.40
   8 -12   8   23.30   23.00
  -8 -12  -8   38.10   30.60
  -8 -12  -8  -20.20   24.40
  -8  12  -8  -19.60   25.80
   8  12   8   28.90   27.00
   8  12   8   21.20   20.20
  10 -12   8   40.70   29.00
 -10 -12  -8   88.29   48.30
 -10 -12  -8   46.30   33.00
  10  12   8   19.70   42.90
  10  12   8   82.99   29.60
 -10  12  -8   17.10   31.20
 -11 -13   8    0.40   35.80
  11 -13  -8   19.70   25.80
  11  13  -8    3.70   25.30
 -11  13   8    2.60   40.20
  11  13  -8    6.80   27.80
   9 -13  -8   58.39   25.50
  -9 -13   8   48.60   31.50
  -9  13   8   66.79   35.30
   9  13  -8   49.99   28.10
   9  13  -8   96.19   26.10
   7 -13  -8   42.00   23.30
   7 -13  -8   -5.20   16.60
  -7 -13   8    6.60   26.00
  -7  13   8   35.40   25.80
   7  13  -8   -5.10   17.40
   7  13  -8  -17.70   20.00
   5 -13  -8   81.79   19.80
   5 -13  -8   48.50   21.80
  -5 -13   8   55.79   23.20
   5  13  -8   17.50   18.50
   5  13  -8   86.19   17.70
   3 -13  -8 1267.27   94.99
   3  13  -8 1335.07   99.09
   1 -13  -8  234.08   32.40
   1 -13  -8  229.68   26.50
   1  13  -8  223.38   29.60
  -1 -13  -8   38.30   16.90
  -1 -13  -8    8.30   10.90
  -1 -13  -8    3.90   16.70
   1 -13   8   11.60   12.90
  -1  13  -8   25.10   13.10
   1  13   8   13.70   12.50
  -3 -13  -8  196.48   30.50
   3 -13   8  196.78   27.30
  -3 -13  -8  205.18   29.70
  -3 -13  -8  185.08   24.90
   3  13   8  212.88   26.30
   3  13   8  225.48   30.50
  -3  13  -8  195.38   30.20
  -3  13  -8  168.78   23.30
  -5 -13  -8   31.10   20.60
  -5 -13  -8   -1.10   22.80
   5 -13   8   -5.80   17.80
   5  13   8    7.70   16.90
  -5  13  -8   13.20   20.90
   5  13   8  -27.30   19.60
  -7 -13  -8   94.49   29.70
  -7 -13  -8   34.00   27.20
   7 -13   8   93.69   26.20
  -7  13  -8  -14.70   27.60
   7  13   8   69.09   23.60
   7  13   8   75.49   28.10
   9 -13   8   61.99   28.60
  -9 -13  -8   59.39   40.30
  -9 -13  -8   59.09   31.70
  -9  13  -8   -5.50   28.10
   9  13   8   12.20   23.80
   9  13   8  104.89   32.20
  11 -13   8  -33.90   29.50
 -11 -13  -8    4.80   32.20
 -11  13  -8  -38.30   30.80
  11  13   8   20.00   27.80
 -12 -14   8    0.50   43.70
  12 -14  -8  -26.80   26.10
  12  14  -8   -7.80   28.50
  12  14  -8   39.70   32.00
 -12  14   8   54.09   50.59
 -10 -14   8  -42.90   31.50
  10 -14  -8  -12.50   24.00
  10  14  -8   -9.00   26.90
  10  14  -8   25.40   27.70
 -10  14   8   30.30   40.40
   8 -14  -8  157.08   30.20
   8 -14  -8  175.18   33.40
  -8 -14   8  132.49   34.70
   8  14  -8  107.29   26.70
   8  14  -8  103.59   31.10
  -8  14   8  235.08   40.40
  -6 -14   8   13.80   21.30
   6 -14  -8    6.20   17.30
   6 -14  -8   -6.80   21.20
   6  14  -8    3.90   19.10
   6  14  -8  -28.50   15.40
   4 -14  -8  190.58   26.70
   4  14  -8  134.89   27.50
   2 -14  -8   23.00   12.70
   2  14  -8   18.90   16.20
   0 -14  -8  116.29   24.50
   0 -14   8  144.19   20.70
   0 -14  -8  127.19   19.50
   0  14  -8  173.98   23.90
   2 -14   8  160.78   23.50
  -2 -14  -8  159.78   22.80
  -2 -14  -8  161.38   27.50
  -2 -14  -8  134.79   27.30
   2  14   8  192.68   24.90
  -2  14  -8  181.28   24.10
  -4 -14  -8   -4.10   17.80
   4 -14   8  -10.70   17.00
  -4 -14  -8    1.40   14.80
  -4 -14  -8   30.80   19.50
   4  14   8  -17.40   15.80
  -4  14  -8   -3.40   20.00
   4  14   8   -6.30   19.70
  -4  14  -8  -11.10   13.00
  -6 -14  -8   39.10   26.30
   6 -14   8   27.40   23.10
  -6 -14  -8   66.79   27.00
  -6  14  -8   38.00   25.90
   6  14   8  110.79   27.10
   6  14   8   40.50   21.20
  -8 -14  -8   32.00   30.20
   8 -14   8  -33.20   23.50
  -8 -14  -8   -9.50   25.40
   8  14   8   10.80   22.20
   8  14   8  -50.69   26.90
  -8  14  -8  -17.20   27.50
 -10 -14  -8  -48.30   27.40
 -10 -14  -8  -67.59   37.90
  10 -14   8   34.70   31.00
 -10  14  -8   29.00   32.50
  10  14   8   41.60   38.50
  10  14   8   -2.90   24.40
 -11 -15   8  -18.50   36.90
  11 -15  -8  -14.10   25.40
  11  15  -8    8.10   28.00
  11  15  -8   36.60   30.20
 -11  15   8   26.70   44.80
   9 -15  -8   33.20   24.00
  -9 -15   8   84.99   35.00
  -9  15   8  100.69   37.40
   9  15  -8   49.90   25.80
   9  15  -8  115.99   33.40
   7 -15  -8  184.88   34.60
  -7 -15   8  203.88   36.10
   7 -15  -8  134.69   27.30
   7  15  -8  102.99   28.60
   7  15  -8  198.68   30.30
   5 -15  -8    3.50   17.30
  -5 -15   8   -3.50   20.10
   5  15  -8   35.40   19.50
   3 -15  -8  512.65   44.10
   3  15  -8  495.05   48.20
   1 -15  -8   28.30   17.60
   1 -15  -8   45.80   14.90
   1  15  -8   15.10   15.70
   1 -15   8  -19.20   12.70
  -1 -15  -8   -0.90   11.70
  -1 -15  -8   -1.30   16.20
   1  15   8   15.10   13.00
  -1  15  -8    4.60   14.80
  -3 -15  -8   -7.10   14.40
  -3 -15  -8   51.79   20.70
  -3 -15  -8   36.20   21.30
   3 -15   8   32.00   17.90
  -3  15  -8   11.20   15.80
   3  15   8   60.69   18.50
   3  15   8   46.20   22.30
  -5 -15  -8   -3.50   21.90
   5 -15   8   25.80   20.90
  -5 -15  -8   19.00   22.80
  -5  15  -8  -25.90   21.20
   5  15   8   -3.30   16.30
   5  15   8   25.60   22.50
   7 -15   8   43.00   25.80
  -7 -15  -8   17.90   29.00
  -7 -15  -8  121.89   33.60
   7  15   8   11.20   20.50
   7  15   8  118.19   30.60
  -7  15  -8   45.10   27.30
   9 -15   8  -23.90   26.20
  -9 -15  -8   13.90   28.70
  -9 -15  -8   31.40   37.90
   9  15   8    4.10   23.60
  -9  15  -8   49.60   33.40
   9  15   8  -13.50   30.80
 -11 -15  -8  -27.50   32.10
  11 -15   8    8.70   33.70
  11  15   8  -16.90   27.10
 -11  15  -8  -28.10   36.50
 -10 -16   8   46.90   36.10
  10 -16  -8   25.20   25.80
  10  16  -8   18.20   29.10
  10  16  -8   20.00   28.60
 -10  16   8   26.60   39.90
  -8 -16   8   12.80   27.70
   8 -16  -8   13.00   27.90
   8 -16  -8   61.99   23.40
   8  16  -8   37.50   23.90
   8  16  -8   27.70   21.60
  -8  16   8  -49.60   29.20
   6 -16  -8   62.59   27.60
   6 -16  -8    2.20   17.80
  -6 -16   8   30.10   23.60
   6  16  -8   15.70   24.30
   6  16  -8   22.70   19.90
   4 -16  -8  -28.70   12.70
   4  16  -8   11.60   19.40
   2 -16  -8   90.89   18.80
   2  16  -8   58.29   20.90
   0 -16   8   86.39   20.00
   0 -16  -8  130.59   21.10
   0 -16  -8  103.19   24.40
   0  16  -8  126.29   24.10
  -2 -16  -8  228.78   33.70
  -2 -16  -8  201.38   31.80
  -2 -16  -8  197.98   27.30
   2 -16   8  202.58   28.00
  -2  16  -8  181.68   26.90
   2  16   8  241.18   30.00
  -4 -16  -8   20.30   19.30
   4 -16   8    8.30   19.30
  -4 -16  -8    1.20   20.30
  -4 -16  -8   -0.60   16.70
  -4  16  -8    7.90   21.30
   4  16   8  -18.10   15.10
  -4  16  -8    7.00   16.70
   4  16   8   -9.00   22.10
  -6 -16  -8   41.40   28.50
  -6 -16  -8    6.40   24.80
   6 -16   8   25.30   23.60
  -6  16  -8    7.30   25.30
   6  16   8   16.10   19.20
   6  16   8   11.20   25.40
  -8 -16  -8   -8.50   28.60
  -8 -16  -8   26.00   32.80
   8 -16   8  -29.20   23.70
  -8  16  -8    4.30   25.30
   8  16   8   11.50   22.00
   8  16   8   20.60   30.50
 -10 -16  -8   -0.80   33.40
  10 -16   8   -5.10   30.20
 -10  16  -8  -11.90   30.00
  10  16   8   14.80   25.20
  10  16   8  -30.70   36.30
 -11 -17   8   -3.50   40.00
  11 -17  -8    6.20   27.70
  11  17  -8   26.70   31.40
  11  17  -8   22.10   30.80
 -11  17   8  145.29   51.49
   9 -17  -8   35.10   24.80
  -9 -17   8   50.89   33.90
   9  17  -8   43.30   26.00
   9  17  -8    9.30   27.10
  -9  17   8   79.29   37.50
   7 -17  -8   -3.80   26.30
   7 -17  -8   10.30   20.20
  -7 -17   8  -14.90   24.40
   7  17  -8   -8.80   20.90
   7  17  -8    7.50   20.30
  -5 -17   8  175.68   33.70
   5 -17  -8   91.29   24.70
   5  17  -8  149.59   29.70
   3 -17  -8  104.39   22.00
   3  17  -8  127.09   27.30
   1 -17  -8  189.28   26.30
   1 -17  -8  213.28   31.80
   1  17  -8  150.28   27.70
  -1 -17  -8    2.40   16.50
   1 -17   8   -2.80   14.20
  -1 -17  -8   -9.00   12.50
  -1  17  -8    1.20   16.30
  -3 -17  -8   79.89   24.10
  -3 -17  -8   96.19   22.50
   3 -17   8   64.79   22.20
  -3 -17  -8  147.59   30.60
   3  17   8  111.69   28.60
   3  17   8   95.89   22.60
  -3  17  -8  119.79   23.20
  -5 -17  -8   32.10   23.80
  -5 -17  -8    2.80   23.90
   5 -17   8   40.60   23.40
  -5 -17  -8   15.60   19.30
   5  17   8   53.59   27.10
   5  17   8   -0.40   18.70
  -5  17  -8   28.40   25.50
  -7 -17  -8   34.40   32.00
   7 -17   8   31.30   28.20
  -7 -17  -8   47.20   33.50
   7  17   8   27.60   22.90
   7  17   8   88.89   31.00
  -7  17  -8   87.29   31.90
   9 -17   8   33.40   29.90
  -9 -17  -8   33.00   33.90
  -9 -17  -8   -2.70   36.00
   9  17   8  -12.40   24.20
  -9  17  -8   22.70   31.70
   9  17   8   46.00   33.80
 -10 -18   8   99.19   41.80
  10 -18  -8  -24.20   22.80
 -10  18   8   21.70   40.60
  10  18  -8  -26.30   29.00
  10  18  -8  -26.30   25.90
  -8 -18   8   10.30   31.40
   8 -18  -8   19.20   31.50
   8 -18  -8   14.20   21.10
   8  18  -8   -0.10   25.70
   8  18  -8    7.20   23.50
   6 -18  -8  -14.40   19.60
  -6 -18   8   24.50   26.10
   6  18  -8   57.69   25.80
   4 -18  -8  110.39   23.60
   4  18  -8  124.49   30.50
   2 -18  -8   87.29   20.50
   2  18  -8   65.79   22.20
   0 -18  -8   56.59   21.70
   0 -18  -8   81.29   18.90
   0 -18   8   83.39   21.30
   0  18  -8   76.29   22.30
  -2 -18  -8  120.09   26.70
   2 -18   8  133.89   25.10
  -2 -18  -8  128.09   23.80
  -2 -18  -8  130.09   28.60
   2  18   8  105.89   23.50
  -2  18  -8  148.89   25.90
  -4 -18  -8  -26.70   19.40
  -4 -18  -8   23.60   20.00
  -4 -18  -8  -17.50   19.70
   4 -18   8   -6.50   20.40
   4  18   8   26.20   19.00
  -4  18  -8   29.00   21.60
   4  18   8  -38.30   22.40
   6 -18   8   23.70   26.10
  -6 -18  -8   57.29   28.80
  -6 -18  -8   69.19   30.20
   6  18   8   61.09   29.50
   6  18   8   32.30   22.00
  -6  18  -8   36.40   27.90
  -8 -18  -8   22.80   31.10
   8 -18   8   39.60   31.80
  -8 -18  -8  110.39   39.90
   8  18   8   -6.30   20.90
   8  18   8   26.30   34.00
  -8  18  -8  -29.90   29.00
  10 -18   8   35.40   36.00
 -10 -18  -8   -8.20   35.60
  10  18   8   13.00   29.60
 -10  18  -8   -5.90   34.90
  10  18   8    6.70   35.20
  11 -19  -8   -8.30   28.30
  11  19  -8   66.99   34.70
 -11  19   8  -30.50   47.20
  -9 -19   8   31.30   37.10
   9 -19  -8    1.50   22.70
   9  19  -8  -11.20   26.90
   9  19  -8   58.39   27.60
  -7 -19   8  190.58   40.50
   7 -19  -8  209.88   41.80
   7 -19  -8  156.48   30.20
   7  19  -8  210.28   39.00
   7  19  -8  177.38   33.50
   5 -19  -8   12.00   18.60
  -5 -19   8  -30.70   23.00
   5  19  -8  -32.40   19.00
   3 -19  -8  317.37   37.40
   3  19  -8  297.07   44.10
   1 -19  -8   97.79   24.60
   1 -19  -8   63.79   17.90
  -1 -19   8   95.49   22.20
   1  19  -8  102.59   25.70
  -1 -19  -8   15.30   15.90
  -1 -19  -8   31.20   20.70
   1 -19   8  -13.20   15.40
  -1  19  -8   41.50   21.70
  -3 -19  -8   22.10   24.20
  -3 -19  -8   -8.10   16.20
  -3 -19  -8   25.30   21.90
   3 -19   8   13.20   19.80
   3  19   8  -21.60   15.40
  -3  19  -8   15.80   20.70
   3  19   8   17.90   22.50
  -5 -19  -8   -5.90   23.10
   5 -19   8    2.30   21.90
  -5 -19  -8  -46.70   21.60
  -5 -19  -8   17.70   20.30
   5  19   8    9.80   20.20
   5  19   8   36.80   27.40
   7 -19   8  125.59   34.90
  -7 -19  -8  172.68   40.80
  -7 -19  -8   71.39   32.90
   7  19   8  118.89   35.80
  -7  19  -8  106.19   33.00
   7  19   8   49.00   26.50
   9 -19   8   91.09   36.20
  -9 -19  -8   36.70   34.40
  -9 -19  -8    5.10   38.40
   9  19   8  -16.90   35.30
   9  19   8   40.50   27.10
  -9  19  -8   16.30   32.80
 -10 -20   8   28.30   41.90
  10 -20  -8   15.20   27.30
  10  20  -8   33.80   32.40
  10  20  -8  -21.30   27.60
   8 -20  -8   14.70   24.50
  -8 -20   8   27.30   33.20
   8  20  -8    6.30   26.30
   8  20  -8    0.20   24.50
   6 -20  -8   47.50   20.80
  -6 -20   8   24.50   29.50
   6  20  -8  -11.70   23.30
   4 -20  -8   -9.90   16.50
   4  20  -8  -25.20   20.80
   2 -20  -8   20.50   16.50
   2  20  -8   -1.30   21.30
   0 -20   8   45.50   20.50
   0 -20  -8   73.49   25.10
   0 -20  -8   93.59   20.90
   0  20  -8   56.69   24.00
  -2 -20  -8   27.80   25.90
  -2 -20  -8   28.20   17.80
   2 -20   8   53.79   21.10
  -2 -20  -8   72.09   25.10
  -2  20  -8  113.69   26.40
  -4 -20  -8   -4.50   19.30
  -4 -20  -8    1.30   23.20
   4 -20   8   10.40   22.30
  -4 -20  -8   -6.60   23.30
   4  20   8    3.70   18.40
  -4  20  -8    9.50   20.70
   4  20   8    5.00   25.20
  -6 -20  -8    7.10   27.60
  -6 -20  -8   42.90   33.30
   6 -20   8   47.50   28.30
  -6 -20  -8   22.90   22.30
   6  20   8   47.30   31.30
   6  20   8   13.60   22.10
  -6  20  -8   -4.90   26.10
  -8 -20  -8   70.89   40.00
   8 -20   8   16.00   32.10
  -8 -20  -8   55.19   38.90
  -8  20  -8  -10.50   28.70
   8  20   8  -16.00   23.70
   8  20   8    1.90   34.40
  -9 -21   8    9.80   37.20
   9 -21  -8  -21.30   23.80
   9  21  -8   28.10   28.00
   9  21  -8  -15.90   27.80
   7 -21  -8   -2.30   22.60
  -7 -21   8   23.50   31.00
   7  21  -8   -5.10   25.70
  -5 -21   8   26.60   31.10
   5 -21  -8   63.79   22.50
   5  21  -8   74.99   29.20
   3 -21  -8  198.08   31.60
   3  21  -8  253.97   40.20
  -1 -21   8   66.09   21.90
   1 -21  -8   83.49   21.00
   1  21  -8   92.79   27.10
  -1 -21  -8   35.80   19.00
   1 -21   8   17.00   20.00
  -1 -21  -8    6.90   20.70
  -1  21  -8   44.10   23.40
   3 -21   8  114.89   27.50
  -3 -21  -8  164.98   34.20
  -3 -21  -8  180.68   36.10
  -3 -21  -8  170.28   28.70
   3  21   8  138.19   34.70
  -3  21  -8  132.39   30.80
   3  21   8  103.09   27.20
  -5 -21  -8    3.70   26.20
  -5 -21  -8   38.30   28.40
   5 -21   8   28.10   24.70
  -5 -21  -8   33.30   24.30
   5  21   8    0.90   21.70
   5  21   8   22.10   28.00
  -7 -21  -8   81.39   38.60
  -7 -21  -8   64.09   27.30
  -7 -21  -8   78.89   38.10
   7 -21   8   35.00   29.60
  -7  21  -8   14.40   28.70
   7  21   8   22.90   23.50
   7  21   8  122.29   36.70
   9 -21   8  -20.70   34.80
  -9 -21  -8   11.10   33.90
   9  21   8   38.80   29.20
  -9  21  -8  -16.90   32.30
   9  21   8  -12.20   38.80
  -8 -22   8   85.59   41.10
   8 -22  -8   -9.30   23.10
   8  22  -8  129.59   40.30
   6 -22  -8    5.50   21.90
  -6 -22   8   35.10   33.10
   6  22  -8   22.20   27.30
   4 -22  -8   37.30   21.20
   4  22  -8   69.99   27.60
   2 -22  -8   43.80   19.80
  -2 -22   8   25.70   19.00
   2  22  -8    6.10   21.70
   0 -22  -8    1.80   16.60
   0 -22  -8    4.80   18.80
   0 -22   8  -23.10   18.50
   0  22  -8    0.10   23.60
  -2 -22  -8    9.10   21.30
  -2 -22  -8   18.40   27.00
   2 -22   8  -12.10   19.00
  -2 -22  -8    3.20   17.50
  -2  22  -8   37.40   23.30
   2  22   8    3.30   22.40
  -4 -22  -8   -4.90   20.60
  -4 -22  -8   14.80   26.30
  -4 -22  -8    0.70   26.10
   4 -22   8    8.90   22.60
   4  22   8  -12.60   17.70
  -4  22  -8   16.50   26.00
   4  22   8  -12.40   25.30
  -6 -22  -8    4.40   26.10
   6 -22   8  -20.50   27.50
  -6 -22  -8  -13.00   27.90
  -6 -22  -8  -27.00   31.60
   6  22   8   20.60   23.60
   6  22   8  -12.30   29.70
  -8 -22  -8   -3.90   33.30
  -8 -22  -8  -56.39   36.80
   8 -22   8    3.00   34.40
  -8  22  -8  -28.30   30.50
   8  22   8   44.70   39.70
   8  22   8   31.20   27.10
   9 -23  -8   -5.00   24.80
  -9 -23   8    4.20   42.40
   9  23  -8   19.50   30.30
   9  23  -8   67.89   39.90
   7 -23  -8    6.20   25.50
  -7 -23   8  -17.60   33.90
   7  23  -8   42.30   32.10
  -5 -23   8   16.40   33.30
   5 -23  -8  -13.70   20.00
   5  23  -8   35.70   27.70
   3 -23  -8  226.88   34.00
   3  23  -8  256.47   44.40
  -1 -23   8  114.19   29.80
   1 -23  -8  115.49   25.80
   1  23  -8  136.99   33.20
   1 -23   8   17.20   21.60
  -1 -23  -8   40.70   19.60
  -1 -23  -8   17.20   21.70
  -1  23  -8   13.50   25.00
  -3 -23  -8   34.20   27.40
   3 -23   8   16.50   21.40
  -3 -23  -8    5.90   23.70
  -3 -23  -8  -45.30   17.40
  -3  23  -8    6.80   24.90
   3  23   8    4.00   24.40
  -5 -23  -8   18.80   27.00
   5 -23   8   -7.60   24.10
  -5 -23  -8   20.70   30.10
  -5 -23  -8   17.40   24.30
   5  23   8  -21.50   19.20
   5  23   8  -20.90   28.80
  -7 -23  -8    0.00   26.80
  -7 -23  -8   -9.50   39.20
   7 -23   8   88.79   34.40
  -7 -23  -8   29.00   32.50
   7  23   8   99.89   39.10
   7  23   8  -38.40   21.60
   8 -24  -8   61.49   29.20
  -8 -24   8   38.70   38.30
   8  24  -8   19.20   31.70
   6 -24  -8  -18.20   21.90
  -6 -24   8   47.00   37.80
   6  24  -8   28.10   30.20
   4 -24  -8  -22.30   19.60
   4  24  -8   39.70   28.20
   2 -24  -8   14.70   19.30
  -2 -24   8    2.70   20.10
   2  24  -8   43.10   26.10
   0 -24   8  -26.30   18.60
   0 -24  -8   17.00   18.70
   0 -24  -8    1.30   21.40
   0  24  -8   -0.20   24.80
  -2 -24  -8   77.99   32.80
   2 -24   8   77.89   26.10
  -2 -24  -8   37.70   22.60
  -2 -24  -8   39.20   28.30
   2  24   8   -7.20   24.10
  -2  24  -8   77.49   29.80
  -4 -24  -8   42.50   29.50
   4 -24   8   -6.00   22.30
  -4 -24  -8   29.60   23.70
  -4 -24  -8  -16.10   26.80
   4  24   8   -2.10   30.30
   4  24   8   36.80   24.10
  -6 -24  -8   26.50   37.00
  -6 -24  -8   18.30   26.50
   6 -24   8    0.20   28.90
  -6 -24  -8    7.70   32.40
   6  24   8  -21.50   21.30
   6  24   8   30.50   35.60
   7 -25  -8   58.79   29.10
  -7 -25   8   48.20   39.70
   7  25  -8  -17.50   28.90
   5 -25  -8   14.10   23.10
  -5 -25   8  -19.30   35.80
   5  25  -8  -11.50   26.90
  -3 -25   8  141.49   29.80
   3 -25  -8  124.19   29.00
   3  25  -8  190.98   41.20
   1 -25  -8    5.30   20.00
  -1 -25   8   -4.00   21.50
   1  25  -8    4.70   25.70
  -1 -25  -8    0.00   19.50
  -1 -25  -8  -16.00   20.90
   1 -25   8   22.50   23.10
  -1  25  -8   12.90   27.50
  -3 -25  -8   31.20   28.40
   3 -25   8   -1.80   23.30
  -3 -25  -8  -25.30   27.80
  -3 -25  -8   44.30   24.90
  -3  25  -8    0.20   25.50
   3  25   8    9.90   28.40
  -5 -25  -8   -2.70   24.40
  -5 -25  -8    0.90   29.00
   5 -25   8    4.10   26.90
  -5 -25  -8   33.80   32.90
   5  25   8    2.30   31.50
   5  25   8  -20.40   24.30
  -7 -25  -8  -22.30   43.90
  -7 -25  -8   42.80   29.20
  -7 -25  -8    6.70   35.20
   7 -25   8  -37.30   29.50
   7  25   8   65.09   40.30
   7  25   8   49.60   28.20
   6 -26  -8    5.70   24.10
  -6 -26   8   15.60   38.80
   6  26  -8   15.60   31.90
   4 -26  -8   64.19   26.30
   4  26  -8   30.10   30.80
  -2 -26   8    0.50   23.00
   2 -26  -8   22.50   22.40
   2  26  -8    3.30   26.40
   0 -26  -8   10.50   24.90
   0 -26  -8   26.60   21.70
   0 -26   8   28.00   23.90
   0  26  -8   -2.10   27.70
  -2 -26  -8   38.70   31.10
  -2 -26  -8   48.50   23.00
  -2 -26  -8   19.10   27.30
   2 -26   8   32.80   25.70
  -2  26  -8   49.90   30.30
   2  26   8   19.50   31.30
  -4 -26  -8   43.60   32.20
  -4 -26  -8   -4.40   31.20
  -4 -26  -8   33.50   25.10
   4 -26   8   30.00   26.90
   4  26   8   -6.10   30.50
  -6 -26  -8   24.60   37.70
  -6 -26  -8   -5.90   32.90
  -6 -26  -8  -19.40   24.80
   6 -26   8  -22.00   30.40
   6  26   8   34.90   36.70
   6  26   8   -4.50   25.40
   5 -27  -8   21.80   24.60
  -5 -27   8   36.00   40.80
   5  27  -8  -19.00   28.50
   3 -27  -8   57.49   24.60
  -3 -27   8  105.59   30.40
   3  27  -8  184.58   41.70
  -1 -27   8   28.30   24.70
   1 -27  -8   13.80   24.70
   1 -27  -8   63.79   24.40
   1  27  -8   11.10   28.90
  -1 -27  -8   14.20   26.00
  -1 -27  -8    0.60   20.50
   1 -27   8  -15.40   23.00
  -1  27  -8  -39.40   28.80
  -3 -27  -8   25.70   31.80
  -3 -27  -8    7.30   30.50
  -3 -27  -8    6.40   22.90
   3 -27   8   18.10   26.20
   3  27   8   10.00   34.30
  -3  27  -8   -5.30   30.30
  -5 -27  -8   29.80   32.90
  -5 -27  -8  -21.80   25.10
   5 -27   8   -9.40   29.70
  -5 -27  -8  -32.50   36.50
   5  27   8   -0.50   35.90
   6 -28  -8  -10.30   25.30
  -6 -28   8  -20.00   41.70
  -4 -28   8   10.00   25.30
   4 -28  -8   -1.00   24.40
   4  28  -8  -30.10   31.10
   2 -28  -8   36.70   23.40
  -2 -28   8   37.60   28.90
   2  28  -8   48.00   32.50
   0 -28   8   26.30   25.30
   0 -28  -8   42.80   23.70
   0 -28  -8   11.40   25.30
   0  28  -8  -20.90   28.10
  -2 -28  -8   54.09   31.20
  -2 -28  -8  100.19   38.20
   2 -28   8    1.70   26.70
  -2 -28  -8   73.19   30.00
  -2  28  -8   82.09   36.10
   2  28   8  141.79   39.30
  -4 -28  -8   -7.90   33.70
  -4 -28  -8   41.60   37.10
   4 -28   8   15.00   29.50
  -4 -28  -8   22.60   27.20
   4  28   8   28.40   35.00
  -5 -29   8    4.40   47.50
   3 -29  -8   53.59   27.60
  -3 -29   8   11.80   30.00
   3  29  -8   62.39   37.40
  -1 -29   8   15.60   25.60
   1 -29  -8   22.00   23.30
   1 -29  -8   23.40   25.40
   1  29  -8   28.20   32.80
  -1 -29  -8   16.10   29.00
  -1 -29  -8  -17.20   22.00
   1 -29   8   52.69   28.60
  -1  29  -8  -57.79   30.20
   1  29   8   -4.70   30.80
  -3 -29  -8   52.29   28.60
  -3 -29  -8    4.60   34.80
   3 -29   8   32.40   29.10
  -3 -29  -8  -30.80   30.60
   3  29   8   32.30   36.70
   2 -30  -8   23.80   25.20
  -2 -30   8   45.90   31.00
   2  30  -8  -39.60   29.70
   0 -30   8  -32.30   24.70
   0 -30  -8  -12.00   25.60
   0 -30  -8   -7.50   23.10
   0  30  -8  -20.20   30.50
  -2 -30  -8    5.40   31.70
   2 -30   8  -21.90   26.90
  -2 -30  -8   47.30   28.30
  -2 -30  -8   21.80   37.20
  -2  30  -8    7.90   35.40
   2  30   8  -22.10   34.30
  12   0  -9   77.19   31.40
 -12   0   9   87.99   45.30
  12   0  -9   34.10   25.60
  10   0  -9   31.30   22.00
 -10   0   9   13.10   33.90
  10   0  -9   -4.20   21.50
   8   0  -9  132.69   26.30
  -8   0   9  287.87   37.20
   8   0  -9  147.49   25.50
   6   0  -9  233.88   27.60
   6   0  -9  147.79   21.60
   6   0  -9  143.09   25.00
   4   0  -9  209.48   27.10
   4   0  -9  216.18   27.40
   4   0  -9  222.08   21.30
  -4   0   9  221.48   21.10
   2   0  -9 1169.98   88.39
   2   0  -9 1221.78   87.09
   2   0  -9 1200.98   86.59
   0   0   9  107.29   14.30
   0   0  -9   89.29   17.00
   0   0  -9  132.29   19.60
   0   0  -9  126.19   14.90
  -2   0  -9  299.17   29.10
  -2   0  -9  260.77   27.40
  -2   0  -9  270.77   31.60
   4   0   9    0.70   11.20
  -4   0  -9   38.60   16.40
  -4   0  -9   38.70   13.10
  -4   0  -9   21.20   16.30
   6   0   9   87.09   19.80
  -6   0  -9  151.58   27.40
  -8   0  -9  216.38   36.90
  -8   0  -9  345.67   42.90
   8   0   9  160.78   30.20
  10   0   9   11.20   23.60
 -10   0  -9   13.30   29.00
  12   0   9    0.20   29.80
 -12   0  -9    9.10   33.20
 -13  -1   9   63.89   47.80
  13  -1  -9   -3.10   26.80
  13  -1  -9   53.39   31.00
  13   1  -9   14.00   28.20
 -13   1   9   38.40   47.60
  13   1  -9   54.69   32.10
  11  -1  -9   13.30   22.30
  11  -1  -9   32.60   26.70
 -11  -1   9  114.79   40.60
  11   1  -9   45.50   24.90
  11   1  -9   36.70   24.80
 -11   1   9   91.79   41.30
   9  -1  -9   81.49   22.90
   9  -1  -9   57.29   21.90
  -9  -1   9   83.29   31.30
   9   1  -9   55.29   21.50
   9   1  -9   61.99   24.40
  -9   1   9  125.69   32.90
   7  -1  -9   40.80   18.30
   7  -1  -9   42.80   16.10
   7  -1  -9    4.50   15.90
  -7  -1   9   31.60   21.10
   7   1  -9    7.80   15.70
   7   1  -9   46.20   15.60
  -7   1   9   18.40   20.90
   5  -1  -9   18.70    9.10
   5  -1  -9   -0.50   12.50
   5  -1  -9   30.80   14.30
   5   1  -9   -7.80   12.30
   5   1  -9    8.80   13.70
   5   1  -9    8.80    7.30
   3  -1  -9  379.56   32.50
   3  -1  -9  396.86   34.40
  -3  -1   9  353.76   31.30
   3  -1  -9  398.76   35.80
   3   1  -9  366.86   31.80
   3   1  -9  412.46   34.80
   3   1  -9  366.86   35.30
   1  -1  -9  372.46   31.20
   1  -1  -9  321.17   32.40
   1  -1  -9  343.47   29.80
   1   1  -9  310.57   30.20
   1   1  -9  322.97   29.00
   1   1  -9  306.37   31.30
  -1  -1  -9   20.90   12.90
  -1  -1  -9   20.60   13.70
  -1   1  -9   28.80   13.00
  -1   1  -9   40.70   14.80
  -3  -1  -9  266.87   29.60
  -3  -1  -9  282.67   30.10
  -3  -1  -9  285.97   33.40
  -3   1  -9  334.67   32.30
  -3   1  -9  299.07   33.20
  -3   1  -9  293.27   32.10
  -5  -1  -9   43.50   20.10
  -5  -1  -9   30.60   18.60
   5  -1   9   22.60   13.70
  -5  -1  -9   61.29   16.30
  -5   1  -9   25.60   18.50
   5   1   9   47.70   15.60
  -5   1  -9   20.40   17.00
  -5   1  -9  100.19   24.30
   7  -1   9   11.20   17.60
  -7  -1  -9   69.79   26.90
  -7  -1  -9    3.70   14.60
  -7  -1  -9  -12.70   22.40
   7   1   9   22.00   17.30
  -7   1  -9   10.30   22.70
  -7   1  -9    4.10   25.00
  -7   1  -9    9.90   22.50
   9  -1   9   -5.60   19.50
  -9  -1  -9    7.30   24.60
  -9   1  -9   47.30   26.90
   9   1   9    1.40   21.00
 -11  -1  -9   68.59   32.60
  11  -1   9   29.60   27.80
  11   1   9   15.60   26.80
 -11   1  -9   48.50   31.20
  12  -2  -9   26.60   26.00
 -12  -2   9   84.79   44.30
  12  -2  -9   42.00   29.90
 -12   2   9  132.59   48.40
  12   2  -9   43.60   29.10
  12   2  -9  -11.10   26.60
 -10  -2   9   28.30   34.20
  10  -2  -9  -18.00   19.20
  10  -2  -9    6.00   19.00
 -10   2   9   93.29   37.10
  10   2  -9   63.19   24.30
  10   2  -9   -1.90   19.70
   8  -2  -9  174.08   30.20
   8  -2  -9  202.88   29.40
   8  -2  -9  306.27   33.70
  -8  -2   9  279.97   36.70
  -8   2   9  343.67   39.80
   8   2  -9  148.19   28.50
   8   2  -9  213.08   29.00
   6  -2  -9   33.00   16.60
   6  -2  -9   11.00   10.20
   6  -2  -9   14.10   13.40
   6  -2  -9   27.40   14.60
   6   2  -9   34.00   14.10
   6   2  -9    4.50   12.50
   4  -2  -9  332.17   32.80
  -4  -2   9  308.17   27.70
   4  -2  -9  350.36   30.20
   4  -2  -9  344.47   33.50
   4   2  -9  359.86   34.50
   4   2  -9  366.46   28.10
   4   2  -9  332.07   33.30
   2  -2  -9  371.16   33.60
   2  -2  -9  416.66   35.00
   2  -2  -9  369.26   32.40
   2   2  -9  371.16   32.40
   2   2  -9  371.36   31.70
   2   2  -9  285.07   33.70
   0  -2  -9    1.40   11.50
   0  -2   9    0.90    7.50
   0  -2  -9    1.60   11.50
   0   2  -9   -7.10    7.80
   0   2  -9    4.30   12.20
   0   2  -9   19.20   12.10
   0   2   9   19.80    9.10
  -2  -2  -9  105.59   17.90
  -2  -2  -9   54.19   15.00
  -2  -2  -9   67.29   17.10
  -2   2  -9   57.49   16.90
  -2   2  -9  102.69   19.60
  -2   2  -9   62.49   17.50
  -4  -2  -9    2.30   12.90
   4  -2   9    7.50   11.50
  -4  -2  -9   -3.10   15.50
  -4  -2  -9    8.10   17.00
  -4   2  -9   29.20   18.30
  -4   2  -9   -7.60   15.90
  -4   2  -9   -2.20   17.10
   4   2   9  -11.40   10.20
  -6  -2  -9  108.59   25.50
   6  -2   9   65.39   19.90
  -6  -2  -9  111.49   20.50
  -6  -2  -9   63.79   24.40
  -6   2  -9   33.70   21.80
  -6   2  -9   88.49   26.70
  -6   2  -9  162.58   27.30
   6   2   9   83.89   19.60
  -8  -2  -9  225.48   40.90
  -8  -2  -9  153.18   32.70
   8  -2   9  178.08   29.90
  -8   2  -9  144.49   33.40
   8   2   9  145.69   27.90
  10  -2   9    4.10   23.00
 -10  -2  -9  -23.80   26.80
  10   2   9  -14.00   22.50
 -10   2  -9   29.50   28.00
  12  -2   9  -14.40   28.90
 -12  -2  -9   22.50   34.00
  12   2   9   49.50   31.70
 -12   2  -9   -5.50   30.60
  13  -3  -9   47.70   32.80
 -13  -3   9  126.49   52.09
  13  -3  -9   45.80   30.00
  13   3  -9  -13.00   29.30
 -13   3   9  117.49   52.29
  13   3  -9    1.20   29.70
  11  -3  -9   41.10   25.80
  11  -3  -9   45.20   26.70
 -11  -3   9   11.30   36.50
  11   3  -9   -2.30   22.80
  11   3  -9   34.20   24.10
 -11   3   9   97.99   43.20
   9  -3  -9   31.00   20.30
  -9  -3   9   59.39   30.60
   9  -3  -9   39.30   21.20
   9   3  -9   -5.30   18.40
  -9   3   9   87.19   32.30
   9   3  -9   96.79   23.40
  -7  -3   9   19.70   19.90
   7  -3  -9    6.10   11.40
   7  -3  -9   10.80   13.70
   7  -3  -9   25.10   17.10
   7  -3  -9   23.70   17.20
  -7   3   9   12.00   20.80
   7   3  -9   16.50   15.00
   7   3  -9   19.30   13.60
   5  -3  -9    8.40   11.20
   5  -3  -9   34.10   16.00
   5  -3  -9   27.60   15.30
   5   3  -9   46.00   17.60
   3  -3  -9   36.20   13.20
  -3  -3   9   35.50   10.40
   3  -3  -9   42.00   16.30
   3  -3  -9   53.19   16.10
   3   3  -9   52.99   15.50
   3   3  -9   46.80   15.60
   3   3  -9   46.10   12.20
   1  -3  -9  417.26   37.50
   1  -3  -9  431.86   37.00
   1   3  -9  397.86   37.80
   1   3  -9  432.66   36.20
   1   3  -9  411.56   34.40
  -1  -3  -9   37.10   14.50
  -1  -3  -9   46.90   14.50
  -1   3  -9   23.60   14.10
  -1   3  -9   46.50   15.30
   1   3   9   20.30    9.80
  -3  -3  -9  149.09   24.00
  -3  -3  -9  122.59   22.20
  -3  -3  -9  134.89   22.00
  -3   3  -9  170.58   25.10
  -3   3  -9  159.68   25.40
   3   3   9  134.59   17.30
  -3   3  -9  143.19   23.60
  -5  -3  -9  -34.50   18.00
   5  -3   9   -5.10   11.40
  -5  -3  -9  -15.60   15.90
  -5  -3  -9  -16.80   12.70
  -5   3  -9   28.50   16.90
  -5   3  -9   20.40   20.30
  -5   3  -9    3.90   19.10
   5   3   9   -9.70   12.30
  -7  -3  -9  117.09   29.20
   7  -3   9   78.89   21.10
  -7  -3  -9  118.79   27.40
  -7  -3  -9  168.18   22.60
  -7   3  -9  104.99   26.70
   7   3   9   33.80   19.30
   9  -3   9   32.00   22.20
  -9  -3  -9   10.00   34.60
  -9  -3  -9   18.40   25.30
  -9   3  -9    7.10   24.50
   9   3   9   -8.20   20.80
 -11  -3  -9   29.70   31.30
  11  -3   9   69.29   30.60
 -11   3  -9    8.40   28.60
  11   3   9   44.30   28.70
  12  -4  -9   85.19   31.40
  12  -4  -9    1.10   27.30
 -12  -4   9   47.00   44.90
 -12   4   9   53.39   45.80
  12   4  -9   38.60   26.10
  12   4  -9   41.40   29.90
  10  -4  -9   23.50   23.00
 -10  -4   9   10.90   32.30
  10  -4  -9   30.00   23.40
 -10   4   9   69.99   36.10
  10   4  -9   20.80   22.20
  10   4  -9   10.30   19.80
  -8  -4   9  162.08   31.30
   8  -4  -9  126.89   24.10
   8  -4  -9  160.98   26.90
   8  -4  -9   95.39   25.30
   8  -4  -9  132.19   20.90
   8   4  -9  111.79   22.70
   8   4  -9   63.99   23.00
  -8   4   9  211.58   34.90
   6  -4  -9  101.09   18.00
   6  -4  -9   85.49   21.30
   6  -4  -9   86.49   20.50
   6  -4  -9   96.79   18.90
   6   4  -9   92.99   17.10
   6   4  -9   97.19   21.30
   4  -4  -9  648.94   56.99
   4  -4  -9  749.03   57.29
   4  -4  -9  712.73   55.19
  -4  -4   9  706.73   51.59
   4   4  -9  707.63   57.59
   2  -4  -9  453.45   40.60
   2  -4  -9  482.45   41.10
   2  -4  -9  453.65   41.30
   2   4  -9  525.75   39.50
   2   4  -9  463.25   42.40
   2   4  -9  480.45   40.40
   0  -4   9   64.39   11.00
   0  -4  -9   86.19   17.80
   0  -4  -9   47.20   15.60
   0   4  -9   77.09   12.50
   0   4  -9   51.69   16.50
   0   4  -9   69.29   17.40
  -2  -4  -9   24.90   14.50
  -2  -4  -9   48.30   15.50
  -2  -4  -9   18.30   13.70
  -2   4  -9   40.00   16.80
  -2   4  -9   26.20   15.00
  -2   4  -9   41.50   16.40
   4  -4   9   -2.20   11.10
  -4  -4  -9   -5.80   14.30
  -4  -4  -9   -6.20   15.90
  -4  -4  -9  -23.70   11.60
   4   4   9   29.30   12.90
  -4   4  -9   12.20   19.20
  -4   4  -9   -2.10   18.30
   4   4   9   21.60   11.60
  -6  -4  -9  129.39   22.30
   6  -4   9   95.19   20.20
  -6  -4  -9  141.29   27.80
  -6  -4  -9  100.89   27.10
  -6   4  -9  106.79   25.80
   6   4   9   83.59   20.10
  -8  -4  -9   52.39   32.20
   8  -4   9    3.30   21.10
  -8  -4  -9   38.50   26.80
  -8   4  -9   15.20   24.90
   8   4   9   63.39   21.30
   8   4   9   43.70   22.40
 -10  -4  -9   10.00   38.10
  10  -4   9    8.60   24.40
 -10  -4  -9   23.80   30.50
 -10   4  -9   38.00   31.30
  10   4   9   -3.40   22.20
 -12  -4  -9   10.10   34.50
  12  -4   9   -4.50   29.30
  12   4   9    2.30   28.70
 -12   4  -9   -7.40   32.20
  13  -5  -9   23.20   29.70
  13  -5  -9  -10.30   32.40
 -13  -5   9   77.19   52.79
 -13   5   9   26.20   50.09
  13   5  -9  -39.40   29.90
  13   5  -9  -15.30   29.10
 -11  -5   9   25.40   37.60
  11  -5  -9    8.70   24.70
  11  -5  -9   20.50   25.70
  11   5  -9  -19.30   20.90
 -11   5   9   32.20   41.50
  11   5  -9   31.30   25.60
   9  -5  -9   33.10   21.40
   9  -5  -9   68.29   22.60
  -9  -5   9   80.59   30.50
   9  -5  -9   50.69   22.20
   9   5  -9   60.89   22.10
   9   5  -9   25.20   20.50
  -9   5   9   91.19   33.10
  -7  -5   9   24.80   20.90
   7  -5  -9   20.30   16.10
   7  -5  -9    0.90   14.20
   7  -5  -9   20.70   16.90
   7  -5  -9    5.30   16.40
   7   5  -9   12.30   14.20
  -7   5   9   16.30   20.00
   7   5  -9   19.80   15.80
   5  -5  -9   31.90   13.80
   5  -5  -9   31.90   16.20
  -5  -5   9   27.60    7.80
   5  -5  -9   -1.30   14.90
   5  -5  -9   27.60   14.00
   5   5  -9    3.40   14.10
   3  -5  -9  252.27   28.10
   3  -5  -9  212.48   28.40
   3  -5  -9  268.17   29.90
  -3  -5   9  214.98   24.30
   3   5  -9  285.77   30.90
   1  -5  -9  238.18   29.70
   1  -5  -9  206.38   26.60
   1   5  -9  231.08   25.00
  -1  -5  -9  201.28   27.40
  -1  -5  -9  206.48   26.70
  -1   5  -9  225.68   28.70
  -1   5  -9  227.78   25.00
  -3  -5  -9   78.89   17.90
  -3  -5  -9   44.30   15.80
  -3  -5  -9   78.89   18.60
  -3   5  -9   95.19   20.90
   3   5   9   61.39   13.80
   3   5   9   75.99   14.90
  -5  -5  -9   36.60   15.90
  -5  -5  -9   40.40   18.20
   5  -5   9   53.59   15.30
  -5  -5  -9   21.90   20.20
   5   5   9   39.80   15.30
   5   5   9   89.29   16.60
  -5   5  -9   71.79   23.50
  -7  -5  -9   70.09   26.90
  -7  -5  -9   88.39   27.80
   7  -5   9    3.50   18.40
  -7  -5  -9   65.29   19.10
   7   5   9  103.09   23.40
   7   5   9   41.60   19.30
  -7   5  -9   41.90   25.00
   9  -5   9  -21.90   22.20
  -9  -5  -9   -4.10   33.10
  -9  -5  -9   27.40   27.40
  -9   5  -9  -26.50   24.00
   9   5   9  -40.30   20.00
 -11  -5  -9   33.80   31.70
 -11  -5  -9   70.99   46.90
  11  -5   9  -15.40   26.80
  11   5   9   19.50   28.00
 -11   5  -9   26.00   31.80
 -12  -6   9   26.30   42.80
  12  -6  -9   26.60   29.50
  12  -6  -9   37.10   28.50
 -12   6   9   67.99   44.80
  12   6  -9   10.40   28.80
  12   6  -9   17.10   28.30
 -10  -6   9   21.60   32.10
  10  -6  -9   22.70   21.80
  10  -6  -9    2.30   23.30
 -10   6   9   22.20   34.00
  10   6  -9   35.20   25.00
  10   6  -9   15.10   22.80
   8  -6  -9  193.08   30.80
  -8  -6   9  337.47   40.70
   8  -6  -9  260.07   34.00
   8  -6  -9  208.18   35.90
   8  -6  -9  224.88   31.40
  -8   6   9  336.57   41.10
   8   6  -9  234.48   31.50
   8   6  -9  163.78   31.10
   6  -6  -9   46.20   18.30
   6  -6  -9   84.99   20.20
   6  -6  -9   63.59   18.40
   6  -6  -9   48.30   16.90
  -6  -6   9   48.50   19.00
  -6   6   9   92.59   21.60
   6   6  -9   74.09   16.50
   6   6  -9   45.40   19.20
   4  -6  -9  264.17   28.10
   4  -6  -9  209.78   27.60
  -4  -6   9  168.38   19.40
   4  -6  -9  228.58   27.80
   4   6  -9  195.68   27.30
   2  -6  -9 2362.66  159.58
   2  -6  -9 2195.08  159.88
   2   6  -9 2161.48  157.98
   0  -6  -9  238.98   29.90
   0  -6   9  222.58   20.60
   0  -6  -9  224.08   28.50
   0   6  -9  209.88   22.50
  -2  -6  -9   84.79   18.90
  -2  -6  -9   42.00   15.70
  -2  -6  -9   58.29   17.20
   2   6   9   72.09   12.40
  -2   6  -9   65.49   18.80
   4  -6   9    0.60   12.50
  -4  -6  -9   22.70   16.00
  -4  -6  -9   37.20   18.10
  -4  -6  -9   19.20   14.30
   4   6   9   19.40   12.70
   4   6   9   36.10   14.10
  -4   6  -9   39.50   19.10
  -6  -6  -9   94.89   25.20
  -6  -6  -9   68.09   25.50
   6  -6   9   39.10   17.70
  -6  -6  -9   57.79   19.10
   6   6   9   57.79   19.10
  -6   6  -9  111.49   27.40
   6   6   9   24.00   16.90
  -8  -6  -9  151.18   37.30
  -8  -6  -9   62.99   28.50
  -8  -6  -9   99.09   23.20
   8  -6   9   50.59   23.30
   8   6   9  107.99   25.40
   8   6   9  130.99   27.50
  -8   6  -9   72.39   27.80
  10  -6   9   16.30   25.70
 -10  -6  -9  -21.40   38.90
 -10  -6  -9   11.10   29.10
 -10   6  -9  -11.10   28.30
  10   6   9   56.19   27.60
 -12  -6  -9    6.90   33.50
  12  -6   9   13.00   30.00
  12   6   9  -43.70   28.50
 -12   6  -9   44.40   37.60
  13  -7  -9   56.89   33.90
  13  -7  -9   26.70   34.30
 -13  -7   9   41.40   48.50
  13   7  -9   40.50   31.60
  13   7  -9  -14.10   32.10
 -13   7   9   -6.80   46.00
  11  -7  -9   67.29   29.70
 -11  -7   9   16.20   36.60
  11  -7  -9   27.10   25.00
  11   7  -9   11.70   25.90
  11   7  -9   17.10   26.60
 -11   7   9   -1.00   37.20
   9  -7  -9    9.10   21.20
   9  -7  -9   21.60   24.00
   9  -7  -9   -4.50   19.90
  -9  -7   9   27.60   29.40
   9   7  -9  -10.80   18.20
   9   7  -9  -26.80   18.40
  -9   7   9   34.10   31.00
   7  -7  -9   19.30   18.60
   7  -7  -9   42.70   17.50
   7  -7  -9   39.60   19.00
  -7  -7   9   14.30   21.20
  -7   7   9   52.39   23.30
   7   7  -9   24.60   17.30
   7   7  -9   -6.40   15.40
   5  -7  -9  -15.10   12.40
   5  -7  -9    8.30   14.50
  -5  -7   9   13.30    7.80
   5  -7  -9   23.10   15.90
  -5  -7   9   24.80   16.30
   5  -7  -9   -2.50   13.40
   5   7  -9    5.60   14.80
   3  -7  -9  112.59   22.00
   3  -7  -9   82.99   19.50
   3   7  -9   95.39   20.00
   1  -7  -9   40.30   16.20
   1  -7  -9   22.70   15.00
   1   7  -9   57.59   14.50
  -1  -7  -9  544.85   44.10
  -1  -7  -9  534.55   47.00
  -1  -7  -9  541.05   47.90
  -1   7  -9  517.15   44.30
   1   7   9  563.04   41.90
  -3  -7  -9  346.87   37.00
  -3  -7  -9  361.56   35.20
  -3  -7  -9  379.86   36.50
   3  -7   9  389.86   32.50
   3   7   9  357.86   33.30
  -3   7  -9  316.57   35.30
   3   7   9  358.76   31.70
  -5  -7  -9   21.30   22.10
   5  -7   9   48.00   17.00
  -5  -7  -9   25.20   15.70
  -5  -7  -9   18.90   16.30
   5   7   9   -5.10   12.70
   5   7   9   14.50   15.60
  -5   7  -9   24.70   19.50
  -7  -7  -9    0.80   24.50
  -7  -7  -9   15.30   17.00
  -7  -7  -9    5.00   24.20
   7  -7   9    2.60   17.90
   7   7   9   16.00   20.50
  -7   7  -9   -5.00   23.80
   7   7   9   -8.20   16.30
  -9  -7  -9   49.10   29.80
  -9  -7  -9  105.49   39.90
   9  -7   9   51.69   25.50
  -9   7  -9   63.39   30.50
   9   7   9   41.30   22.80
  11  -7   9   60.09   32.50
 -11  -7  -9   84.69   53.09
 -11  -7  -9   52.49   35.90
 -11   7  -9   74.59   35.10
  11   7   9   20.10   28.10
  12  -8  -9   30.00   27.70
  12  -8  -9   -6.10   25.90
 -12  -8   9   96.39   44.20
  12   8  -9  -35.90   25.90
  12   8  -9    4.70   27.10
 -12   8   9   56.09   45.10
 -10  -8   9   38.00   34.30
  10  -8  -9    9.50   21.60
  10  -8  -9   21.30   22.80
  10   8  -9    0.10   21.60
 -10   8   9    2.40   35.10
  10   8  -9    0.20   20.50
   8  -8  -9   48.30   21.80
   8  -8  -9  173.18   28.50
   8  -8  -9   87.39   23.20
  -8  -8   9  149.69   30.70
   8   8  -9   96.89   23.90
   8   8  -9  100.59   26.90
  -8   8   9  200.38   34.00
   6  -8  -9    8.40   16.60
   6  -8  -9   -3.00   14.00
   6  -8  -9   32.40   17.50
  -6  -8   9   33.40   18.90
  -6   8   9  -19.20   18.10
   6   8  -9   16.20   16.50
   6   8  -9    8.40   14.00
  -4  -8   9  145.39   21.30
   4  -8  -9  117.99   22.80
   4  -8  -9   88.79   21.90
   4  -8  -9  118.49   19.40
  -4  -8   9  123.69   21.60
   4   8  -9  158.38   26.40
   2  -8  -9  201.68   26.30
   2  -8  -9  174.78   26.70
   2   8  -9  141.19   23.50
   0  -8  -9   72.09   18.80
   0  -8  -9   80.09   19.10
   0  -8  -9   93.09   17.30
   0   8   9  103.89   14.50
   0   8  -9   70.79   16.00
  -2  -8  -9  171.08   24.40
  -2  -8  -9  116.09   23.00
  -2  -8  -9  109.89   21.80
  -2   8  -9  163.68   25.10
   2   8   9  141.29   18.60
  -4  -8  -9   17.30   19.00
  -4  -8  -9    5.60   15.70
  -4  -8  -9   -1.60   13.20
   4  -8   9   -5.90   14.10
  -4   8  -9   12.80   19.20
   4   8   9   -4.50   11.70
   4   8   9    4.70   15.40
  -6  -8  -9   26.40   20.20
  -6  -8  -9   31.10   23.00
   6  -8   9   62.09   20.00
  -6  -8  -9   29.40   18.00
  -6   8  -9   46.50   23.20
   6   8   9   50.49   21.30
   6   8   9    5.50   16.10
   8  -8   9   51.99   23.20
  -8  -8  -9   57.89   21.30
  -8  -8  -9   32.10   26.70
  -8  -8  -9   19.90   32.90
   8   8   9   19.10   21.00
  -8   8  -9   48.00   25.90
   8   8   9   42.90   25.40
  10  -8   9   33.90   27.70
 -10  -8  -9   59.79   34.60
 -10  -8  -9   27.10   42.10
 -10   8  -9    5.80   29.60
  10   8   9   41.70   26.80
  12  -8   9  -23.00   28.80
 -12  -8  -9  -22.70   33.90
 -12   8  -9    6.00   32.40
  12   8   9   -2.50   30.20
  13  -9  -9   -3.40   29.00
 -13  -9   9   -5.10   46.70
  13  -9  -9   25.40   35.10
  13   9  -9    7.80   30.70
 -13   9   9   80.09   51.49
  13   9  -9  -41.90   29.90
  11  -9  -9   12.00   24.50
  11  -9  -9   10.00   25.00
 -11  -9   9   -3.00   39.20
  11   9  -9   13.60   25.30
 -11   9   9  -19.40   38.10
  11   9  -9   15.20   25.50
   9  -9  -9   18.70   20.80
  -9  -9   9   10.30   29.00
   9  -9  -9   -4.30   20.30
   9   9  -9   21.20   22.70
   9   9  -9   -2.90   20.30
  -9   9   9   18.90   32.00
   7  -9  -9   34.50   19.00
   7  -9  -9   26.10   18.80
   7  -9  -9    7.70   17.60
  -7  -9   9   10.10   20.90
   7   9  -9   20.80   16.90
  -7   9   9   39.00   21.90
   7   9  -9   13.60   17.70
  -5  -9   9    2.40   14.90
   5  -9  -9   -9.20   14.60
  -5  -9   9    3.20   10.00
   5  -9  -9   15.10   15.70
   5  -9  -9   31.30   14.80
   5   9  -9   -1.70   16.20
  -5   9   9   -5.40   16.20
   3  -9  -9    5.20   15.60
   3  -9  -9   22.30   15.20
   3  -9  -9   10.40   12.20
   3   9  -9   -0.20   13.10
   1  -9  -9   36.50   17.20
   1  -9  -9   44.80   16.90
   1   9  -9   27.30   14.10
  -1  -9  -9   -4.70   11.80
  -1  -9  -9   -0.40   13.90
  -1  -9  -9   -1.80   13.80
  -1   9  -9   -0.30    9.20
   1   9   9  -15.80    9.60
  -3  -9  -9  349.87   36.60
  -3  -9  -9  353.56   39.30
   3  -9   9  366.56   32.70
  -3  -9  -9  306.27   38.20
  -3   9  -9  337.07   38.70
   3   9   9  336.57   31.90
  -5  -9  -9   26.80   17.70
  -5  -9  -9   14.00   16.50
  -5  -9  -9   -9.10   18.70
   5  -9   9   10.80   17.40
   5   9   9   20.40   17.70
   5   9   9   10.60   14.80
  -5   9  -9    9.40   21.60
   7  -9   9   20.80   20.20
  -7  -9  -9    4.70   25.80
  -7  -9  -9   21.30   19.40
  -7  -9  -9   30.70   26.10
   7   9   9    0.50   18.00
  -7   9  -9   46.40   24.60
   7   9   9   36.50   22.50
   9  -9   9   32.60   25.00
  -9  -9  -9   15.40   35.50
  -9  -9  -9   20.30   28.80
  -9   9  -9  -44.00   23.30
   9   9   9    9.80   21.40
  11  -9   9   67.39   35.10
 -11  -9  -9   26.70   35.20
  11   9   9   28.60   28.00
 -11   9  -9   29.70   32.90
  12 -10  -9    6.10   26.50
  12 -10  -9   12.40   31.00
 -12 -10   9   16.30   45.30
  12  10  -9   30.40   30.40
 -12  10   9    4.90   46.40
  12  10  -9  -20.20   26.90
 -10 -10   9   24.70   34.90
  10 -10  -9   15.90   23.90
  10 -10  -9    7.20   24.40
  10  10  -9    6.90   23.00
 -10  10   9   64.19   38.20
  10  10  -9   19.20   25.00
   8 -10  -9   33.20   23.40
   8 -10  -9    7.00   19.40
   8 -10  -9   24.40   20.80
  -8 -10   9   39.20   25.90
   8  10  -9   -3.40   17.50
   8  10  -9   34.70   22.00
  -8  10   9   15.10   26.90
   6 -10  -9  120.29   23.60
   6 -10  -9  133.79   26.00
  -6 -10   9  201.18   30.60
   6  10  -9  101.39   25.70
   6  10  -9  103.39   21.20
  -6  10   9  139.49   27.30
  -4 -10   9  303.67   32.30
   4 -10  -9  342.07   38.50
   4 -10  -9  347.17   39.30
   4 -10  -9  325.07   31.70
   4  10  -9  346.07   36.20
   2 -10  -9  707.13   58.99
   2 -10  -9  730.63   59.29
   2 -10  -9  727.73   53.89
   2  10  -9  645.64   56.99
   0 -10  -9  403.96   43.30
   0 -10  -9  447.66   41.70
   0  10  -9  452.35   37.80
   0  10   9  444.06   36.50
  -2 -10  -9  390.96   39.50
  -2 -10  -9  372.36   38.10
   2 -10   9  438.96   35.40
  -2  10  -9  393.96   38.50
   2  10   9  410.26   35.50
  -4 -10  -9  -32.50   17.70
   4 -10   9  -16.80   14.70
  -4 -10  -9   14.80   16.50
   4  10   9   21.30   13.90
  -4  10  -9   -9.90   18.20
   4  10   9   26.80   18.20
   6 -10   9   36.50   20.20
  -6 -10  -9   65.59   21.00
  -6 -10  -9   65.39   24.90
  -6 -10  -9   50.39   25.40
   6  10   9   54.99   19.60
  -6  10  -9   51.69   26.30
   6  10   9   48.80   22.20
  -8 -10  -9   27.10   22.30
  -8 -10  -9   33.70   32.10
   8 -10   9   14.30   20.80
  -8 -10  -9  -10.40   24.30
   8  10   9   24.10   21.70
   8  10   9   41.00   26.60
  -8  10  -9   29.50   28.30
 -10 -10  -9  101.99   46.20
  10 -10   9   22.00   27.60
 -10 -10  -9   33.20   32.00
  10  10   9   20.50   25.60
 -10  10  -9   29.70   30.60
  11 -11  -9    5.40   26.60
 -11 -11   9   19.30   39.20
  11 -11  -9   37.50   28.10
  11  11  -9   24.50   29.20
 -11  11   9   72.09   43.10
  11  11  -9    6.70   27.70
   9 -11  -9  -22.70   20.40
  -9 -11   9   23.70   29.00
  -9  11   9   59.59   32.10
   9  11  -9   11.90   21.60
   9  11  -9   18.30   21.30
   7 -11  -9   -2.40   20.80
   7 -11  -9   30.60   20.10
  -7 -11   9   -5.80   23.40
   7  11  -9   -3.20   19.20
  -7  11   9   -4.50   23.80
   7  11  -9   18.60   17.70
   5 -11  -9    9.60   14.70
   5 -11  -9   -8.90   16.70
  -5 -11   9   -9.10   16.90
   5  11  -9   10.90   18.00
   5  11  -9  -14.00   11.90
   3 -11  -9  488.75   39.50
   3 -11  -9  447.76   43.60
   3 -11  -9  420.16   43.40
   3  11  -9  459.65   43.60
   1 -11  -9  189.48   23.20
   1 -11  -9  205.88   30.10
   1  11  -9  249.38   29.50
   1 -11   9 1162.48   83.59
  -1 -11  -9 1145.29   88.59
  -1 -11  -9 1116.19   85.89
   1  11   9 1154.58   84.49
  -1  11  -9 1173.98   84.29
  -3 -11  -9  155.68   27.00
  -3 -11  -9  129.19   19.80
   3 -11   9  151.88   22.60
  -3 -11  -9  164.58   28.20
   3  11   9  151.18   22.50
  -3  11  -9  136.09   26.10
   5 -11   9    7.10   16.90
  -5 -11  -9    2.90   22.00
  -5 -11  -9    7.40   20.10
  -5  11  -9    5.20   22.50
   5  11   9    4.00   15.20
   5  11   9   -8.00   19.70
  -7 -11  -9   71.89   29.00
  -7 -11  -9   92.09   25.30
   7 -11   9   46.60   22.80
  -7 -11  -9   34.00   27.20
  -7  11  -9   33.00   26.40
   7  11   9   81.59   26.70
   7  11   9   29.50   20.80
  -9 -11  -9   -8.00   37.50
   9 -11   9  -10.30   22.50
  -9 -11  -9   21.90   28.80
   9  11   9    7.60   33.10
  -9  11  -9    2.50   30.10
   9  11   9    6.50   23.10
  11 -11   9    4.60   30.90
 -11 -11  -9   35.30   35.20
 -11  11  -9   14.90   34.50
  11  11   9   51.19   30.00
  12 -12  -9   35.50   29.40
 -12 -12   9   50.49   45.20
  12  12  -9   38.30   31.20
 -12  12   9    5.30   45.00
  12  12  -9   -9.40   30.90
  10 -12  -9   -0.10   23.30
 -10 -12   9   23.60   33.90
 -10  12   9   29.90   34.90
  10  12  -9   19.30   25.10
  10  12  -9   -3.00   23.90
   8 -12  -9  125.29   28.80
   8 -12  -9  112.69   27.00
  -8 -12   9   82.79   30.90
   8  12  -9  102.39   29.50
   8  12  -9  128.69   27.20
  -8  12   9  150.88   36.50
  -6 -12   9    6.60   20.20
   6 -12  -9   13.10   15.90
   6 -12  -9   -2.30   19.30
   6  12  -9    4.20   15.40
   6  12  -9   -7.90   18.60
   4 -12  -9    2.80   17.20
  -4 -12   9    9.40   16.50
   4 -12  -9   -1.10   15.00
   4  12  -9   26.60   17.90
   2 -12  -9  308.27   38.50
   2 -12  -9  288.67   30.90
   2  12  -9  352.06   38.70
   0 -12  -9   30.50   11.60
   0 -12  -9    2.50   14.60
   0  12  -9   21.90   14.10
   0  12   9   38.20   13.00
  -2 -12  -9   29.70   16.40
  -2 -12  -9   30.70   18.30
  -2 -12  -9   15.20   11.50
   2 -12   9   18.70   14.10
   2  12   9   33.90   13.60
  -2  12  -9    0.30   10.90
  -4 -12  -9   29.90   21.40
   4 -12   9    4.80   16.00
  -4 -12  -9   15.80   16.80
  -4 -12  -9   27.40   14.60
   4  12   9   12.90   15.90
  -4  12  -9    0.50   19.50
   4  12   9   61.69   22.10
  -6 -12  -9   27.60   25.80
  -6 -12  -9   13.60   23.40
   6 -12   9   10.30   21.80
   6  12   9   73.49   24.70
   6  12   9   45.70   20.80
  -6  12  -9   42.80   26.70
  -8 -12  -9   -8.20   29.40
   8 -12   9   -5.80   24.70
  -8 -12  -9   46.50   23.60
  -8 -12  -9    5.80   27.80
   8  12   9   16.90   21.90
   8  12   9   -8.40   26.80
  -8  12  -9   -5.10   27.10
 -10 -12  -9  -14.30   29.20
  10 -12   9   20.20   28.00
 -10 -12  -9   10.30   45.20
  10  12   9   16.10   26.30
 -10  12  -9   49.60   34.50
 -11 -13   9   42.50   42.40
  11 -13  -9   -6.50   25.70
  11  13  -9    7.10   24.30
 -11  13   9   62.19   43.00
  11  13  -9  -34.20   26.20
   9 -13  -9   17.20   24.20
  -9 -13   9   13.30   31.20
  -9  13   9   -2.20   33.90
   9  13  -9   26.30   23.30
   9  13  -9   35.00   22.40
   7 -13  -9   16.10   19.60
  -7 -13   9   17.20   26.40
   7 -13  -9  118.79   27.60
   7  13  -9   60.99   27.20
   7  13  -9   56.09   21.10
  -7  13   9  100.39   29.90
   5 -13  -9    4.60   15.90
   5 -13  -9   11.20   19.60
  -5 -13   9    9.20   19.90
   5  13  -9    6.20   16.50
   3 -13  -9   70.39   22.90
   3 -13  -9   31.00   17.30
   3 -13  -9   56.09   15.90
   3  13  -9   34.40   17.40
   1 -13  -9   89.69   16.80
   1 -13  -9   57.69   19.80
   1  13  -9   62.19   18.40
  -1 -13  -9   93.79   21.90
  -1 -13  -9  129.09   23.70
  -1 -13  -9  107.89   17.80
   1 -13   9  111.89   19.00
   1  13   9  121.19   19.30
  -1  13  -9   83.19   17.20
  -3 -13  -9  119.39   19.70
  -3 -13  -9  113.29   25.90
  -3 -13  -9   89.69   23.50
   3 -13   9  119.19   22.30
   3  13   9  120.39   21.70
   3  13   9  158.38   28.20
  -3  13  -9   91.29   25.20
  -3  13  -9  154.58   19.70
  -5 -13  -9   15.20   25.00
   5 -13   9  -23.00   17.30
  -5 -13  -9  -12.70   20.00
   5  13   9  -17.60   16.20
  -5  13  -9  -18.70   20.60
   5  13   9   29.10   24.00
  -7 -13  -9   14.80   29.70
   7 -13   9   14.50   22.50
  -7 -13  -9   15.70   26.20
  -7  13  -9   -8.70   27.60
   7  13   9    4.60   26.70
   7  13   9  -31.80   17.80
   9 -13   9    0.50   26.80
  -9 -13  -9   50.09   40.70
  -9 -13  -9   33.70   31.30
   9  13   9    4.10   22.90
  -9  13  -9   12.00   29.10
   9  13   9   71.49   32.70
 -11 -13  -9   31.90   34.20
  11 -13   9   23.30   33.20
  11  13   9   69.29   32.80
 -11  13  -9  -36.00   31.50
 -12 -14   9  124.09   52.49
  12 -14  -9    5.60   26.90
  12  14  -9   40.80   32.10
 -12  14   9   46.40   49.99
  12  14  -9   -2.70   30.20
 -10 -14   9   68.49   36.70
  10 -14  -9   68.99   28.90
  10  14  -9   36.20   26.30
 -10  14   9  132.59   44.10
  10  14  -9   -1.90   26.80
   8 -14  -9  -16.60   25.80
  -8 -14   9   50.19   30.90
   8 -14  -9   -7.60   19.00
   8  14  -9   63.49   27.70
  -8  14   9   -4.90   29.50
   8  14  -9   26.20   21.80
   6 -14  -9   13.70   18.10
  -6 -14   9    5.70   21.70
   6 -14  -9   -1.20   23.50
   6  14  -9    6.00   20.40
   6  14  -9    5.60   17.30
   4 -14  -9  207.58   33.50
   4 -14  -9  140.39   24.20
   4  14  -9  114.89   26.00
   2 -14  -9  780.62   59.79
   2 -14  -9  771.02   65.19
   2  14  -9  746.33   63.19
   0 -14  -9    5.50   15.80
   0 -14   9    6.20   12.40
   0 -14  -9  -23.00    9.80
   0  14  -9    9.30   14.40
  -2 -14  -9   49.00   23.00
  -2 -14  -9   55.49   20.30
   2 -14   9  103.69   20.00
  -2 -14  -9   73.49   16.60
  -2  14  -9   86.19   17.80
   2  14   9   88.69   18.30
  -4 -14  -9   20.90   16.50
  -4 -14  -9   23.30   23.20
   4 -14   9   15.80   19.70
  -4 -14  -9  -11.30   17.50
  -4  14  -9   33.60   23.10
  -4  14  -9    2.70   13.40
   4  14   9  -25.50   15.10
   4  14   9   25.40   23.00
   6 -14   9   36.30   22.90
  -6 -14  -9   77.99   28.30
  -6 -14  -9   63.89   31.90
  -6  14  -9   31.40   26.10
   6  14   9   47.60   26.10
   6  14   9   37.40   21.00
  -8 -14  -9  115.79   36.50
  -8 -14  -9   74.29   32.40
   8 -14   9   95.29   31.00
   8  14   9   56.09   25.00
   8  14   9  145.59   34.40
  -8  14  -9   30.60   30.30
 -10 -14  -9    1.80   34.30
 -10 -14  -9   69.99   44.30
  10 -14   9    5.80   29.70
 -10  14  -9   10.90   34.60
  10  14   9  -16.90   25.20
  11 -15  -9  -40.20   24.40
 -11 -15   9   37.00   41.70
  11  15  -9   64.19   31.80
  11  15  -9   34.70   30.60
 -11  15   9   21.70   46.00
  -9 -15   9   13.20   31.20
   9 -15  -9   13.30   24.10
   9  15  -9   -1.50   24.30
  -9  15   9   46.80   35.40
   9  15  -9   13.10   25.40
   7 -15  -9   27.30   19.80
   7 -15  -9    5.60   25.40
  -7 -15   9   27.90   26.40
   7  15  -9   15.40   19.70
   7  15  -9   -7.30   20.50
   5 -15  -9   61.89   25.60
  -5 -15   9   22.10   22.00
   5 -15  -9   13.30   18.60
   5  15  -9   49.50   23.50
   3 -15  -9   23.30   15.10
   3  15  -9   21.80   19.70
   1 -15  -9  166.08   22.70
   1 -15  -9  112.89   26.50
   1  15  -9  116.89   24.30
  -1 -15  -9  177.08   29.00
  -1 -15  -9  146.99   27.10
  -1 -15  -9  137.29   21.90
   1 -15   9  149.79   22.90
   1  15   9  152.08   22.90
  -1  15  -9  117.09   22.60
   3 -15   9  191.38   27.20
  -3 -15  -9  101.69   21.90
  -3 -15  -9  171.98   31.10
  -3 -15  -9  177.58   30.90
   3  15   9  186.88   27.20
  -3  15  -9  151.78   22.30
   3  15   9  201.28   32.40
   5 -15   9   20.20   21.90
  -5 -15  -9   18.70   25.00
  -5 -15  -9  -12.40   21.30
  -5 -15  -9    5.80   17.80
   5  15   9   16.10   18.70
  -5  15  -9   24.10   24.10
   5  15   9  -14.00   23.90
  -7 -15  -9    2.80   28.40
   7 -15   9   51.39   27.80
  -7 -15  -9   31.70   29.80
   7  15   9   21.60   21.70
   7  15   9    4.60   26.70
  -7  15  -9  -44.60   22.50
  -9 -15  -9  -29.00   29.40
   9 -15   9    7.60   29.10
  -9 -15  -9   28.00   39.30
  -9  15  -9   58.79   35.40
   9  15   9  -10.30   30.90
   9  15   9    7.00   24.80
 -10 -16   9   43.50   37.10
  10 -16  -9   38.20   27.60
  10  16  -9   16.00   31.00
  10  16  -9   21.00   27.70
 -10  16   9   64.89   43.60
   8 -16  -9  172.98   32.50
  -8 -16   9  172.38   37.70
   8 -16  -9  146.99   36.00
   8  16  -9  108.39   33.20
   8  16  -9  218.18   33.50
   6 -16  -9   93.89   29.60
  -6 -16   9   40.00   27.60
   6 -16  -9   37.40   20.10
   6  16  -9   36.80   25.00
   4 -16  -9  358.96   38.20
   4  16  -9  457.45   49.10
   2 -16  -9  105.09   20.70
   2 -16  -9  129.99   26.50
   2  16  -9  127.29   26.60
   0 -16   9   -4.20   13.00
   0 -16  -9   11.60   17.10
   0 -16  -9    9.20   13.80
   0  16  -9  -12.10   14.30
  -2 -16  -9   45.40   20.20
   2 -16   9   37.30   17.60
  -2 -16  -9   57.79   16.30
  -2 -16  -9  121.39   27.10
  -2  16  -9   61.39   18.80
   2  16   9   49.60   18.30
  -4 -16  -9   38.40   24.00
   4 -16   9   13.00   20.10
  -4 -16  -9   20.50   16.80
  -4 -16  -9   55.79   24.10
   4  16   9   32.20   18.80
   4  16   9  147.19   30.30
  -4  16  -9   25.10   16.50
  -4  16  -9   66.19   25.30
  -6 -16  -9   40.20   29.00
  -6 -16  -9   94.29   33.60
   6 -16   9   75.39   27.10
   6  16   9   61.39   27.90
  -6  16  -9   44.60   27.00
   6  16   9   39.00   21.80
  -8 -16  -9  -14.00   28.70
  -8 -16  -9   29.50   34.10
   8 -16   9   14.70   30.70
   8  16   9   87.09   27.00
   8  16   9   41.80   32.10
  -8  16  -9   15.50   29.00
 -10 -16  -9  -30.70   32.30
  10 -16   9   -1.70   31.90
  10  16   9  -31.00   24.90
 -10  16  -9  -45.30   30.40
 -11 -17   9   58.79   43.70
  11 -17  -9   17.60   30.10
 -11  17   9   38.90   47.00
  11  17  -9   49.50   33.30
  11  17  -9   81.09   36.60
  -9 -17   9   13.30   35.70
   9 -17  -9   15.70   22.80
   9  17  -9   55.69   27.80
   9  17  -9  -13.90   27.00
   7 -17  -9   94.79   32.00
  -7 -17   9   14.30   26.60
   7 -17  -9   53.39   22.70
   7  17  -9   -6.10   22.90
   7  17  -9  -22.00   20.20
  -5 -17   9   -0.20   23.30
   5 -17  -9   18.40   18.20
   5  17  -9   19.50   23.00
   3 -17  -9   30.30   16.60
   3  17  -9   12.80   20.30
   1 -17  -9   96.79   20.10
   1 -17  -9   79.39   24.40
   1  17  -9   94.19   23.30
  -1 -17  -9  419.76   37.80
   1 -17   9  387.16   38.50
  -1 -17  -9  387.56   46.10
  -1  17  -9  366.66   39.20
   3 -17   9   17.70   19.40
  -3 -17  -9   60.09   25.30
  -3 -17  -9   46.70   18.00
  -3 -17  -9   17.70   19.50
   3  17   9    1.60   16.80
  -3  17  -9   26.50   17.90
   3  17   9   32.40   25.30
  -5 -17  -9   -9.60   25.00
   5 -17   9   24.40   23.10
  -5 -17  -9   83.79   30.60
  -5 -17  -9   51.29   21.80
   5  17   9   44.60   20.50
   5  17   9   93.89   29.00
  -5  17  -9   59.19   27.20
   7 -17   9   -5.60   27.00
  -7 -17  -9   30.10   32.40
  -7 -17  -9  117.09   35.90
   7  17   9   26.10   22.40
   7  17   9   30.20   29.10
  -7  17  -9  -16.40   26.20
  -9 -17  -9   27.60   34.90
   9 -17   9  -37.50   29.70
  -9 -17  -9   32.10   38.60
   9  17   9   41.80   32.40
   9  17   9    2.40   26.10
  -9  17  -9    3.50   32.40
  10 -18  -9   -5.70   25.80
 -10 -18   9   10.70   36.00
 -10  18   9   39.60   42.70
  10  18  -9  -17.10   27.00
  10  18  -9   20.20   31.00
   8 -18  -9   31.00   24.20
  -8 -18   9   49.60   33.50
   8 -18  -9   29.20   31.00
   8  18  -9    6.80   24.00
   8  18  -9    5.40   25.70
   6 -18  -9   -7.50   19.20
  -6 -18   9   26.20   28.50
   6 -18  -9    5.60   28.10
   6  18  -9   13.60   23.80
   4 -18  -9   64.39   21.90
   4  18  -9   44.00   24.40
   2 -18  -9  148.49   24.80
   2 -18  -9  137.29   28.70
   2  18  -9  150.08   30.50
   0 -18   9    3.80   16.00
   0 -18  -9   29.90   15.30
   0 -18  -9   19.50   19.50
   0  18  -9  -10.80   15.80
  -2 -18  -9  203.08   34.00
  -2 -18  -9  133.89   29.70
  -2 -18  -9  202.48   27.50
   2 -18   9  170.68   27.60
  -2  18  -9  159.98   27.30
   2  18   9  128.49   25.80
  -4 -18  -9   12.20   23.80
  -4 -18  -9  -13.70   16.50
  -4 -18  -9   11.90   21.70
   4 -18   9   27.30   21.40
   4  18   9   -3.90   18.40
  -4  18  -9   21.70   20.00
   4  18   9  -12.00   26.50
  -6 -18  -9   23.40   28.20
  -6 -18  -9   18.50   22.70
  -6 -18  -9   22.00   29.70
   6 -18   9   36.10   27.70
   6  18   9   55.09   29.60
   6  18   9    3.20   20.80
  -6  18  -9   29.80   27.30
  -8 -18  -9   50.79   38.60
  -8 -18  -9   60.79   35.80
   8 -18   9   36.10   30.00
  -8  18  -9   45.30   31.80
   8  18   9   60.19   34.40
   8  18   9   23.70   26.30
  10 -18   9  -47.60   32.40
 -10 -18  -9   -4.50   36.00
  10  18   9  -22.40   27.20
 -10  18  -9   -4.20   37.00
  -9 -19   9   30.70   36.70
   9 -19  -9    5.90   24.50
   9  19  -9   73.19   34.30
   9  19  -9   -8.60   26.30
   7 -19  -9   -3.20   32.00
   7 -19  -9   -1.10   20.20
  -7 -19   9   53.99   32.80
   7  19  -9   20.30   26.20
   5 -19  -9   -4.90   17.90
  -5 -19   9   -5.70   26.90
   5  19  -9  -19.30   20.50
   3 -19  -9    8.20   17.00
   3  19  -9   28.40   23.00
   1 -19  -9   26.50   16.10
  -1 -19   9   28.20   17.80
   1 -19  -9   28.60   20.10
   1  19  -9    9.00   19.20
   1 -19   9   33.30   18.90
  -1 -19  -9    2.20   18.30
  -1 -19  -9   42.20   17.90
  -1  19  -9   -4.90   18.70
  -3 -19  -9   39.20   19.50
   3 -19   9   57.99   22.50
  -3 -19  -9   64.09   27.50
  -3 -19  -9   42.40   24.60
   3  19   9   86.39   31.50
  -3  19  -9   77.39   23.50
   3  19   9   40.40   20.80
  -5 -19  -9   33.00   23.20
  -5 -19  -9   -8.30   27.20
  -5 -19  -9  -22.50   26.00
   5 -19   9   25.20   24.20
   5  19   9   -1.90   28.10
   5  19   9  -14.80   20.50
   7 -19   9   19.50   30.40
  -7 -19  -9    7.70   31.20
  -7 -19  -9    9.50   34.10
   7  19   9   50.19   24.80
  -7  19  -9   37.80   32.70
   7  19   9    0.50   30.40
  -9 -19  -9  -29.30   31.70
   9 -19   9   12.10   33.60
  -9 -19  -9   67.09   43.50
  -9  19  -9   51.79   37.10
   9  19   9   61.59   37.70
   9  19   9  -21.10   23.90
 -10 -20   9  -12.10   40.30
  10 -20  -9   26.60   28.00
  10  20  -9   10.40   33.10
  10  20  -9   12.00   29.40
  -8 -20   9   77.79   37.90
   8 -20  -9   61.59   26.30
   8  20  -9   63.49   33.30
   8  20  -9   58.59   28.10
   6 -20  -9   -0.60   20.40
  -6 -20   9   39.50   31.70
   6  20  -9   41.20   28.50
   4 -20  -9   83.59   22.00
   4  20  -9   92.19   28.70
   2 -20  -9  121.79   24.10
   2 -20  -9  101.69   27.40
   2  20  -9   68.99   26.70
   0 -20  -9   -3.30   16.00
   0 -20   9  -22.90   17.10
   0 -20  -9  -21.40   18.70
   0  20  -9   -6.60   17.90
  -2 -20  -9   11.30   20.80
   2 -20   9   11.60   18.70
  -2 -20  -9    9.50   17.40
  -2 -20  -9  -12.00   21.90
  -2  20  -9   22.80   20.10
  -4 -20  -9   35.60   21.40
  -4 -20  -9   12.40   24.90
  -4 -20  -9  -21.60   23.50
   4 -20   9   38.50   24.40
   4  20   9   -1.70   26.80
   4  20   9   24.10   19.90
  -4  20  -9   11.50   37.80
   6 -20   9   31.60   28.80
  -6 -20  -9   35.80   30.60
  -6 -20  -9   17.20   32.40
  -6 -20  -9   77.79   26.60
   6  20   9   12.80   23.20
  -6  20  -9   33.40   29.00
   6  20   9   34.10   32.30
  -8 -20  -9   43.20   39.50
  -8 -20  -9  108.99   42.70
   8 -20   9   50.69   35.80
   8  20   9   42.90   38.80
   8  20   9   88.79   30.90
  -8  20  -9   57.59   34.30
   9 -21  -9   -3.90   26.20
  -9 -21   9   29.00   39.10
   9  21  -9  -17.80   27.60
   9  21  -9   51.79   29.90
   7 -21  -9   33.50   23.70
  -7 -21   9   -1.60   31.40
   7 -21  -9   13.80   33.30
   7  21  -9    9.30   29.30
   5 -21  -9   28.00   20.20
  -5 -21   9   -2.30   31.50
   5  21  -9   72.29   30.80
   3 -21  -9  -20.60   15.80
   3  21  -9   21.00   23.40
   1 -21  -9   99.89   27.60
  -1 -21   9   45.40   22.40
   1 -21  -9   50.29   20.50
   1  21  -9   87.59   26.00
  -1 -21  -9   32.30   22.80
  -1 -21  -9    1.50   17.50
   1 -21   9  -11.20   19.10
  -1  21  -9   28.20   22.60
  -3 -21  -9   50.09   24.30
  -3 -21  -9   32.20   27.20
   3 -21   9   18.60   20.70
  -3 -21  -9   26.20   19.80
   3  21   9    9.40   19.80
   3  21   9   57.59   29.50
  -3  21  -9   12.60   20.90
  -5 -21  -9   -1.50   26.70
   5 -21   9  -34.10   24.00
  -5 -21  -9   -5.00   28.00
  -5 -21  -9   -2.00   22.00
   5  21   9   -6.70   30.50
   5  21   9  -22.00   19.70
  -7 -21  -9    3.40   37.00
  -7 -21  -9    8.20   23.80
  -7 -21  -9   24.90   35.30
   7 -21   9    6.00   30.80
   7  21   9    3.80   23.80
   7  21   9   70.09   35.90
  -7  21  -9   -1.60   31.00
   8 -22  -9   34.10   27.70
  -8 -22   9  141.39   45.20
   8  22  -9   75.99   37.50
   6 -22  -9    4.00   22.10
  -6 -22   9  -39.60   31.60
   6  22  -9   -4.50   25.50
   4 -22  -9   30.00   20.70
   4  22  -9   32.40   27.90
   2 -22  -9  176.18   29.10
   2  22  -9  209.08   37.40
   0 -22  -9  -21.30   19.30
   0 -22   9   12.40   18.70
   0 -22  -9   16.90   18.10
   0  22  -9   10.10   22.10
   2 -22   9   15.20   21.10
  -2 -22  -9  -37.50   18.30
  -2 -22  -9  -31.30   15.40
  -2 -22  -9  -15.10   23.50
  -2  22  -9    5.90   24.20
  -4 -22  -9   -5.00   19.90
  -4 -22  -9  -15.70   24.10
  -4 -22  -9   20.10   27.80
   4 -22   9   14.20   24.30
   4  22   9   28.70   33.30
   4  22   9    8.10   21.20
  -6 -22  -9  -52.59   20.50
   6 -22   9    8.80   28.70
  -6 -22  -9   65.99   38.40
  -6 -22  -9   20.50   32.90
   6  22   9   82.29   36.10
   6  22   9    1.10   22.30
  -8 -22  -9   16.30   38.80
   8 -22   9   38.90   35.70
  -8 -22  -9   66.19   42.10
  -8 -22  -9   30.60   28.70
  -8  22  -9  -19.10   31.60
   8  22   9   48.70   29.50
   8  22   9   -1.90   40.10
  -9 -23   9  -12.00   41.00
   9 -23  -9   40.10   30.10
   9  23  -9   -1.60   33.10
   7 -23  -9   10.20   26.20
  -7 -23   9   85.79   37.90
   7 -23  -9    3.90   37.70
   7  23  -9   50.59   31.70
   5 -23  -9   10.00   22.40
  -5 -23   9   16.70   32.90
   5  23  -9  -23.00   26.30
   3 -23  -9   15.40   19.20
   3  23  -9   21.60   25.20
   1 -23  -9    0.30   19.80
  -1 -23   9   46.20   24.60
   1 -23  -9   23.70   18.40
   1  23  -9   59.89   26.30
  -1 -23  -9   80.69   27.60
  -1 -23  -9   71.29   23.30
   1 -23   9   49.99   23.80
  -1  23  -9   82.99   28.80
   3 -23   9   11.20   22.50
  -3 -23  -9  -15.80   28.10
  -3 -23  -9   -7.00   23.70
  -3 -23  -9  -11.30   18.70
  -3  23  -9   34.90   24.60
   3  23   9    0.40   25.00
  -5 -23  -9    5.50   29.20
  -5 -23  -9  -17.80   28.10
  -5 -23  -9    1.20   23.80
   5 -23   9  -10.30   26.50
   5  23   9  -19.50   20.50
   5  23   9  -19.20   31.70
   7 -23   9   20.20   32.40
  -7 -23  -9   40.20   29.20
  -7 -23  -9    3.50   33.60
  -7 -23  -9   15.10   39.30
   7  23   9   46.10   38.80
   7  23   9   17.80   26.20
   8 -24  -9   41.70   29.60
  -8 -24   9    1.00   38.80
   8  24  -9   48.60   37.30
   6 -24  -9   39.90   26.10
  -6 -24   9   31.70   38.30
   6  24  -9   28.90   31.10
   4 -24  -9   83.59   25.60
   4  24  -9   32.70   29.10
   2 -24  -9  125.69   27.40
  -2 -24   9  113.59   28.20
   2  24  -9  133.89   34.20
   0 -24   9   -2.90   22.00
   0 -24  -9   18.90   25.40
   0 -24  -9    2.30   19.80
   0  24  -9   21.70   24.40
  -2 -24  -9    9.70   23.90
  -2 -24  -9   -2.40   27.60
  -2 -24  -9   50.69   23.50
   2 -24   9    2.00   22.30
  -2  24  -9   11.00   26.60
   2  24   9    9.10   28.10
  -4 -24  -9  -53.99   25.40
  -4 -24  -9   24.00   31.10
  -4 -24  -9   -3.10   20.70
   4 -24   9  -12.10   25.60
   4  24   9   28.20   22.50
   4  24   9  -15.30   29.40
  -6 -24  -9   35.20   26.70
  -6 -24  -9   23.20   37.50
  -6 -24  -9   50.59   37.10
   6 -24   9  -20.00   30.10
   6  24   9    2.70   36.50
   6  24   9   22.10   25.20
  -7 -25   9   10.30   38.70
   7 -25  -9   63.49   30.50
   7  25  -9   33.90   32.10
   5 -25  -9  -22.20   21.70
  -5 -25   9   20.80   37.90
   5  25  -9   33.40   31.70
  -3 -25   9   55.19   24.90
   3 -25  -9   16.40   21.30
   3  25  -9   48.00   29.90
   1 -25  -9  -17.70   19.50
  -1 -25   9  -13.50   22.10
   1 -25  -9   20.00   23.40
   1  25  -9   -6.50   25.10
   1 -25   9   -0.70   23.00
  -1 -25  -9   71.19   25.60
  -1 -25  -9   36.30   27.00
  -1  25  -9   39.20   25.80
  -3 -25  -9   16.70   27.00
   3 -25   9   20.10   25.40
  -3 -25  -9  -41.10   30.60
  -3 -25  -9   13.80   23.10
   3  25   9  -16.90   29.40
  -5 -25  -9   -8.90   23.10
   5 -25   9  -34.90   26.90
  -5 -25  -9   -2.70   30.70
  -5 -25  -9   40.20   34.00
   5  25   9   25.70   37.60
   5  25   9   23.30   24.40
   6 -26  -9  -17.40   25.40
  -6 -26   9    0.90   39.40
   6  26  -9  -38.60   29.10
   4 -26  -9   58.79   24.80
   4  26  -9   27.00   31.50
   2 -26  -9  -10.50   21.20
   2 -26  -9   55.39   23.50
  -2 -26   9  -35.50   22.50
   2  26  -9   59.59   30.90
   0 -26  -9  -29.20   18.60
   0 -26  -9   -0.40   25.00
   0 -26   9   39.30   25.00
   0  26  -9  -23.00   25.40
  -2 -26  -9    1.10   25.90
  -2 -26  -9   61.39   35.00
  -2 -26  -9  -11.40   21.50
   2 -26   9   68.29   27.90
  -2  26  -9   22.40   31.40
   2  26   9   -9.40   28.50
  -4 -26  -9    5.30   23.40
  -4 -26  -9    7.20   32.60
   4 -26   9  -29.60   25.60
  -4 -26  -9   53.69   35.90
   4  26   9   23.00   35.00
  -6 -26  -9   44.00   41.80
  -6 -26  -9   20.20   35.70
   6 -26   9  -15.10   31.50
  -6 -26  -9  -38.70   25.00
   6  26   9  -17.00   24.60
   6  26   9  -19.90   39.20
   5 -27  -9   13.40   24.30
  -5 -27   9    3.30   41.60
   5  27  -9   25.00   33.00
   3 -27  -9    3.40   22.00
  -3 -27   9   28.80   26.80
   3  27  -9   -9.70   29.80
   1 -27  -9   40.90   27.30
  -1 -27   9   -2.20   24.90
   1 -27  -9   26.80   22.20
   1  27  -9  -25.40   26.70
   1 -27   9   79.69   29.80
  -1 -27  -9  101.49   28.00
  -1 -27  -9   64.29   29.50
  -1  27  -9   60.59   32.80
  -3 -27  -9   38.20   37.90
   3 -27   9   61.39   31.00
  -3 -27  -9   61.29   34.40
  -3 -27  -9   55.59   26.90
   3  27   9   37.60   35.50
   5 -27   9   19.10   33.30
  -5 -27  -9   -5.50   38.50
  -5 -27  -9    8.60   28.20
  -5 -27  -9   10.10   36.40
   5  27   9  -21.50   38.70
   4 -28  -9    0.60   27.10
  -4 -28   9   11.10   25.50
   4  28  -9   49.99   36.90
  -2 -28   9   57.79   31.00
   2 -28  -9   55.89   26.50
   2 -28  -9   91.79   32.20
   2  28  -9   57.39   33.00
   0 -28  -9  -24.60   21.30
   0 -28   9    2.60   25.90
   0 -28  -9    8.30   28.30
   0  28  -9    3.90   30.40
  -2 -28  -9   -7.30   28.90
  -2 -28  -9  -41.10   20.90
   2 -28   9   38.80   28.60
  -2 -28  -9    3.80   31.30
  -2  28  -9  -32.30   30.90
   2  28   9   54.49   35.00
   4 -28   9   -9.40   30.40
  -4 -28  -9  -13.70   25.50
  -4 -28  -9    6.20   36.30
  -4 -28  -9   30.90   36.80
   4  28   9   23.00   34.50
  -3 -29   9   86.59   33.60
   3 -29  -9  115.49   31.90
   3  29  -9   55.19   39.30
  -1 -29   9  -18.60   27.20
   1 -29  -9   12.00   26.00
   1 -29  -9   16.80   22.90
   1  29  -9   28.80   30.50
   1 -29   9   19.90   27.50
  -1 -29  -9   38.90   30.50
  -1 -29  -9   39.70   27.30
  -1  29  -9   34.80   33.50
   1  29   9   33.40   34.90
  -3 -29  -9   18.90   34.00
  -3 -29  -9   27.70   27.60
  -3 -29  -9   -5.20   39.10
   3 -29   9   -1.90   31.40
   3  29   9    9.50   37.10
   2 -30  -9   45.90   26.70
   2 -30  -9   82.69   33.00
  -2 -30   9   38.60   33.20
   2  30  -9   79.19   39.30
   0 -30   9  -13.00   27.60
   0 -30  -9   18.00   24.80
   0 -30  -9    8.00   30.90
   0  30  -9   12.30   31.00
 -12   0  10   63.09   45.40
  12   0 -10   67.69   30.10
  12   0 -10   32.90   27.10
  10   0 -10   40.80   24.60
  10   0 -10   97.79   28.00
 -10   0  10  140.29   41.40
  -8   0  10  177.18   31.30
   8   0 -10   88.99   21.70
   8   0 -10   71.49   22.70
   6   0 -10  182.98   29.30
   6   0 -10  226.88   21.00
   6   0 -10  333.57   34.30
   4   0 -10  105.39   20.50
   4   0 -10   93.39   14.60
   4   0 -10   58.69   17.70
   2   0 -10  218.08   24.40
   2   0 -10  184.28   25.60
   2   0 -10  217.28   24.70
   0   0 -10  389.56   31.10
   0   0  10  383.36   30.30
   0   0 -10  331.97   34.20
   0   0 -10  370.46   34.60
  -2   0 -10  -20.00   13.00
  -2   0 -10   -6.40   12.90
  -2   0 -10  -11.10    9.80
  -4   0 -10   96.49   21.40
   4   0  10   75.49   15.00
  -4   0 -10   47.90   18.50
  -4   0 -10   59.99   15.10
   6   0  10   16.70   16.60
  -6   0 -10   34.20   27.10
  -6   0 -10   38.80   23.30
  -6   0 -10  -20.20   17.40
  -8   0 -10   -4.00   25.30
  -8   0 -10   36.60   27.60
   8   0  10   23.10   21.10
 -10   0 -10   40.20   29.90
  10   0  10   22.40   25.80
  12   0  10  -16.30   28.50
 -12   0 -10   33.90   34.70
  13  -1 -10   42.80   30.30
 -13  -1  10   15.00   47.60
  13  -1 -10   24.20   31.40
  13   1 -10  -24.00   30.10
 -13   1  10   23.40   49.90
  13   1 -10   39.10   29.70
 -11  -1  10   65.59   41.30
  11  -1 -10    1.00   22.00
  11  -1 -10   32.60   26.50
  11   1 -10   67.49   28.50
 -11   1  10   43.70   40.60
  11   1 -10   -1.00   21.70
   9  -1 -10  138.29   27.80
  -9  -1  10  190.48   37.20
   9  -1 -10   87.69   26.60
   9   1 -10  173.88   28.20
   9   1 -10  108.79   28.10
  -9   1  10  172.28   37.30
   7  -1 -10   89.19   22.00
   7  -1 -10  107.39   21.20
   7  -1 -10  187.38   27.50
   7   1 -10   87.09   19.40
   7   1 -10   87.29   22.90
   5  -1 -10   91.09   21.50
   5  -1 -10  122.39   16.10
   5  -1 -10  109.59   21.00
   5   1 -10  113.09   14.60
   5   1 -10  106.99   21.30
   5   1 -10  126.49   22.60
   3  -1 -10  350.16   35.30
   3  -1 -10  394.26   32.90
   3  -1 -10  360.16   34.10
   3   1 -10  402.76   36.50
   3   1 -10  391.46   34.70
   3   1 -10  354.06   31.90
   1  -1 -10  241.48   27.50
   1  -1 -10  239.88   25.90
   1  -1 -10  266.07   27.50
   1   1 -10  271.97   24.70
   1   1 -10  264.97   28.20
   1   1 -10  237.98   26.20
  -1  -1 -10    9.10   13.40
  -1  -1 -10   13.60   13.70
  -1   1 -10    5.70   11.90
  -1   1 -10   12.00   12.60
  -3  -1 -10   36.10   15.50
  -3  -1 -10   64.79   18.30
  -3  -1 -10   48.60   15.40
  -3   1 -10   20.30   16.40
  -3   1 -10   32.40   18.30
  -3   1 -10   42.90   19.00
  -5  -1 -10   15.60   17.70
  -5  -1 -10    6.00   13.70
  -5  -1 -10   21.10   20.10
   5  -1  10   -6.10   12.80
   5   1  10    1.60   13.30
  -5   1 -10   10.60   17.30
  -5   1 -10   33.60   20.80
  -5   1 -10  -10.20   18.80
   7  -1  10  100.89   21.30
  -7  -1 -10   27.60   24.10
  -7  -1 -10   36.40   26.30
  -7  -1 -10   75.99   32.30
   7   1  10   63.89   20.30
  -7   1 -10  116.19   32.20
  -7   1 -10   85.09   27.50
  -7   1 -10   82.39   27.80
  -9  -1 -10    8.00   26.40
   9  -1  10    4.60   21.40
  -9  -1 -10   68.39   34.50
   9   1  10   75.69   25.10
  -9   1 -10   52.69   30.50
  11  -1  10    9.60   28.50
 -11  -1 -10  -27.40   29.40
  11   1  10  -17.10   25.10
 -11   1 -10   37.30   32.90
  12  -2 -10  -12.50   27.50
  12  -2 -10   -2.90   23.80
 -12  -2  10   -1.80   44.20
  12   2 -10  -16.80   26.60
 -12   2  10  102.69   49.50
  12   2 -10   29.40   27.90
  10  -2 -10    5.00   22.00
 -10  -2  10   93.19   37.70
  10  -2 -10   40.70   21.10
  10   2 -10   70.59   26.20
  10   2 -10   17.90   22.20
 -10   2  10   81.39   37.90
  -8  -2  10   57.89   25.80
   8  -2 -10   32.70   18.10
   8  -2 -10   55.89   21.50
   8  -2 -10   55.69   20.20
   8   2 -10   34.70   18.60
   8   2 -10   50.79   20.90
  -8   2  10   39.00   26.00
   6  -2 -10   45.80   11.80
   6  -2 -10   47.10   18.70
   6  -2 -10   31.00   15.40
   6   2 -10   39.20   17.20
   4  -2 -10   53.59   16.40
   4  -2 -10   20.80   11.50
   4  -2 -10   51.89   15.70
  -4  -2  10   57.29   11.70
   4   2 -10   46.90   15.60
   4   2 -10   41.40   11.10
   4   2 -10   62.49   17.20
   2  -2 -10   52.89   16.20
   2  -2 -10   54.69   16.90
   2  -2 -10   42.30   14.10
   2   2 -10   41.50   13.80
   2   2 -10   50.49   14.20
   2   2 -10   61.99   16.90
   0  -2 -10  206.18   26.70
   0  -2 -10  186.18   25.10
   0  -2  10  213.38   21.00
   0   2 -10  187.68   19.40
   0   2 -10  200.88   26.10
   0   2 -10  185.68   25.90
  -2  -2 -10  127.39   21.40
  -2  -2 -10   94.69   20.40
  -2  -2 -10  141.59   20.90
  -2   2 -10  105.19   20.90
  -2   2 -10  143.39   22.20
  -2   2 -10  143.79   23.00
  -4  -2 -10   78.49   21.40
   4  -2  10  108.49   16.40
  -4  -2 -10   85.79   20.20
  -4  -2 -10  113.99   23.50
  -4   2 -10  132.99   24.40
  -4   2 -10  199.68   26.40
  -4   2 -10   98.39   22.60
   4   2  10  114.59   17.40
  -6  -2 -10   55.79   23.70
   6  -2  10   32.50   17.70
  -6  -2 -10   44.70   21.40
  -6  -2 -10   42.70   18.10
  -6   2 -10   43.40   23.90
  -6   2 -10   32.60   25.00
  -6   2 -10   52.79   21.40
   6   2  10   29.80   16.50
  -8  -2 -10   35.30   26.10
   8  -2  10   18.80   21.40
  -8  -2 -10   21.80   29.30
  -8   2 -10   19.20   25.60
   8   2  10   20.30   19.60
 -10  -2 -10   80.59   32.20
  10  -2  10    2.00   24.50
 -10   2 -10   17.20   28.50
  10   2  10   33.40   27.20
  12  -2  10   13.70   30.20
 -12  -2 -10   79.09   37.50
  12   2  10  -14.00   28.70
 -12   2 -10   47.30   35.20
 -13  -3  10  165.18   54.29
  13  -3 -10   69.89   33.20
  13  -3 -10   46.60   32.30
 -13   3  10   51.89   54.19
  13   3 -10   34.00   32.40
  13   3 -10   24.10   29.30
  11  -3 -10   61.39   28.80
 -11  -3  10  122.49   41.90
  11  -3 -10   26.90   26.10
 -11   3  10  113.59   46.20
  11   3 -10   41.50   26.60
  11   3 -10   24.30   25.50
   9  -3 -10  111.49   30.00
  -9  -3  10  311.37   43.50
   9  -3 -10  206.18   32.50
   9   3 -10  217.38   31.60
   9   3 -10  184.38   33.50
  -9   3  10  324.67   44.90
   7  -3 -10  194.58   25.60
   7  -3 -10  113.59   25.80
  -7  -3  10  239.38   31.30
   7  -3 -10  198.48   28.70
   7  -3 -10  165.18   20.70
   7   3 -10  119.39   25.30
   7   3 -10  141.29   23.10
  -7   3  10  246.48   32.50
   5  -3 -10  196.68   26.80
  -5  -3  10  169.88   17.80
   5  -3 -10  176.58   22.50
   5  -3 -10  176.58   27.00
   5   3 -10  219.68   29.80
   3  -3 -10  532.15   47.00
   3  -3 -10  547.85   45.60
   3  -3 -10  552.64   47.70
   3   3 -10  547.65   43.70
   3   3 -10  601.04   48.80
   3   3 -10  579.04   46.80
   1  -3 -10  451.55   41.20
   1  -3 -10  501.85   41.20
   1   3 -10  469.65   37.90
   1   3 -10  463.15   40.20
   1   3 -10  448.96   41.20
  -1  -3 -10   49.99   15.40
  -1  -3 -10   46.10   15.40
  -1   3 -10   50.89   17.50
  -1   3 -10   36.10   15.80
   1   3  10   61.29   12.50
  -3  -3 -10   18.30   14.60
  -3  -3 -10   13.40   15.30
  -3  -3 -10   -5.40   11.90
  -3   3 -10    5.20   17.20
  -3   3 -10   -7.30   15.60
  -3   3 -10  -13.40   13.30
   5  -3  10    7.80   13.20
  -5  -3 -10  -14.40   19.00
  -5  -3 -10   30.00   18.90
  -5  -3 -10   28.50   15.90
   5   3  10   14.00   13.00
  -5   3 -10   46.60   20.60
  -5   3 -10  -21.00   18.80
  -5   3 -10    4.50   15.50
  -7  -3 -10  121.39   31.00
  -7  -3 -10  181.58   32.80
   7  -3  10  109.89   24.90
  -7  -3 -10  132.89   24.60
  -7   3 -10  123.19   31.00
   7   3  10   99.39   24.30
  -9  -3 -10   12.20   27.30
   9  -3  10   10.30   23.40
  -9  -3 -10  -14.70   33.20
   9   3  10    2.10   23.70
  -9   3 -10  -11.10   25.00
 -11  -3 -10   45.40   34.60
  11  -3  10  -25.20   27.10
 -11   3 -10   50.49   34.70
  11   3  10   11.60   27.60
  12  -4 -10   28.20   28.40
 -12  -4  10   10.40   43.40
  12  -4 -10   27.10   29.50
 -12   4  10   37.50   47.20
  12   4 -10   49.60   29.70
  12   4 -10  -13.30   27.20
  10  -4 -10   12.20   22.50
 -10  -4  10   57.99   36.30
  10  -4 -10   10.30   21.90
  10   4 -10    6.70   22.30
 -10   4  10  110.89   39.90
  10   4 -10   20.00   23.70
  -8  -4  10  157.78   31.20
   8  -4 -10  116.39   24.20
   8  -4 -10  108.49   26.00
   8  -4 -10   76.39   25.80
   8   4 -10  102.09   26.50
   8   4 -10   86.89   22.40
  -8   4  10  166.78   33.00
   6  -4 -10   15.00   14.60
   6  -4 -10   39.60   14.40
   6  -4 -10   16.50   17.00
   6  -4 -10   41.10   17.50
   6   4 -10   35.40   17.60
   4  -4 -10  356.16   34.30
  -4  -4  10  315.37   27.40
   4  -4 -10  311.97   30.90
   4  -4 -10  335.87   33.60
   4   4 -10  316.27   33.20
   2  -4 -10   93.09   19.00
   2  -4 -10  107.49   19.60
   2  -4 -10   78.69   18.20
   2   4 -10  121.69   18.10
   2   4 -10  134.69   18.90
   2   4 -10   73.69   18.90
   0  -4  10   79.09   13.50
   0  -4 -10   80.09   18.80
   0  -4 -10  115.99   20.00
   0   4 -10   93.09   13.60
   0   4 -10   99.49   20.50
   0   4 -10  108.29   19.80
  -2  -4 -10  305.37   31.40
  -2  -4 -10  292.57   29.80
  -2  -4 -10  287.07   31.40
  -2   4 -10  267.57   33.30
  -2   4 -10  314.27   33.70
  -2   4 -10  309.57   30.60
  -4  -4 -10   26.50   19.20
   4  -4  10   25.30   13.10
  -4  -4 -10   47.20   18.10
  -4  -4 -10    9.50   14.20
  -4   4 -10   25.60   21.00
  -4   4 -10   37.00   22.70
   4   4  10   20.20   12.70
  -6  -4 -10   39.80   23.70
  -6  -4 -10   78.09   23.70
   6  -4  10    0.70   14.90
  -6  -4 -10   -5.30   17.30
   6   4  10   25.10   16.80
  -6   4 -10    3.60   20.70
  -8  -4 -10    1.40   25.40
  -8  -4 -10   77.89   32.40
   8  -4  10   -0.90   20.90
  -8   4 -10   25.30   26.30
   8   4  10   30.60   20.90
  10  -4  10    4.40   24.80
 -10  -4 -10   72.39   43.60
 -10  -4 -10   77.79   32.30
  10   4  10   39.70   27.80
 -10   4 -10    5.80   27.60
 -12  -4 -10   11.60   34.40
  12  -4  10   38.10   31.60
 -12   4 -10   91.09   37.90
  12   4  10   -3.90   31.10
  13  -5 -10  -33.00   30.10
  13  -5 -10   35.90   37.40
 -13  -5  10   80.39   51.69
  13   5 -10   66.09   35.40
 -13   5  10  164.68   60.09
  13   5 -10   67.99   32.70
 -11  -5  10   49.10   38.10
  11  -5 -10   -4.30   24.80
  11  -5 -10   15.70   24.50
  11   5 -10   30.50   25.90
 -11   5  10  -38.50   37.90
  11   5 -10   53.29   27.20
   9  -5 -10  190.08   34.00
   9  -5 -10  182.48   31.80
   9  -5 -10  253.97   33.10
  -9  -5  10  324.97   42.40
   9   5 -10  129.49   31.40
   9   5 -10  176.28   30.80
  -9   5  10  324.87   42.60
   7  -5 -10   96.69   19.60
   7  -5 -10   98.89   24.60
  -7  -5  10  127.69   27.10
   7  -5 -10   69.99   20.50
   7  -5 -10  121.79   24.40
   7   5 -10  121.39   20.50
  -7   5  10   99.19   25.10
   7   5 -10   45.60   20.00
   5  -5 -10   64.29   19.00
   5  -5 -10   52.49   18.90
  -5  -5  10   56.29   10.90
   5  -5 -10   51.59   16.90
   5   5 -10   58.79   19.10
   3  -5 -10  388.36   34.00
   3  -5 -10  329.37   34.80
   3  -5 -10  340.77   34.20
   3   5 -10  350.76   34.50
   1  -5 -10   68.79   18.10
   1  -5 -10   72.99   17.70
   1   5 -10   48.50   14.40
   1   5 -10   65.89   17.70
  -1  -5 -10   83.39   19.80
  -1  -5 -10   97.69   19.90
  -1   5 -10  115.79   21.60
  -1   5 -10  120.99   18.80
  -3  -5 -10  116.29   22.40
  -3  -5 -10  114.09   21.40
  -3  -5 -10  106.69   20.50
  -3   5 -10   89.39   23.00
  -3   5 -10  109.99   25.80
   3   5  10   95.69   16.30
  -5  -5 -10   52.29   18.10
  -5  -5 -10   14.90   21.30
  -5  -5 -10   60.79   21.60
   5  -5  10   17.40   14.80
   5   5  10   82.99   17.30
  -5   5 -10   59.09   24.30
   5   5  10   49.10   15.80
  -7  -5 -10  124.69   33.20
  -7  -5 -10  136.69   25.90
   7  -5  10  117.29   25.10
  -7  -5 -10  162.48   34.60
   7   5  10  158.08   26.60
  -7   5 -10   81.49   29.60
   7   5  10  159.38   25.80
   9  -5  10  -11.00   22.80
  -9  -5 -10   13.20   37.30
  -9  -5 -10    4.90   28.50
  -9   5 -10   12.90   29.70
   9   5  10   46.70   25.90
  11  -5  10  -38.70   27.00
 -11  -5 -10   21.10   45.90
 -11  -5 -10   -5.60   31.60
  11   5  10   14.40   29.30
 -11   5 -10    1.30   33.90
  12  -6 -10   36.40   28.90
  12  -6 -10    5.00   28.30
 -12  -6  10   48.60   44.70
  12   6 -10  -15.30   26.60
 -12   6  10   58.29   44.80
  12   6 -10   26.50   29.90
 -10  -6  10   36.90   34.60
  10  -6 -10   -0.30   22.00
  10  -6 -10   10.20   22.50
  10   6 -10   42.00   23.70
 -10   6  10   28.00   34.40
  10   6 -10   50.09   24.80
   8  -6 -10   98.69   22.20
   8  -6 -10   94.69   24.10
  -8  -6  10  127.09   32.40
   8  -6 -10   99.09   26.30
   8  -6 -10  111.19   28.40
   8   6 -10   92.69   22.90
  -8   6  10  100.19   30.50
   8   6 -10   45.60   21.10
   6  -6 -10   84.89   21.60
   6  -6 -10   36.80   16.40
  -6  -6  10   33.20   17.60
   6  -6 -10   37.90   16.30
   6  -6 -10   14.20   17.20
   6   6 -10   15.20   16.20
   4  -6 -10   -5.80   13.40
   4  -6 -10    8.90   13.50
  -4  -6  10   16.30   10.40
   4  -6 -10    6.30   14.20
   4   6 -10   -4.50   12.60
   2  -6 -10   32.30   14.20
   2  -6 -10   -3.90   13.40
   2   6 -10   -9.10   11.30
   0  -6  10  717.83   57.49
   0  -6 -10  821.62   63.89
   0  -6 -10  811.02   63.09
   0   6 -10  829.02   58.59
  -2  -6 -10  310.27   35.10
  -2  -6 -10  360.36   33.80
  -2  -6 -10  379.96   36.50
   2   6  10  370.16   30.10
  -2   6 -10  361.46   34.80
  -4  -6 -10    4.30   13.80
   4  -6  10   10.90   13.20
  -4  -6 -10    0.30   14.20
  -4  -6 -10   25.70   19.30
  -4   6 -10   34.60   19.40
   4   6  10   24.10   14.30
   4   6  10  -30.00   11.20
  -6  -6 -10   48.80   24.70
  -6  -6 -10   43.00   21.20
  -6  -6 -10   59.29   18.70
   6  -6  10   57.19   18.90
   6   6  10   48.00   19.60
  -6   6 -10   71.79   26.80
   6   6  10   29.60   18.10
  -8  -6 -10   53.79   28.80
   8  -6  10    2.60   20.20
  -8  -6 -10   33.50   30.20
  -8   6 -10   -3.90   24.90
   8   6  10   -8.30   19.40
 -10  -6 -10  110.69   36.00
  10  -6  10   51.89   28.20
 -10  -6 -10  113.69   47.80
 -10   6 -10  135.59   37.60
  10   6  10   82.79   30.20
  12  -6  10    9.50   31.30
 -12  -6 -10   -6.20   35.70
  12   6  10   24.60   32.50
 -12   6 -10   50.69   38.10
  13  -7 -10   -8.70   31.50
 -13  -7  10  -17.60   47.40
  13  -7 -10   20.20   33.60
 -13   7  10   74.79   61.59
  13   7 -10  -19.40   31.00
  13   7 -10   28.50   32.60
  11  -7 -10   17.20   25.10
  11  -7 -10  -17.40   24.50
 -11  -7  10  -18.10   37.70
 -11   7  10   14.40   40.70
  11   7 -10  -10.10   25.70
  11   7 -10   19.60   28.70
  -9  -7  10  -14.80   29.60
   9  -7 -10   -2.20   20.70
   9  -7 -10  -21.40   18.00
   9  -7 -10    9.30   23.60
  -9   7  10   35.10   30.00
   9   7 -10   -4.50   18.50
   9   7 -10   -1.20   19.10
  -7  -7  10  392.96   41.50
   7  -7 -10  278.07   38.90
   7  -7 -10  353.76   40.40
   7  -7 -10  306.47   38.00
   7  -7 -10  389.06   40.10
   7   7 -10  360.06   34.90
   7   7 -10  334.07   43.30
  -7   7  10  398.56   39.60
  -5  -7  10    7.70    9.00
   5  -7 -10    1.30   13.10
   5  -7 -10   21.60   16.30
   5  -7 -10  -11.80   14.20
   5  -7 -10    7.00   14.30
   5   7 -10   20.00   15.90
   3  -7 -10  333.87   35.90
   3  -7 -10  337.97   34.90
   3   7 -10  355.06   34.70
   1  -7 -10  471.55   43.40
   1  -7 -10  488.55   45.30
   1   7 -10  515.65   41.50
  -1  -7 -10  317.57   30.20
  -1  -7 -10  287.37   34.40
  -1  -7 -10  308.37   35.90
  -1   7 -10  293.17   30.50
  -3  -7 -10    9.50   17.20
  -3  -7 -10   15.00   14.80
  -3  -7 -10   20.80   14.30
  -3   7 -10   24.20   19.00
   3   7  10   30.00   12.40
  -5  -7 -10   24.80   16.70
  -5  -7 -10   76.19   21.00
  -5  -7 -10   87.49   26.00
   5  -7  10   55.49   18.00
  -5   7 -10   50.69   22.80
   5   7  10   39.90   17.80
   5   7  10   66.69   17.90
  -7  -7 -10   61.19   29.70
   7  -7  10    4.20   18.90
  -7  -7 -10   53.89   20.80
  -7  -7 -10   32.50   27.30
  -7   7 -10   -0.20   23.50
   7   7  10    4.50   20.40
   7   7  10   33.90   19.30
  -9  -7 -10   78.79   40.00
   9  -7  10   27.10   26.10
  -9  -7 -10   30.00   29.90
  -9   7 -10   45.30   31.90
   9   7  10   52.99   24.30
 -11  -7 -10   23.60   35.90
 -11  -7 -10   65.59   48.10
  11  -7  10  -37.20   26.80
 -11   7 -10   -7.80   31.50
  11   7  10   27.70   29.20
  12  -8 -10   13.50   28.40
  12  -8 -10   15.50   27.00
 -12  -8  10   -9.60   41.40
 -12   8  10   31.90   44.70
  12   8 -10    2.50   28.60
  12   8 -10    1.80   28.10
 -10  -8  10  113.49   38.60
  10  -8 -10   42.70   24.40
  10  -8 -10   26.40   22.90
  10   8 -10   59.69   27.00
  10   8 -10   43.60   24.40
 -10   8  10   39.50   36.30
   8  -8 -10    0.50   18.90
   8  -8 -10  -13.50   22.40
   8  -8 -10   13.20   18.80
   8  -8 -10   16.90   19.70
  -8  -8  10   20.10   26.20
  -8   8  10   31.20   27.90
   8   8 -10  -35.30   15.90
   8   8 -10   -9.80   17.80
   6  -8 -10   37.30   19.20
   6  -8 -10   -8.20   14.40
  -6  -8  10    5.30   18.90
   6  -8 -10   18.50   15.60
   6  -8 -10    8.90   16.80
  -6   8  10  -19.30   18.70
   6   8 -10    4.90   16.20
   4  -8 -10  140.89   24.90
   4  -8 -10  156.08   25.10
   4   8 -10  188.28   28.30
   2  -8 -10  323.27   36.10
   2  -8 -10  351.86   36.00
   2   8 -10  349.47   34.20
   0  -8 -10   42.20   17.50
   0  -8 -10   79.89   19.60
   0   8 -10   65.29   15.10
   0   8  10   66.19   12.80
  -2  -8 -10  231.98   32.30
  -2  -8 -10  269.27   33.90
  -2  -8 -10  330.17   34.30
  -2   8 -10  347.07   34.60
   2   8  10  262.07   26.60
  -4  -8 -10   10.90   18.30
  -4  -8 -10    8.10   13.60
   4  -8  10    6.70   14.60
  -4  -8 -10   12.60   15.60
  -4   8 -10   25.90   20.00
   4   8  10   -8.90   11.90
   4   8  10   20.20   15.70
  -6  -8 -10   16.90   23.10
  -6  -8 -10   14.40   18.00
   6  -8  10   26.60   19.60
  -6  -8 -10   47.70   22.30
   6   8  10   35.70   17.50
  -6   8 -10   59.39   26.40
   6   8  10    2.20   20.10
  -8  -8 -10   44.20   32.90
  -8  -8 -10  -13.70   25.90
   8  -8  10  -14.70   20.60
  -8  -8 -10   72.49   22.70
   8   8  10   40.60   34.60
  -8   8 -10   48.20   28.30
   8   8  10   39.60   22.20
  10  -8  10   38.50   30.20
 -10  -8 -10   27.80   33.30
 -10  -8 -10   42.30   45.00
  10   8  10   40.10   27.80
 -10   8 -10   63.69   32.30
  13  -9 -10    0.90   30.50
  13   9 -10  -28.10   31.40
  11  -9 -10   -8.10   25.40
 -11  -9  10   46.50   40.10
  11  -9 -10   42.30   25.50
  11   9 -10    9.70   26.80
 -11   9  10  -53.99   36.70
  11   9 -10   -2.10   23.60
   9  -9 -10   16.30   21.30
   9  -9 -10   87.79   35.80
   9  -9 -10   49.30   23.70
  -9  -9  10  -24.00   30.20
   9   9 -10   29.10   22.50
  -9   9  10   41.40   32.40
   9   9 -10   34.50   24.20
   7  -9 -10   27.40   20.40
  -7  -9  10   84.79   24.50
   7  -9 -10   46.10   21.40
   7  -9 -10   50.09   21.60
   7  -9 -10   43.50   21.70
  -7   9  10   72.19   26.10
   7   9 -10   36.90   18.50
   7   9 -10   25.10   18.90
   5  -9 -10    6.90   15.30
   5  -9 -10   -5.90   16.40
  -5  -9  10   24.30   16.60
   5  -9 -10   -9.10   14.80
  -5  -9  10   15.40   12.20
   5   9 -10   36.20   19.70
   3  -9 -10   40.90   18.00
   3  -9 -10  113.89   22.30
   3   9 -10   81.79   20.50
   1  -9 -10   -5.10   14.10
   1  -9 -10   18.80   15.50
   1   9 -10    9.60   13.80
  -1  -9 -10   14.20   15.00
  -1  -9 -10   -3.90   13.20
  -1  -9 -10   16.80   16.20
   1   9  10    2.90   11.00
  -1   9 -10   34.10   12.20
  -3  -9 -10   77.19   19.80
  -3  -9 -10  121.29   24.60
  -3  -9 -10   63.89   20.90
   3  -9  10  100.39   19.00
  -3   9 -10   75.09   22.80
   3   9  10   77.59   17.00
  -5  -9 -10   14.70   15.10
   5  -9  10  -15.10   16.50
  -5  -9 -10  -12.60   16.30
  -5  -9 -10   16.90   22.60
   5   9  10    8.80   19.00
  -5   9 -10   23.30   21.90
   5   9  10   10.50   14.50
  -7  -9 -10   90.29   33.10
   7  -9  10   71.29   24.30
  -7  -9 -10   63.39   22.20
  -7  -9 -10  102.19   30.70
   7   9  10  109.39   25.10
   7   9  10   56.59   21.30
  -7   9 -10   58.89   28.10
   9  -9  10  -10.20   23.70
  -9  -9 -10   27.90   38.90
  -9  -9 -10   44.00   31.30
   9   9  10   15.80   23.40
  -9   9 -10   73.89   31.10
 -11  -9 -10   56.69   57.99
  11  -9  10  -12.60   29.40
 -11  -9 -10   14.10   34.80
 -11   9 -10    2.00   30.60
  11   9  10   39.50   31.40
  12 -10 -10   22.90   30.40
  12 -10 -10   -7.40   28.50
 -12 -10  10  -22.80   44.10
  12  10 -10   37.70   31.90
  12  10 -10   15.70   31.30
 -12  10  10   77.79   50.69
 -10 -10  10   26.80   36.00
  10 -10 -10   63.89   27.50
  10 -10 -10    1.10   24.20
  10  10 -10    5.00   24.60
 -10  10  10    3.70   36.60
  10  10 -10    1.80   23.50
  -8 -10  10  124.69   30.50
   8 -10 -10  108.69   26.90
   8 -10 -10   50.09   23.30
   8 -10 -10   70.59   26.00
  -8  10  10  109.19   32.40
   8  10 -10   43.40   21.30
   8  10 -10   88.19   26.10
  -6 -10  10   22.70   21.40
   6 -10 -10    6.20   17.70
   6 -10 -10   -2.60   19.10
   6 -10 -10   17.10   17.80
  -6  10  10    8.40   20.60
   6  10 -10   -6.20   18.10
   4 -10 -10  349.07   40.40
   4 -10 -10  368.26   40.10
   4 -10 -10  279.67   30.50
  -4 -10  10  289.27   31.50
   4  10 -10  313.57   39.90
   2 -10 -10   87.99   21.90
   2 -10 -10   99.59   23.30
   2  10 -10  114.59   21.50
   0 -10 -10 1025.00   73.29
   0 -10 -10  962.60   77.49
   0 -10 -10  901.61   76.19
   0  10 -10  991.90   72.89
   0  10  10  961.10   71.49
  -2 -10 -10  575.04   55.09
  -2 -10 -10  714.43   54.79
  -2 -10 -10  654.53   56.69
  -2  10 -10  688.73   54.49
   2  10  10  622.84   51.19
   4 -10  10    2.90   15.70
  -4 -10 -10   -0.80   20.70
  -4 -10 -10   -6.80   15.60
  -4 -10 -10  -21.10   12.90
  -4  10 -10   24.30   20.30
   4  10  10   10.10   14.80
   4  10  10   81.39   21.20
  -6 -10 -10    9.80   21.90
   6 -10  10    3.40   18.40
  -6 -10 -10    4.10   24.50
  -6 -10 -10  -24.00   16.60
   6  10  10  -16.90   19.50
  -6  10 -10   18.00   24.00
   6  10  10   15.50   18.00
   8 -10  10   23.50   23.40
  -8 -10 -10   44.30   29.90
  -8 -10 -10   -0.30   31.10
  -8 -10 -10   26.80   21.00
   8  10  10   65.29   26.30
  -8  10 -10  -21.30   27.80
   8  10  10    4.90   20.80
 -10 -10 -10  217.38   44.50
  10 -10  10  145.99   36.60
 -10 -10 -10  304.27   55.69
  10  10  10  136.89   32.70
 -10  10 -10   72.29   36.50
  11 -11 -10   -5.50   25.90
  11 -11 -10  -33.80   22.90
 -11 -11  10   79.89   43.70
  11  11 -10    0.70   26.30
 -11  11  10   26.70   42.20
  11  11 -10   15.30   26.00
   9 -11 -10   -9.30   21.50
  -9 -11  10   49.50   33.00
  -9  11  10  113.59   37.20
   9  11 -10   40.60   23.50
   9  11 -10   10.10   22.80
   7 -11 -10   28.50   20.90
   7 -11 -10    3.60   22.50
  -7 -11  10    5.90   23.70
  -7  11  10  -10.50   24.10
   7  11 -10   28.80   21.30
   7  11 -10    8.40   16.80
   5 -11 -10   -9.00   16.40
   5 -11 -10  -13.30   18.10
  -5 -11  10   16.90   18.10
   5 -11 -10  -10.80   13.70
   5  11 -10  -19.70   16.50
   3 -11 -10   64.79   20.70
   3 -11 -10   82.39   17.90
   3 -11 -10   71.79   21.30
   3  11 -10   58.69   19.70
   1 -11 -10  297.77   39.80
   1 -11 -10  296.67   37.40
   1  11 -10  370.06   37.20
  -1 -11 -10    3.40   14.20
  -1 -11 -10   23.80   16.50
   1 -11  10   10.90   11.50
  -1 -11 -10    6.80   16.00
   1  11  10   21.10   12.40
  -1  11 -10    5.10   10.80
   3 -11  10   38.30   16.90
  -3 -11 -10   52.79   20.20
  -3 -11 -10   43.70   19.20
  -3 -11 -10   62.59   23.10
  -3  11 -10   58.79   21.20
   3  11  10   29.90   15.50
  -5 -11 -10   13.60   17.70
  -5 -11 -10   70.39   25.40
   5 -11  10    0.80   19.20
  -5 -11 -10   40.20   21.60
   5  11  10    3.00   20.00
  -5  11 -10   21.80   23.80
   5  11  10    8.70   16.30
  -7 -11 -10   69.19   30.90
  -7 -11 -10  106.19   31.20
   7 -11  10   -0.30   22.20
  -7 -11 -10   28.70   21.70
  -7  11 -10   30.30   28.10
   7  11  10   45.40   22.90
   7  11  10  108.39   28.60
  -9 -11 -10  113.89   43.30
   9 -11  10   17.60   27.10
  -9 -11 -10   45.60   33.30
  -9  11 -10   12.80   30.50
   9  11  10   18.40   24.30
  11 -11  10   49.30   33.80
 -11 -11 -10   63.09   40.60
 -11  11 -10  -56.59   31.30
  11  11  10   24.60   32.40
  12 -12 -10  -37.10   27.20
 -12 -12  10  -12.10   46.50
  12  12 -10  -50.09   27.00
 -12  12  10    5.60   47.30
  12  12 -10   18.90   28.80
  10 -12 -10   31.30   27.30
 -10 -12  10  -22.20   34.50
 -10  12  10  -39.30   35.70
  10  12 -10   32.90   28.10
  10  12 -10   64.39   28.70
   8 -12 -10   25.50   23.90
  -8 -12  10   20.80   29.30
   8 -12 -10   42.70   23.00
   8  12 -10   56.09   25.60
  -8  12  10   55.39   31.40
   8  12 -10   77.29   23.90
  -6 -12  10   74.59   25.80
   6 -12 -10   95.59   26.90
   6 -12 -10  111.79   23.90
   6  12 -10   96.09   20.70
   6  12 -10   76.69   26.50
   4 -12 -10  315.37   34.20
   4 -12 -10  324.77   41.70
   4 -12 -10  300.87   39.00
  -4 -12  10  325.67   37.20
   4  12 -10  282.17   38.30
   2 -12 -10   19.10   16.30
   2 -12 -10   33.60   13.90
   2 -12 -10   -1.00   15.80
   2  12 -10   12.40   16.50
   0 -12 -10   35.50   16.90
   0  12  10   -3.10   11.50
   0  12 -10   17.20   13.40
  -2 -12 -10  387.16   42.20
   2 -12  10  407.66   35.10
  -2 -12 -10  320.07   40.70
   2  12  10  361.06   35.00
  -4 -12 -10   18.00   14.60
  -4 -12 -10  -25.30   15.90
   4 -12  10   18.90   18.50
  -4 -12 -10  -11.00   23.70
   4  12  10  -22.20   20.50
  -4  12 -10   13.60   21.00
   4  12  10   10.10   15.30
  -6 -12 -10   76.29   27.50
  -6 -12 -10   20.20   19.80
   6 -12  10  -10.30   20.20
  -6 -12 -10   10.20   25.10
  -6  12 -10   56.29   28.20
   6  12  10    2.70   22.40
   6  12  10   13.30   19.20
   8 -12  10   -0.80   24.40
  -8 -12 -10   14.10   22.00
  -8 -12 -10   -4.80   33.40
  -8 -12 -10  -16.00   29.50
   8  12  10   -8.50   22.10
   8  12  10   -9.80   27.00
  -8  12 -10    4.50   28.30
  10 -12  10   56.59   31.80
 -10 -12 -10   27.60   35.00
 -10 -12 -10   46.50   46.70
 -10  12 -10   26.90   36.50
  10  12  10   18.20   25.80
  11 -13 -10    8.80   26.50
 -11 -13  10   21.50   42.80
  11  13 -10    5.60   29.50
 -11  13  10   44.80   44.00
  11  13 -10   23.00   28.80
  -9 -13  10   79.69   34.80
   9 -13 -10   65.59   27.10
   9  13 -10   76.69   27.20
  -9  13  10  119.49   38.80
   9  13 -10   82.49   31.60
  -7 -13  10  205.28   36.10
   7 -13 -10  157.78   33.00
   7 -13 -10  109.39   27.00
   7  13 -10  108.19   30.50
   7  13 -10  175.18   26.80
   5 -13 -10    5.90   18.00
  -5 -13  10   29.70   21.00
   5 -13 -10   33.00   17.60
   5 -13 -10   -1.40   21.80
   5  13 -10   -8.00   17.70
   3 -13 -10   82.89   24.50
   3 -13 -10  146.09   27.00
   3 -13 -10  121.69   20.70
   3  13 -10  131.29   27.00
   1 -13 -10  530.05   42.60
   1 -13 -10  535.55   49.00
   1  13 -10  487.65   45.80
  -1 -13 -10  195.08   28.30
  -1 -13 -10  152.48   20.90
   1 -13  10  173.08   23.20
  -1 -13 -10  165.78   28.10
   1  13  10  160.78   22.90
  -1  13 -10  156.08   22.70
  -3 -13 -10   48.30   22.50
  -3 -13 -10   22.10   18.10
  -3 -13 -10   16.20   13.30
   3 -13  10   20.50   17.30
  -3  13 -10   15.50   21.40
   3  13  10   18.60   15.40
  -5 -13 -10   18.70   21.80
  -5 -13 -10   28.50   26.40
  -5 -13 -10   -1.70   15.80
   5 -13  10   -1.40   20.90
   5  13  10    6.40   17.00
  -5  13 -10   14.70   23.80
   5  13  10    4.10   23.30
  -7 -13 -10   48.80   30.20
   7 -13  10    2.50   23.60
  -7 -13 -10   37.60   31.40
  -7 -13 -10   11.10   20.70
   7  13  10   30.80   22.00
  -7  13 -10   30.40   31.00
   7  13  10    5.60   27.10
  -9 -13 -10   31.50   32.90
   9 -13  10  -26.70   27.40
  -9 -13 -10    6.50   39.70
  -9  13 -10   -2.00   31.20
   9  13  10    3.40   25.10
 -11 -13 -10  -12.60   36.70
 -11  13 -10   17.40   37.90
  11  13  10  -26.40   28.50
 -12 -14  10   27.80   47.10
  12 -14 -10   27.90   30.20
  12  14 -10   29.80   35.00
  12  14 -10  -10.30   31.60
 -12  14  10  125.29   58.99
  10 -14 -10   67.59   29.20
 -10 -14  10  127.19   40.20
 -10  14  10  126.59   44.70
  10  14 -10   40.50   26.10
  10  14 -10   56.29   29.40
   8 -14 -10   -5.00   21.00
   8 -14 -10   36.90   28.00
  -8 -14  10   28.10   30.30
  -8  14  10  147.79   36.10
   8  14 -10   59.59   28.20
   8  14 -10   60.09   23.70
   6 -14 -10   59.29   26.60
  -6 -14  10   65.99   27.10
   6 -14 -10   54.29   21.90
   6  14 -10   63.79   27.50
   4 -14 -10   45.60   18.20
   4 -14 -10   81.29   23.80
   4 -14 -10   57.79   23.10
   4  14 -10   27.10   21.50
   2 -14 -10   59.19   21.80
   2 -14 -10   81.09   17.50
   2  14 -10   83.09   22.40
   0 -14  10  691.93   54.79
   0 -14 -10  676.33   60.89
   0 -14 -10  713.73   54.39
   0  14 -10  683.53   56.79
  -2 -14 -10  216.68   25.50
  -2 -14 -10  166.48   29.50
  -2 -14 -10  203.48   31.70
   2 -14  10  190.78   26.80
  -2  14 -10  220.08   26.10
   2  14  10  216.78   28.00
   4 -14  10    8.50   20.50
  -4 -14 -10   26.60   20.30
  -4 -14 -10   45.50   18.00
  -4 -14 -10   63.99   25.80
   4  14  10    2.10   22.80
   4  14  10   -1.40   16.30
  -4  14 -10   27.80   23.70
   6 -14  10    7.80   24.10
  -6 -14 -10   35.10   28.60
  -6 -14 -10   84.19   31.40
   6  14  10   31.10   21.70
  -6  14 -10   23.60   25.80
   6  14  10   51.39   27.50
  -8 -14 -10   -0.70   33.20
   8 -14  10   26.60   27.70
  -8 -14 -10   19.60   24.20
  -8 -14 -10   19.40   29.30
  -8  14 -10   67.09   32.00
   8  14  10   -7.80   21.70
   8  14  10   -7.90   29.20
 -10 -14 -10   -2.20   35.20
 -10 -14 -10  133.09   52.59
  10 -14  10   27.40   31.70
 -10  14 -10   86.79   41.70
  10  14  10   62.19   31.80
  11 -15 -10  -24.30   26.20
 -11 -15  10   39.90   42.00
  11  15 -10   12.40   29.90
  11  15 -10   13.40   31.30
 -11  15  10  -34.30   42.60
  -9 -15  10   73.89   35.50
   9 -15 -10   47.90   26.10
   9  15 -10   67.99   30.20
   9  15 -10   84.59   27.50
  -9  15  10  121.59   40.90
   7 -15 -10   98.49   29.70
  -7 -15  10   -2.50   27.00
   7 -15 -10   -9.70   19.40
   7  15 -10  -47.80   20.90
   7  15 -10  -10.90   18.00
   5 -15 -10    5.50   18.40
   5 -15 -10   54.29   24.70
  -5 -15  10   77.79   26.20
   5  15 -10   45.50   25.00
   3 -15 -10  356.36   36.20
   3 -15 -10  377.26   45.60
   3 -15 -10  425.86   50.39
   3  15 -10  375.96   45.90
   1 -15 -10   -0.70   17.10
   1 -15 -10   10.60   12.60
   1  15 -10   39.70   18.50
  -1 -15 -10    9.10   16.80
   1 -15  10   10.40   15.00
  -1 -15 -10   39.80   14.30
  -1 -15 -10   -0.20   19.50
  -1  15 -10   20.40   15.00
   1  15  10   19.00   14.60
  -3 -15 -10   75.39   17.60
  -3 -15 -10  127.09   30.00
   3 -15  10   61.69   20.90
  -3 -15 -10   61.89   22.40
  -3  15 -10   86.09   18.30
   3  15  10   83.89   22.50
  -5 -15 -10   11.50   18.50
  -5 -15 -10   23.30   23.50
  -5 -15 -10   32.40   28.70
   5 -15  10    9.60   23.40
   5  15  10   87.89   30.10
   5  15  10   42.90   20.80
  -5  15 -10   44.70   27.20
   7 -15  10   57.89   29.50
  -7 -15 -10   73.19   33.00
  -7 -15 -10   47.80   31.10
  -7  15 -10   87.49   30.60
   7  15  10   99.39   26.70
   7  15  10   62.29   29.60
  -9 -15 -10  -54.69   41.40
  -9 -15 -10  -13.70   33.10
   9 -15  10   -2.90   29.50
  -9  15 -10   29.60   34.60
   9  15  10   55.09   29.80
  10 -16 -10   20.10   28.70
 -10 -16  10   98.69   41.20
  10  16 -10   37.70   29.80
  10  16 -10    3.60   29.60
 -10  16  10   50.09   42.10
   8 -16 -10   26.50   29.50
   8 -16 -10   -4.40   22.00
  -8 -16  10   -7.40   30.00
   8  16 -10    7.00   26.60
   8  16 -10   10.80   21.90
   6 -16 -10    8.30   19.20
  -6 -16  10   10.20   25.70
   6 -16 -10   66.69   29.30
   6  16 -10   25.70   22.40
   4 -16 -10  127.29   28.60
   4 -16 -10  103.59   23.30
   4 -16 -10  143.29   32.10
   4  16 -10  105.79   29.20
   2 -16 -10   -2.00   12.30
   2 -16 -10  -14.90   15.70
   2  16 -10  -16.90   16.30
   0 -16 -10  172.18   31.00
   0 -16 -10  178.48   24.70
   0 -16  10  175.08   25.80
   0  16 -10  195.78   29.20
   2 -16  10  238.18   30.70
  -2 -16 -10  329.47   39.60
  -2 -16 -10  199.38   32.60
  -2 -16 -10  213.38   27.50
   2  16  10  195.98   29.40
  -2  16 -10  214.78   28.40
  -4 -16 -10   -7.50   16.20
  -4 -16 -10   -6.40   20.30
  -4 -16 -10   39.70   25.90
   4 -16  10   -6.20   20.00
   4  16  10   14.20   26.00
  -4  16 -10   10.50   24.20
   4  16  10  -21.50   15.70
  -6 -16 -10   21.30   29.30
  -6 -16 -10   26.50   20.40
   6 -16  10   29.60   25.10
  -6 -16 -10   33.70   29.50
  -6  16 -10   29.40   26.60
   6  16  10   32.60   21.60
   6  16  10    6.30   26.40
  -8 -16 -10   14.30   34.80
   8 -16  10   42.60   31.80
  -8 -16 -10    2.50   30.80
  -8  16 -10   20.60   29.10
   8  16  10  -19.50   30.00
   8  16  10  -12.20   21.90
  10 -16  10  -34.50   30.80
 -10 -16 -10   19.60   35.40
 -10 -16 -10   -4.80   50.29
  10  16  10  -25.30   26.80
 -10  16 -10  -19.70   33.10
 -11 -17  10   99.69   46.90
  11 -17 -10   43.80   32.00
  11  17 -10    4.00   30.90
  11  17 -10  -12.40   30.50
 -11  17  10   66.09   49.20
   9 -17 -10   33.10   26.90
  -9 -17  10   76.19   38.10
   9  17 -10    5.10   26.70
   9  17 -10  -18.40   25.20
   7 -17 -10  182.88   39.60
   7 -17 -10  137.69   30.10
  -7 -17  10  194.98   37.50
   7  17 -10  100.19   34.00
   5 -17 -10  -11.20   25.20
   5 -17 -10    5.70   19.60
  -5 -17  10  -24.40   25.00
   5  17 -10   10.10   23.30
   3 -17 -10  242.38   37.70
   3 -17 -10  284.97   32.40
   3  17 -10  227.98   37.40
   1 -17 -10   76.99   18.20
   1 -17 -10   25.60   21.70
   1  17 -10   49.60   20.40
  -1 -17 -10   -2.80   17.60
  -1 -17 -10   13.70   20.50
   1 -17  10   -8.90   15.70
  -1 -17 -10   18.10   14.90
  -1  17 -10   -2.70   15.70
  -3 -17 -10   18.30   17.60
   3 -17  10   -0.40   19.40
  -3 -17 -10   22.40   24.60
  -3 -17 -10   17.60   19.50
   3  17  10    7.70   24.90
   3  17  10   -9.10   17.60
  -3  17 -10   11.00   16.50
  -5 -17 -10   15.00   24.70
  -5 -17 -10   49.10   21.40
  -5 -17 -10    0.40   27.70
   5 -17  10   12.00   24.20
   5  17  10    4.40   27.60
  -5  17 -10   25.00   27.80
   5  17  10  -23.50   18.50
   7 -17  10   35.60   29.90
  -7 -17 -10   80.29   37.50
  -7 -17 -10   30.60   32.60
  -7  17 -10   22.80   30.50
   7  17  10   60.59   32.60
   7  17  10   46.80   26.40
  -9 -17 -10    3.80   33.50
   9 -17  10   30.00   34.30
  -9 -17 -10   17.00   42.60
   9  17  10   15.70   28.10
   9  17  10   51.89   45.60
  -9  17 -10  -37.40   33.60
 -10 -18  10   71.89   42.20
  10 -18 -10   16.80   27.60
  10  18 -10   18.60   28.50
  10  18 -10   37.80   32.30
   8 -18 -10   72.69   34.30
  -8 -18  10   62.69   36.70
   8 -18 -10    1.40   23.60
   8  18 -10   52.39   27.10
   8  18 -10   23.70   31.90
   6 -18 -10   55.69   31.40
   6 -18 -10   20.50   21.20
  -6 -18  10   21.20   30.00
   6  18 -10    7.90   26.30
   4 -18 -10  110.89   24.60
   4  18 -10  153.08   31.60
   2 -18 -10   31.50   21.00
   2 -18 -10   50.69   18.00
   2  18 -10   36.20   22.10
   0 -18  10   78.79   21.80
   0 -18 -10   47.00   18.10
   0 -18 -10   71.59   24.00
   0  18 -10   91.89   22.60
   2 -18  10  121.79   26.10
  -2 -18 -10   96.99   27.90
  -2 -18 -10   53.99   23.30
  -2 -18 -10  106.89   21.90
   2  18  10   63.39   21.20
  -2  18 -10   68.89   20.50
  -4 -18 -10    4.90   25.80
  -4 -18 -10    2.00   17.80
   4 -18  10    3.90   22.00
  -4 -18 -10   55.59   25.30
   4  18  10   39.10   30.30
   4  18  10  -17.10   18.10
  -6 -18 -10    9.50   21.40
  -6 -18 -10   -6.70   29.60
  -6 -18 -10   17.70   31.10
   6 -18  10   31.30   28.60
   6  18  10   44.70   23.90
   6  18  10    1.80   29.10
  -6  18 -10    2.20   26.90
  -8 -18 -10   33.40   35.70
  -8 -18 -10    1.80   36.70
   8 -18  10  -19.30   28.20
   8  18  10   24.70   26.90
  -8  18 -10   -2.50   30.90
   8  18  10   62.19   35.50
   9 -19 -10   48.30   28.00
  -9 -19  10   93.39   41.70
   9  19 -10  128.99   32.80
   9  19 -10   79.69   36.60
   7 -19 -10  -19.00   31.70
  -7 -19  10   20.50   30.90
   7 -19 -10    1.80   21.10
   7  19 -10   53.79   30.90
  -5 -19  10   98.59   33.10
   5 -19 -10   49.10   30.70
   5 -19 -10   41.30   21.90
   5  19 -10   43.40   25.60
   3 -19 -10  134.19   25.80
   3 -19 -10  124.99   30.80
   3  19 -10  181.68   33.70
   1 -19 -10  116.59   23.70
   1 -19 -10  121.99   29.90
  -1 -19  10  117.09   25.50
   1  19 -10  159.98   30.60
   1 -19  10   59.39   21.30
  -1 -19 -10   70.79   24.00
  -1 -19 -10   50.29   19.00
  -1 -19 -10   47.80   27.40
  -1  19 -10   50.49   22.10
  -3 -19 -10   -7.70   24.70
  -3 -19 -10  -18.40   21.10
  -3 -19 -10  -25.90   15.40
   3 -19  10   36.30   23.00
   3  19  10   -4.50   26.70
   3  19  10   -6.00   18.30
  -3  19 -10    9.90   18.40
   5 -19  10   -8.20   24.50
  -5 -19 -10   -4.90   26.40
  -5 -19 -10  -25.00   29.80
  -5 -19 -10   13.20   19.80
   5  19  10   -4.00   29.90
   5  19  10   -8.60   20.20
  -7 -19 -10   26.70   25.40
  -7 -19 -10   78.29   37.50
  -7 -19 -10   25.70   34.20
   7 -19  10   55.59   33.20
   7  19  10   55.89   26.30
   7  19  10   42.10   33.60
  -7  19 -10   76.39   36.60
   9 -19  10  -13.00   34.90
  -9 -19 -10   -1.20   35.10
  -9 -19 -10   20.40   40.80
   9  19  10   97.49   42.90
  -9  19 -10   39.30   37.20
   9  19  10   19.20   28.20
 -10 -20  10   -3.40   45.30
  10 -20 -10   36.70   29.00
  10  20 -10   22.30   31.30
  10  20 -10   31.10   36.00
   8 -20 -10   40.40   27.80
  -8 -20  10   63.59   41.30
   8 -20 -10   43.30   49.00
   8  20 -10   46.10   33.90
  -6 -20  10   18.60   31.10
   6 -20 -10    5.00   21.40
   6 -20 -10  -18.50   29.30
   6  20 -10   -6.40   26.60
   4 -20 -10   13.60   19.40
   4  20 -10  -23.60   22.10
   2 -20 -10   93.89   22.70
   2 -20 -10   55.79   23.60
   2  20 -10   34.10   24.10
   0 -20  10   31.80   20.50
   0 -20 -10   36.80   23.20
   0 -20 -10   39.80   18.80
   0  20 -10   63.99   22.20
  -2 -20 -10   -2.20   16.80
   2 -20  10  -10.40   19.10
  -2 -20 -10  -15.00   24.50
  -2 -20 -10   23.50   21.70
  -2  20 -10   17.70   19.90
   2  20  10    3.30   18.40
   4 -20  10   15.10   24.80
  -4 -20 -10    3.80   22.30
  -4 -20 -10    4.20   18.70
  -4 -20 -10  -32.40   25.20
   4  20  10  -21.90   29.70
   4  20  10   -0.50   20.40
  -6 -20 -10   58.99   34.80
   6 -20  10   32.20   30.60
  -6 -20 -10   27.80   23.30
  -6 -20 -10  -14.60   30.10
  -6  20 -10   36.10   29.50
   6  20  10   29.50   24.40
   6  20  10   51.49   36.00
  -8 -20 -10   27.30   26.80
  -8 -20 -10  -28.90   36.20
  -8 -20 -10   -3.30   32.30
   8 -20  10  -42.40   31.00
  -8  20 -10   28.50   34.80
   8  20  10   51.29   38.90
   8  20  10    2.70   26.30
  -9 -21  10   67.89   43.20
   9 -21 -10   18.70   27.30
   9  21 -10   -5.00   30.00
   7 -21 -10   26.90   25.50
   7 -21 -10   27.50   36.20
  -7 -21  10   53.49   36.30
   7  21 -10   88.39   35.30
  -5 -21  10  -58.19   27.50
   5 -21 -10  -11.60   21.50
   5  21 -10   -4.30   24.30
   3 -21 -10   95.69   25.50
   3 -21 -10  136.99   32.50
   3  21 -10  204.08   37.10
   1 -21 -10   75.69   22.20
   1 -21 -10   84.99   28.90
  -1 -21  10   46.90   22.00
   1  21 -10   40.10   24.60
   1 -21  10    7.70   20.40
  -1 -21 -10   31.80   26.80
  -1 -21 -10    6.20   18.20
  -1 -21 -10  -39.20   16.40
  -1  21 -10  -24.00   18.90
  -3 -21 -10   29.10   19.90
   3 -21  10   40.50   23.70
  -3 -21 -10  -29.40   20.20
  -3 -21 -10   -6.40   26.70
  -3  21 -10   -0.10   25.60
   3  21  10   27.80   19.70
   3  21  10   14.00   29.60
   5 -21  10   32.20   29.60
  -5 -21 -10   -3.60   28.20
  -5 -21 -10   -2.70   29.70
  -5 -21 -10   15.50   22.80
   5  21  10   -6.60   22.30
   5  21  10   30.40   34.50
  -7 -21 -10  -11.70   34.10
  -7 -21 -10  -14.60   36.70
  -7 -21 -10   27.80   26.00
   7 -21  10   27.10   31.70
   7  21  10   45.60   28.90
  -7  21 -10   27.00   33.90
   7  21  10   22.30   36.80
  -8 -22  10   31.50   40.80
   8 -22 -10   -1.30   25.30
   8  22 -10    2.00   31.50
   6 -22 -10   -2.20   22.60
   6 -22 -10   36.60   38.20
  -6 -22  10   64.69   37.00
   6  22 -10   -9.10   27.20
   4 -22 -10  -44.90   16.70
   4  22 -10   13.20   26.70
   2 -22 -10    4.50   21.10
   2 -22 -10   33.20   20.40
   2  22 -10    1.90   24.90
   0 -22  10   11.70   21.90
   0 -22 -10   15.70   19.50
   0 -22 -10  -12.50   20.40
   0  22 -10    9.70   22.40
  -2 -22 -10    3.60   21.70
  -2 -22 -10    4.40   28.50
   2 -22  10   36.90   24.60
  -2 -22 -10    3.60   19.10
  -2  22 -10   34.90   22.20
  -4 -22 -10   -4.50   19.70
  -4 -22 -10   14.10   26.50
  -4 -22 -10   -7.80   27.70
   4 -22  10    0.60   26.10
   4  22  10   -7.00   18.90
   4  22  10    5.90   33.50
  -6 -22 -10    3.80   34.70
   6 -22  10  -43.80   26.20
  -6 -22 -10  -33.90   22.90
  -6 -22 -10   43.60   38.70
   6  22  10    7.80   35.40
   6  22  10   91.09   28.40
  -8 -22 -10    2.00   41.40
   8 -22  10  -28.60   34.70
  -8 -22 -10   25.60   28.60
  -8 -22 -10   27.20   37.60
   8  22  10   39.00   42.00
   8  22  10   12.80   28.60
  -8  22 -10   22.60   35.80
  -7 -23  10   94.49   41.80
   7 -23 -10   18.10   26.00
   7 -23 -10  114.29   42.20
   7  23 -10   -9.90   33.50
   5 -23 -10   66.79   24.60
  -5 -23  10   35.10   37.70
   5  23 -10   37.10   30.30
   3 -23 -10    6.10   19.90
   3 -23 -10   21.90   25.00
   3  23 -10    0.50   26.30
   1 -23 -10    5.50   21.30
   1 -23 -10   -8.70   17.40
  -1 -23  10   31.80   24.50
   1  23 -10   27.20   26.70
  -1 -23 -10   16.50   22.00
   1 -23  10   29.70   23.80
  -1 -23 -10   20.30   19.30
  -1  23 -10   -2.70   22.60
  -3 -23 -10    7.70   24.30
  -3 -23 -10   19.60   30.80
  -3 -23 -10  -14.80   19.20
   3 -23  10   34.90   24.50
   3  23  10   12.70   31.60
  -5 -23 -10  -14.30   21.50
  -5 -23 -10   18.10   32.40
  -5 -23 -10  -31.70   29.20
   5 -23  10   15.60   28.80
   5  23  10   15.60   24.70
   5  23  10   -5.30   35.60
  -7 -23 -10   68.79   32.20
   7 -23  10   39.70   34.10
  -7 -23 -10   53.79   42.30
  -7 -23 -10  -46.00   38.10
   7  23  10   18.90   27.40
   7  23  10   39.70   39.90
  -8 -24  10   69.09   42.60
   8 -24 -10   52.09   32.00
   8  24 -10   10.70   34.80
  -6 -24  10  -55.89   33.20
   6 -24 -10  -10.70   23.90
   6  24 -10  -17.20   28.80
   4 -24 -10  -21.20   18.00
   4  24 -10   22.40   29.30
  -2 -24  10   24.60   24.10
   2 -24 -10   67.79   24.50
   2 -24 -10   44.90   25.50
   2  24 -10   37.10   26.70
   0 -24 -10   28.50   21.00
   0 -24  10   56.69   25.60
   0 -24 -10   22.10   23.90
   0  24 -10   43.20   26.30
  -2 -24 -10   -5.50   28.40
   2 -24  10   43.10   27.20
  -2 -24 -10   60.39   27.50
  -2 -24 -10   19.40   22.80
   2  24  10   74.39   34.10
  -2  24 -10   20.30   25.90
  -4 -24 -10   14.40   23.00
  -4 -24 -10  -23.80   25.20
   4 -24  10   27.10   27.30
  -4 -24 -10   -6.70   30.40
   4  24  10  -20.10   22.90
   4  24  10   -7.80   32.80
  -6 -24 -10   57.99   41.20
   6 -24  10    4.90   32.20
  -6 -24 -10   13.90   39.30
  -6 -24 -10   31.70   27.90
   6  24  10    8.00   26.30
   6  24  10  -49.80   37.00
   7 -25 -10   16.50   27.10
  -7 -25  10  -13.40   40.40
   7 -25 -10   57.29   43.30
   7  25 -10   67.59   37.30
  -5 -25  10   19.30   39.10
   5 -25 -10    2.20   23.50
   5  25 -10   39.40   33.90
   3 -25 -10  181.38   39.90
   3 -25 -10  229.78   35.10
   3  25 -10  139.59   40.00
   1 -25 -10   26.80   24.80
  -1 -25  10   -4.00   23.90
   1 -25 -10   -7.20   19.80
   1  25 -10   16.50   27.00
   1 -25  10    2.00   24.40
  -1 -25 -10   29.50   24.40
  -1 -25 -10   -1.10   19.60
  -1  25 -10   48.70   26.80
  -3 -25 -10   13.70   23.70
  -3 -25 -10   46.70   28.80
  -3 -25 -10   33.20   35.70
   3 -25  10   -1.40   25.70
   3  25  10   23.30   32.50
  -5 -25 -10    0.00   24.30
   5 -25  10    2.30   29.90
  -5 -25 -10    3.90   33.60
  -5 -25 -10    7.00   32.70
   5  25  10  -18.60   37.10
   5  25  10  -24.80   23.10
   6 -26 -10    7.10   27.60
  -6 -26  10    2.60   43.00
   6  26 -10    8.20   32.00
   4 -26 -10   33.50   24.60
   4  26 -10   35.10   30.30
  -2 -26  10   82.49   29.90
   2 -26 -10   90.49   31.10
   2 -26 -10   67.99   26.50
   2  26 -10   63.89   32.00
   0 -26  10  -24.80   24.70
   0 -26 -10    9.50   21.50
   0 -26 -10   51.69   28.20
   0  26 -10   21.20   27.30
   2 -26  10   60.69   28.90
  -2 -26 -10  123.99   29.40
  -2 -26 -10   61.89   29.40
  -2 -26 -10  123.79   40.30
   2  26  10  125.29   38.80
   4 -26  10   -3.50   29.20
  -4 -26 -10  -37.40   33.50
  -4 -26 -10  -16.50   23.90
  -4 -26 -10  -20.30   31.00
   4  26  10   38.50   36.00
   5 -27 -10  -18.70   22.90
  -5 -27  10   -4.50   41.90
   5  27 -10  -20.30   32.10
   3 -27 -10   20.80   24.00
  -3 -27  10   38.70   28.50
   3 -27 -10   32.70   26.40
   3  27 -10   34.40   31.60
  -1 -27  10   21.90   29.30
   1 -27 -10   22.80   27.90
   1 -27 -10   12.40   25.10
   1  27 -10   37.30   31.00
  -1 -27 -10   19.40   35.60
  -1 -27 -10  -10.60   22.00
  -1 -27 -10   -4.70   24.60
   1 -27  10   23.40   27.10
  -1  27 -10   -9.10   28.00
   3 -27  10    1.00   27.90
  -3 -27 -10  -35.90   26.40
  -3 -27 -10    4.90   35.20
  -3 -27 -10   -7.20   24.50
   3  27  10    5.40   35.50
   4 -28 -10   64.09   28.80
  -4 -28  10   80.99   32.90
   4  28 -10   92.39   39.50
   2 -28 -10   -6.10   25.20
   2 -28 -10   21.00   25.90
  -2 -28  10  -24.40   25.30
   2  28 -10  -23.80   29.50
   0 -28 -10  -10.20   25.20
   0 -28  10  -25.20   27.10
   0 -28 -10   14.50   25.30
   0  28 -10   54.09   32.50
  -2 -28 -10   48.30   37.50
  -2 -28 -10  -23.20   29.30
  -2 -28 -10   40.30   27.20
   2 -28  10   12.60   28.60
   2  28  10  112.09   39.90
   3 -29 -10  -15.10   25.20
   3 -29 -10   18.70   25.00
  -3 -29  10   11.40   32.10
   3  29 -10  -16.10   32.50
   1 -29 -10   24.30   30.10
  -1 -29  10  -23.90   28.90
   1 -29 -10    6.20   25.40
   1  29 -10  -21.60   30.20
  -1 -29 -10  -67.79   33.10
  -1 -29 -10   60.79   27.90
  -1 -29 -10   24.20   30.40
   1 -29  10  -21.20   26.30
   1  29  10   49.10   35.30
  -1  29 -10   28.10   37.90
 -12   0  11   57.69   55.59
  12   0 -11   42.90   27.40
  12   0 -11   95.09   33.40
  10   0 -11   54.09   25.20
  10   0 -11   17.50   23.40
 -10   0  11   -6.30   35.80
   8   0 -11   76.69   21.80
  -8   0  11  161.28   32.60
   8   0 -11   60.69   21.60
   6   0 -11   65.09   21.10
   6   0 -11   15.70   17.20
   6   0 -11   63.09   11.90
   4   0 -11  444.76   37.00
   4   0 -11  434.96   41.70
   4   0 -11  471.05   41.30
   2   0 -11  134.49   22.80
   2   0 -11  202.98   23.70
   2   0 -11  148.09   22.00
   0   0 -11    6.30   10.10
   0   0 -11    4.00   10.60
   0   0 -11   12.60   14.00
  -2   0 -11   33.70   12.80
  -2   0 -11   32.40   16.00
  -4   0 -11   17.60   17.50
  -4   0 -11  -17.30   17.80
  -4   0 -11   20.70   13.40
  -6   0 -11  -25.80   29.40
  -6   0 -11   24.10   23.40
  -6   0 -11   47.40   21.70
   6   0  11  -12.60   15.30
  -8   0 -11  101.89   33.10
   8   0  11   35.90   21.70
  -8   0 -11   66.29   29.90
  10   0  11   22.30   25.40
 -10   0 -11   48.20   34.00
 -12   0 -11  -27.10   35.30
  13  -1 -11   71.79   32.00
  13  -1 -11   19.70   32.80
  13   1 -11   -1.60   27.20
  13   1 -11  -20.00   31.30
  11  -1 -11    9.10   25.60
 -11  -1  11   15.60   43.40
  11  -1 -11   10.60   21.90
  11   1 -11  -18.10   24.30
 -11   1  11   46.50   43.50
  11   1 -11    4.10   23.70
   9  -1 -11   29.00   21.00
   9  -1 -11   28.30   20.60
  -9  -1  11  121.29   35.20
  -9   1  11  135.89   36.40
   9   1 -11   13.40   20.30
   9   1 -11   42.30   22.80
   7  -1 -11   15.10   18.10
   7  -1 -11   -9.10   14.10
   7  -1 -11  -13.80   15.30
   7  -1 -11   16.70    9.30
   7   1 -11    1.10   15.60
   5  -1 -11  265.37   32.30
   5  -1 -11  237.68   22.80
   5  -1 -11  203.28   29.20
   5   1 -11  247.88   31.80
   5   1 -11  206.18   29.50
   5   1 -11  189.98   21.40
   3  -1 -11   38.60   14.50
   3  -1 -11   29.90   14.60
   3  -1 -11   43.60   12.80
   3   1 -11   32.00   12.10
   3   1 -11    1.60   12.10
   3   1 -11   16.70   13.20
   1  -1 -11  259.07   27.00
   1  -1 -11  274.87   29.20
   1  -1 -11  300.57   28.40
   1   1 -11  267.37   28.60
   1   1 -11  256.57   31.30
   1   1 -11  257.07   26.00
  -1  -1 -11   -3.90   13.00
  -1  -1 -11  -11.40   12.00
  -1   1 -11   -3.50   12.80
  -1   1 -11   -6.50   12.20
  -3  -1 -11    2.20   15.50
  -3  -1 -11    0.10   13.20
  -3  -1 -11  -10.70   13.70
  -3   1 -11   15.50   17.90
  -3   1 -11    4.10   17.10
  -3   1 -11   13.50   15.50
  -5  -1 -11   59.19   18.10
  -5  -1 -11   43.70   21.30
   5  -1  11   61.99   17.20
  -5  -1 -11   73.89   23.50
  -5   1 -11   63.09   24.60
  -5   1 -11   81.79   29.00
  -5   1 -11   35.70   19.40
   5   1  11   17.50   14.80
  -7  -1 -11   32.80   26.00
  -7  -1 -11   45.80   26.60
  -7  -1 -11    1.90   16.30
   7  -1  11   -4.80   17.70
  -7   1 -11   26.10   17.80
  -7   1 -11   51.89   26.30
   7   1  11   16.20   18.60
  -7   1 -11    8.90   24.20
  -9  -1 -11  -16.10   32.90
  -9  -1 -11   30.20   31.50
   9  -1  11  -10.10   21.70
  -9   1 -11   -3.00   28.10
   9   1  11    4.20   23.80
  11  -1  11   50.09   29.70
 -11  -1 -11   17.30   35.80
 -11   1 -11   -7.30   33.80
  11   1  11   42.00   29.80
  12  -2 -11  -11.30   25.70
 -12  -2  11   51.89   54.09
  12  -2 -11   13.90   28.30
  12   2 -11  -12.60   27.40
 -12   2  11  -21.30   58.09
  12   2 -11    3.10   28.80
  10  -2 -11  106.59   26.50
 -10  -2  11  119.49   40.30
  10  -2 -11   63.09   26.30
 -10   2  11   68.99   38.90
  10   2 -11   96.59   29.50
  10   2 -11   30.40   23.10
   8  -2 -11   49.10   24.10
   8  -2 -11   73.79   21.30
   8  -2 -11   13.30   17.00
   8   2 -11   29.80   19.30
   8   2 -11   61.39   22.70
   6  -2 -11   13.00   10.70
   6  -2 -11   11.40   14.10
   6  -2 -11   10.10   17.10
   6   2 -11   14.90   15.70
   6   2 -11   13.90    8.10
   4  -2 -11  317.97   36.10
   4  -2 -11  307.67   35.20
   4  -2 -11  280.47   29.00
   4   2 -11  329.17   35.20
   4   2 -11  356.76   37.80
   4   2 -11  290.47   27.30
   2  -2 -11  219.48   25.30
   2  -2 -11  148.89   24.50
   2  -2 -11  175.98   25.40
   2   2 -11  184.48   23.90
   2   2 -11  221.58   25.40
   2   2 -11  192.78   26.80
   0  -2 -11   62.89   16.00
   0  -2  11   45.60   11.30
   0  -2 -11   13.40   12.90
   0   2 -11   50.49   11.40
   0   2 -11   34.80   14.40
   0   2 -11   42.40   15.60
  -2  -2 -11   39.70   16.30
  -2  -2 -11   11.80   14.10
  -2  -2 -11   -4.50   12.10
  -2   2 -11    3.00   15.80
  -2   2 -11  -11.20   16.40
  -2   2 -11   -4.90   13.00
  -4  -2 -11   20.80   14.80
  -4  -2 -11   41.70   18.20
  -4  -2 -11   -5.50   18.00
  -4   2 -11   40.90   21.30
   4   2  11   34.70   13.00
  -4   2 -11  -10.40   19.10
  -4   2 -11   20.30   16.70
   6  -2  11    9.10   17.00
  -6  -2 -11   42.30   23.40
  -6  -2 -11   33.20   22.40
  -6  -2 -11   20.60   17.00
  -6   2 -11   72.29   26.30
  -6   2 -11   43.60   29.40
   6   2  11   13.50   16.70
  -6   2 -11   23.50   20.50
  -8  -2 -11    7.00   27.00
  -8  -2 -11   -1.30   31.60
   8  -2  11   49.60   22.00
   8   2  11   29.50   21.70
  -8   2 -11   68.09   28.90
 -10  -2 -11   -9.40   29.10
  10  -2  11   30.30   25.90
 -10   2 -11   14.50   30.30
  10   2  11  -31.40   24.30
 -12   2 -11   -0.80   35.60
  13  -3 -11   47.90   32.30
  13  -3 -11    2.60   32.20
  13   3 -11   -0.10   30.80
  13   3 -11   52.49   33.90
  11  -3 -11   -4.90   24.30
 -11  -3  11   68.79   41.70
  11  -3 -11   38.70   27.70
 -11   3  11    3.90   42.30
  11   3 -11   36.80   26.80
  11   3 -11   29.80   27.50
   9  -3 -11  123.19   27.80
   9  -3 -11   80.19   25.30
  -9  -3  11  172.48   36.80
   9  -3 -11   95.09   27.90
   9   3 -11   89.09   23.90
  -9   3  11  186.48   38.90
   9   3 -11   68.89   27.80
   7  -3 -11   12.80   18.30
   7  -3 -11   31.10   19.30
   7  -3 -11  -30.80   14.00
   7  -3 -11   13.80   11.80
   7   3 -11   14.90   18.00
   5  -3 -11  275.57   27.60
  -5  -3  11  243.88   24.00
   5  -3 -11  304.57   34.20
   5  -3 -11  323.07   35.80
   5   3 -11  294.27   34.80
   5   3 -11  292.77   35.50
   5   3 -11  243.78   23.80
   3  -3 -11  165.68   25.40
   3  -3 -11  188.68   23.50
   3  -3 -11  149.59   23.70
   3   3 -11  117.79   21.80
   3   3 -11  180.68   26.50
   3   3 -11  158.48   20.50
   1  -3 -11  257.17   31.80
   1  -3 -11  281.97   31.40
   1   3 -11  285.67   30.80
   1   3 -11  236.88   30.40
   1   3 -11  258.37   27.20
  -1  -3 -11  471.15   43.80
  -1  -3 -11  503.25   44.10
  -1   3 -11  481.15   44.00
  -1   3 -11  538.85   45.60
  -3  -3 -11   22.50   16.40
  -3  -3 -11   57.79   19.00
  -3  -3 -11   49.60   16.50
  -3   3 -11   91.29   21.40
  -3   3 -11   47.50   20.40
  -3   3 -11   30.10   18.30
  -5  -3 -11    7.70   17.90
  -5  -3 -11   40.70   17.30
  -5  -3 -11   27.80   21.30
   5  -3  11   24.60   14.50
  -5   3 -11   20.70   22.40
   5   3  11   33.20   14.90
  -5   3 -11   26.20   18.70
  -5   3 -11   50.09   27.50
  -7  -3 -11  130.79   31.50
  -7  -3 -11   48.80   21.70
   7  -3  11   84.19   23.80
  -7  -3 -11   95.79   31.80
  -7   3 -11   58.49   28.60
   7   3  11   87.69   23.50
  -7   3 -11   68.29   20.10
  -9  -3 -11   47.20   37.60
   9  -3  11   -2.20   23.00
  -9  -3 -11   47.40   31.60
   9   3  11   10.70   22.90
  -9   3 -11   30.00   28.50
 -11  -3 -11   -8.50   34.20
  11  -3  11   20.90   28.80
  11   3  11   31.60   29.00
 -11   3 -11    8.50   33.90
  12  -4 -11  -17.00   27.90
  12  -4 -11   44.70   31.20
 -12  -4  11   23.90   49.00
 -12   4  11   -5.50   57.09
  12   4 -11   36.10   29.80
  12   4 -11  -14.70   26.40
 -10  -4  11   59.29   36.90
  10  -4 -11   35.00   25.40
  10  -4 -11    2.70   22.10
  10   4 -11   39.00   24.20
  10   4 -11   52.69   26.40
 -10   4  11   88.09   39.50
  -8  -4  11  237.48   36.00
   8  -4 -11  232.88   31.10
   8  -4 -11  241.98   33.40
   8  -4 -11  122.39   29.00
  -8   4  11  282.37   38.00
   8   4 -11  183.48   27.80
   8   4 -11  124.09   29.90
   6  -4 -11    8.70   15.90
   6  -4 -11   36.10   14.80
   6  -4 -11   52.59   19.10
   6   4 -11   28.10   17.40
   4  -4 -11   52.49   15.60
   4  -4 -11   37.20   16.80
   4  -4 -11   72.89   19.40
   4   4 -11   65.39   18.30
   2  -4 -11  719.53   57.89
   2  -4 -11  699.23   55.99
   2  -4 -11  757.12   56.99
   2   4 -11  696.53   55.29
   2   4 -11  635.04   57.09
   2   4 -11  700.53   55.09
   0  -4 -11    1.10   11.70
   0  -4  11   -0.30    9.00
   0  -4 -11   19.90   13.50
   0   4 -11   -2.30    9.00
   0   4 -11  -13.70   13.20
   0   4 -11   -6.40   13.10
  -2  -4 -11   95.69   19.90
  -2  -4 -11  122.59   22.10
  -2  -4 -11   79.99   19.60
  -2   4 -11  142.79   21.90
  -2   4 -11  132.79   25.30
  -2   4 -11  127.69   23.00
  -4  -4 -11   28.40   16.90
  -4  -4 -11   12.80   19.80
  -4  -4 -11   16.50   14.80
   4   4  11    2.30   12.30
  -4   4 -11   -2.10   15.40
  -4   4 -11   57.29   26.90
  -4   4 -11   29.40   20.00
   6  -4  11   27.70   17.70
  -6  -4 -11   69.19   27.00
  -6  -4 -11   37.80   23.80
  -6  -4 -11   41.30   19.50
  -6   4 -11   22.00   23.60
   6   4  11   28.60   17.30
   8  -4  11   78.29   25.70
  -8  -4 -11  -17.60   29.40
  -8  -4 -11   11.80   28.10
  -8   4 -11   -3.10   27.10
   8   4  11   50.29   23.60
 -10  -4 -11   15.20   31.10
 -10  -4 -11  -58.59   38.00
  10  -4  11    4.10   24.90
 -10   4 -11    6.00   28.80
  10   4  11  -19.20   24.20
  13  -5 -11  -28.10   28.40
  13  -5 -11   45.20   34.50
  13   5 -11   18.70   33.30
  13   5 -11   11.20   32.60
  11  -5 -11   12.70   26.50
  11  -5 -11   48.10   27.80
 -11  -5  11    0.00   39.70
 -11   5  11   63.39   43.60
  11   5 -11   -1.70   25.40
  11   5 -11   18.10   26.50
   9  -5 -11   31.90   25.70
   9  -5 -11    3.00   21.10
   9  -5 -11    0.90   20.00
  -9  -5  11   32.80   31.30
   9   5 -11   37.60   21.10
  -9   5  11   50.09   31.60
   9   5 -11  -10.00   17.70
   7  -5 -11   29.50   16.50
   7  -5 -11   -0.40   19.20
   7  -5 -11   26.90   15.60
   7  -5 -11   -1.20   18.30
   7   5 -11   22.20   20.00
   5  -5 -11   25.50   14.20
   5  -5 -11   36.40   18.30
   5  -5 -11   19.20   16.20
  -5  -5  11   16.00   10.00
   5   5 -11    1.50   14.30
   3  -5 -11   -3.20   14.00
   3  -5 -11   -1.90   12.80
   3  -5 -11    0.60   12.30
   3   5 -11    7.20   12.20
   1  -5 -11   -1.70   12.80
   1  -5 -11   -1.80   13.50
   1   5 -11    1.20   12.40
   1   5 -11   -5.90   10.10
   1   5 -11    5.50   13.20
  -1  -5 -11  506.35   45.50
  -1  -5 -11  509.95   46.20
  -1   5 -11  541.45   46.20
  -1   5 -11  519.55   47.40
  -3  -5 -11   17.30   18.30
  -3  -5 -11    2.70   14.40
  -3  -5 -11   21.60   15.00
  -3   5 -11   32.40   21.00
   3   5  11   16.90   11.30
  -3   5 -11   45.10   19.80
  -5  -5 -11   58.99   19.50
   5  -5  11   72.69   17.40
  -5  -5 -11   36.50   23.40
  -5  -5 -11   60.69   21.30
   5   5  11   59.59   16.80
  -5   5 -11   56.79   26.00
  -7  -5 -11   62.39   22.90
   7  -5  11   46.10   21.20
  -7  -5 -11   43.80   28.00
  -7  -5 -11   90.39   31.10
  -7   5 -11   44.40   28.10
   7   5  11   50.99   20.80
  -9  -5 -11    1.00   36.00
  -9  -5 -11   15.40   31.10
   9  -5  11    3.20   23.10
   9   5  11   19.60   23.20
  -9   5 -11  -16.40   29.70
 -11  -5 -11   80.79   38.70
 -11  -5 -11   94.49   49.90
  11  -5  11   47.60   31.60
  11   5  11   82.99   33.20
 -11   5 -11   62.39   37.10
  12  -6 -11   45.20   29.10
  12  -6 -11   10.00   29.80
 -12  -6  11   18.90   46.80
  12   6 -11   23.20   27.30
  12   6 -11   -2.80   26.40
 -10  -6  11   70.19   39.40
  10  -6 -11    0.00   23.60
  10  -6 -11  -13.50   23.10
  10   6 -11    0.20   23.70
 -10   6  11   78.09   37.10
  10   6 -11  -14.00   23.10
   8  -6 -11   73.19   22.90
   8  -6 -11   99.09   28.30
   8  -6 -11   88.59   26.30
   8  -6 -11  128.69   28.00
  -8  -6  11  105.19   32.20
   8   6 -11   63.69   24.50
  -8   6  11   94.39   29.60
   8   6 -11   86.59   23.10
   6  -6 -11   72.29   21.80
   6  -6 -11   52.19   17.70
   6  -6 -11  -10.80   14.80
   6   6 -11   21.90   17.20
   4  -6 -11  184.28   26.10
   4  -6 -11  156.68   26.50
   4  -6 -11  181.08   27.10
   4   6 -11  200.48   27.60
   2  -6 -11   15.90   13.80
   2  -6 -11   19.90   15.30
   2   6 -11    2.60   12.50
   0  -6 -11  138.59   24.90
   0  -6 -11  203.48   28.90
   0   6 -11  220.08   22.30
  -2  -6 -11   21.90   14.90
  -2  -6 -11   11.40   14.30
  -2  -6 -11   46.70   16.40
  -2   6 -11   39.70   16.70
   4  -6  11  -14.50   13.20
  -4  -6 -11   25.40   15.60
  -4  -6 -11    4.20   14.30
  -4  -6 -11    9.40   19.30
  -4   6 -11  -12.20   18.70
   4   6  11  -12.20   13.70
   4   6  11    9.30   12.40
  -6  -6 -11   15.60   18.60
  -6  -6 -11   43.50   24.40
  -6  -6 -11    3.10   24.70
   6  -6  11   37.10   18.50
   6   6  11   46.70   18.70
  -6   6 -11   27.80   26.20
   6   6  11   36.00   18.40
  -8  -6 -11   45.20   33.30
  -8  -6 -11   18.20   30.20
   8  -6  11   18.30   22.20
   8   6  11    4.40   21.70
  -8   6 -11   24.30   29.80
  10  -6  11  -11.20   26.00
 -10  -6 -11   -2.00   41.60
 -10  -6 -11   -0.20   32.00
 -10   6 -11   36.90   35.10
  10   6  11   -7.00   26.80
  13  -7 -11   11.80   31.70
  13  -7 -11   -8.20   30.10
  13   7 -11   56.89   35.40
  11  -7 -11  -14.80   26.90
 -11  -7  11   36.80   39.50
  11  -7 -11  -18.00   25.40
 -11   7  11   -7.00   38.10
  11   7 -11  -16.10   24.40
  11   7 -11  -24.70   22.20
   9  -7 -11   39.50   24.00
  -9  -7  11   55.99   34.40
   9  -7 -11   29.90   22.40
   9  -7 -11   14.40   25.30
  -9   7  11   30.20   31.60
   9   7 -11   29.30   24.90
   9   7 -11   12.50   20.90
   7  -7 -11   44.80   19.50
   7  -7 -11    8.40   17.20
  -7  -7  11   51.69   24.30
   7  -7 -11   69.29   25.00
   7  -7 -11  -14.20   17.20
   7   7 -11   41.40   21.60
  -5  -7  11  151.98   18.50
   5  -7 -11  185.08   27.80
   5  -7 -11  122.29   25.00
   5  -7 -11  181.88   26.60
   5   7 -11  149.99   27.00
   3  -7 -11   44.10   17.60
   3  -7 -11   20.10   15.60
   3   7 -11   12.70   13.90
   1  -7 -11  396.76   39.80
   1  -7 -11  385.66   38.20
   1   7 -11  390.16   34.90
  -1  -7 -11  305.97   29.70
  -1  -7 -11  292.07   35.50
  -1  -7 -11  302.67   36.70
  -1   7 -11  283.37   30.30
  -3  -7 -11  245.98   31.70
  -3  -7 -11  281.77   32.00
  -3  -7 -11  173.88   29.20
  -3   7 -11  254.87   32.80
   3   7  11  227.18   25.80
  -5  -7 -11   97.39   22.70
  -5  -7 -11  110.09   27.50
  -5  -7 -11   68.39   19.50
   5  -7  11   78.29   19.60
   5   7  11   70.79   19.90
  -5   7 -11   54.59   24.50
   5   7  11   66.59   18.30
  -7  -7 -11   72.29   24.10
   7  -7  11   24.90   21.10
  -7  -7 -11   84.99   30.60
  -7  -7 -11   39.70   29.40
   7   7  11   90.09   25.20
  -7   7 -11   57.29   29.00
   7   7  11   26.30   20.80
  -9  -7 -11   64.09   34.50
   9  -7  11   -2.90   25.00
  -9  -7 -11   -3.60   38.30
   9   7  11   34.80   24.50
  -9   7 -11   51.39   32.20
 -11  -7 -11    9.60   36.10
  11  -7  11   47.10   33.00
 -11  -7 -11   27.00   50.19
 -11   7 -11   -4.60   35.30
  11   7  11   37.20   30.30
 -12  -8  11   41.00   49.70
  12  -8 -11   24.10   27.90
  12  -8 -11   -4.50   28.20
  12   8 -11    1.50   29.30
  12   8 -11   32.30   30.20
 -10  -8  11   72.09   38.20
  10  -8 -11   49.50   26.90
  10  -8 -11   58.09   27.40
  10   8 -11   37.20   26.80
  10   8 -11   54.79   25.70
 -10   8  11  139.79   40.50
   8  -8 -11   20.60   20.10
   8  -8 -11   20.80   24.30
   8  -8 -11   -9.30   19.70
  -8  -8  11  -10.40   26.00
   8  -8 -11   -2.20   18.90
   8   8 -11   14.20   20.80
  -8   8  11   34.60   27.80
   8   8 -11   18.30   19.00
   6  -8 -11   18.00   17.80
   6  -8 -11   22.50   19.60
  -6  -8  11   36.40   21.00
   6  -8 -11    9.90   18.00
   6  -8 -11   38.00   17.50
   6   8 -11    9.00   16.70
   4  -8 -11    4.30   14.40
   4  -8 -11   -5.30   15.00
   4   8 -11    2.80   15.90
   2  -8 -11   40.20   17.70
   2  -8 -11   57.49   18.70
   2   8 -11   63.99   18.20
   0  -8 -11  356.96   40.50
   0  -8 -11  366.06   37.60
   0   8 -11  331.27   31.90
   0   8  11  376.86   30.50
  -2  -8 -11   97.89   23.00
  -2  -8 -11  168.08   26.10
  -2  -8 -11   98.49   23.10
  -2   8 -11  145.29   25.50
   2   8  11  115.39   18.30
  -4  -8 -11   11.90   20.60
   4  -8  11    3.50   15.20
  -4  -8 -11   10.90   14.90
  -4  -8 -11   19.60   17.90
   4   8  11   25.30   14.70
   4   8  11   46.10   18.80
  -4   8 -11   12.70   20.10
  -6  -8 -11   28.10   17.80
  -6  -8 -11    3.00   24.20
  -6  -8 -11   37.10   25.30
   6  -8  11   26.70   19.80
  -6   8 -11   19.00   24.50
   6   8  11   12.20   21.00
   6   8  11  -25.60   17.50
  -8  -8 -11   23.20   33.10
  -8  -8 -11   22.40   28.90
   8  -8  11    6.10   21.00
  -8  -8 -11    0.60   26.60
  -8   8 -11    3.20   25.40
   8   8  11   24.30   23.50
 -10  -8 -11    0.40   31.00
 -10  -8 -11   14.60   44.60
  10  -8  11   18.10   29.10
  10   8  11   -9.50   26.50
 -10   8 -11  -12.40   31.50
  11  -9 -11    6.30   27.70
  11  -9 -11  -21.50   24.20
 -11  -9  11  -35.60   39.50
  11   9 -11  -31.10   26.10
 -11   9  11   50.79   45.10
  11   9 -11   53.69   30.50
   9  -9 -11   -3.80   21.80
   9  -9 -11   35.00   26.70
   9  -9 -11   31.10   23.10
  -9  -9  11   66.39   34.70
   9   9 -11    0.80   20.40
   9   9 -11   15.00   24.70
  -9   9  11   50.09   34.00
   7  -9 -11   28.70   20.70
   7  -9 -11   49.50   23.90
   7  -9 -11   67.39   21.70
   7  -9 -11   46.70   21.50
  -7  -9  11   20.10   24.70
   7   9 -11   37.60   20.70
  -7   9  11   61.59   26.70
   5  -9 -11  163.58   23.30
   5  -9 -11  147.39   26.80
   5  -9 -11  115.39   26.70
  -5  -9  11  163.58   25.50
   5   9 -11  123.19   27.70
   3  -9 -11  350.56   38.30
   3  -9 -11  258.47   36.00
   3   9 -11  274.17   35.40
   1  -9 -11  356.66   37.80
   1  -9 -11  348.87   37.10
   1   9 -11  371.76   34.70
  -1  -9 -11 1245.18   84.49
  -1  -9 -11 1123.89   88.79
  -1  -9 -11 1052.89   87.09
   1   9  11 1083.69   81.89
  -3  -9 -11  119.29   23.80
  -3  -9 -11   86.49   23.10
  -3  -9 -11  197.78   29.10
  -3   9 -11   95.79   24.00
   3   9  11   99.49   20.10
   5  -9  11   70.19   21.50
  -5  -9 -11  114.99   28.60
  -5  -9 -11   53.39   23.10
  -5  -9 -11   61.49   21.00
   5   9  11   73.99   23.60
  -5   9 -11   62.09   26.20
   5   9  11   62.29   19.10
   7  -9  11   29.80   21.60
  -7  -9 -11   18.40   28.30
  -7  -9 -11   32.10   21.10
  -7  -9 -11   30.30   29.40
  -7   9 -11   32.90   27.30
   7   9  11   37.50   23.00
   7   9  11   30.50   21.90
  -9  -9 -11   49.60   35.60
   9  -9  11  -35.10   23.50
  -9  -9 -11   45.80   42.00
   9   9  11   22.40   24.90
  -9   9 -11   -8.50   30.20
 -11  -9 -11   80.19   39.90
 -11  -9 -11  146.59   56.49
  11  -9  11    2.90   31.50
 -11   9 -11   46.90   34.50
  11   9  11    3.10   29.30
  12 -10 -11    3.80   29.00
  12 -10 -11   -8.20   29.00
 -12 -10  11   -5.20   49.30
  12  10 -11  -37.50   29.50
  12  10 -11   27.20   33.30
 -10 -10  11   78.99   39.90
  10 -10 -11  -13.20   23.00
  10 -10 -11  -19.00   23.80
  10  10 -11   27.10   28.90
  10  10 -11   -2.10   23.20
 -10  10  11  -28.70   36.10
  -8 -10  11  248.08   38.90
   8 -10 -11  195.48   35.30
   8 -10 -11  221.18   33.00
   8 -10 -11  166.28   33.00
   8 -10 -11  213.48   34.80
  -8  10  11  337.17   42.30
   8  10 -11  136.39   32.70
   8  10 -11  214.88   30.80
   6 -10 -11   17.80   19.30
   6 -10 -11   11.10   20.30
  -6 -10  11  -16.50   20.90
   6 -10 -11    6.60   19.80
   6  10 -11   17.50   20.10
  -4 -10  11   39.40   17.60
   4 -10 -11   24.90   17.90
   4 -10 -11   49.70   21.20
   4  10 -11   25.40   18.60
   2 -10 -11   37.20   17.50
   2 -10 -11   54.79   19.30
   2  10 -11   32.40   16.80
   0 -10 -11   -1.70   14.40
   0 -10 -11    5.30   14.10
   0  10  11    3.00   10.60
   0  10 -11   32.70   13.20
  -2 -10 -11   40.50   17.30
  -2 -10 -11   27.70   17.10
  -2 -10 -11  105.59   23.60
  -2  10 -11  126.79   23.40
   2  10  11   24.80   14.30
  -4 -10 -11   -7.60   20.10
  -4 -10 -11   14.30   15.60
  -4 -10 -11    8.00   17.60
   4 -10  11    3.70   16.80
  -4  10 -11   11.80   19.70
   4  10  11   -5.70   19.10
   4  10  11  -28.30   13.20
  -6 -10 -11   -4.00   17.30
   6 -10  11   -4.10   19.70
  -6 -10 -11   33.10   27.30
  -6 -10 -11   21.70   23.90
   6  10  11   33.90   22.10
  -6  10 -11   24.40   26.60
   6  10  11   -6.50   17.10
   8 -10  11  -15.70   23.80
  -8 -10 -11   19.60   22.40
  -8 -10 -11   45.60   34.00
  -8 -10 -11   21.70   29.60
  -8  10 -11   -2.80   28.50
   8  10  11    7.30   22.90
 -10 -10 -11   37.80   48.10
 -10 -10 -11   34.00   36.50
  10 -10  11   11.10   29.20
 -10  10 -11   55.69   36.50
  10  10  11  -19.70   25.20
  11 -11 -11   -1.80   25.30
 -11 -11  11   20.80   44.10
  11 -11 -11   38.00   29.50
  11  11 -11   29.30   29.40
 -11  11  11    8.40   45.30
  11  11 -11    3.70   26.70
  -9 -11  11   13.50   30.60
   9 -11 -11   43.90   24.80
   9  11 -11   27.20   23.60
   9  11 -11   -6.00   24.10
  -9  11  11   67.29   37.10
  -7 -11  11  -21.40   24.30
   7 -11 -11   -2.50   21.00
   7 -11 -11  -14.00   21.60
   7 -11 -11  -22.00   19.40
  -7  11  11   26.00   25.20
   7  11 -11   23.70   21.80
   5 -11 -11    7.70   15.80
   5 -11 -11   -1.80   17.50
  -5 -11  11  -53.29   17.30
   5 -11 -11   -3.30   19.60
   5  11 -11   20.80   20.10
   3 -11 -11  124.19   25.50
   3 -11 -11  149.69   27.40
   3  11 -11   85.49   22.70
   1 -11 -11  -17.20   14.00
   1 -11 -11   19.30   17.30
   1  11 -11   32.20   16.10
  -1 -11 -11  278.47   35.10
  -1 -11 -11  350.96   36.20
  -1 -11 -11  250.77   35.80
  -1  11 -11  266.07   27.90
   1  11  11  281.17   29.70
  -3 -11 -11  143.39   27.10
   3 -11  11   81.39   20.50
  -3 -11 -11  100.29   22.30
  -3 -11 -11  154.48   27.30
  -3  11 -11  102.79   25.30
   3  11  11  101.29   21.10
   5 -11  11   55.59   22.80
  -5 -11 -11   69.89   25.20
  -5 -11 -11    9.50   16.90
  -5 -11 -11   56.79   27.20
  -5  11 -11   14.10   24.30
   5  11  11   38.70   18.50
   5  11  11   74.09   25.90
  -7 -11 -11   35.10   20.60
   7 -11  11   51.29   26.30
  -7 -11 -11   50.09   30.30
  -7 -11 -11   12.50   28.90
   7  11  11   33.30   25.50
   7  11  11    6.60   20.00
  -7  11 -11   92.49   33.40
  -9 -11 -11   15.30   33.40
  -9 -11 -11  -46.10   40.90
   9 -11  11   53.19   29.20
   9  11  11   14.70   25.20
  -9  11 -11   26.30   32.00
 -11 -11 -11   70.09   43.30
  11 -11  11   37.90   36.30
 -11  11 -11   34.90   41.70
  11  11  11   60.99   34.20
  12 -12 -11    9.20   29.60
 -12 -12  11   19.30   57.69
  12  12 -11   -5.50   31.50
  12  12 -11  -11.00   30.80
  10 -12 -11   61.89   27.30
 -10 -12  11   44.30   37.30
  10  12 -11   36.80   26.40
  10  12 -11   51.99   31.30
 -10  12  11  111.19   42.30
   8 -12 -11    9.60   25.50
   8 -12 -11  -18.00   20.80
  -8 -12  11  -41.60   26.20
   8 -12 -11   -0.50   22.00
   8  12 -11   -0.80   25.40
  -8  12  11  -25.20   28.30
   8  12 -11   -3.00   19.60
   6 -12 -11   30.80   21.40
   6 -12 -11   35.70   19.60
  -6 -12  11   21.20   23.40
   6 -12 -11   -7.70   22.70
   6  12 -11   11.30   22.30
   4 -12 -11    0.30   15.20
  -4 -12  11  -21.00   18.50
   4 -12 -11   13.60   18.10
   4 -12 -11    3.20   18.00
   4  12 -11    0.70   19.50
   2 -12 -11  100.99   24.80
   2 -12 -11   87.79   23.30
   2  12 -11   95.79   23.40
   0 -12 -11    9.20   17.70
   0 -12 -11   11.30   16.40
   0 -12 -11    7.90   16.10
   0  12  11  -10.90   11.90
   0  12 -11   10.80   14.70
   2 -12  11  158.88   22.30
  -2 -12 -11   93.79   25.00
  -2 -12 -11   89.09   23.70
  -2 -12 -11  129.09   27.30
  -2  12 -11  123.19   17.80
   2  12  11  136.29   21.90
   4 -12  11    5.00   18.60
  -4 -12 -11   32.40   24.80
  -4 -12 -11   15.20   19.90
  -4 -12 -11    8.50   16.80
  -4  12 -11   -8.10   22.50
   4  12  11   -0.50   15.80
   4  12  11  -19.90   21.50
  -6 -12 -11   22.50   26.50
   6 -12  11   -1.60   22.40
  -6 -12 -11    0.40   23.10
  -6 -12 -11   -3.80   16.60
   6  12  11    5.90   19.30
   6  12  11   41.90   25.90
  -6  12 -11   14.10   26.50
   8 -12  11   14.30   26.50
  -8 -12 -11    1.90   33.90
  -8 -12 -11   40.10   22.80
  -8 -12 -11   10.40   30.20
   8  12  11   17.00   23.80
  -8  12 -11   15.70   31.70
 -10 -12 -11  -13.50   47.00
  10 -12  11  -31.60   27.90
 -10 -12 -11  -59.59   31.90
 -10  12 -11  -35.80   32.40
  10  12  11   22.30   29.90
 -11 -13  11  -37.50   37.90
  11 -13 -11  -18.80   25.70
 -11  13  11   74.89   57.49
  11  13 -11   81.19   35.00
  11  13 -11  -22.30   28.60
   9 -13 -11   75.19   28.10
  -9 -13  11   63.39   33.30
   9  13 -11   39.90   24.10
  -9  13  11   58.29   36.20
   9  13 -11   59.19   30.80
   7 -13 -11   53.09   23.90
   7 -13 -11   23.90   25.10
   7 -13 -11   59.09   28.30
  -7 -13  11   15.10   26.80
   7  13 -11   29.30   19.20
   7  13 -11   59.49   26.40
  -5 -13  11  156.98   29.50
   5 -13 -11  116.79   24.80
   5 -13 -11  150.08   30.60
   5 -13 -11  168.98   32.50
   5  13 -11  193.18   32.90
   3 -13 -11   56.39   18.20
   3 -13 -11   67.89   22.70
   3 -13 -11   82.19   24.00
   3  13 -11   64.19   21.50
   1 -13 -11  407.76   49.40
   1 -13 -11  388.36   46.40
   1  13 -11  426.66   40.20
  -1 -13 -11  455.55   42.90
  -1 -13 -11  367.36   45.50
   1 -13  11  437.16   37.80
  -1 -13 -11  416.76   50.09
   1  13  11  436.06   38.70
  -1  13 -11  430.96   38.10
   3 -13  11  125.89   23.70
  -3 -13 -11   53.99   21.50
  -3 -13 -11   75.49   24.00
  -3 -13 -11  115.89   29.20
   3  13  11  119.39   22.10
  -3  13 -11  136.09   27.30
  -5 -13 -11    0.40   17.70
  -5 -13 -11   29.70   27.30
  -5 -13 -11   -0.30   16.30
  -5 -13 -11   48.50   24.70
   5 -13  11   52.69   22.90
   5  13  11   12.00   23.80
  -5  13 -11   46.80   26.00
   5  13  11    6.10   19.20
  -7 -13 -11   67.79   33.30
  -7 -13 -11   81.89   33.00
   7 -13  11   50.29   27.70
  -7 -13 -11   59.89   23.00
   7  13  11   63.19   28.00
   7  13  11   36.50   24.90
  -7  13 -11   56.39   31.60
  -9 -13 -11   12.40   34.40
   9 -13  11  -30.80   25.90
  -9 -13 -11   71.69   44.70
   9  13  11   18.10   28.00
  -9  13 -11   32.90   34.40
  10 -14 -11   30.60   27.40
 -10 -14  11   26.40   38.10
  10  14 -11   49.50   27.60
  10  14 -11   21.60   28.60
 -10  14  11  135.89   44.50
   8 -14 -11   86.49   28.70
  -8 -14  11  175.58   38.70
   8 -14 -11  149.19   35.10
   8  14 -11  127.89   26.70
   8  14 -11  125.49   35.10
   6 -14 -11   48.30   24.60
   6 -14 -11   34.30   26.80
  -6 -14  11   28.40   25.20
   6 -14 -11   28.90   20.50
   6  14 -11   12.70   23.00
   4 -14 -11   30.90   17.50
   4 -14 -11   58.99   25.10
   4 -14 -11   -1.60   20.00
   4  14 -11   -3.30   19.40
   2 -14 -11  108.49   26.00
   2 -14 -11   75.19   24.40
   2 -14 -11  136.49   21.60
   2  14 -11  110.19   24.90
   0 -14 -11    8.00   16.70
   0 -14 -11   -7.90   16.60
   0 -14 -11   28.10   20.90
   0  14 -11   -4.50   12.80
  -2 -14 -11    1.50   20.40
  -2 -14 -11  -19.00   14.80
  -2 -14 -11    4.70   13.20
   2 -14  11    7.50   15.40
   2  14  11   11.10   14.30
  -2  14 -11   -7.20   12.60
  -4 -14 -11   -8.30   18.80
  -4 -14 -11  -12.30   25.00
   4 -14  11   14.90   21.20
  -4 -14 -11   27.50   15.60
   4  14  11  -23.30   24.10
   4  14  11   23.10   18.40
  -4  14 -11   16.50   23.20
  -6 -14 -11   40.80   23.20
   6 -14  11   13.80   25.20
  -6 -14 -11   19.70   20.10
  -6 -14 -11   -8.70   28.40
  -6 -14 -11   18.20   27.50
  -6  14 -11   28.30   28.00
   6  14  11   21.50   22.30
   6  14  11   62.29   28.70
  -8 -14 -11   13.90   32.60
  -8 -14 -11   25.10   23.90
   8 -14  11   21.80   28.40
  -8 -14 -11  -42.20   33.70
   8  14  11   21.10   36.80
  -8  14 -11   49.70   31.80
   8  14  11  -13.10   24.00
 -10 -14 -11   -5.20   47.80
  10 -14  11  -25.60   31.00
 -10 -14 -11   13.50   36.30
  10  14  11   18.80   30.60
 -10  14 -11   10.60   36.40
  11 -15 -11   47.70   30.10
 -11 -15  11  -85.29   40.30
  11  15 -11   44.60   33.30
  11  15 -11   47.60   39.90
   9 -15 -11   18.40   25.90
  -9 -15  11  115.39   38.30
   9  15 -11   35.80   31.20
   9  15 -11   36.40   25.60
   7 -15 -11   21.20   28.80
   7 -15 -11   19.60   21.20
  -7 -15  11    0.80   28.80
   7  15 -11    5.20   25.80
   5 -15 -11   30.70   27.00
  -5 -15  11   29.10   24.60
   5 -15 -11    9.60   21.90
   5 -15 -11    5.40   19.20
   5  15 -11   11.10   21.20
   3 -15 -11   42.40   22.30
   3 -15 -11   46.50   23.60
   3 -15 -11   70.89   18.80
   3  15 -11   70.79   24.00
   1 -15 -11    9.20   13.50
   1 -15 -11  -14.40   15.00
   1  15 -11    8.60   16.80
  -1 -15 -11  552.44   51.29
  -1 -15 -11  520.85   43.20
   1 -15  11  508.75   44.60
  -1 -15 -11  579.84   49.90
   1  15  11  488.85   44.80
  -1  15 -11  443.46   44.50
  -3 -15 -11   31.90   23.50
  -3 -15 -11   -7.10   16.70
  -3 -15 -11   -5.70   13.30
   3 -15  11    3.30   19.20
   3  15  11   38.20   19.80
  -3  15 -11   -2.50   13.30
  -5 -15 -11   63.59   27.60
  -5 -15 -11   15.60   29.30
  -5 -15 -11   71.69   20.80
   5 -15  11    3.50   24.40
   5  15  11   26.50   20.40
  -5  15 -11   50.69   27.40
   5  15  11    3.70   27.00
   7 -15  11   78.09   31.80
  -7 -15 -11   -4.70   21.20
  -7 -15 -11   16.50   32.40
  -7 -15 -11   25.80   32.20
  -7  15 -11   15.20   28.90
   7  15  11   51.89   25.80
   7  15  11    8.90   29.60
  -9 -15 -11  -26.10   34.20
   9 -15  11  -37.30   29.10
  -9 -15 -11   25.20   44.50
   9  15  11   20.00   27.20
  -9  15 -11   17.20   34.50
 -10 -16  11   37.10   38.30
  10 -16 -11  -13.10   26.80
 -10  16  11   48.30   42.10
  10  16 -11   56.89   30.20
  10  16 -11  -23.70   28.50
  -8 -16  11   15.50   32.50
   8 -16 -11   14.50   23.90
   8 -16 -11   37.20   30.60
   8  16 -11  -10.10   24.80
   8  16 -11    2.30   22.10
   6 -16 -11   21.40   20.90
   6 -16 -11  -13.90   25.80
  -6 -16  11    6.50   25.60
   6 -16 -11   -3.60   21.10
   6  16 -11   17.10   25.10
   4 -16 -11  127.49   32.20
   4 -16 -11   76.59   27.10
   4 -16 -11  131.49   25.80
   4  16 -11  115.79   30.70
   2 -16 -11   85.39   26.00
   2 -16 -11   95.09   27.10
   2 -16 -11  122.19   21.50
   2  16 -11   77.49   24.50
   0 -16 -11   23.70   19.30
   0 -16  11   24.50   16.40
   0 -16 -11   32.10   16.00
   0  16 -11   32.80   18.40
  -2 -16 -11  143.99   22.90
  -2 -16 -11  196.08   34.20
   2 -16  11  107.99   24.30
  -2 -16 -11  134.79   28.70
   2  16  11  195.78   27.80
  -2  16 -11  134.59   22.90
  -4 -16 -11   -2.80   21.70
  -4 -16 -11   -3.50   15.40
  -4 -16 -11    7.20   27.00
   4 -16  11  -14.40   20.80
   4  16  11   16.70   18.30
   4  16  11   41.10   30.40
  -4  16 -11   -3.10   23.00
  -6 -16 -11   46.60   27.20
  -6 -16 -11    6.50   31.90
   6 -16  11   13.50   27.50
  -6 -16 -11   22.20   21.00
   6  16  11    3.80   28.90
  -6  16 -11   12.80   29.10
   6  16  11    4.40   21.90
  -8 -16 -11   57.99   36.90
  -8 -16 -11   22.80   33.90
  -8 -16 -11   43.10   26.00
   8 -16  11    2.80   30.50
   8  16  11  -15.90   26.00
   8  16  11   17.20   34.30
  -8  16 -11    1.50   31.40
  11 -17 -11   42.40   31.70
 -11 -17  11    8.40   45.40
  -9 -17  11   14.30   37.00
   9 -17 -11   78.79   29.00
   9  17 -11    0.80   25.20
   9  17 -11   26.30   31.80
   7 -17 -11  -23.30   21.90
  -7 -17  11   56.99   29.80
   7 -17 -11   21.70   31.00
   7  17 -11  -11.90   26.70
   5 -17 -11  109.59   34.20
   5 -17 -11   55.39   25.50
   5 -17 -11   52.49   22.30
  -5 -17  11  127.99   32.90
   5  17 -11   88.89   28.50
   3 -17 -11  136.69   31.60
   3 -17 -11  172.08   35.60
   3 -17 -11  174.68   27.30
   3  17 -11  157.88   32.20
   1 -17 -11  -22.90   13.60
   1 -17 -11  -17.40   17.80
   1  17 -11   -9.10   17.70
  -1 -17 -11   78.19   23.80
  -1 -17 -11   51.89   17.70
   1 -17  11   37.20   20.50
  -1 -17 -11   66.69   26.50
  -1  17 -11   45.10   20.20
  -3 -17 -11   96.89   22.40
   3 -17  11  181.88   30.20
  -3 -17 -11  118.39   28.40
  -3 -17 -11  128.89   32.80
   3  17  11  144.99   27.90
   3  17  11  210.88   37.50
   5 -17  11   49.50   28.50
  -5 -17 -11    3.40   23.60
  -5 -17 -11   13.20   19.00
  -5 -17 -11   16.80   32.30
   5  17  11   39.20   29.50
   5  17  11   -2.10   19.90
  -5  17 -11    7.50   27.10
   7 -17  11   -6.80   29.50
  -7 -17 -11   36.10   34.00
  -7 -17 -11   -3.70   23.10
  -7 -17 -11  -13.60   29.80
  -7  17 -11  -32.70   28.20
   7  17  11   -4.40   22.80
   7  17  11   33.40   31.10
   9 -17  11  -11.10   30.70
  -9 -17 -11  103.39   45.40
  -9 -17 -11   -9.80   37.40
  -9  17 -11   60.09   38.20
   9  17  11  -15.60   28.90
  10 -18 -11   39.80   29.80
 -10 -18  11  -21.80   39.80
  10  18 -11   37.20   32.90
   8 -18 -11   35.40   25.30
  -8 -18  11   27.80   37.60
   8 -18 -11   62.29   35.30
   8  18 -11    1.10   29.40
  -6 -18  11  -13.90   27.10
   6 -18 -11  -11.50   21.90
   6 -18 -11   31.10   31.50
   6  18 -11   12.10   26.60
   4 -18 -11  249.97   34.10
   4 -18 -11  254.27   43.30
   4 -18 -11  204.98   37.70
   4  18 -11  249.78   39.70
   2 -18 -11   31.90   18.30
   2 -18 -11   19.20   21.60
   2  18 -11   37.70   21.50
   0 -18 -11   62.89   18.50
   0 -18  11   25.80   19.90
   0 -18 -11   28.50   21.10
   0  18 -11   21.20   20.50
  -2 -18 -11   17.80   16.30
   2 -18  11  -11.00   19.60
  -2 -18 -11   22.20   27.40
  -2 -18 -11   46.30   22.00
   2  18  11   13.20   18.60
  -2  18 -11   10.70   17.00
  -4 -18 -11   30.40   28.70
   4 -18  11   -4.50   22.90
  -4 -18 -11  -24.30   16.40
  -4 -18 -11   33.40   23.90
   4  18  11   39.20   30.40
   4  18  11   -0.50   20.10
  -6 -18 -11  -16.70   29.80
  -6 -18 -11    8.00   21.30
  -6 -18 -11    1.30   31.70
   6 -18  11  -29.10   26.20
  -6  18 -11   44.40   31.40
   6  18  11  -35.30   30.30
   6  18  11   16.70   23.90
  -8 -18 -11   18.00   24.10
   8 -18  11   26.00   31.90
  -8 -18 -11   13.60   25.00
  -8 -18 -11    9.00   38.60
  -8 -18 -11   21.10   35.00
   8  18  11    1.80   34.00
  -8  18 -11   37.30   34.10
   8  18  11    9.90   27.60
   9 -19 -11    6.60   26.50
  -9 -19  11   31.40   39.20
   9  19 -11    0.30   33.50
   7 -19 -11   61.99   37.10
  -7 -19  11  -14.90   30.80
   7 -19 -11    4.60   23.30
   7  19 -11  -29.80   25.50
   5 -19 -11   28.80   22.70
   5 -19 -11   54.39   31.60
   5 -19 -11   15.50   23.10
  -5 -19  11   16.80   29.70
   5  19 -11   12.10   25.70
   3 -19 -11   -8.80   16.50
   3 -19 -11   13.20   22.00
   3  19 -11   15.30   23.50
   1 -19 -11   84.89   26.90
  -1 -19  11   80.89   23.20
   1 -19 -11   83.39   20.90
   1  19 -11   52.39   23.70
  -1 -19 -11  -13.40   15.10
  -1 -19 -11   -1.00   18.70
  -1 -19 -11  -19.40   23.20
   1 -19  11   -8.20   18.90
  -1  19 -11  -13.70   17.40
  -3 -19 -11    2.40   20.80
   3 -19  11    0.20   21.00
  -3 -19 -11   -4.10   17.60
  -3 -19 -11   11.90   25.70
   3  19  11  -10.70   18.20
   3  19  11  -27.40   26.90
  -5 -19 -11   47.00   29.00
  -5 -19 -11   25.90   32.40
  -5 -19 -11   10.80   20.70
   5 -19  11   45.00   27.30
   5  19  11   10.00   22.00
   5  19  11   28.10   33.20
  -7 -19 -11    4.20   25.10
  -7 -19 -11   24.50   35.40
  -7 -19 -11   46.20   35.20
   7 -19  11  -13.50   31.10
   7  19  11    4.10   32.70
   7  19  11   -1.20   23.50
  -7  19 -11   18.40   32.00
  10 -20 -11  -12.60   28.80
  -8 -20  11   17.70   39.80
   8 -20 -11   80.99   43.50
   8 -20 -11   75.29   29.00
   8  20 -11    7.50   29.60
  -6 -20  11   18.30   33.40
   6 -20 -11   56.09   35.00
   6 -20 -11   -7.60   21.80
   6  20 -11   11.90   28.50
   4 -20 -11    7.80   22.60
   4 -20 -11   33.80   21.50
   4  20 -11  -10.80   23.10
   2 -20 -11   84.19   22.10
   2 -20 -11  134.49   30.80
   2  20 -11   66.99   28.30
   0 -20 -11   25.00   22.10
   0 -20  11   53.59   22.40
   0 -20 -11   49.10   19.40
   0  20 -11   76.79   24.70
  -2 -20 -11   14.50   18.30
  -2 -20 -11   34.60   28.50
  -2 -20 -11    0.20   21.50
   2 -20  11   32.40   23.20
   2  20  11   19.80   19.60
  -2  20 -11   30.60   20.10
   4 -20  11   53.79   27.60
  -4 -20 -11    6.30   19.20
  -4 -20 -11   17.90   28.10
  -4 -20 -11   37.10   27.00
   4  20  11   13.60   34.30
   4  20  11  -11.90   19.70
  -6 -20 -11    7.90   33.10
  -6 -20 -11   35.60   36.60
  -6 -20 -11   -2.80   22.70
   6 -20  11   -3.60   28.60
   6  20  11  -21.30   32.20
   6  20  11   36.20   25.90
   8 -20  11   20.80   34.60
  -8 -20 -11   37.70   41.70
  -8 -20 -11  -15.70   37.30
  -8 -20 -11  -25.50   29.90
   8  20  11   34.30   38.90
  -8  20 -11    7.30   33.00
   8  20  11   12.70   28.10
  -9 -21  11   68.09   45.00
   9 -21 -11  -33.30   25.70
   9  21 -11  -34.40   31.40
  -7 -21  11   20.00   35.00
   7 -21 -11    8.40   35.40
   7 -21 -11   22.10   25.40
   7  21 -11  -41.90   26.10
   5 -21 -11  110.79   28.30
  -5 -21  11   83.69   37.00
   5 -21 -11   70.19   35.80
   5  21 -11  125.99   35.00
   3 -21 -11   -8.10   21.00
   3 -21 -11  -30.30   16.50
   3  21 -11   16.70   25.40
   1 -21 -11   80.59   23.00
  -1 -21  11  103.29   26.70
   1 -21 -11   68.89   26.20
   1  21 -11   62.39   26.90
  -1 -21 -11   52.39   29.80
   1 -21  11   38.10   23.80
  -1 -21 -11   57.29   21.70
  -1 -21 -11   59.49   25.80
  -1  21 -11   38.20   22.10
   3 -21  11   38.50   24.70
  -3 -21 -11   17.50   24.40
  -3 -21 -11    9.80   18.60
  -3 -21 -11    6.20   29.80
   3  21  11   25.60   21.70
   3  21  11  -35.30   29.30
  -5 -21 -11    0.80   33.60
  -5 -21 -11    8.40   22.10
   5 -21  11   66.19   31.90
  -5 -21 -11   15.30   29.80
   5  21  11   25.10   23.00
   5  21  11   12.90   34.00
   7 -21  11   82.39   36.40
  -7 -21 -11   12.80   25.80
  -7 -21 -11   18.80   37.40
  -7 -21 -11  -32.90   35.30
   7  21  11   23.70   37.50
   7  21  11  -34.00   23.30
  -7  21 -11  -50.39   28.80
  -8 -22  11    9.70   41.10
   8 -22 -11   37.80   29.50
   8  22 -11   89.39   34.80
  -6 -22  11   -3.20   35.30
   6 -22 -11  -20.80   35.40
   6 -22 -11  -37.30   23.00
   6  22 -11   -7.50   27.90
   4 -22 -11  -13.30   22.70
   4 -22 -11   28.60   22.40
   4  22 -11   45.20   28.20
   2 -22 -11    3.10   19.60
   2 -22 -11   55.89   26.20
   2  22 -11    6.60   24.10
   0 -22  11   30.00   23.30
   0 -22 -11   31.80   19.50
   0 -22 -11   -9.10   21.10
   0  22 -11   34.50   23.80
  -2 -22 -11  -49.30   25.40
   2 -22  11    0.90   24.40
  -2 -22 -11   -1.50   21.10
  -2 -22 -11   -7.60   19.10
  -2  22 -11   24.50   25.70
  -4 -22 -11    3.60   20.20
  -4 -22 -11   15.60   25.50
   4 -22  11  -21.80   25.50
  -4 -22 -11  -20.60   28.50
   4  22  11  -56.59   31.60
   4  22  11    7.50   22.50
  -6 -22 -11   40.60   24.90
   6 -22  11   24.00   32.70
  -6 -22 -11    6.60   37.60
  -6 -22 -11   16.30   35.30
   6  22  11  -15.30   24.60
   6  22  11   15.50   38.20
   7 -23 -11  -10.20   25.50
  -7 -23  11  -46.60   36.30
   7 -23 -11   19.40   40.00
   7  23 -11   -5.60   30.60
   5 -23 -11  -10.90   23.00
   5 -23 -11  -24.50   33.10
  -5 -23  11    2.70   36.50
   5  23 -11   11.60   27.60
   3 -23 -11   31.50   25.00
   3 -23 -11   23.30   22.30
   3  23 -11   -1.90   25.20
  -1 -23  11   27.20   24.50
   1 -23 -11  -17.20   16.30
   1 -23 -11   32.80   23.20
   1  23 -11   27.40   25.10
  -1 -23 -11  112.89   25.10
   1 -23  11   46.70   26.60
  -1 -23 -11   67.49   28.80
  -1 -23 -11   98.19   34.30
  -1  23 -11  102.49   27.90
  -3 -23 -11   25.70   22.70
  -3 -23 -11   50.69   33.20
   3 -23  11   24.50   25.90
  -3 -23 -11   35.40   27.10
   3  23  11  105.29   38.30
  -5 -23 -11  -18.50   21.90
   5 -23  11   -7.50   31.30
  -5 -23 -11  -41.50   29.40
  -5 -23 -11   21.10   35.10
   5  23  11  -31.40   35.00
   5  23  11  -25.00   23.20
   7 -23  11    9.80   34.40
  -7 -23 -11  -56.39   38.20
  -7 -23 -11    6.80   40.20
  -7 -23 -11   10.90   27.20
   7  23  11    7.00   40.60
   7  23  11   21.40   29.40
  -8 -24  11   66.29   45.90
   8 -24 -11   19.10   27.60
   6 -24 -11   21.30   27.10
   6 -24 -11   48.30   40.40
  -6 -24  11   54.99   41.90
   6  24 -11   73.29   34.70
   4 -24 -11   67.59   24.50
   4 -24 -11   39.50   27.50
   4  24 -11   35.90   30.10
   2 -24 -11   28.10   26.50
  -2 -24  11   35.10   26.20
   2 -24 -11  -35.90   18.50
   2  24 -11    0.50   26.80
   0 -24 -11   -2.30   20.00
   0 -24  11   14.00   24.80
   0 -24 -11   34.40   26.20
   0  24 -11   -4.80   25.20
  -2 -24 -11   25.50   20.90
  -2 -24 -11   10.20   32.90
  -2 -24 -11   -2.00   22.00
   2 -24  11  -16.80   23.40
  -4 -24 -11   63.59   36.40
   4 -24  11   13.00   29.10
  -4 -24 -11    3.10   22.20
  -4 -24 -11   -9.40   28.10
   4  24  11  -18.30   22.70
   4  24  11  -41.10   36.10
  -6 -24 -11   59.79   43.20
  -6 -24 -11  -20.00   23.80
   6 -24  11   17.80   33.60
  -6 -24 -11   29.00   41.10
   6  24  11  -56.99   39.40
   6  24  11   10.40   28.60
  -7 -25  11  -44.50   41.50
   7 -25 -11  -19.10   26.70
   7 -25 -11  -26.80   40.00
   7  25 -11   21.10   34.40
   5 -25 -11   23.10   25.30
  -5 -25  11   86.39   45.00
   5  25 -11   17.90   33.20
   3 -25 -11   -4.40   22.10
   3 -25 -11   21.80   24.50
   3  25 -11    9.40   28.10
   1 -25 -11   57.39   24.50
   1 -25 -11   14.40   25.80
  -1 -25  11   18.10   25.60
   1  25 -11    4.90   27.80
  -1 -25 -11   35.60   34.30
  -1 -25 -11  104.39   26.90
  -1 -25 -11   70.99   29.10
   1 -25  11  120.79   32.30
  -1  25 -11  108.39   31.80
  -3 -25 -11  -12.60   21.60
  -3 -25 -11    9.30   35.40
   3 -25  11   34.80   29.40
  -3 -25 -11    7.60   28.20
   3  25  11   40.80   36.50
  -5 -25 -11   72.99   42.40
   5 -25  11  -12.60   29.60
  -5 -25 -11  -14.70   35.10
  -5 -25 -11   17.10   26.30
   5  25  11  -18.70   25.20
   5  25  11   27.60   42.50
   6 -26 -11    2.00   42.30
   6 -26 -11  -15.70   27.10
  -6 -26  11  -24.20   41.90
   6  26 -11  -49.99   30.80
   4 -26 -11   30.20   28.00
   4 -26 -11   31.10   24.70
   4  26 -11  -21.20   29.70
  -2 -26  11   14.90   27.40
   2 -26 -11   23.60   22.40
   2 -26 -11  -15.70   23.40
   2  26 -11    3.50   30.20
   0 -26 -11   31.10   28.10
   0 -26 -11  -13.70   20.90
   0 -26  11   30.90   28.00
   0  26 -11  -21.40   24.60
  -2 -26 -11   19.80   35.50
  -2 -26 -11  -18.90   22.40
  -2 -26 -11  -42.20   23.20
   2 -26  11   14.70   28.10
   2  26  11   17.00   36.80
   4 -26  11   -5.00   28.70
  -4 -26 -11   34.20   35.50
  -4 -26 -11   -4.60   33.60
  -4 -26 -11  -31.40   22.60
   4  26  11  -24.00   37.80
  -5 -27  11    3.90   44.70
   5 -27 -11   15.40   26.90
   5 -27 -11   20.70   28.60
   5  27 -11   20.60   34.90
   3 -27 -11   28.80   25.80
   3 -27 -11   26.90   28.60
  -3 -27  11   10.00   27.50
   3  27 -11   14.20   32.50
  -1 -27  11  -39.30   26.30
   1 -27 -11   45.70   22.90
   1 -27 -11   -6.80   26.60
   1  27 -11   31.20   30.20
   1 -27  11   74.49   31.90
  -1 -27 -11   64.99   30.40
  -1 -27 -11   61.09   38.50
  -1 -27 -11   31.30   24.50
   3 -27  11   79.59   33.90
  -3 -27 -11   20.50   41.30
  -3 -27 -11  -38.50   22.30
  -3 -27 -11  -16.30   28.80
   3  27  11   65.59   40.30
   4 -28 -11    9.10   24.90
  -4 -28  11   45.60   30.90
   4 -28 -11    5.40   29.00
   4  28 -11  -19.90   32.90
   2 -28 -11   36.20   25.50
  -2 -28  11    7.50   30.60
   2 -28 -11   15.60   28.90
   2  28 -11  -24.40   32.00
   0 -28  11   38.60   29.20
   0 -28 -11  -23.00   21.60
   0 -28 -11  -23.30   27.30
   0  28 -11   -5.90   29.00
  -2 -28 -11   19.60   25.20
   2 -28  11   24.00   30.00
  -2 -28 -11   40.20   39.10
  -2 -28 -11   11.60   31.70
   2  28  11  -21.60   34.80
   1 -29 -11    6.80   24.00
   1 -29 -11   12.10   26.80
  -1 -29  11   -5.60   30.40
   1  29 -11   12.40   33.90
   1 -29  11  155.38   38.30
  -1 -29 -11   47.30   28.70
  -1 -29 -11  128.89   45.50
  -1 -29 -11  144.89   38.90
   1  29  11   52.59   38.60
  12   0 -12   25.70   27.10
  12   0 -12   62.69   32.40
  10   0 -12   92.99   30.10
 -10   0  12  181.08   44.20
  10   0 -12   95.59   27.20
   8   0 -12   21.90   19.90
   6   0 -12   32.90   19.80
   6   0 -12   -4.90   15.90
   6   0 -12    0.60    9.70
   4   0 -12 1180.08   91.49
   4   0 -12 1227.48   93.09
   4   0 -12 1233.28   88.79
   2   0 -12    3.70   12.60
   2   0 -12  -14.50   11.30
   2   0 -12    5.40   12.40
   0   0 -12   76.59   18.50
   0   0 -12   49.20   15.40
   0   0 -12   80.89   15.20
  -2   0 -12   -4.10   10.30
  -2   0 -12   17.20   15.80
  -4   0 -12  -25.50   17.40
  -4   0 -12    8.00   17.80
  -4   0 -12  -14.50   20.20
  -6   0 -12   45.40   23.10
  -6   0 -12  114.79   33.40
   6   0  12   67.69   20.30
  -6   0 -12  133.29   31.50
   8   0  12  -21.70   20.20
  -8   0 -12    6.10   28.50
  -8   0 -12  -52.39   23.80
 -10   0 -12   68.39   35.10
  10   0  12   30.00   28.40
  13  -1 -12  -13.40   29.30
  13  -1 -12  -19.40   30.50
  13   1 -12   19.60   30.50
  13   1 -12    9.90   33.60
  11  -1 -12   30.70   26.70
  11  -1 -12   35.10   25.50
  11   1 -12   -2.70   25.60
  11   1 -12   24.50   27.30
   9  -1 -12  179.58   32.80
   9  -1 -12  213.18   31.20
   9   1 -12  209.28   31.20
   9   1 -12   90.89   28.50
   7  -1 -12   98.39   23.50
   7  -1 -12  123.79   26.80
   7  -1 -12   89.79   16.70
   7   1 -12   72.99   23.10
   7   1 -12  132.19   27.20
   5  -1 -12   40.90   16.60
   5  -1 -12   61.79   19.30
   5  -1 -12   28.80   12.70
   5   1 -12   44.10   12.20
   5   1 -12   49.20   19.40
   5   1 -12   44.50   19.20
   3  -1 -12  382.56   35.00
   3  -1 -12  351.46   35.90
   3  -1 -12  387.46   38.00
   3   1 -12  398.06   34.50
   3   1 -12  394.16   36.20
   3   1 -12  365.86   37.60
   1  -1 -12   58.19   16.80
   1  -1 -12   32.90   14.10
   1  -1 -12   57.09   14.40
   1   1 -12   46.70   13.20
   1   1 -12   18.50   13.40
   1   1 -12   39.40   15.50
  -1  -1 -12   11.50   14.10
  -1  -1 -12    5.90   11.90
  -1   1 -12   -0.20   14.50
  -1   1 -12    4.10   14.50
  -3  -1 -12   31.40   17.40
  -3  -1 -12   12.20   13.20
  -3  -1 -12   23.40   17.70
  -3   1 -12   49.90   18.10
  -3   1 -12   79.19   23.60
  -3   1 -12   73.49   19.90
  -5  -1 -12   27.70   14.90
  -5  -1 -12    9.70   22.10
  -5  -1 -12   -8.40   18.20
   5  -1  12   33.90   16.10
   5   1  12    9.10   14.70
  -5   1 -12   57.79   30.20
  -5   1 -12   19.90   18.60
  -5   1 -12   -5.80   21.90
  -7  -1 -12    5.90   18.30
   7  -1  12   -3.70   19.40
  -7  -1 -12  -13.80   25.10
  -7  -1 -12    0.60   24.50
   7   1  12   -9.60   17.60
  -7   1 -12   15.90   24.10
  -7   1 -12  -36.00   24.00
  -7   1 -12    6.80   18.00
  -9  -1 -12  -42.20   32.30
   9  -1  12   42.10   26.90
  -9  -1 -12   64.29   32.80
  -9   1 -12   59.49   32.20
   9   1  12  -16.30   22.10
  11  -1  12   20.70   29.50
 -11  -1 -12    3.30   35.20
 -11   1 -12    3.20   33.20
  11   1  12   25.70   31.20
  12  -2 -12  -34.20   26.10
  12  -2 -12    1.40   28.90
  12   2 -12  -24.70   24.00
  12   2 -12    3.00   29.10
  10  -2 -12   56.19   25.90
  10  -2 -12   14.30   23.60
 -10  -2  12   56.39   39.00
  10   2 -12   81.49   26.60
  10   2 -12   49.30   25.60
 -10   2  12  109.29   43.00
   8  -2 -12  114.89   28.80
   8  -2 -12   51.09   22.30
   8   2 -12   54.99   23.20
   6  -2 -12  284.27   35.90
   6  -2 -12  225.98   24.00
   6  -2 -12  210.38   31.50
   6   2 -12  263.47   34.80
   6   2 -12  204.78   21.70
   6   2 -12  263.87   34.20
   4  -2 -12  415.46   38.90
   4  -2 -12  415.96   36.20
   4  -2 -12  394.76   39.50
   4   2 -12  393.16   41.00
   4   2 -12  426.36   39.10
   4   2 -12  388.76   34.70
   2  -2 -12  113.39   20.30
   2  -2 -12   92.29   20.40
   2  -2 -12  131.69   20.90
   2   2 -12   91.69   19.40
   2   2 -12   89.29   18.70
   2   2 -12   98.89   18.30
   0  -2 -12  191.98   25.90
   0  -2 -12  176.48   26.80
   0   2 -12  198.58   20.30
   0   2 -12  198.08   27.10
   0   2 -12  187.48   27.50
  -2  -2 -12    5.60   14.70
  -2  -2 -12    2.10   13.80
  -2   2 -12   15.90   15.40
  -2   2 -12   25.70   16.90
  -2   2 -12   18.60   17.90
  -4  -2 -12    0.20   14.10
  -4  -2 -12   66.49   21.60
  -4  -2 -12   -7.60   15.90
  -4   2 -12   47.40   22.60
  -4   2 -12   14.50   16.50
  -4   2 -12   14.40   26.10
  -6  -2 -12    7.70   17.40
  -6  -2 -12    9.00   23.30
   6  -2  12    2.40   16.70
  -6  -2 -12   14.40   23.20
   6   2  12   28.80   18.10
  -6   2 -12   24.30   18.60
  -6   2 -12   18.40   25.10
  -6   2 -12   37.50   23.10
  -8  -2 -12   45.20   31.30
  -8  -2 -12    5.30   30.40
   8  -2  12   -4.10   22.50
   8   2  12   44.00   22.70
  -8   2 -12  -40.40   26.60
 -10  -2 -12   53.59   35.90
  10  -2  12    4.70   27.30
 -10   2 -12   48.30   35.20
  10   2  12   82.49   29.80
  13  -3 -12   27.50   33.40
  13  -3 -12  -24.00   30.70
  13   3 -12   22.80   29.60
  13   3 -12    3.90   37.90
  11  -3 -12  -26.30   25.70
  11  -3 -12    8.80   26.30
  11   3 -12   -8.20   25.60
  11   3 -12    7.90   26.70
   9  -3 -12  137.09   32.60
  -9  -3  12  336.57   44.40
   9  -3 -12  190.88   31.60
   9  -3 -12  243.38   36.30
   9   3 -12  160.28   34.70
   9   3 -12  214.98   30.80
   7  -3 -12   52.09   21.60
   7  -3 -12   55.39   23.70
   7  -3 -12   53.49   15.10
   7   3 -12   36.60   21.20
   5  -3 -12    2.00   12.60
   5  -3 -12   33.90   16.20
   5  -3 -12   11.10   15.50
   5   3 -12   49.70   19.10
   5   3 -12    8.70   15.30
   5   3 -12   12.30   10.10
   3  -3 -12   59.49   18.90
   3  -3 -12   62.49   18.60
   3  -3 -12   97.39   19.10
   3   3 -12   80.09   18.90
   3   3 -12   92.49   16.70
   3   3 -12   54.49   18.20
   1  -3 -12   -3.20   12.30
   1  -3 -12    7.70   13.80
   1   3 -12  -10.50   11.00
   1   3 -12   27.80   14.40
   1   3 -12   23.90   11.30
  -1  -3 -12    8.30   14.20
  -1  -3 -12   18.40   14.10
  -1   3 -12   31.10   15.30
  -1   3 -12   11.70   14.10
  -3  -3 -12   20.80   15.90
  -3  -3 -12    6.20   16.90
  -3  -3 -12   15.30   14.40
  -3   3 -12   14.90   19.00
  -3   3 -12  -11.80   19.00
  -3   3 -12    6.60   15.80
   5  -3  12   42.80   15.40
  -5  -3 -12   32.40   18.10
  -5  -3 -12   37.90   23.00
  -5  -3 -12   12.40   19.20
  -5   3 -12   79.09   26.80
   5   3  12   25.70   17.00
  -5   3 -12   25.40   19.10
  -5   3 -12   51.69   24.40
   7  -3  12   22.40   21.20
  -7  -3 -12   56.59   29.80
  -7  -3 -12   -3.40   19.00
  -7  -3 -12   10.40   26.90
   7   3  12   35.40   20.90
  -7   3 -12  -15.90   26.70
  -7   3 -12    6.10   19.10
   9  -3  12  -27.50   22.20
  -9  -3 -12   14.60   30.30
  -9  -3 -12   23.60   39.10
  -9   3 -12   66.19   34.30
   9   3  12   37.60   24.90
  11  -3  12   42.90   31.70
 -11  -3 -12   26.30   37.70
  11   3  12  -29.40   27.20
 -11   3 -12   -2.20   34.80
  12  -4 -12   30.90   30.60
  12  -4 -12  -11.10   27.90
  12   4 -12  -41.80   26.00
  12   4 -12   25.00   28.90
  10  -4 -12   35.30   24.30
 -10  -4  12    5.10   35.90
  10  -4 -12    1.70   23.50
  10   4 -12   -4.70   23.00
  10   4 -12   -2.20   22.10
 -10   4  12   31.00   40.00
   8  -4 -12   57.89   21.40
   8  -4 -12   54.89   26.20
   8  -4 -12   70.19   23.50
   8   4 -12   44.30   22.70
   6  -4 -12  228.58   32.00
   6  -4 -12  186.28   30.70
   6  -4 -12  188.18   25.20
   6   4 -12  157.98   29.40
   4  -4 -12   52.29   16.30
   4  -4 -12   32.60   19.20
   4  -4 -12   58.79   19.20
   4   4 -12   90.29   20.40
   4   4 -12   56.99   19.70
   4   4 -12   74.99   15.10
   2  -4 -12  -11.00   13.20
   2  -4 -12    1.20   12.90
   2  -4 -12    5.10   12.90
   2   4 -12   -2.90   11.90
   2   4 -12   10.40   12.80
   2   4 -12   -2.60   12.90
   0  -4 -12   39.40   17.10
   0  -4 -12   80.49   18.60
   0   4 -12   71.49   18.10
   0   4 -12   26.50   11.10
   0   4 -12   19.00   15.10
  -2  -4 -12  459.45   47.10
  -2  -4 -12  539.75   45.00
  -2  -4 -12  499.75   46.80
  -2   4 -12  542.05   48.00
  -2   4 -12  588.74   51.39
  -2   4 -12  580.24   45.50
  -4  -4 -12   27.40   18.40
  -4  -4 -12   40.40   16.90
  -4  -4 -12   38.60   22.80
  -4   4 -12   30.20   18.00
  -4   4 -12   40.80   27.50
  -4   4 -12  -22.40   20.20
   4   4  12   10.20   12.70
  -6  -4 -12   38.10   24.80
  -6  -4 -12   25.40   24.30
  -6  -4 -12   44.10   20.80
   6  -4  12   37.60   18.70
  -6   4 -12   45.50   28.10
  -6   4 -12   21.10   19.50
   6   4  12    2.10   17.30
  -8  -4 -12  -54.19   27.30
  -8  -4 -12  -28.60   26.70
   8  -4  12  -21.70   21.10
  -8   4 -12   -8.10   26.90
   8   4  12  -25.70   20.50
 -10  -4 -12   52.99   35.80
 -10  -4 -12   56.59   45.70
  10  -4  12   91.09   31.70
  10   4  12   45.90   29.10
 -10   4 -12   56.49   37.50
  13  -5 -12  -11.50   32.50
  11  -5 -12   70.39   30.90
  11  -5 -12    4.70   28.00
  11   5 -12   23.00   27.10
  11   5 -12   33.00   27.00
  -9  -5  12   56.09   32.70
   9  -5 -12   51.39   23.10
   9  -5 -12   72.19   28.90
   9  -5 -12   55.49   27.30
   9   5 -12   44.20   25.60
   9   5 -12   46.60   22.60
   7  -5 -12  191.48   33.30
   7  -5 -12  217.28   26.70
   7  -5 -12  262.47   34.90
   7   5 -12  128.59   30.70
   5  -5 -12   51.69   16.80
   5  -5 -12   28.20   20.40
   5  -5 -12   45.00   19.40
   5   5 -12   32.10   18.60
   3  -5 -12   18.50   15.50
   3  -5 -12   42.50   15.70
   3  -5 -12   37.60   16.80
   3   5 -12   14.90   14.90
   1  -5 -12    9.70   13.80
   1  -5 -12   25.60   14.80
   1   5 -12   19.10   11.70
   1   5 -12   23.10   13.80
   1   5 -12    9.90   14.90
  -1  -5 -12   -2.30   13.70
  -1  -5 -12   -2.90   14.10
  -1   5 -12   -2.50   13.80
  -1   5 -12   23.50   16.20
  -3  -5 -12  -14.10   13.30
  -3  -5 -12    6.10   13.90
  -3  -5 -12  -33.20   16.50
  -3   5 -12   -5.20   22.50
  -3   5 -12   -8.50   18.20
   5  -5  12   17.50   16.90
  -5  -5 -12   -4.20   16.50
  -5  -5 -12   33.30   23.10
  -5  -5 -12   18.90   20.40
   5   5  12   42.80   15.80
  -5   5 -12   35.70   25.50
   7  -5  12   66.09   22.50
  -7  -5 -12  105.49   25.20
  -7  -5 -12   96.89   33.00
  -7  -5 -12  119.79   31.50
  -7   5 -12   80.79   31.10
   7   5  12   79.69   23.00
   9  -5  12  -28.20   23.70
  -9  -5 -12  -31.00   34.40
  -9  -5 -12   25.00   32.10
   9   5  12  -12.60   23.40
  -9   5 -12   29.30   31.50
  11  -5  12    2.50   29.50
 -11  -5 -12   14.50   49.20
 -11  -5 -12   19.10   35.50
 -11   5 -12   73.19   40.10
  11   5  12    4.40   32.70
  12  -6 -12  -32.20   27.50
  12  -6 -12  -45.70   26.80
  12   6 -12  -23.60   26.70
  12   6 -12   32.70   29.90
  10  -6 -12   13.90   24.00
  10  -6 -12    0.00   24.70
 -10  -6  12   -3.30   36.20
 -10   6  12  -29.10   39.20
  10   6 -12  -33.00   20.20
  10   6 -12    1.30   23.10
   8  -6 -12   51.19   26.80
   8  -6 -12   29.60   21.70
   8  -6 -12   12.40   19.40
   8   6 -12   -1.70   21.40
   6  -6 -12   38.20   19.50
   6  -6 -12   22.40   20.20
   6  -6 -12   45.50   17.40
   6   6 -12   17.00   17.90
   4  -6 -12  298.07   35.80
   4  -6 -12  322.87   39.00
   4  -6 -12  317.47   37.90
   4   6 -12  340.27   39.80
   2  -6 -12  148.79   24.80
   2  -6 -12  151.88   26.00
   2   6 -12  153.98   23.00
   0  -6 -12  287.97   34.60
   0  -6 -12  300.37   36.00
   0   6 -12  269.37   26.00
  -2  -6 -12  374.06   38.70
  -2  -6 -12  351.56   38.90
  -2  -6 -12  397.06   35.90
  -2   6 -12  397.86   36.70
  -4  -6 -12  -33.70   19.50
  -4  -6 -12   13.60   15.80
  -4  -6 -12   13.80   15.40
   4   6  12   36.90   16.20
  -4   6 -12   46.20   22.60
   4   6  12    5.10   13.10
  -6  -6 -12   95.29   29.30
  -6  -6 -12   97.29   23.00
   6  -6  12   85.89   21.70
  -6  -6 -12   34.70   26.50
   6   6  12   66.19   22.00
  -6   6 -12   31.40   25.90
  -8  -6 -12  -29.90   28.70
  -8  -6 -12   18.00   30.80
   8  -6  12  -18.60   20.90
  -8   6 -12   22.70   30.90
   8   6  12  -44.50   21.20
 -10  -6 -12   21.00   44.90
 -10  -6 -12   38.50   34.80
  10  -6  12  -16.90   26.60
  10   6  12   16.30   28.00
 -10   6 -12    6.90   35.50
  11  -7 -12  -39.30   24.80
  11  -7 -12  -17.70   25.10
  11   7 -12   -1.70   25.00
  11   7 -12   28.90   26.60
   9  -7 -12  138.59   32.60
  -9  -7  12  108.29   38.00
   9  -7 -12  113.59   27.20
   9  -7 -12   52.19   26.90
   9   7 -12   98.79   25.60
  -9   7  12   77.19   33.60
   9   7 -12   35.40   26.00
   7  -7 -12  133.49   27.80
   7  -7 -12  145.89   26.40
   7  -7 -12  163.08   31.10
   7  -7 -12  139.69   26.00
   7   7 -12  119.19   27.60
   5  -7 -12    8.90   18.40
   5  -7 -12   17.10   16.70
   5  -7 -12  -15.70   14.40
   5   7 -12   11.60   18.30
   3  -7 -12   32.20   17.60
   3  -7 -12   69.09   18.60
   3   7 -12   36.90   16.00
   1  -7 -12   -2.90   15.40
   1  -7 -12   21.30   15.00
   1   7 -12   27.40   12.40
  -1  -7 -12   62.69   18.70
  -1  -7 -12   99.99   23.20
  -3  -7 -12   -3.70   14.60
  -3  -7 -12   25.00   16.80
  -3  -7 -12   34.40   19.30
  -3   7 -12   23.80   19.70
   3   7  12    5.60   11.60
   5  -7  12   90.99   21.50
  -5  -7 -12   55.89   20.20
  -5  -7 -12   45.40   25.10
  -5  -7 -12   61.69   23.90
   5   7  12   52.09   19.30
   5   7  12   96.49   20.50
  -5   7 -12   87.59   28.20
  -7  -7 -12   35.40   30.40
  -7  -7 -12   83.99   32.60
  -7  -7 -12  -14.70   19.40
   7  -7  12    3.70   19.80
   7   7  12   23.10   21.40
  -7   7 -12   36.50   28.70
  -9  -7 -12   68.59   44.60
  -9  -7 -12    5.30   32.80
   9  -7  12   11.70   26.20
   9   7  12    8.80   24.30
  -9   7 -12   44.60   34.40
 -11  -7 -12   43.60   51.29
  11  -7  12  -52.29   28.90
 -11  -7 -12   -7.50   37.20
  11   7  12   10.20   32.10
 -11   7 -12    2.30   35.40
  12  -8 -12    6.20   28.50
  12  -8 -12   -5.90   30.40
  12   8 -12  -34.40   25.10
  10  -8 -12   26.50   25.50
  10  -8 -12   48.30   26.40
 -10  -8  12  -51.89   34.50
  10   8 -12    6.90   25.70
 -10   8  12    5.60   46.40
  10   8 -12  -29.00   22.70
   8  -8 -12   33.30   25.00
   8  -8 -12   83.89   27.70
   8  -8 -12    3.40   21.00
   8  -8 -12    4.30   18.20
  -8  -8  12   91.39   30.80
  -8   8  12   65.29   29.20
   8   8 -12   -8.50   21.70
   6  -8 -12  -13.50   16.90
   6  -8 -12   -3.80   18.90
   6  -8 -12   14.90   18.30
   6   8 -12   -6.10   19.00
   4  -8 -12   77.89   21.80
   4  -8 -12   55.99   18.80
   4   8 -12   42.90   18.50
   2  -8 -12   19.40   16.00
   2  -8 -12   16.40   16.00
   2   8 -12   19.20   14.80
   0  -8 -12 1398.06  102.79
   0  -8 -12 1194.78  100.39
   0   8 -12 1390.46   96.09
  -2  -8 -12  196.78   27.10
  -2  -8 -12   96.59   23.90
  -2  -8 -12  127.39   25.40
  -2   8 -12  160.68   27.00
   2   8  12  164.48   20.70
  -4  -8 -12   -3.30   20.30
  -4  -8 -12   -2.50   15.30
  -4  -8 -12   23.80   17.70
  -4   8 -12   -2.10   20.90
   4   8  12    8.50   14.40
   4   8  12   22.30   19.60
  -6  -8 -12   97.19   23.80
  -6  -8 -12  104.19   29.70
  -6  -8 -12   24.50   27.80
   6  -8  12   67.99   21.70
   6   8  12   77.59   23.80
   6   8  12   58.59   21.40
  -6   8 -12   62.49   29.10
  -8  -8 -12  -42.20   28.20
  -8  -8 -12   46.80   35.30
   8  -8  12    1.20   21.70
  -8   8 -12    1.20   29.40
   8   8  12    2.60   23.50
 -10  -8 -12  153.38   55.89
 -10  -8 -12   80.49   39.10
  10  -8  12  114.79   34.40
  10   8  12   73.49   31.20
 -10   8 -12   47.80   36.80
  11  -9 -12   -1.60   27.00
  11  -9 -12   -2.20   25.80
  11   9 -12  -22.20   27.90
  11   9 -12   10.60   28.30
   9  -9 -12  152.38   30.40
   9  -9 -12  120.59   30.70
   9  -9 -12  146.39   34.20
  -9  -9  12  184.08   40.50
  -9   9  12  209.98   39.70
   9   9 -12  138.49   34.20
   9   9 -12   89.19   26.90
   7  -9 -12   38.50   21.60
   7  -9 -12   34.20   23.50
   7  -9 -12   66.49   23.20
  -7  -9  12   84.59   27.10
   7  -9 -12   49.70   25.70
   7   9 -12   98.29   27.70
   5  -9 -12    7.30   17.20
   5  -9 -12    7.40   17.70
   5   9 -12   40.00   21.40
   3  -9 -12   67.89   20.90
   3  -9 -12   59.49   20.80
   3   9 -12   73.39   21.20
   1  -9 -12   29.40   16.80
   1  -9 -12  -10.20   14.70
   1   9 -12    6.40   12.60
  -1  -9 -12   71.59   19.00
  -1  -9 -12   11.50   15.20
  -1  -9 -12   27.40   16.60
   1   9  12   37.70   12.50
  -3  -9 -12   21.00   16.40
  -3  -9 -12    0.70   14.30
  -3  -9 -12    7.80   20.70
  -3   9 -12  -21.10   16.90
   3   9  12   14.00   14.30
  -5  -9 -12   74.19   25.30
  -5  -9 -12  107.39   23.30
   5  -9  12   48.80   21.50
  -5  -9 -12   56.99   28.30
   5   9  12   36.80   18.90
   5   9  12   70.49   23.70
  -5   9 -12   41.10   26.30
  -7  -9 -12   40.90   22.70
  -7  -9 -12   28.70   30.00
   7  -9  12   58.79   24.40
  -7  -9 -12   73.79   32.60
  -7   9 -12   62.79   33.00
   7   9  12   41.60   23.40
  -9  -9 -12  -15.70   33.40
   9  -9  12   13.40   27.50
  -9  -9 -12   28.30   43.00
  -9   9 -12  101.59   35.70
   9   9  12    2.60   24.30
  11  -9  12   25.40   33.80
 -11  -9 -12   -6.10   38.40
 -11   9 -12  -19.50   35.00
  11   9  12  -10.70   31.20
  12 -10 -12  -40.90   27.50
  12 -10 -12  -22.70   28.20
  12  10 -12   19.30   33.00
 -10 -10  12   23.30   38.00
  10 -10 -12   22.90   27.10
  10 -10 -12   40.70   27.00
  10  10 -12    7.60   24.20
  10  10 -12   -4.50   23.80
   8 -10 -12   15.80   22.50
   8 -10 -12   63.39   23.60
   8 -10 -12  -12.00   20.80
  -8 -10  12   86.89   31.40
   8 -10 -12   32.50   27.60
   8  10 -12   22.10   23.60
  -8  10  12   -1.40   27.90
  -6 -10  12  295.37   36.60
   6 -10 -12  242.98   35.90
   6 -10 -12  236.08   36.90
   6  10 -12  235.08   37.70
   4 -10 -12  269.37   37.00
   4 -10 -12  281.37   38.30
   4  10 -12  254.17   35.80
   2 -10 -12    0.80   16.00
   2 -10 -12   -4.10   14.60
   2  10 -12   10.20   15.50
   0 -10 -12   46.80   19.00
   0 -10 -12   34.90   18.30
   0  10 -12   41.30   15.50
   0  10  12   21.40   12.00
  -2 -10 -12  587.34   48.60
  -2 -10 -12  532.85   51.29
  -2 -10 -12  453.05   48.90
   2  10  12  553.64   44.80
  -2  10 -12  553.04   47.90
  -4 -10 -12   -5.10   22.20
  -4 -10 -12    8.70   17.90
   4 -10  12   14.20   18.90
  -4 -10 -12   23.40   18.50
   4  10  12   23.00   22.10
  -4  10 -12   39.50   22.30
   4  10  12  -12.60   15.40
  -6 -10 -12   50.29   21.60
   6 -10  12   28.20   21.80
  -6 -10 -12   48.10   27.30
  -6 -10 -12   67.29   30.70
   6  10  12   41.40   22.10
   6  10  12   81.79   24.90
  -6  10 -12   91.69   31.50
  -8 -10 -12  -20.30   24.20
  -8 -10 -12   15.10   33.60
   8 -10  12   -9.10   24.60
  -8 -10 -12  -19.40   30.00
   8  10  12  -28.30   22.30
  -8  10 -12  -23.80   29.20
 -10 -10 -12   31.20   49.60
  10 -10  12   11.70   31.10
 -10 -10 -12   41.50   37.80
  10  10  12   16.60   30.90
 -10  10 -12   38.60   38.20
  11 -11 -12   62.49   31.20
  11 -11 -12   24.00   29.50
  11  11 -12   29.60   30.60
   9 -11 -12  133.99   31.30
  -9 -11  12  198.38   40.90
   9 -11 -12  184.58   51.89
  -9  11  12  170.08   42.10
   9  11 -12  167.78   30.40
   9  11 -12   75.19   31.90
   7 -11 -12   68.39   27.20
   7 -11 -12   72.09   26.30
   7 -11 -12   44.10   22.40
  -7 -11  12   57.49   29.30
   7  11 -12   93.39   28.50
   5 -11 -12   38.60   23.40
   5 -11 -12  -23.30   17.00
   5  11 -12   36.40   23.00
   3 -11 -12   -1.70   17.20
   3 -11 -12   -7.60   17.60
   3  11 -12   -5.40   16.90
   1 -11 -12   16.80   17.10
   1 -11 -12   15.50   16.50
   1  11 -12   36.40   15.70
  -1 -11 -12    8.00   17.30
  -1 -11 -12   24.60   17.70
  -1 -11 -12   10.00   17.10
   1  11  12   15.50   13.20
   3 -11  12    5.70   17.30
  -3 -11 -12   47.00   23.20
  -3 -11 -12    4.10   18.30
  -3 -11 -12   18.30   16.70
  -3  11 -12   28.40   22.20
   3  11  12  -19.50   14.00
   5 -11  12   49.20   22.30
  -5 -11 -12  107.99   31.70
  -5 -11 -12    2.10   21.50
  -5 -11 -12   18.10   17.20
   5  11  12   27.30   18.80
   5  11  12   33.70   24.40
  -5  11 -12   45.20   26.50
  -7 -11 -12  -31.70   27.30
  -7 -11 -12    6.90   30.50
   7 -11  12   39.80   25.10
  -7 -11 -12   31.10   21.60
   7  11  12   27.70   24.50
  -7  11 -12   56.39   32.30
   7  11  12  -12.00   35.30
   9 -11  12   20.60   28.70
  -9 -11 -12  -54.79   41.20
  -9 -11 -12    4.40   33.60
  -9  11 -12   82.19   38.00
   9  11  12    0.10   25.40
  12 -12 -12   34.20   33.90
  12  12 -12  -66.39   31.40
  10 -12 -12  105.89   31.80
 -10 -12  12  154.48   43.90
  10  12 -12   39.00   36.10
  10  12 -12   86.79   33.50
  -8 -12  12   -5.40   29.60
   8 -12 -12   -3.50   22.00
   8 -12 -12   30.70   26.80
   8 -12 -12   38.60   29.00
   8  12 -12   20.00   25.30
  -8  12  12   79.79   33.30
   6 -12 -12   34.80   21.00
  -6 -12  12   74.89   26.50
   6 -12 -12   37.10   25.90
   6 -12 -12   19.70   23.10
   6  12 -12    8.30   21.40
   4 -12 -12   96.69   25.20
   4 -12 -12   98.89   26.60
  -4 -12  12  103.79   24.10
   4  12 -12  114.69   26.90
   2 -12 -12    4.80   16.40
   2 -12 -12   17.60   19.70
   2  12 -12   35.10   17.50
   0 -12 -12 1020.20   85.49
   0 -12 -12 1051.69   80.09
   0 -12 -12 1001.00   83.59
   0  12 -12 1068.79   79.69
   0  12  12 1075.49   78.49
  -2 -12 -12  361.06   43.60
  -2 -12 -12  380.56   41.90
   2 -12  12  328.57   37.40
  -2 -12 -12  445.56   42.00
   2  12  12  351.66   35.60
   4 -12  12   40.90   21.70
  -4 -12 -12   -9.70   17.60
  -4 -12 -12    4.50   25.10
  -4 -12 -12   12.50   17.00
  -4  12 -12    6.60   24.80
   4  12  12   42.90   24.80
   4  12  12  -10.20   16.90
  -6 -12 -12   61.99   28.30
   6 -12  12   23.40   24.70
  -6 -12 -12   -7.50   28.50
  -6 -12 -12   27.80   20.30
   6  12  12   -7.60   23.40
   6  12  12   38.40   22.20
  -6  12 -12   38.10   29.20
  -8 -12 -12   10.60   31.70
  -8 -12 -12   17.20   37.60
  -8 -12 -12    4.20   23.00
   8 -12  12  -16.70   26.00
   8  12  12  -27.70   23.90
  -8  12 -12   30.40   31.90
  10 -12  12   23.80   34.00
 -10 -12 -12   35.20   40.00
 -10 -12 -12  -18.50   48.00
 -10  12 -12   61.99   39.10
  10  12  12   38.50   31.50
  11 -13 -12    9.50   29.00
  11  13 -12  -49.10   28.70
  -9 -13  12   70.19   35.50
   9 -13 -12    1.50   25.10
   9  13 -12   -0.60   26.10
   9  13 -12   45.70   29.30
  -9  13  12   61.39   37.20
   7 -13 -12   64.39   26.00
  -7 -13  12   75.49   30.10
   7 -13 -12   95.09   25.60
   7 -13 -12   50.89   28.90
   7  13 -12   44.50   26.20
   5 -13 -12   -4.60   20.70
   5 -13 -12   12.60   23.40
  -5 -13  12   -2.10   22.20
   5 -13 -12  -18.90   16.50
   5  13 -12  -35.60   19.00
   3 -13 -12   27.90   20.10
   3 -13 -12   47.30   22.50
   3  13 -12   16.90   18.50
   1 -13 -12   74.79   23.60
   1 -13 -12   22.10   19.60
   1  13 -12   78.59   20.60
  -1 -13 -12   11.90   16.50
   1 -13  12   30.10   16.50
  -1 -13 -12   13.50   19.90
  -1 -13 -12   18.20   16.80
  -1  13 -12   28.80   14.90
   1  13  12    9.90   13.80
  -3 -13 -12   11.20   17.10
   3 -13  12   17.70   18.80
  -3 -13 -12   29.60   25.20
  -3 -13 -12    7.40   19.00
   3  13  12   13.80   16.30
  -3  13 -12  -16.90   20.70
  -5 -13 -12   15.20   27.50
   5 -13  12   18.30   22.40
  -5 -13 -12   18.40   23.50
  -5 -13 -12    0.40   17.50
  -5  13 -12   13.20   24.90
   5  13  12   46.60   27.00
   5  13  12    1.90   19.00
  -7 -13 -12   18.80   21.50
  -7 -13 -12   -9.70   28.50
  -7 -13 -12   78.89   34.10
   7 -13  12   10.60   25.80
   7  13  12   36.00   22.90
  -7  13 -12  -31.20   28.30
   7  13  12   38.20   29.30
  -9 -13 -12  -16.00   35.00
   9 -13  12   19.40   30.40
  -9 -13 -12  -30.40   40.30
   9  13  12  -24.40   25.30
  -9  13 -12    1.30   37.40
  10 -14 -12   13.70   27.30
 -10 -14  12  -29.20   38.10
  10  14 -12   46.70   31.80
   8 -14 -12  -38.40   23.30
   8 -14 -12  -11.00   28.00
  -8 -14  12   57.29   34.60
   8 -14 -12   -2.40   24.90
   8  14 -12   56.79   29.30
   6 -14 -12  302.77   45.20
   6 -14 -12  276.77   36.60
   6 -14 -12  363.96   46.50
  -6 -14  12  309.37   42.90
   6  14 -12  280.97   45.00
   4 -14 -12  137.29   32.00
   4 -14 -12  136.59   30.90
   4 -14 -12  173.38   26.30
   4  14 -12  160.28   32.70
   2 -14 -12    8.50   17.40
   2 -14 -12    0.30   18.10
   2  14 -12   14.20   18.90
   0 -14 -12   -2.10   18.40
   0 -14 -12   96.09   24.10
   0 -14 -12   59.19   21.60
   0  14 -12   74.99   19.20
  -2 -14 -12  247.98   35.30
  -2 -14 -12  147.29   29.00
  -2 -14 -12  103.59   28.30
   2 -14  12  270.07   30.20
  -2  14 -12  168.58   23.30
   2  14  12  217.88   27.60
  -4 -14 -12   11.10   27.80
  -4 -14 -12   19.50   18.30
  -4 -14 -12    1.10   20.60
   4 -14  12   63.49   23.30
   4  14  12  -10.50   25.70
   4  14  12   -7.70   18.40
  -4  14 -12   29.30   24.30
  -6 -14 -12   54.39   28.90
  -6 -14 -12   82.69   33.20
  -6 -14 -12   19.90   19.70
   6 -14  12   30.20   27.40
  -6  14 -12   17.50   29.70
   6  14  12  137.59   31.30
   6  14  12   10.90   22.50
  -8 -14 -12   10.30   35.70
   8 -14  12  -35.90   25.40
  -8 -14 -12  -32.90   33.00
  -8 -14 -12   -3.50   20.90
  -8  14 -12  -13.70   31.20
   8  14  12   32.50   26.40
  10 -14  12  -11.70   31.50
 -10 -14 -12   36.30   51.99
 -10 -14 -12   47.90   42.00
 -10  14 -12  -20.30   38.00
  10  14  12   68.59   35.00
  11 -15 -12   38.00   32.00
  11  15 -12  -10.80   33.10
   9 -15 -12   23.70   27.40
  -9 -15  12   16.50   35.00
   9  15 -12   43.50   32.40
  -7 -15  12  200.68   39.20
   7 -15 -12  135.69   29.30
   7 -15 -12  191.88   41.10
   7 -15 -12  154.48   33.40
   7  15 -12  146.79   36.00
   5 -15 -12  -14.80   24.40
   5 -15 -12   12.90   23.20
  -5 -15  12  -14.90   24.70
   5 -15 -12   -9.30   19.90
   5  15 -12   13.80   25.00
   3 -15 -12    4.10   20.10
   3 -15 -12   -2.00   18.60
   3 -15 -12    3.50   17.50
   3  15 -12   -3.30   19.70
   1 -15 -12   91.79   25.10
   1 -15 -12  116.89   29.80
   1  15 -12  110.49   25.20
  -1 -15 -12    4.70   18.10
  -1 -15 -12   -3.30   17.20
  -1 -15 -12   53.09   25.50
   1 -15  12   60.29   19.10
   1  15  12   44.60   18.20
  -1  15 -12   27.30   15.80
  -3 -15 -12   -5.90   18.90
  -3 -15 -12   70.69   28.80
  -3 -15 -12   10.60   20.50
   3 -15  12   36.10   22.30
   3  15  12   28.10   19.00
  -5 -15 -12   27.20   24.10
  -5 -15 -12   45.00   31.60
  -5 -15 -12    3.90   21.20
   5 -15  12   66.69   26.80
   5  15  12   41.30   21.70
  -5  15 -12   64.19   29.10
   5  15  12   43.90   28.40
  -7 -15 -12   -8.50   19.00
   7 -15  12   29.50   29.50
  -7 -15 -12   10.70   30.90
  -7 -15 -12   23.90   33.80
   7  15  12   40.50   30.60
  -7  15 -12   31.20   32.90
   7  15  12   25.40   24.70
  -9 -15 -12  -39.90   43.80
   9 -15  12   -5.70   31.90
  -9 -15 -12  -44.90   36.50
   9  15  12   12.10   28.30
  -9  15 -12   46.70   36.10
 -10 -16  12   26.10   41.70
  10 -16 -12   42.70   30.00
  10  16 -12    7.30   30.60
   8 -16 -12  -12.40   24.10
  -8 -16  12   16.60   33.80
   8 -16 -12    9.80   31.50
   8 -16 -12   52.89   28.80
   8  16 -12   -1.70   27.10
   6 -16 -12    8.10   21.40
  -6 -16  12   19.20   28.40
   6 -16 -12   -8.70   24.70
   6 -16 -12  -12.60   28.30
   6  16 -12   22.00   26.10
   4 -16 -12  122.29   31.10
   4 -16 -12  100.59   31.20
   4 -16 -12   90.59   24.30
   4  16 -12  169.88   34.00
   2 -16 -12   51.59   24.00
   2 -16 -12    8.50   19.70
   2 -16 -12   21.50   16.80
   2  16 -12    1.60   20.00
   0 -16 -12  104.69   29.40
   0 -16 -12  134.99   31.00
   0 -16  12  219.08   27.80
   0 -16 -12  182.68   32.80
   0  16 -12  182.68   28.40
   2 -16  12   51.39   22.00
  -2 -16 -12   59.69   27.10
  -2 -16 -12   71.69   24.60
  -2  16 -12   67.19   19.70
   2  16  12   72.39   20.70
   4 -16  12   13.90   23.60
  -4 -16 -12   11.70   29.30
  -4 -16 -12  -20.70   19.00
  -4 -16 -12   -8.80   19.40
  -4 -16 -12   10.80   16.00
  -4  16 -12   12.90   26.60
   4  16  12   25.60   29.10
   4  16  12   -8.60   18.90
   6 -16  12   30.90   27.90
  -6 -16 -12   13.50   29.70
  -6 -16 -12   31.40   20.70
  -6 -16 -12    7.90   20.30
  -6 -16 -12   -0.20   27.80
  -6  16 -12   40.80   29.50
   6  16  12   15.10   30.40
   6  16  12    8.40   21.90
  -8 -16 -12    7.80   36.70
  -8 -16 -12  -32.00   33.00
   8 -16  12    1.80   31.50
  -8 -16 -12    8.80   22.90
  -8  16 -12  -16.70   29.80
   8  16  12   12.40   26.90
  -9 -17  12  171.88   47.00
   9 -17 -12   74.39   31.40
   9  17 -12  142.29   39.00
   7 -17 -12   -3.30   23.80
   7 -17 -12   13.30   33.50
  -7 -17  12   55.19   31.70
   7 -17 -12   27.10   23.00
   7  17 -12   15.40   28.60
   5 -17 -12   -6.10   19.60
  -5 -17  12  -14.20   26.80
   5 -17 -12  -22.00   26.20
   5 -17 -12   16.50   23.40
   5  17 -12   11.10   24.00
   3 -17 -12  209.68   36.30
   3 -17 -12  208.98   37.70
   3 -17 -12  234.18   33.10
   3  17 -12  227.18   36.40
   1 -17 -12    9.10   15.60
   1 -17 -12   14.90   22.10
   1 -17 -12    9.80   20.30
   1  17 -12  -19.30   17.50
  -1 -17 -12   -5.50   17.30
  -1 -17 -12  -28.70   12.90
   1 -17  12   12.10   18.20
  -1 -17 -12  -15.40   22.50
  -1  17 -12  -10.60   15.20
   3 -17  12   33.30   22.20
  -3 -17 -12   12.00   16.40
  -3 -17 -12   -0.10   20.50
  -3 -17 -12   -2.20   25.20
   3  17  12   21.40   17.70
  -5 -17 -12   28.40   26.30
  -5 -17 -12    7.20   31.50
   5 -17  12  -13.50   25.80
  -5 -17 -12  -25.60   19.00
  -5 -17 -12    8.00   19.70
   5  17  12   25.90   29.90
   5  17  12    1.20   20.60
  -5  17 -12   -2.60   26.40
  -7 -17 -12   -2.40   22.10
   7 -17  12  -14.90   30.10
  -7 -17 -12   35.90   35.30
  -7 -17 -12   26.80   33.80
   7  17  12    6.80   32.10
   7  17  12   25.50   26.80
  -7  17 -12  -11.90   28.90
  -9 -17 -12   -2.00   39.10
  -9 -17 -12  -39.90   40.40
   9 -17  12    7.80   34.70
  -9  17 -12  -18.90   33.80
   9  17  12  -42.30   28.70
  10 -18 -12   44.30   32.60
 -10 -18  12   -5.90   47.30
  10  18 -12   -9.90   31.50
  -8 -18  12  -31.60   35.70
   8 -18 -12   38.10   29.70
   8 -18 -12   67.99   39.10
   8 -18 -12   20.40   25.60
   8  18 -12   74.19   36.60
   6 -18 -12   35.10   23.20
   6 -18 -12   60.69   29.50
  -6 -18  12   60.19   32.70
   6 -18 -12  -10.50   33.20
   6  18 -12   38.00   27.50
   4 -18 -12  155.68   35.70
   4 -18 -12   97.49   32.10
   4 -18 -12  148.79   28.00
   4  18 -12  168.28   34.90
   2 -18 -12  -17.10   18.70
   2 -18 -12   29.90   24.10
   2 -18 -12   11.60   17.00
   2  18 -12   24.80   23.10
   0 -18  12   58.79   22.20
   0 -18 -12   64.29   24.50
   0 -18 -12  106.19   21.50
   0 -18 -12  100.59   28.50
   0  18 -12   81.09   24.50
  -2 -18 -12   39.90   17.40
  -2 -18 -12    8.20   21.40
  -2 -18 -12   25.00   27.20
   2 -18  12   16.20   20.90
   2  18  12   27.20   19.40
  -2  18 -12   -7.80   20.00
  -4 -18 -12    9.30   30.60
   4 -18  12   57.69   26.10
  -4 -18 -12   -0.40   23.80
  -4 -18 -12  -15.70   16.20
   4  18  12   10.30   21.30
   4  18  12  -11.40   30.20
  -6 -18 -12   34.70   35.10
  -6 -18 -12   -3.40   29.80
  -6 -18 -12   11.60   22.40
  -6 -18 -12   30.40   22.40
   6 -18  12   38.70   30.40
   6  18  12   15.80   26.00
   6  18  12   -5.40   31.90
  -6  18 -12   75.39   34.20
   8 -18  12   23.50   33.20
  -8 -18 -12    0.20   37.10
  -8 -18 -12    1.50   20.70
  -8 -18 -12    5.60   35.60
  -8  18 -12   18.30   36.60
   8  18  12  -40.00   26.60
   9 -19 -12   34.10   39.20
  -9 -19  12   23.60   40.30
   9 -19 -12    8.60   27.40
   9  19 -12   29.70   34.90
   7 -19 -12   15.80   27.30
   7 -19 -12   46.70   27.00
  -7 -19  12  -29.80   31.40
   7 -19 -12   68.49   38.20
   7  19 -12   55.19   30.70
   5 -19 -12   25.10   23.30
  -5 -19  12   66.59   34.20
   5 -19 -12   21.70   30.50
   5 -19 -12    8.60   23.30
   5  19 -12   11.80   26.40
   3 -19 -12   83.09   22.70
   3 -19 -12   96.99   30.50
   3 -19 -12   44.60   26.80
   3  19 -12  109.79   30.70
   1 -19 -12  -14.40   19.50
  -1 -19  12   -5.90   18.00
   1 -19 -12   18.30   16.60
   1  19 -12    9.40   19.00
  -1 -19 -12   30.90   22.60
  -1 -19 -12    5.30   15.60
  -1 -19 -12   14.40   25.20
   1 -19  12   19.20   21.30
  -1  19 -12    4.30   18.70
  -3 -19 -12   69.79   32.40
  -3 -19 -12    5.80   18.00
   3 -19  12   45.60   25.10
  -3 -19 -12   38.10   24.40
   3  19  12  -13.60   30.60
   3  19  12   -2.20   20.30
  -5 -19 -12   24.00   27.90
   5 -19  12   39.00   30.20
  -5 -19 -12   26.70   22.10
  -5 -19 -12    2.40   34.30
   5  19  12    7.00   32.10
   5  19  12   18.20   25.20
  -7 -19 -12  -14.40   35.00
  -7 -19 -12  -52.19   32.90
  -7 -19 -12   -1.20   22.60
   7 -19  12  -13.10   30.80
  -7  19 -12  -21.40   32.40
   7  19  12    4.80   32.70
   7  19  12   38.00   29.00
   8 -20 -12   20.60   38.90
   8 -20 -12   -3.00   25.60
  -8 -20  12   11.40   39.50
   8 -20 -12   -8.10   27.60
   8  20 -12  -32.00   31.10
  -6 -20  12  160.88   40.10
   6 -20 -12   71.19   31.20
   6 -20 -12    6.80   24.00
   6 -20 -12   33.50   36.80
   6  20 -12   41.90   30.90
   4 -20 -12  230.28   35.00
   4 -20 -12  209.88   43.80
   4 -20 -12  260.47   43.90
   4  20 -12  244.98   41.40
   2 -20 -12    8.80   18.30
   2 -20 -12   14.50   22.70
   2  20 -12   37.10   23.90
   0 -20 -12   -9.30   15.30
   0 -20  12  -31.70   18.90
   0 -20 -12   -4.60   20.30
   0  20 -12    2.90   19.90
   2 -20  12   -1.50   21.80
  -2 -20 -12   19.60   27.80
  -2 -20 -12   20.60   18.60
  -2 -20 -12   15.70   21.60
   2  20  12    9.30   19.60
  -4 -20 -12    7.30   25.60
   4 -20  12   17.70   26.00
  -4 -20 -12   55.69   32.00
  -4 -20 -12  -21.00   18.10
   4  20  12  -13.70   21.20
   4  20  12    3.10   35.40
  -6 -20 -12   27.20   35.40
   6 -20  12   33.10   32.00
  -6 -20 -12   46.00   29.40
  -6 -20 -12   16.60   35.80
   6  20  12    6.90   27.80
   6  20  12  -41.70   33.60
  -8 -20 -12   26.80   43.00
  -8 -20 -12  -27.90   37.30
   8 -20  12  -25.10   35.10
  -8 -20 -12   -5.40   24.40
   8  20  12    2.50   29.50
  -8  20 -12  -54.19   31.90
  -9 -21  12   30.20   42.30
   9 -21 -12   16.70   28.10
   9  21 -12   46.30   36.50
  -7 -21  12   41.10   36.40
   7 -21 -12   53.19   28.30
   7 -21 -12   52.49   31.00
   7 -21 -12   45.20   40.80
   7  21 -12   26.60   34.30
   5 -21 -12    4.60   23.50
   5 -21 -12  110.49   38.70
   5 -21 -12   15.30   27.70
  -5 -21  12   73.19   38.70
   5  21 -12    5.10   28.80
   3 -21 -12    9.60   24.20
   3 -21 -12   -3.30   19.40
   3  21 -12   -2.60   25.00
  -1 -21  12  -31.20   18.90
   1 -21 -12   14.60   18.20
   1 -21 -12  -12.10   20.90
   1  21 -12  -11.90   21.70
   1 -21  12   67.29   25.30
  -1 -21 -12   66.89   31.60
  -1 -21 -12    7.90   19.10
  -1 -21 -12   30.50   24.40
  -1  21 -12   84.09   24.80
   3 -21  12   22.30   24.80
  -3 -21 -12   -4.80   21.70
  -3 -21 -12   -1.80   19.40
  -3 -21 -12  -12.60   30.50
   3  21  12    0.70   34.40
   3  21  12   19.60   22.70
  -5 -21 -12  -27.70   34.40
  -5 -21 -12   25.60   23.60
  -5 -21 -12   -0.80   30.00
   5 -21  12   35.00   30.30
   5  21  12  -29.50   34.40
   5  21  12   -4.30   24.30
  -7 -21 -12  -31.50   36.70
  -7 -21 -12   18.30   40.00
   7 -21  12  -57.99   30.80
   7  21  12  -21.40   27.50
  -7  21 -12   -9.70   32.80
   7  21  12  -12.50   36.20
  -8 -22  12   -1.90   42.20
   8 -22 -12  -33.60   27.10
   8  22 -12   -2.90   33.10
   6 -22 -12   63.19   40.90
   6 -22 -12   43.10   31.60
  -6 -22  12   53.69   38.10
   6 -22 -12   23.00   26.40
   6  22 -12  129.19   39.40
   4 -22 -12   26.00   26.50
   4 -22 -12   26.60   29.60
   4 -22 -12   14.90   23.00
   4  22 -12  -35.50   23.50
   2 -22 -12   38.80   25.10
   2 -22 -12    3.30   19.70
   2  22 -12   31.50   26.30
   0 -22  12   46.30   24.60
   0 -22 -12   74.59   27.90
   0 -22 -12   61.59   22.40
   0  22 -12   69.89   26.60
  -2 -22 -12   35.70   22.00
  -2 -22 -12   92.99   33.90
   2 -22  12   26.70   24.40
  -2 -22 -12   19.80   25.30
   4 -22  12   28.90   27.80
  -4 -22 -12   50.59   29.80
  -4 -22 -12  -16.20   20.00
  -4 -22 -12   55.49   34.60
   4  22  12    7.70   22.80
   4  22  12   -9.70   39.00
   6 -22  12  -31.80   30.00
  -6 -22 -12   -8.40   38.00
  -6 -22 -12  -20.00   34.60
   6  22  12   27.40   28.30
   6  22  12    3.50   40.20
   7 -23 -12  -12.30   26.60
   7 -23 -12   31.50   29.80
  -7 -23  12   25.10   42.60
   7 -23 -12   45.30   44.70
   7  23 -12   70.69   36.20
   5 -23 -12   52.49   38.20
   5 -23 -12   23.80   24.60
   5 -23 -12   16.80   26.90
  -5 -23  12   51.69   41.70
   5  23 -12    2.80   29.90
   3 -23 -12   95.69   24.90
   3 -23 -12   79.59   32.10
   3  23 -12   99.69   34.70
  -1 -23  12   33.60   25.70
   1 -23 -12    4.90   19.80
   1 -23 -12   18.90   23.60
   1  23 -12  -12.90   22.90
  -1 -23 -12   51.49   32.40
   1 -23  12  -20.90   23.00
  -1 -23 -12   58.99   22.80
  -1 -23 -12   11.40   23.10
  -1  23 -12   19.90   26.90
   3 -23  12   18.30   26.20
  -3 -23 -12    5.10   32.30
  -3 -23 -12   22.10   24.70
  -3 -23 -12    1.00   19.90
   3  23  12  -12.70   32.90
  -5 -23 -12    5.00   33.60
  -5 -23 -12  -18.40   24.60
   5 -23  12   12.40   31.60
  -5 -23 -12   80.69   45.80
   5  23  12    1.00   26.00
   5  23  12   41.50   41.00
   6 -24 -12   35.50   31.10
   6 -24 -12   38.00   41.50
   6 -24 -12    8.40   28.20
  -6 -24  12  -10.00   40.20
   6  24 -12    4.20   33.30
   4 -24 -12   51.19   31.50
   4 -24 -12   40.90   23.50
   4  24 -12   40.90   32.00
  -2 -24  12   15.10   26.10
   2 -24 -12   29.00   26.60
   2 -24 -12    5.50   20.80
   2  24 -12   -3.00   26.40
   0 -24 -12   16.70   23.60
   0 -24  12   38.60   26.80
   0 -24 -12   68.89   24.20
   0  24 -12   40.80   28.30
  -2 -24 -12    0.40   24.40
  -2 -24 -12   12.70   20.90
   2 -24  12   -4.70   27.10
  -2 -24 -12  -52.79   31.10
   4 -24  12    8.60   30.10
  -4 -24 -12   23.30   30.80
  -4 -24 -12  -16.30   21.70
  -4 -24 -12    4.50   32.50
   4  24  12  -35.90   39.00
   4  24  12  -27.70   23.40
  -6 -24 -12  -28.30   41.70
   6 -24  12   17.40   34.60
  -6 -24 -12   10.50   39.50
   6  24  12   13.60   30.30
   5 -25 -12  -11.40   27.20
  -5 -25  12   19.80   43.10
   5 -25 -12  -37.10   38.80
   5 -25 -12  -22.70   24.20
   5  25 -12  -17.80   30.10
   3 -25 -12    4.00   27.50
   3 -25 -12    5.30   21.40
   3  25 -12  -23.80   27.00
   1 -25 -12   -6.10   23.60
   1 -25 -12  -11.70   21.00
  -1 -25  12   -2.70   26.00
   1  25 -12   24.00   29.20
  -1 -25 -12   17.50   21.50
  -1 -25 -12    0.50   32.80
  -1 -25 -12  -17.90   21.40
   1 -25  12   30.00   28.80
  -3 -25 -12  -15.10   26.20
   3 -25  12   22.20   30.30
  -3 -25 -12   19.40   23.30
  -3 -25 -12    3.00   33.80
   3  25  12    7.40   37.90
  -5 -25 -12   -0.40   41.90
   5 -25  12   26.50   33.50
  -5 -25 -12    0.80   38.10
   5  25  12    4.90   27.40
   5  25  12  -31.30   42.30
   6 -26 -12   -1.00   29.20
   6 -26 -12   36.40   34.30
  -6 -26  12  -36.20   42.30
   6 -26 -12  -25.60   42.20
   4 -26 -12    5.00   27.60
   4 -26 -12    7.40   25.00
   4  26 -12   13.20   31.00
   2 -26 -12   -6.00   21.00
  -2 -26  12  -53.29   25.70
   2 -26 -12   55.99   30.10
   2  26 -12  -29.00   27.30
   0 -26  12   42.20   29.40
   0 -26 -12   39.10   27.60
   0 -26 -12    2.50   22.60
   0  26 -12   26.30   30.30
  -2 -26 -12  -11.60   28.60
   2 -26  12   33.80   30.10
  -2 -26 -12   -3.50   36.10
  -2 -26 -12   38.30   26.00
   2  26  12   50.99   39.70
   4 -26  12   23.50   32.10
  -4 -26 -12   -9.60   36.80
  -4 -26 -12   17.00   32.40
   4  26  12  -36.80   42.50
   5 -27 -12  -27.50   25.50
  -5 -27  12   18.90   48.60
   5 -27 -12  -11.10   28.80
   3 -27 -12   25.50   25.50
  -3 -27  12  -14.20   28.70
   3 -27 -12   20.80   31.40
   3  27 -12   23.50   32.40
   1 -27 -12  -15.20   24.50
  -1 -27  12   10.20   29.40
   1 -27 -12    1.70   25.30
   1  27 -12   19.50   31.10
  -1 -27 -12   10.50   25.10
  -1 -27 -12   10.20   36.30
   1 -27  12   68.49   33.20
  -1 -27 -12    8.00   29.00
   3 -27  12   23.40   30.70
  -3 -27 -12  -10.70   28.90
  -3 -27 -12  -37.30   24.70
  -3 -27 -12  -29.30   36.00
   3  27  12  -29.40   39.30
  -2 -28  12   11.90   31.40
   2 -28 -12  -26.60   21.90
   2 -28 -12    9.60   27.40
   2  28 -12    7.70   31.80
   0 -28 -12   88.49   30.30
   0 -28  12   87.29   35.00
   0 -28 -12   75.69   32.50
  -2 -28 -12   43.00   43.50
  12   0 -13   12.40   26.80
  10   0 -13  121.79   29.60
  10   0 -13  117.59   31.90
   8   0 -13  197.68   34.00
   6   0 -13    4.40   19.90
   6   0 -13   -4.20   16.40
   6   0 -13   -8.70   10.00
   4   0 -13  182.38   29.70
   4   0 -13  222.18   25.80
   4   0 -13  190.18   27.80
   2   0 -13   46.70   14.50
   2   0 -13   67.59   18.50
   2   0 -13   24.20   13.50
   0   0 -13   35.70   16.10
   0   0 -13   21.90   14.10
  -2   0 -13   11.10   15.50
  -2   0 -13   16.90   12.60
  -4   0 -13   73.79   23.10
  -4   0 -13  113.49   30.80
  -4   0 -13   88.89   25.90
  -6   0 -13    5.60   25.50
  -6   0 -13   17.10   21.80
  -6   0 -13   50.89   21.10
   6   0  13    1.70   16.90
  -8   0 -13   -7.00   32.30
  -8   0 -13   -3.50   28.40
   8   0  13   11.80   22.60
  10   0  13  -17.80   25.60
 -10   0 -13   15.90   36.30
  11  -1 -13   22.40   27.30
  11  -1 -13  -27.10   24.40
  11   1 -13  -13.10   26.20
  11   1 -13   55.49   27.90
   9  -1 -13   78.69   26.80
   9   1 -13   71.39   27.70
   7  -1 -13   15.80   17.80
   7  -1 -13  -21.80   21.50
   7   1 -13   24.10   22.60
   7   1 -13   21.50   20.50
   5  -1 -13  654.63   55.49
   5  -1 -13  608.74   56.19
   5  -1 -13  645.74   51.39
   5   1 -13  650.83   50.29
   5   1 -13  657.23   57.49
   5   1 -13  625.94   55.59
   3  -1 -13  247.08   33.60
   3  -1 -13  301.77   30.40
   3  -1 -13  330.67   34.10
   3   1 -13  286.07   31.70
   3   1 -13  276.67   36.00
   3   1 -13  292.17   31.00
   1  -1 -13  270.97   27.10
   1  -1 -13  235.48   31.60
   1  -1 -13  284.57   33.20
   1   1 -13  236.28   25.70
   1   1 -13  287.77   31.80
   1   1 -13  228.38   32.00
  -1  -1 -13   57.89   16.50
  -1  -1 -13   56.99   19.20
  -1   1 -13   54.99   18.50
  -1   1 -13   58.69   18.30
  -3  -1 -13   11.40   12.90
  -3  -1 -13   22.00   16.90
  -3  -1 -13    9.10   18.00
  -3   1 -13   66.39   20.70
  -3   1 -13  -10.50   15.10
  -3   1 -13   24.90   22.30
  -5  -1 -13   38.30   17.50
  -5  -1 -13   32.40   24.30
   5  -1  13   32.90   16.90
  -5  -1 -13   30.40   22.20
  -5   1 -13   -3.80   33.00
  -5   1 -13   60.19   21.80
   5   1  13   19.10   15.70
  -5   1 -13   33.90   25.20
  -7  -1 -13   17.90   19.80
   7  -1  13   21.50   20.50
  -7  -1 -13   14.30   28.80
  -7  -1 -13   37.10   27.40
  -7   1 -13   36.50   27.30
  -7   1 -13    4.40   18.30
   7   1  13   25.50   21.50
  -7   1 -13    2.80   27.90
   9  -1  13    0.50   23.90
  -9  -1 -13   51.69   34.70
  -9  -1 -13   -4.20   33.10
   9   1  13   17.90   23.70
  -9   1 -13   28.40   33.70
 -11  -1 -13   15.90   38.30
  11  -1  13   21.90   31.70
 -11   1 -13  -43.70   33.80
  11   1  13  -18.80   28.70
  12  -2 -13  -15.50   26.10
  12   2 -13   -2.50   27.60
  10  -2 -13   23.60   24.30
  10  -2 -13   66.29   27.90
  10   2 -13   54.49   27.80
  10   2 -13    2.10   23.70
   8  -2 -13   67.49   24.80
   8  -2 -13   86.09   28.90
   8   2 -13  164.98   32.40
   6  -2 -13   -7.90   16.40
   6  -2 -13   12.10   12.70
   6  -2 -13   36.40   21.20
   6   2 -13   16.10   19.70
   6   2 -13   15.80   10.50
   6   2 -13  -12.40   17.20
   4  -2 -13   66.99   20.00
   4  -2 -13   63.09   16.70
   4  -2 -13   77.59   20.10
   4   2 -13   66.79   19.40
   4   2 -13  107.79   23.20
   4   2 -13   60.79   15.20
   2  -2 -13   46.90   16.80
   2  -2 -13   42.60   15.80
   2  -2 -13   29.40   15.80
   2   2 -13  107.09   19.50
   2   2 -13   84.99   17.60
   2   2 -13   47.60   17.20
   0  -2 -13  178.88   26.00
   0  -2 -13   95.89   22.20
   0   2 -13   98.29   21.90
   0   2 -13  152.98   18.60
   0   2 -13  120.19   23.40
  -2  -2 -13   -2.90   16.10
  -2  -2 -13   -5.80   13.20
  -2   2 -13    8.90   15.30
  -2   2 -13    8.20   17.70
  -4  -2 -13   68.49   18.40
  -4  -2 -13   94.69   25.30
  -4  -2 -13   53.79   20.80
  -4   2 -13  133.49   27.70
  -4   2 -13  254.47   40.70
  -4   2 -13   56.39   21.00
   6  -2  13   28.70   19.40
  -6  -2 -13   87.69   27.10
  -6  -2 -13   11.90   16.30
  -6  -2 -13   47.60   27.70
  -6   2 -13   38.80   20.50
  -6   2 -13    7.70   20.70
  -6   2 -13   63.69   29.70
   6   2  13   25.20   18.90
  -8  -2 -13  -14.10   29.80
  -8  -2 -13   40.00   33.10
   8  -2  13  -43.60   19.40
   8   2  13   35.60   23.00
  -8   2 -13   48.00   33.10
 -10  -2 -13   59.89   39.10
  10  -2  13   12.10   27.30
  10   2  13   18.20   27.40
 -10   2 -13  -28.90   33.90
  11  -3 -13    8.40   26.70
  11  -3 -13   29.20   26.30
  11   3 -13  -12.90   26.80
   9  -3 -13   27.60   25.10
   9  -3 -13    2.50   20.90
   9  -3 -13    0.90   25.90
   9   3 -13    5.20   22.30
   7  -3 -13   24.20   21.60
   7  -3 -13   35.10   20.70
   7  -3 -13    2.00   12.80
   7   3 -13    3.90   21.20
   5  -3 -13  202.28   30.40
   5  -3 -13  228.08   27.10
   5  -3 -13  206.48   31.00
   5   3 -13  219.18   32.30
   5   3 -13  163.68   28.50
   5   3 -13  203.18   23.40
   3  -3 -13   73.69   19.30
   3  -3 -13   75.49   19.30
   3  -3 -13   72.79   18.00
   3   3 -13   60.49   16.30
   3   3 -13   50.59   17.50
   3   3 -13   82.89   21.10
   1  -3 -13   65.09   18.70
   1  -3 -13   68.19   18.70
   1   3 -13   70.49   18.90
   1   3 -13   67.29   18.80
   1   3 -13   65.99   14.80
  -1  -3 -13   96.79   20.40
  -1  -3 -13   67.19   19.30
  -1   3 -13   76.09   21.00
  -1   3 -13   94.29   20.50
  -3  -3 -13   47.40   18.30
  -3  -3 -13    3.20   14.00
  -3  -3 -13   27.90   19.30
  -3   3 -13  100.49   25.60
  -3   3 -13    7.20   16.90
  -3   3 -13   46.00   21.10
  -5  -3 -13   47.50   20.20
  -5  -3 -13   85.29   24.00
  -5  -3 -13   49.99   25.00
  -5   3 -13    0.00   18.80
  -5   3 -13   75.49   27.00
  -5   3 -13   81.99   34.80
   5   3  13   11.30   16.00
  -7  -3 -13   24.90   20.20
  -7  -3 -13    6.10   28.30
   7  -3  13   41.60   22.80
  -7  -3 -13   38.10   28.00
  -7   3 -13   36.20   30.50
   7   3  13    1.60   19.90
  -7   3 -13   10.10   24.80
   9  -3  13   23.20   25.40
  -9  -3 -13   -4.10   32.10
  -9  -3 -13   -1.70   37.80
  -9   3 -13   41.30   33.20
   9   3  13   54.39   27.00
  11  -3  13  -25.70   30.40
 -11  -3 -13   14.60   40.10
  11   3  13   22.50   31.60
 -11   3 -13   26.60   39.40
  12  -4 -13   28.00   32.30
  12  -4 -13  -10.70   36.80
  12   4 -13  -35.60   27.20
  10  -4 -13   21.20   25.10
  10  -4 -13   13.40   25.00
  10   4 -13   -2.00   24.80
  10   4 -13   27.00   25.40
   8  -4 -13   64.19   28.10
   8  -4 -13   48.90   23.80
   8   4 -13   49.60   26.90
   6  -4 -13   -9.50   17.20
   6  -4 -13   20.70   14.70
   6  -4 -13    6.50   18.70
   6   4 -13   16.20   18.90
   4  -4 -13  129.09   22.40
   4  -4 -13  118.69   24.50
   4  -4 -13  100.99   23.20
   4   4 -13  157.78   26.60
   4   4 -13  134.29   24.40
   4   4 -13  148.09   20.30
   2  -4 -13   29.80   15.10
   2  -4 -13    8.80   15.20
   2   4 -13   27.00   13.70
   2   4 -13   41.40   15.40
   2   4 -13   26.40   15.30
   0  -4 -13    7.10   14.50
   0  -4 -13   25.80   14.80
   0   4 -13    3.30   13.80
   0   4 -13   17.70   15.80
   0   4 -13   -3.20    9.50
  -2  -4 -13    7.00   13.40
  -2  -4 -13    3.80   13.30
  -2   4 -13   21.60   16.40
  -2   4 -13   27.40   21.50
  -2   4 -13   41.10   18.40
  -4  -4 -13   38.00   17.50
  -4  -4 -13   31.00   22.00
  -4  -4 -13    2.30   18.50
  -4   4 -13   66.19   24.90
  -4   4 -13   50.19   20.70
  -4   4 -13  102.29   30.40
   4   4  13   37.60   15.20
   6  -4  13   -4.90   17.50
  -6  -4 -13  -12.30   25.40
  -6  -4 -13   27.50   22.80
  -6  -4 -13   -8.40   18.60
  -6   4 -13   -0.30   18.70
   6   4  13   -9.50   16.80
  -6   4 -13  -12.30   26.00
   8  -4  13  -24.50   21.20
  -8  -4 -13   19.30   30.40
  -8  -4 -13   -4.00   31.00
   8   4  13  -29.30   21.40
  -8   4 -13   66.99   34.60
  10  -4  13   14.60   27.40
 -10  -4 -13   18.90   46.30
 -10  -4 -13   95.59   41.50
 -10   4 -13   25.30   37.00
  10   4  13   45.20   29.60
  11  -5 -13   40.20   29.60
  11  -5 -13   13.50   26.30
  11   5 -13   19.80   26.50
   9  -5 -13   27.70   23.60
   9  -5 -13    7.40   23.40
   9  -5 -13   -8.20   27.00
   9   5 -13   22.20   27.10
   7  -5 -13  120.99   29.00
   7  -5 -13  142.99   23.70
   7  -5 -13   89.99   27.10
   7   5 -13  132.89   28.70
   5  -5 -13  414.06   39.10
   5  -5 -13  382.06   42.30
   5  -5 -13  426.76   41.70
   5   5 -13  382.56   41.90
   3  -5 -13   39.60   17.40
   3  -5 -13   19.20   15.80
   3  -5 -13   37.00   17.10
   3   5 -13   35.20   16.00
   3   5 -13   17.20   15.70
   1  -5 -13  377.26   38.60
   1  -5 -13  423.46   39.10
   1   5 -13  391.86   34.00
   1   5 -13  363.46   39.10
   1   5 -13  360.56   37.20
  -1  -5 -13  352.06   38.20
  -1  -5 -13  365.36   38.70
  -1   5 -13  431.36   42.10
  -1   5 -13  386.46   38.90
  -3  -5 -13   24.20   15.20
  -3  -5 -13   66.49   21.60
  -3  -5 -13   35.70   16.90
  -3   5 -13   28.70   21.50
  -3   5 -13   18.70   25.60
  -5  -5 -13   28.80   26.20
   5  -5  13    7.50   16.20
  -5  -5 -13   55.59   20.30
  -5  -5 -13   59.89   23.70
   5   5  13   51.29   18.10
  -5   5 -13   64.29   27.10
  -7  -5 -13   47.50   31.80
   7  -5  13   -2.20   19.70
  -7  -5 -13   20.00   21.30
  -7  -5 -13   32.60   29.30
  -7   5 -13   23.60   31.90
   7   5  13    1.60   21.60
  -9  -5 -13   37.50   34.70
   9  -5  13   61.79   27.30
  -9  -5 -13   28.30   38.00
   9   5  13   31.70   28.40
  -9   5 -13   49.30   35.00
 -11  -5 -13   55.19   40.60
 -11  -5 -13  -22.50   51.09
  11  -5  13   35.00   32.30
 -11   5 -13   50.59   41.20
  11   5  13  -14.50   32.20
  12  -6 -13   -3.40   31.90
  12  -6 -13   40.50   38.90
  12   6 -13  -17.00   28.80
  10  -6 -13   61.49   29.60
  10  -6 -13  118.99   29.50
  10   6 -13   15.30   28.40
   8  -6 -13   12.40   24.00
   8  -6 -13   58.69   28.80
   8   6 -13   29.10   24.40
   6  -6 -13   22.60   16.30
   6  -6 -13   60.69   23.70
   6  -6 -13   24.90   19.90
   6   6 -13    3.10   19.30
   4  -6 -13   26.30   17.30
   4  -6 -13   -5.80   15.20
   4  -6 -13   30.90   17.70
   4   6 -13   19.60   18.40
   2  -6 -13   12.00   15.40
   2  -6 -13   13.00   14.90
   2   6 -13   -6.20   12.10
   0  -6 -13   -2.50   14.90
   0  -6 -13   19.40   16.00
   0   6 -13   23.50   17.00
   0   6 -13   13.60   10.50
  -2  -6 -13   18.30   16.10
  -2  -6 -13   18.90   15.60
  -2  -6 -13   44.60   18.50
  -2   6 -13   38.00   22.90
  -2   6 -13   -1.80   16.70
  -4  -6 -13   65.59   20.00
  -4  -6 -13   77.29   23.20
  -4  -6 -13   33.80   24.90
   4   6  13   -4.10   16.90
   4   6  13   47.60   16.20
  -4   6 -13   26.10   23.20
  -6  -6 -13   72.79   28.40
   6  -6  13   40.00   21.30
  -6  -6 -13   -5.80   18.90
  -6  -6 -13    2.80   27.30
   6   6  13   65.09   21.30
  -6   6 -13   81.39   30.80
  -8  -6 -13   52.99   35.80
   8  -6  13   22.00   23.80
  -8  -6 -13   -4.40   31.40
  -8   6 -13   32.20   33.50
   8   6  13   -9.30   23.40
  10  -6  13    2.80   28.00
 -10  -6 -13   -4.50   44.10
 -10  -6 -13  -28.70   33.20
 -10   6 -13  -22.70   36.20
  10   6  13  -20.10   27.30
  11  -7 -13  -17.60   27.20
  11  -7 -13  -19.00   26.00
  11   7 -13    5.70   29.60
   9  -7 -13  -25.10   20.50
   9  -7 -13   24.60   28.30
  -9  -7  13   47.90   42.40
   9  -7 -13  -13.90   22.20
   9   7 -13  -22.40   30.80
   9   7 -13   18.30   25.40
   7  -7 -13  158.68   32.50
   7  -7 -13  151.98   30.00
   7  -7 -13  141.99   26.80
   7   7 -13  111.59   28.80
   5  -7 -13   30.30   21.80
   5  -7 -13   31.30   18.30
   5  -7 -13   79.09   21.60
   5   7 -13   24.80   19.30
   3  -7 -13  124.89   26.10
   3  -7 -13  188.08   28.80
   3   7 -13  190.68   27.50
   1  -7 -13   31.80   16.80
   1  -7 -13   30.70   18.00
   1   7 -13   25.50   13.50
  -1  -7 -13  648.34   54.99
  -1  -7 -13  556.74   53.89
  -3  -7 -13   -0.20   17.00
  -3  -7 -13   15.10   16.30
  -3  -7 -13   68.89   23.20
   3   7  13    8.00   13.40
  -3   7 -13   27.70   21.00
  -5  -7 -13   46.20   23.10
  -5  -7 -13   28.00   29.00
   5  -7  13   22.10   18.90
  -5  -7 -13   24.20   19.80
   5   7  13    6.80   17.50
  -5   7 -13   16.70   25.50
   5   7  13   24.20   19.80
  -7  -7 -13   36.50   23.70
   7  -7  13   41.70   23.00
  -7  -7 -13   92.09   33.90
  -7  -7 -13   30.00   30.70
  -7   7 -13   53.19   30.90
   7   7  13   52.39   24.00
   9  -7  13   31.60   27.40
  -9  -7 -13   -9.20   35.90
  -9  -7 -13   53.59   42.90
  -9   7 -13    9.10   35.00
   9   7  13   -9.30   25.10
  12  -8 -13   40.60   33.90
  12  -8 -13  -20.50   34.90
  12   8 -13   -5.10   30.10
  10  -8 -13   40.80   27.80
  10  -8 -13   -1.40   25.10
  10   8 -13   19.20   29.70
   8  -8 -13  290.37   40.40
   8  -8 -13  300.97   36.50
   8  -8 -13  145.89   33.20
   8   8 -13  307.77   44.60
   6  -8 -13   20.00   22.90
   6  -8 -13   54.69   22.10
   6  -8 -13   24.10   19.80
   6   8 -13   64.09   25.90
   4  -8 -13   57.39   20.80
   4  -8 -13   74.29   21.50
   4   8 -13   59.09   21.20
   2  -8 -13   52.39   19.00
   2  -8 -13   11.60   15.60
   2   8 -13   14.50   14.40
   0  -8 -13   81.69   21.60
   0  -8 -13   79.69   21.00
   0   8 -13   55.49   14.90
  -2  -8 -13  -14.80   13.70
  -2  -8 -13    9.80   16.30
  -2  -8 -13    5.30   17.50
   2   8  13    9.40   12.50
  -2   8 -13  -12.40   18.20
  -4  -8 -13   18.60   18.20
  -4  -8 -13    8.30   24.70
  -4  -8 -13   48.10   21.30
   4   8  13   38.50   21.50
  -4   8 -13    3.80   21.20
   4   8  13   33.90   16.90
   6  -8  13   56.99   22.40
  -6  -8 -13   89.59   33.00
  -6  -8 -13  122.19   32.30
  -6  -8 -13   76.59   24.30
   6   8  13   79.09   23.50
  -6   8 -13   73.19   33.00
   8  -8  13   13.60   24.00
  -8  -8 -13   -9.70   32.60
  -8  -8 -13  -19.10   34.10
  -8   8 -13   22.00   31.10
   8   8  13  -32.50   23.70
  10  -8  13   13.90   31.50
 -10  -8 -13   -3.30   36.60
 -10  -8 -13  -35.60   46.30
  10   8  13  -13.70   29.10
 -10   8 -13   63.39   39.50
  11  -9 -13   30.10   26.60
  11  -9 -13   39.20   29.00
  11   9 -13  -15.60   28.20
  -9  -9  13   73.79   47.50
   9  -9 -13   40.50   28.40
   9  -9 -13   77.19   30.50
   9  -9 -13   11.20   24.10
   9   9 -13   54.69   29.90
   7  -9 -13   17.30   24.40
   7  -9 -13   45.70   24.10
   7  -9 -13   40.00   22.10
   7   9 -13   21.30   24.30
   5  -9 -13   28.20   19.70
   5  -9 -13   44.10   22.90
   5   9 -13   35.30   22.30
   3  -9 -13   -7.30   15.30
   3  -9 -13   -7.40   16.00
   3   9 -13   18.20   16.30
   1  -9 -13  106.79   24.20
   1  -9 -13  130.39   26.50
   1   9 -13  101.39   19.80
  -1  -9 -13  222.88   35.00
  -1  -9 -13  241.48   35.80
  -1  -9 -13  387.06   37.40
   1   9  13  270.77   28.30
  -3  -9 -13   71.69   21.30
  -3  -9 -13  100.69   24.90
  -3  -9 -13   66.09   21.70
   3   9  13   78.59   18.50
  -3   9 -13   79.59   23.20
  -5  -9 -13   10.70   28.50
  -5  -9 -13   47.50   21.10
   5  -9  13   27.50   21.40
  -5  -9 -13   69.79   24.20
   5   9  13   61.39   23.70
  -5   9 -13   21.80   25.30
   5   9  13   61.89   20.60
  -7  -9 -13   18.10   28.50
  -7  -9 -13  -18.90   31.80
   7  -9  13   41.50   23.50
  -7  -9 -13   36.20   22.70
   7   9  13   37.20   23.80
  -7   9 -13   79.79   35.10
  -9  -9 -13   81.79   38.80
   9  -9  13   -3.70   25.30
  -9  -9 -13  -19.40   40.20
  -9   9 -13  -35.00   33.70
   9   9  13   28.00   28.30
  12 -10 -13    6.50   45.70
  12 -10 -13   47.50   34.70
  12  10 -13  -13.30   34.40
  10 -10 -13  -23.60   25.00
  10 -10 -13   21.70   29.10
  10  10 -13   34.20   30.40
   8 -10 -13   57.99   24.40
  -8 -10  13   88.69   33.90
   8 -10 -13   25.30   27.00
   8 -10 -13   67.89   32.60
   8 -10 -13  110.99   33.40
   8  10 -13   72.89   29.50
   6 -10 -13  125.09   28.00
   6 -10 -13  105.69   28.40
   6  10 -13   75.89   25.30
   4 -10 -13    3.50   20.20
   4 -10 -13   28.50   20.20
   4  10 -13   18.80   19.60
   2 -10 -13   41.20   18.70
   2 -10 -13   36.20   20.10
   2  10 -13   29.30   17.20
   0 -10 -13   79.39   22.40
   0 -10 -13   27.50   18.30
   0  10 -13   75.09   16.70
   0  10  13   54.39   14.20
  -2 -10 -13   -1.90   16.30
  -2 -10 -13   18.10   21.10
  -2 -10 -13   -6.50   15.70
  -2  10 -13   57.79   21.30
   2  10  13    3.70   14.30
  -4 -10 -13    1.40   17.00
   4 -10  13   51.69   21.70
  -4 -10 -13   37.40   20.40
  -4 -10 -13   57.59   26.20
  -4  10 -13   27.50   24.00
   4  10  13   23.40   22.90
   4  10  13   31.10   17.90
  -6 -10 -13   25.50   23.60
  -6 -10 -13  119.39   35.10
   6 -10  13   62.89   25.60
  -6 -10 -13   30.30   21.50
   6  10  13   62.59   28.40
   6  10  13   54.19   22.40
  -6  10 -13   41.60   30.00
  -8 -10 -13    3.30   33.80
  -8 -10 -13   20.40   38.10
   8 -10  13   23.80   26.30
   8  10  13    4.40   22.80
  -8  10 -13   12.80   32.00
 -10 -10 -13   -9.30   50.29
 -10 -10 -13  -34.50   38.20
  10 -10  13   -2.00   33.00
  10  10  13    8.20   29.90
 -10  10 -13   23.00   37.60
  11 -11 -13    2.90   29.10
  11  11 -13  -14.80   28.40
   9 -11 -13   -8.90   23.80
   9 -11 -13   94.99   33.90
  -9 -11  13   42.50   42.50
   9  11 -13  -51.29   21.00
  -7 -11  13  187.18   35.40
   7 -11 -13   53.69   26.90
   7 -11 -13  141.69   26.70
   7 -11 -13   86.29   29.70
   7  11 -13   95.89   28.60
   5 -11 -13  347.57   44.40
   5 -11 -13  373.56   47.50
   5  11 -13  304.97   44.10
   3 -11 -13   13.30   17.30
   3 -11 -13  -19.80   17.50
   3  11 -13   -1.00   18.00
   1 -11 -13  311.47   40.50
   1 -11 -13  361.56   45.90
   1  11 -13  384.96   39.60
  -1 -11 -13  489.75   45.10
  -1 -11 -13  417.76   47.40
  -1 -11 -13  439.46   46.90
   1  11  13  520.95   41.30
  -3 -11 -13   71.69   27.10
  -3 -11 -13   24.30   19.60
  -3 -11 -13   29.90   19.20
   3  11  13   49.50   18.40
  -3  11 -13   55.39   22.40
   5 -11  13   77.39   25.60
  -5 -11 -13  134.19   32.60
  -5 -11 -13   81.69   31.90
  -5 -11 -13   82.49   24.00
  -5  11 -13  118.29   31.90
   5  11  13   82.59   23.60
   5  11  13   77.59   27.80
  -7 -11 -13   59.39   34.00
  -7 -11 -13   52.89   24.60
   7 -11  13   45.80   26.80
  -7 -11 -13   -8.00   30.60
  -7  11 -13   24.20   31.40
   7  11  13   26.70   24.30
  -9 -11 -13    9.20   44.90
  -9 -11 -13   36.30   38.40
   9 -11  13   12.70   29.40
   9  11  13    8.40   27.30
  -9  11 -13   71.69   37.50
  10 -12 -13   91.79   32.40
  10  12 -13   94.39   36.30
  -8 -12  13  116.19   36.20
   8 -12 -13   60.19   28.30
   8 -12 -13   64.49   32.40
   8 -12 -13   58.49   25.20
   8  12 -13   29.10   26.60
   6 -12 -13  -15.70   22.90
  -6 -12  13   36.70   25.80
   6 -12 -13   -2.00   22.10
   6  12 -13    3.60   22.40
   4 -12 -13   28.30   21.10
   4 -12 -13    6.10   21.20
   4  12 -13   56.29   23.30
   2 -12 -13   44.10   20.60
   2 -12 -13   22.00   19.80
   2  12 -13   31.90   19.30
   0 -12 -13   14.80   19.60
   0 -12 -13    6.90   16.70
   0 -12 -13   -1.90   18.30
   0  12  13   -5.00   13.00
   0  12 -13   11.30   15.30
  -2 -12 -13   -7.90   17.20
  -2 -12 -13   50.09   25.50
  -2 -12 -13   -3.80   15.80
   2  12  13  -10.20   14.50
   4 -12  13   26.70   21.70
  -4 -12 -13   18.80   19.10
  -4 -12 -13   24.80   21.40
  -4 -12 -13   -3.40   25.00
  -4  12 -13   20.30   25.40
   4  12  13   12.10   24.00
   4  12  13   26.30   19.50
   6 -12  13   55.29   27.30
  -6 -12 -13   28.50   21.50
  -6 -12 -13   57.19   28.50
  -6 -12 -13   48.30   33.10
   6  12  13   22.30   22.20
   6  12  13   67.79   27.20
  -6  12 -13   76.59   33.10
   8 -12  13  -21.00   25.60
  -8 -12 -13   13.30   35.00
  -8 -12 -13   13.40   35.70
  -8  12 -13  -44.30   31.60
   8  12  13    0.00   26.40
 -10 -12 -13  -15.00   39.00
 -10 -12 -13    2.10   50.09
  10 -12  13   -8.10   31.00
 -10  12 -13  -17.30   38.50
  10  12  13   23.20   31.80
  11 -13 -13   33.20   31.40
  11  13 -13   31.30   34.10
  -9 -13  13   41.50   46.70
   9 -13 -13   38.90   27.10
   9  13 -13   24.40   27.80
   7 -13 -13  -15.90   21.00
  -7 -13  13    5.00   27.80
   7 -13 -13   16.70   29.30
   7 -13 -13  -22.00   21.20
   7  13 -13    5.80   23.70
   5 -13 -13   72.29   25.00
  -5 -13  13   45.00   24.80
   5 -13 -13   48.80   26.70
   5  13 -13   22.90   23.80
   3 -13 -13  109.19   28.20
   3 -13 -13  153.18   29.30
   3  13 -13  149.29   29.60
   1 -13 -13   21.90   19.70
   1 -13 -13   28.00   19.00
   1  13 -13   12.30   17.10
  -1 -13 -13  432.06   46.90
  -1 -13 -13  387.66   48.50
  -1 -13 -13  446.66   44.50
  -1  13 -13  435.16   39.30
   1  13  13  436.86   39.80
   3 -13  13   20.70   20.70
  -3 -13 -13  -15.30   24.00
  -3 -13 -13   27.90   22.60
  -3 -13 -13   10.80   18.00
  -3  13 -13   -3.70   22.10
   3  13  13   -3.50   17.50
  -5 -13 -13   16.60   18.90
  -5 -13 -13    9.20   23.50
  -5 -13 -13   18.10   29.50
   5 -13  13   23.30   24.60
  -5  13 -13   22.60   29.20
   5  13  13  -26.70   25.70
   5  13  13   -2.70   19.90
  -7 -13 -13   76.29   37.70
  -7 -13 -13   52.19   30.50
  -7 -13 -13    6.80   21.60
   7 -13  13   12.80   28.40
   7  13  13    5.00   24.90
  -7  13 -13  -20.80   29.30
  -9 -13 -13   10.30   42.70
  -9 -13 -13   39.20   37.50
   9 -13  13   36.90   33.40
   9  13  13   22.20   29.90
  -9  13 -13   -1.20   38.20
  10 -14 -13   30.50   27.90
  10  14 -13   29.20   32.20
   8 -14 -13   30.20   27.30
  -8 -14  13   54.09   34.70
   8 -14 -13   27.00   31.00
   8 -14 -13   61.49   26.30
   8  14 -13    2.60   26.30
   6 -14 -13  -11.00   27.40
   6 -14 -13   22.90   24.30
   6 -14 -13   11.70   20.80
  -6 -14  13  -30.90   25.50
   6  14 -13    7.00   23.80
  -4 -14  13   42.30   25.90
   4 -14 -13   19.30   22.60
   4 -14 -13   41.90   25.60
   4  14 -13    8.60   22.60
   2 -14 -13    7.90   20.10
   2 -14 -13   -4.50   17.40
   2  14 -13   -6.60   17.80
   0 -14 -13   34.00   19.00
   0 -14  13    6.90   16.20
   0 -14 -13   11.60   16.70
   0 -14 -13    3.70   21.10
   0  14 -13   45.00   18.70
  -2 -14 -13   60.69   24.80
  -2 -14 -13   74.29   28.60
  -2 -14 -13   23.60   19.50
   2 -14  13   74.29   21.10
   2  14  13   70.79   21.00
   4 -14  13   17.60   22.50
  -4 -14 -13   29.10   19.20
  -4 -14 -13   40.90   29.90
  -4 -14 -13   -3.50   21.00
  -4  14 -13    9.30   25.90
   4  14  13    9.60   19.20
   4  14  13   82.29   29.60
  -6 -14 -13   -7.50   26.20
  -6 -14 -13   -7.30   18.40
   6 -14  13  -15.20   25.90
  -6 -14 -13   12.30   30.20
   6  14  13   20.10   28.90
   6  14  13   10.00   23.60
  -6  14 -13   44.50   31.40
  -8 -14 -13   42.50   37.60
  -8 -14 -13    7.50   40.20
  -8 -14 -13    8.60   24.20
   8 -14  13  -29.30   26.80
  -8  14 -13  -54.09   28.60
   8  14  13   -3.10   27.50
  11 -15 -13    8.50   32.00
  11  15 -13    0.50   31.70
   9 -15 -13   10.20   26.10
  -9 -15  13  -23.20   48.80
   9  15 -13  -50.69   26.80
   7 -15 -13   30.10   25.80
   7 -15 -13   18.70   26.20
   7 -15 -13  -12.50   29.50
  -7 -15  13   62.09   31.80
   7  15 -13   44.30   28.90
  -5 -15  13  266.97   39.90
   5 -15 -13  288.07   45.70
   5 -15 -13  246.58   40.80
   5  15 -13  228.78   39.80
   3 -15 -13   45.00   25.30
   3 -15 -13   23.60   22.60
   3  15 -13   69.09   24.40
   1 -15 -13   36.30   22.30
   1 -15 -13   19.20   20.90
   1  15 -13   86.59   23.50
   1 -15  13   94.79   22.20
  -1 -15 -13   69.39   23.60
  -1 -15 -13   72.79   27.20
  -1 -15 -13  103.09   26.60
  -1  15 -13  106.89   21.40
   1  15  13   83.39   21.20
   3 -15  13   20.90   22.20
  -3 -15 -13   10.10   17.90
  -3 -15 -13   27.60   20.70
  -3 -15 -13   93.49   31.60
   3  15  13   70.29   22.70
  -5 -15 -13   26.40   21.30
  -5 -15 -13   25.70   31.00
  -5 -15 -13   29.70   27.00
   5 -15  13   15.30   26.00
   5  15  13    8.80   27.60
   5  15  13   27.30   22.40
  -5  15 -13   18.40   27.20
   7 -15  13  -10.00   26.70
  -7 -15 -13  -16.00   32.50
  -7 -15 -13   -7.80   19.30
  -7 -15 -13   16.40   30.80
  -7  15 -13  -15.00   30.70
   7  15  13   32.60   26.10
  -9 -15 -13  -47.90   46.60
  -9 -15 -13   34.40   43.10
   9 -15  13   39.50   34.60
   9  15  13   34.20   30.90
  -9  15 -13   40.30   36.80
  10 -16 -13    9.30   29.60
  10  16 -13   -2.70   29.10
  -8 -16  13  163.68   41.50
   8 -16 -13   75.69   30.50
   8 -16 -13   92.69   40.40
   8 -16 -13  157.78   38.20
   8  16 -13   92.69   36.70
   6 -16 -13   41.40   31.60
   6 -16 -13   29.80   22.20
   6 -16 -13   18.10   23.90
  -6 -16  13   41.40   29.10
   6  16 -13   -4.00   25.80
   4 -16 -13   71.29   30.10
   4 -16 -13   37.60   21.50
   4 -16 -13   70.49   26.80
   4  16 -13   53.49   26.50
   2 -16 -13   24.70   20.80
   2 -16 -13    2.20   20.50
   2  16 -13    3.10   21.10
   0 -16 -13    6.80   17.90
   0 -16 -13   80.49   26.30
   0 -16 -13   37.90   23.10
   0 -16  13   28.10   18.90
   0  16 -13   80.29   21.50
  -2 -16 -13   27.60   22.10
  -2 -16 -13    6.10   19.90
  -2 -16 -13   17.80   25.40
   2 -16  13    8.70   20.60
   2  16  13   -8.80   18.30
  -4 -16 -13   41.50   31.40
  -4 -16 -13   31.10   25.10
  -4 -16 -13  -14.40   18.70
   4 -16  13   10.10   24.20
   4  16  13  -12.70   20.10
   4  16  13   57.79   31.70
  -4  16 -13   50.59   28.10
   6 -16  13  -21.50   26.90
  -6 -16 -13   -3.80   32.10
  -6 -16 -13   13.40   28.30
  -6 -16 -13   21.80   21.00
   6  16  13   37.80   32.10
  -6  16 -13    1.00   30.50
   6  16  13   32.50   26.60
  -8 -16 -13    8.10   36.40
  -8 -16 -13   15.50   23.20
  -8 -16 -13    7.00   40.00
   8 -16  13   60.09   35.20
  -8  16 -13    8.70   34.20
   8  16  13  -20.30   26.50
   9 -17 -13    0.40   27.40
   9  17 -13  -23.00   29.00
   7 -17 -13    5.60   27.20
   7 -17 -13  -30.00   22.20
  -7 -17  13   24.40   34.00
   7 -17 -13   14.70   34.70
   7  17 -13   14.60   30.30
  -5 -17  13  129.89   33.60
   5 -17 -13   91.59   26.50
   5 -17 -13   98.79   32.40
   5 -17 -13   68.39   32.40
   5  17 -13   74.89   30.60
   3 -17 -13   17.00   23.30
   3 -17 -13   60.99   27.50
   3  17 -13   30.60   24.70
   1 -17 -13  -44.30   16.00
   1 -17 -13   10.60   20.80
   1  17 -13   33.30   21.30
  -1 -17 -13  -14.50   18.30
  -1 -17 -13   -7.00   19.90
   1 -17  13   -7.10   19.80
  -1 -17 -13    1.90   25.00
  -1  17 -13   10.20   16.80
  -3 -17 -13  -37.00   29.30
  -3 -17 -13  -36.10   17.90
   3 -17  13    7.50   23.00
  -3 -17 -13   23.10   22.40
   3  17  13   19.70   20.20
  -5 -17 -13   26.90   27.60
  -5 -17 -13   33.50   35.10
   5 -17  13   32.40   27.90
  -5 -17 -13   17.30   20.90
   5  17  13   -2.60   22.90
  -5  17 -13   17.60   28.20
   5  17  13   35.70   32.00
   7 -17  13  -23.80   29.30
  -7 -17 -13    8.60   33.60
  -7 -17 -13   -9.70   34.60
  -7 -17 -13  -20.90   18.80
  -7  17 -13    6.60   31.20
   7  17  13   51.39   27.60
  10 -18 -13   37.90   32.50
  10  18 -13   50.89   37.20
  -8 -18  13   41.20   39.50
   8 -18 -13   44.90   27.70
   8 -18 -13   13.90   29.20
   8 -18 -13   42.20   38.40
   8  18 -13    0.70   29.00
  -6 -18  13    3.10   31.70
   6 -18 -13   -8.00   25.70
   6 -18 -13  -22.60   22.90
   6 -18 -13    9.20   33.20
   6  18 -13  -23.70   26.10
   4 -18 -13   18.80   25.70
   4 -18 -13   11.00   20.80
   4 -18 -13  -30.80   22.20
   4  18 -13  -22.00   22.40
   2 -18 -13   69.79   28.40
   2 -18 -13   57.19   26.40
   2 -18 -13   92.59   23.30
   2  18 -13   76.99   26.40
   0 -18 -13   89.49   28.90
   0 -18  13  138.19   27.30
   0 -18 -13  123.79   30.50
   0 -18 -13   35.60   24.30
   0  18 -13   45.10   23.10
  -2 -18 -13   21.60   23.40
  -2 -18 -13   10.10   20.00
  -2 -18 -13   15.90   27.40
   2 -18  13   -1.20   21.00
   2  18  13  -14.40   18.30
  -4 -18 -13    9.10   22.40
  -4 -18 -13   19.40   26.40
  -4 -18 -13   38.00   34.00
   4 -18  13   25.60   27.60
   4  18  13    1.40   22.80
   4  18  13   -0.50   32.20
  -6 -18 -13   32.90   34.30
   6 -18  13   44.40   31.10
  -6 -18 -13   32.10   25.60
  -6 -18 -13   55.79   38.30
  -6  18 -13  -11.80   30.60
   6  18  13   20.60   25.60
   6  18  13  -37.00   32.90
  -8 -18 -13   63.49   43.50
   8 -18  13   -3.40   35.30
  -8 -18 -13   -5.50   39.20
  -8 -18 -13    2.10   22.00
   8  18  13  -27.00   28.10
  -8  18 -13  -34.30   36.40
   9 -19 -13   30.40   32.30
   9  19 -13  102.89   37.50
   7 -19 -13   -7.40   24.40
   7 -19 -13    1.80   36.30
   7 -19 -13  -12.90   27.00
  -7 -19  13  -47.00   32.00
   7  19 -13   -1.40   28.30
   5 -19 -13  205.88   43.00
   5 -19 -13  232.78   37.00
   5 -19 -13  201.68   47.10
  -5 -19  13  307.07   47.00
   5  19 -13  284.47   45.40
   3 -19 -13   25.20   25.50
   3 -19 -13   81.29   29.30
   3 -19 -13   22.10   21.00
   3  19 -13   84.29   29.40
  -1 -19  13  108.09   26.00
   1 -19 -13   54.19   27.00
   1 -19 -13   96.99   29.00
   1 -19 -13   95.89   22.90
   1  19 -13   98.39   28.50
   1 -19  13  104.99   26.60
  -1 -19 -13   25.00   18.40
  -1 -19 -13   74.89   32.60
  -1 -19 -13   36.60   22.90
  -1  19 -13   79.99   23.50
  -3 -19 -13   36.10   25.10
   3 -19  13   37.90   25.50
  -3 -19 -13   16.40   29.40
   3  19  13    0.50   33.50
   3  19  13   15.10   22.20
   5 -19  13   -1.60   28.80
  -5 -19 -13   -1.60   27.00
  -5 -19 -13  -29.30   32.90
  -5 -19 -13  -17.80   19.70
   5  19  13   47.90   35.50
   5  19  13   29.90   26.10
  -7 -19 -13    9.70   20.30
   7 -19  13  -27.60   34.00
  -7 -19 -13   13.20   37.00
  -7 -19 -13   48.90   37.60
  -7  19 -13   -9.20   33.90
   7  19  13    8.40   28.40
   7  19  13  -43.20   44.30
   8 -20 -13   64.99   32.50
  -8 -20  13   97.99   47.20
   8 -20 -13  107.99   32.20
   8 -20 -13   46.00   42.20
   8  20 -13  106.89   38.70
  -6 -20  13   -3.10   33.20
   6 -20 -13   -2.50   23.60
   6 -20 -13  -14.60   35.10
   6 -20 -13   10.10   29.90
   6  20 -13   27.70   30.40
   4 -20 -13  127.69   36.20
   4 -20 -13  168.68   33.10
   4 -20 -13  178.88   42.00
   4  20 -13  180.28   38.30
   2 -20 -13   -2.00   21.70
   2 -20 -13   28.10   24.60
   2 -20 -13   10.10   17.70
   2  20 -13    8.50   24.10
   0 -20 -13   99.49   24.00
   0 -20 -13   98.79   29.40
   0 -20  13   87.59   28.40
   0 -20 -13  147.09   35.00
   0  20 -13  152.88   29.30
  -2 -20 -13   -6.10   16.50
  -2 -20 -13   -8.40   19.50
   2 -20  13   37.40   24.70
  -2 -20 -13    3.10   28.20
   2  20  13    4.20   19.90
   4 -20  13   27.20   29.70
  -4 -20 -13   84.79   38.90
  -4 -20 -13  -28.80   24.30
   4  20  13    9.50   23.10
   4  20  13  -23.00   35.00
  -6 -20 -13  -14.60   22.50
  -6 -20 -13  -17.20   35.80
  -6 -20 -13   10.70   33.70
   6 -20  13   17.80   32.40
   6  20  13  -21.60   24.10
   6  20  13    0.20   37.60
  -7 -21  13    7.70   36.50
   7 -21 -13   49.50   33.00
   7 -21 -13    0.80   26.60
   7 -21 -13   63.29   40.40
   7  21 -13   53.09   36.20
   5 -21 -13   50.89   38.30
   5 -21 -13  157.48   39.10
   5 -21 -13   91.59   30.00
  -5 -21  13  189.98   44.60
   5  21 -13   99.29   36.60
   3 -21 -13   18.10   28.60
   3 -21 -13    9.70   20.70
   3 -21 -13   50.09   28.40
   3  21 -13  113.89   31.40
   1 -21 -13   15.90   18.00
   1 -21 -13    8.30   23.30
  -1 -21  13   -5.00   22.70
   1  21 -13   13.80   23.50
  -1 -21 -13   64.99   26.70
  -1 -21 -13  159.98   38.00
   1 -21  13  112.89   30.20
  -1 -21 -13   76.89   21.60
   3 -21  13   19.20   27.80
  -3 -21 -13   36.70   26.50
  -3 -21 -13  -16.20   31.40
  -3 -21 -13   -8.20   24.40
   3  21  13   16.90   23.00
   3  21  13   74.29   41.00
  -5 -21 -13  120.89   41.50
   5 -21  13   35.60   31.20
  -5 -21 -13   41.40   32.60
   5  21  13   95.99   39.90
   5  21  13   46.20   29.10
  -7 -21 -13   -4.30   39.70
  -7 -21 -13   15.90   25.30
  -7 -21 -13   20.60   42.20
   7 -21  13   28.40   36.90
   7  21  13   23.80   31.30
   7  21  13  -54.89   41.20
  -8 -22  13  -36.90   46.80
   8 -22 -13   10.90   32.00
   8 -22 -13  -51.59   24.40
   8  22 -13   21.70   34.40
   6 -22 -13   36.80   27.40
   6 -22 -13   35.20   31.70
  -6 -22  13  -81.29   32.80
   6 -22 -13  -23.60   37.70
   6  22 -13   18.50   30.50
   4 -22 -13   89.39   32.00
   4 -22 -13   55.29   32.20
   4 -22 -13   56.79   26.30
   4  22 -13   28.60   30.10
   2 -22 -13  -13.10   23.90
   2 -22 -13  -23.20   18.60
   2 -22 -13   -9.20   25.40
   2  22 -13   -9.10   26.50
   0 -22 -13   12.50   18.40
   0 -22  13  -35.30   23.30
   0 -22 -13  -22.70   19.90
   0 -22 -13   21.20   29.80
   0  22 -13   24.70   24.30
  -2 -22 -13   10.80   19.10
   2 -22  13   29.20   26.40
  -2 -22 -13  -62.99   29.50
  -2 -22 -13    2.70   23.60
  -4 -22 -13  -37.40   34.30
   4 -22  13   51.79   32.00
  -4 -22 -13  -29.80   25.10
   4  22  13    5.60   24.10
   4  22  13   69.69   41.60
   6 -22  13   40.50   36.70
  -6 -22 -13   -3.30   36.70
  -6 -22 -13    8.10   40.00
   6  22  13   23.00   30.50
   6  22  13  -37.80   41.00
  -7 -23  13   76.59   44.40
   7 -23 -13   76.39   38.10
   7 -23 -13  -49.60   25.50
   7 -23 -13  -48.80   40.10
   7  23 -13   -9.40   34.50
   5 -23 -13   67.49   32.80
   5 -23 -13  119.49   43.10
  -5 -23  13   86.49   45.70
   5 -23 -13  110.39   32.40
   5  23 -13   36.60   35.00
   3 -23 -13   39.50   33.90
   3 -23 -13    9.40   22.60
   3 -23 -13    7.00   25.90
   3  23 -13   16.00   28.40
  -1 -23  13    5.50   25.40
   1 -23 -13  -23.70   18.00
   1 -23 -13  -35.10   19.30
   1  23 -13   14.90   23.70
  -1 -23 -13   89.19   25.30
  -1 -23 -13   74.79   34.90
  -1 -23 -13   36.00   27.50
   1 -23  13  104.09   30.40
   3 -23  13  -26.40   27.50
  -3 -23 -13   -0.50   32.60
  -3 -23 -13  -33.70   23.10
   3  23  13   -5.20   38.80
  -5 -23 -13   11.30   40.60
   5 -23  13   -2.00   32.10
  -5 -23 -13    5.60   32.80
   5  23  13  -10.90   40.60
   5  23  13   22.50   28.80
   6 -24 -13   -3.70   29.30
   6 -24 -13   30.40   28.40
  -6 -24  13   21.10   44.50
   6 -24 -13   18.30   43.50
   6  24 -13   68.79   37.10
   4 -24 -13    5.40   28.20
   4 -24 -13    6.00   24.70
   4 -24 -13   10.10   33.80
   4  24 -13    9.80   30.20
   2 -24 -13   -3.20   25.40
   2 -24 -13   -1.80   20.10
  -2 -24  13   -4.70   26.60
   2  24 -13   -2.10   26.50
   0 -24 -13   32.00   21.90
   0 -24 -13   61.59   35.00
   0 -24 -13    3.10   24.90
   0 -24  13   16.10   27.00
   0  24 -13   40.40   36.40
  -2 -24 -13  -23.60   31.40
   2 -24  13    5.40   27.10
  -2 -24 -13   18.80   24.30
   4 -24  13  -24.40   29.90
  -4 -24 -13   11.70   40.70
  -4 -24 -13  -12.00   28.90
   4  24  13   37.20   28.20
   4  24  13  -10.80   45.30
  -5 -25  13   70.49   45.60
   5 -25 -13  -16.40   27.80
   5 -25 -13   31.40   40.00
   5 -25 -13   17.20   28.30
   5  25 -13    5.30   32.70
   3 -25 -13   21.20   29.30
   3 -25 -13   -7.10   22.00
   3 -25 -13   18.80   32.10
   3  25 -13  -24.00   29.00
   1 -25 -13    9.30   26.80
  -1 -25  13    1.60   27.80
   1 -25 -13   20.80   22.00
   1  25 -13   38.50   28.50
  -1 -25 -13   24.20   27.10
   1 -25  13   13.00   28.30
  -1 -25 -13   17.00   27.20
  -1 -25 -13   96.29   38.80
   3 -25  13    1.90   31.40
  -3 -25 -13   17.30   28.50
  -3 -25 -13   16.60   39.40
   3  25  13    5.60   41.80
   4 -26 -13   28.20   27.10
   4 -26 -13   -2.00   36.70
   4 -26 -13   11.10   30.20
   4  26 -13  -18.10   30.10
  -2 -26  13    6.00   30.10
   2 -26 -13   -6.90   23.50
   2 -26 -13    4.70   27.60
   2  26 -13   32.80   30.10
   0 -26  13   -7.10   29.80
   0 -26 -13  -16.80   24.40
   0 -26 -13   16.50   29.20
   0 -26 -13  -22.90   33.20
  -2 -26 -13  -48.10   34.80
  -2 -26 -13   -7.00   27.60
   2 -26  13   35.30   31.20
   2  26  13  -43.80   37.80
  -3 -27  13  -24.70   29.40
   3 -27 -13   13.10   27.30
   3 -27 -13   10.70   31.30
   3  27 -13    5.20   33.00
   1 -27 -13   10.60   26.20
  -1 -27  13  -24.60   29.40
   1  27 -13   29.80   34.50
  -1 -27 -13   52.89   32.70
  -1 -27 -13  109.29   43.50
   1 -27  13   64.19   34.60
  12   0 -14    7.40   27.40
  10   0 -14  138.09   33.00
   8   0 -14   41.40   24.00
   8   0 -14   64.79   27.10
   6   0 -14  161.58   30.40
   6   0 -14  208.98   34.30
   6   0 -14  163.18   22.20
   4   0 -14  633.04   57.79
   4   0 -14  645.74   53.19
   4   0 -14  698.83   56.19
   2   0 -14  155.38   22.90
   2   0 -14  127.99   21.90
   2   0 -14   95.39   21.50
   0   0 -14   14.50   14.90
   0   0 -14    9.20   15.00
  -2   0 -14  106.99   24.00
  -2   0 -14   51.79   20.10
  -4   0 -14  162.28   35.00
  -4   0 -14   44.80   21.90
  -4   0 -14   40.80   24.30
  -6   0 -14   16.30   19.90
  -6   0 -14   -2.50   21.70
   6   0  14    0.80   18.00
  -6   0 -14   38.20   28.90
   8   0  14  -38.20   22.00
  -8   0 -14   10.00   29.60
  -8   0 -14   30.40   33.90
 -10   0 -14  -23.40   37.00
  10   0  14   50.49   30.50
  11  -1 -14   60.99   28.50
  11   1 -14    8.80   25.50
   9  -1 -14   71.89   26.10
   9   1 -14   44.60   24.80
   7  -1 -14  -11.70   19.50
   7  -1 -14    1.30   22.30
   7   1 -14  -21.50   21.50
   7   1 -14   -0.70   21.30
   5  -1 -14   49.70   21.70
   5  -1 -14  109.09   19.70
   5  -1 -14  113.69   25.60
   5   1 -14  133.79   27.30
   5   1 -14   72.69   22.40
   5   1 -14   83.99   17.30
   3  -1 -14   77.19   19.70
   3  -1 -14   77.69   18.90
   3  -1 -14   80.39   20.00
   3   1 -14   78.79   18.50
   3   1 -14   85.09   18.80
   3   1 -14   67.69   19.30
   1  -1 -14   66.29   18.60
   1  -1 -14  104.39   18.70
   1  -1 -14   60.69   18.60
   1   1 -14   82.79   20.20
   1   1 -14   59.39   19.00
   1   1 -14   59.69   17.30
  -1  -1 -14   46.60   16.00
  -1  -1 -14   21.60   16.90
  -1   1 -14   47.70   19.50
  -1   1 -14   34.90   17.80
  -3  -1 -14   38.90   20.90
  -3  -1 -14   36.30   18.50
  -3  -1 -14   15.60   14.30
  -3   1 -14   30.70   22.20
  -3   1 -14   -4.20   16.40
  -3   1 -14   97.69   25.90
  -5  -1 -14   62.09   33.80
  -5  -1 -14   58.79   28.00
  -5  -1 -14   15.80   21.20
  -5   1 -14  112.19   38.70
  -5   1 -14   14.30   19.50
  -5   1 -14   44.50   27.60
  -7  -1 -14   46.70   27.80
   7  -1  14    9.10   20.50
  -7  -1 -14   10.40   20.20
  -7  -1 -14   36.20   33.70
  -7   1 -14   13.40   30.50
  -7   1 -14   21.10   20.70
  -7   1 -14   12.40   25.30
   7   1  14    8.80   21.40
  -9  -1 -14  -16.80   35.00
  -9  -1 -14    3.90   34.70
   9  -1  14    1.60   24.80
   9   1  14  103.49   29.90
  -9   1 -14   30.90   36.50
  12  -2 -14  -26.90   27.50
  12   2 -14   66.59   33.60
  10  -2 -14   43.30   29.40
  10   2 -14   27.10   27.40
   8  -2 -14    5.10   20.70
   8  -2 -14   37.00   26.50
   8   2 -14   -0.90   22.20
   6  -2 -14  399.16   47.00
   6  -2 -14  396.06   35.40
   6  -2 -14  390.66   46.30
   6   2 -14  427.36   47.00
   6   2 -14  432.26   47.20
   6   2 -14  295.37   32.20
   4  -2 -14  491.95   48.50
   4  -2 -14  553.34   45.50
   4  -2 -14  498.85   47.50
   4   2 -14  537.75   49.60
   4   2 -14  501.05   43.90
   4   2 -14  536.15   47.30
   2  -2 -14    7.50   12.70
   2  -2 -14   -5.70   13.40
   2  -2 -14    7.90   14.10
   2   2 -14   -7.00   12.30
   2   2 -14   16.60   12.70
   2   2 -14   11.60   14.00
   0  -2 -14  123.49   24.70
   0  -2 -14  117.99   22.70
   0   2 -14  165.78   20.20
   0   2 -14  122.29   24.40
   0   2 -14  167.78   26.20
  -2  -2 -14   13.90   12.50
  -2  -2 -14  -10.10   15.20
  -2   2 -14   35.60   20.00
  -2   2 -14    1.40   15.00
  -4  -2 -14   33.60   20.70
  -4  -2 -14   56.49   25.40
  -4  -2 -14   18.40   15.20
  -4   2 -14   48.40   21.30
  -4   2 -14   65.29   31.60
  -4   2 -14   69.79   26.40
  -6  -2 -14   59.09   26.90
  -6  -2 -14   41.20   19.30
   6  -2  14    3.70   18.60
  -6  -2 -14   47.30   29.20
  -6   2 -14   57.99   23.30
  -6   2 -14   11.80   23.70
   6   2  14   17.60   20.70
  -6   2 -14   41.20   28.90
   8  -2  14  -11.80   22.80
  -8  -2 -14  -43.90   31.60
  -8  -2 -14    9.30   32.50
  -8   2 -14   12.00   33.30
   8   2  14   -7.40   24.00
  10  -2  14   -8.80   27.80
 -10  -2 -14   34.30   38.20
 -10   2 -14   -1.50   39.60
  10   2  14   15.90   30.80
  11  -3 -14   10.70   26.60
  11   3 -14   18.00   28.70
   9  -3 -14   60.39   28.50
   9  -3 -14   49.90   26.80
   9   3 -14   37.60   25.40
   7  -3 -14   58.79   26.80
   7  -3 -14   45.50   22.60
   7   3 -14   69.79   24.30
   5  -3 -14  200.18   33.80
   5  -3 -14  288.67   31.70
   5  -3 -14  299.37   36.60
   5   3 -14  266.97   35.00
   5   3 -14  241.68   26.50
   5   3 -14  236.68   35.50
   3  -3 -14   -2.30   13.80
   3  -3 -14   12.10   14.10
   3  -3 -14    0.50   14.60
   3   3 -14   14.20   13.30
   3   3 -14   -5.20   13.40
   3   3 -14   30.30   16.30
   1  -3 -14  319.77   35.80
   1  -3 -14  262.17   35.30
   1   3 -14  229.28   25.60
   1   3 -14  215.68   31.40
   1   3 -14  277.07   33.20
  -1  -3 -14   21.00   17.40
  -1  -3 -14   35.20   17.60
  -1   3 -14   40.60   19.20
  -1   3 -14   23.80   17.80
  -3  -3 -14   14.00   18.90
  -3  -3 -14   40.90   20.70
  -3  -3 -14   48.10   18.70
  -3   3 -14   20.50   25.40
  -3   3 -14   84.99   23.50
  -3   3 -14    4.90   18.30
  -5  -3 -14   22.40   26.30
  -5  -3 -14   11.10   17.80
  -5  -3 -14  -13.30   19.70
  -5   3 -14   26.20   20.60
  -5   3 -14   53.79   28.70
   5   3  14  -22.60   16.50
  -5   3 -14   18.20   21.00
   7  -3  14    9.80   22.10
  -7  -3 -14  -31.50   17.90
  -7  -3 -14  -32.30   27.30
  -7  -3 -14   19.00   27.00
   7   3  14  -17.30   21.00
  -7   3 -14   -4.80   28.10
   9  -3  14   14.30   25.40
  -9  -3 -14  -29.30   37.10
  -9  -3 -14  -16.90   33.80
   9   3  14   62.09   28.50
  -9   3 -14   23.10   35.30
  12  -4 -14   29.70   32.60
  12   4 -14    8.90   29.10
  10  -4 -14   20.30   27.70
  10   4 -14   50.99   30.90
   8  -4 -14   -8.90   21.90
   8  -4 -14   41.70   27.50
   8   4 -14   -3.00   23.30
   6  -4 -14  445.46   45.80
   6  -4 -14  411.56   39.30
   6  -4 -14  401.56   44.60
   6   4 -14  394.86   47.40
   4  -4 -14  409.16   38.40
   4  -4 -14  373.66   41.70
   4  -4 -14  409.66   40.00
   4   4 -14  424.06   36.20
   4   4 -14  359.16   41.40
   4   4 -14  347.97   39.40
   2  -4 -14   -7.80   13.50
   2  -4 -14   28.90   15.90
   2   4 -14   35.30   17.10
   2   4 -14   -2.70   13.00
   2   4 -14   28.90   14.60
   0  -4 -14   26.00   16.00
   0  -4 -14   30.80   15.90
   0   4 -14   20.50   17.30
   0   4 -14   18.10   17.20
   0   4 -14   23.10   11.40
  -2  -4 -14   32.80   15.90
  -2  -4 -14   41.00   18.80
  -2   4 -14   50.09   20.50
  -2   4 -14   95.19   25.20
  -4  -4 -14   13.10   23.60
  -4  -4 -14   15.30   18.50
  -4  -4 -14   19.60   18.30
  -4   4 -14   83.49   36.40
  -4   4 -14   16.60   18.80
  -4   4 -14   50.39   23.90
  -6  -4 -14   38.10   26.40
  -6  -4 -14   61.09   24.00
   6  -4  14   53.89   21.10
  -6  -4 -14   51.69   29.00
  -6   4 -14   21.10   28.10
   6   4  14   23.10   19.80
  -6   4 -14   46.10   22.80
  -8  -4 -14   42.30   35.10
  -8  -4 -14   75.39   36.90
   8  -4  14    9.40   23.70
   8   4  14   -2.70   23.60
  -8   4 -14   -2.60   30.60
  10  -4  14   38.20   30.60
 -10  -4 -14   96.99   52.49
 -10  -4 -14    9.10   38.60
 -10   4 -14   33.10   39.40
  10   4  14   45.20   32.30
  11  -5 -14   24.50   31.00
  11   5 -14   31.20   30.90
   9  -5 -14   -2.60   26.50
   9  -5 -14   28.50   29.70
   9   5 -14    4.20   25.20
   7  -5 -14   40.10   19.40
   7  -5 -14    7.30   20.40
   7  -5 -14   44.80   24.90
   7   5 -14   58.39   25.00
   5  -5 -14   17.30   18.70
   5  -5 -14   27.90   17.70
   5  -5 -14   13.70   18.00
   5   5 -14   -8.90   17.40
   3  -5 -14  -16.10   15.60
   3  -5 -14    9.00   15.80
   3  -5 -14    4.80   14.50
   3   5 -14   20.40   16.50
   3   5 -14   40.90   18.90
   1  -5 -14   33.40   16.70
   1  -5 -14    4.70   14.30
   1   5 -14   33.00   13.60
   1   5 -14   12.20   16.50
   1   5 -14    4.00   14.20
  -1  -5 -14   26.50   16.20
  -1  -5 -14   13.00   14.70
  -1   5 -14   -2.50   17.30
  -1   5 -14   19.10   16.30
  -3  -5 -14   24.40   18.60
  -3  -5 -14   21.60   22.00
  -3  -5 -14  -16.10   13.70
  -3   5 -14   36.10   22.10
  -3   5 -14   19.60   27.20
  -3   5 -14   34.20   19.00
  -5  -5 -14  103.29   29.50
  -5  -5 -14  100.09   26.00
  -5  -5 -14   19.70   18.50
  -5   5 -14  185.48   33.00
  -5   5 -14   40.40   23.40
   5   5  14   47.60   19.50
  -7  -5 -14    7.60   21.60
   7  -5  14    2.20   20.90
  -7  -5 -14   -1.50   30.30
  -7  -5 -14  -19.70   26.20
  -7   5 -14   13.40   32.40
   7   5  14   -1.80   22.70
  -9  -5 -14   19.40   38.60
  -9  -5 -14   -9.30   34.80
   9  -5  14   12.90   26.20
   9   5  14   14.10   27.20
  -9   5 -14    0.90   35.00
  12  -6 -14   12.00   31.80
  12   6 -14   27.20   36.30
  10  -6 -14   12.90   28.00
  10   6 -14  -22.10   25.10
   8  -6 -14    6.20   22.80
   8  -6 -14   -5.20   26.30
   8   6 -14   39.90   24.60
   6  -6 -14   -4.60   19.70
   6  -6 -14   78.09   25.30
   6  -6 -14   40.00   18.30
   6   6 -14   27.30   22.40
   4  -6 -14   48.20   22.20
   4  -6 -14   92.19   21.60
   4  -6 -14   46.90   20.30
   4   6 -14   99.09   23.30
   2  -6 -14    3.80   14.60
   2  -6 -14  -24.80   14.00
   2   6 -14    6.00   14.40
   0  -6 -14  105.99   23.60
   0  -6 -14  151.08   26.30
   0   6 -14  114.39   25.20
  -2  -6 -14   60.79   20.20
  -2  -6 -14   78.39   19.90
  -2   6 -14  178.88   31.80
  -4  -6 -14   26.60   18.30
  -4  -6 -14   46.90   26.00
  -4  -6 -14   77.39   24.40
   4   6  14   14.50   16.40
  -4   6 -14  113.39   29.20
  -6  -6 -14  -21.90   27.40
   6  -6  14   10.70   20.00
  -6  -6 -14   33.30   21.20
  -6  -6 -14  -15.70   23.20
   6   6  14    0.60   19.60
  -6   6 -14  -13.40   27.40
   8  -6  14   47.50   26.20
  -8  -6 -14   44.30   36.60
  -8  -6 -14  -11.20   32.80
   8   6  14  -12.30   23.40
  -8   6 -14   41.90   34.50
 -10  -6 -14   58.89   50.39
  10  -6  14   38.10   31.20
 -10  -6 -14   15.70   37.90
  10   6  14    9.20   29.40
 -10   6 -14   39.00   38.80
  11  -7 -14   -6.50   27.90
  11   7 -14  -10.20   26.60
   9  -7 -14   42.60   27.90
   9  -7 -14  142.29   35.20
   9   7 -14   24.70   26.40
   7  -7 -14   19.80   20.90
   7  -7 -14   -3.10   18.60
   7  -7 -14   57.09   26.40
   7   7 -14   15.70   24.40
   5  -7 -14   -4.70   17.70
   5  -7 -14   -5.00   19.10
   5  -7 -14  -21.10   16.70
   5   7 -14    8.90   19.00
   3  -7 -14    5.80   15.80
   3  -7 -14   -2.20   15.80
   3   7 -14   -1.10   15.90
   1  -7 -14  109.49   24.10
   1  -7 -14   76.99   21.50
   1   7 -14  117.59   19.80
  -1  -7 -14   28.30   17.50
  -1  -7 -14   32.00   18.10
  -3  -7 -14   27.70   17.80
  -3  -7 -14   51.89   24.10
  -3  -7 -14   -3.20   15.40
  -3   7 -14  -12.00   20.70
  -5  -7 -14   11.30   28.20
   5  -7  14    9.10   17.90
  -5  -7 -14    9.50   18.70
  -5  -7 -14   28.30   24.60
  -5   7 -14   21.40   28.00
   5   7  14   22.90   18.20
  -7  -7 -14  -11.90   30.20
  -7  -7 -14   -0.40   21.30
   7  -7  14    4.40   20.60
  -7  -7 -14    6.20   30.80
   7   7  14   23.10   24.90
  -7   7 -14   21.70   31.20
   9  -7  14   19.00   28.60
  -9  -7 -14   25.70   37.90
  -9  -7 -14    7.80   43.50
  -9   7 -14   48.30   35.30
   9   7  14   27.40   27.70
  12  -8 -14   12.00   31.20
  12   8 -14   40.40   34.00
  10  -8 -14   35.70   27.60
  10   8 -14   65.79   33.00
   8  -8 -14   41.80   27.60
   8  -8 -14   37.40   24.70
   8   8 -14   47.80   26.90
   6  -8 -14  107.49   25.10
   6  -8 -14   73.89   27.80
   6  -8 -14   90.59   28.10
   6   8 -14  118.09   29.10
   4  -8 -14  136.59   26.60
   4  -8 -14  114.19   26.30
   4   8 -14  177.88   28.90
   2  -8 -14    0.70   15.80
   2  -8 -14   29.40   17.40
   2   8 -14   -1.10   13.90
   0  -8 -14  138.29   27.30
   0  -8 -14  136.09   27.40
   0   8 -14  162.48   20.60
  -2  -8 -14  148.49   28.10
  -2  -8 -14  155.58   30.20
  -2   8 -14  248.58   30.30
  -4  -8 -14   29.70   27.60
  -4  -8 -14   48.40   21.80
  -4  -8 -14   28.80   20.20
   4   8  14   18.30   21.70
   4   8  14   18.90   16.60
  -4   8 -14   39.90   24.60
   6  -8  14   68.19   23.00
  -6  -8 -14   26.90   25.30
  -6  -8 -14   61.09   22.90
  -6  -8 -14   45.20   30.90
  -6   8 -14    7.30   29.20
   6   8  14   47.00   22.90
   8  -8  14   -6.20   24.40
  -8  -8 -14   10.50   34.60
  -8  -8 -14   41.50   35.30
   8   8  14   25.70   26.70
  -8   8 -14   25.50   34.20
 -10  -8 -14   20.30   48.50
  10  -8  14  -39.80   30.70
 -10  -8 -14   20.20   42.00
 -10   8 -14   61.09   43.90
  10   8  14    4.80   30.00
  11  -9 -14   27.60   29.60
  11   9 -14   -8.70   30.10
   9  -9 -14  189.78   44.00
   9  -9 -14  269.87   42.50
   9  -9 -14  202.08   38.50
   9   9 -14  188.48   42.10
   7  -9 -14  -28.70   18.40
   7  -9 -14   -3.80   21.10
   7  -9 -14   39.70   28.30
   7   9 -14   19.80   26.50
   5  -9 -14   16.20   19.30
   5  -9 -14    2.50   19.00
   5   9 -14    1.60   20.40
   3  -9 -14   77.49   22.20
   3  -9 -14   33.20   20.80
   3   9 -14   31.70   18.60
   1  -9 -14   98.09   24.00
   1  -9 -14  126.69   27.90
   1   9 -14  109.09   20.40
  -1  -9 -14   42.70   20.60
  -1  -9 -14   48.20   21.60
  -3  -9 -14   13.80   22.40
  -3  -9 -14   -2.20   15.50
  -3  -9 -14   18.30   18.10
   3   9  14   14.70   15.80
  -3   9 -14   27.80   21.10
  -5  -9 -14   96.59   32.10
   5  -9  14   84.49   23.90
  -5  -9 -14   61.69   24.00
  -5  -9 -14   47.50   24.40
   5   9  14   89.79   27.50
   5   9  14   82.19   22.70
  -5   9 -14   84.09   30.80
  -7  -9 -14   12.10   31.10
  -7  -9 -14    5.50   22.70
  -7  -9 -14   29.70   32.50
   7  -9  14    9.20   21.40
  -7   9 -14   45.10   33.80
   7   9  14  -10.10   22.20
  -9  -9 -14  -25.40   34.80
  -9  -9 -14   82.99   44.50
   9  -9  14   -0.90   28.50
  -9   9 -14  -20.50   35.30
   9   9  14   -5.50   28.50
  10 -10 -14   27.30   30.10
  10  10 -14  -11.00   28.00
   8 -10 -14   11.20   29.60
   8  10 -14    8.30   26.50
   6 -10 -14   13.50   21.90
   6 -10 -14   -1.10   23.00
   6  10 -14  -24.30   20.70
   4 -10 -14   64.39   23.80
   4 -10 -14   35.60   22.10
   4  10 -14   73.89   23.90
   2 -10 -14  -22.80   16.20
   2 -10 -14   18.60   18.80
   2  10 -14   14.80   16.30
   0 -10 -14  353.36   44.90
   0 -10 -14  309.47   41.80
   0  10  14  395.96   33.00
   0  10 -14  346.77   33.30
  -2 -10 -14  191.18   30.10
  -2 -10 -14   57.49   24.00
  -2 -10 -14  131.79   28.30
   2  10  14  165.98   23.30
  -2  10 -14  216.98   30.20
  -4 -10 -14   31.70   20.50
  -4 -10 -14   13.00   21.10
  -4 -10 -14   45.40   26.20
  -4  10 -14   65.99   26.60
   4  10  14   10.60   19.10
   4  10  14   69.89   25.60
   6 -10  14   97.89   28.40
  -6 -10 -14   79.59   35.00
  -6 -10 -14   78.49   25.40
  -6 -10 -14  154.68   34.60
  -6  10 -14  104.49   35.40
   6  10  14   40.00   22.80
  -8 -10 -14    2.70   38.10
  -8 -10 -14    6.20   35.80
   8 -10  14   12.10   26.50
   8  10  14   46.60   27.50
  -8  10 -14   14.10   33.70
 -10 -10 -14    2.90   40.20
 -10 -10 -14   84.19   53.09
  10 -10  14  -14.30   33.10
 -10  10 -14   -3.50   40.20
  10  10  14  -21.50   29.90
  11  11 -14   31.00   34.50
   9 -11 -14  105.19   40.00
   9 -11 -14   92.49   35.00
   9  11 -14   24.30   29.80
   7 -11 -14   86.79   32.10
   7 -11 -14   81.59   28.70
   7  11 -14   72.59   29.60
   5 -11 -14  -14.10   20.90
   5 -11 -14  -13.20   18.40
   5  11 -14   -8.40   20.40
   3 -11 -14  -31.30   16.80
   3 -11 -14    1.50   18.10
   3  11 -14   -4.90   17.90
   1 -11 -14    6.00   18.70
   1 -11 -14    9.50   18.00
   1  11 -14   25.80   15.80
  -1 -11 -14   20.40   19.50
  -1 -11 -14   77.99   24.00
  -1 -11 -14   93.59   24.30
   1  11  14   33.90   16.50
  -3 -11 -14   23.80   19.20
  -3 -11 -14  -12.20   18.10
  -3 -11 -14   19.90   25.70
  -3  11 -14   22.90   21.60
   3  11  14    7.90   16.60
  -5 -11 -14    2.50   30.20
  -5 -11 -14   37.10   19.90
   5 -11  14   53.39   24.50
  -5 -11 -14   39.40   22.70
   5  11  14   84.69   27.40
   5  11  14   41.30   21.80
  -5  11 -14   22.60   26.80
  -7 -11 -14   31.00   23.40
   7 -11  14   46.30   26.30
  -7 -11 -14   32.70   33.90
  -7 -11 -14   -3.50   33.20
  -7  11 -14   23.40   35.10
   7  11  14  -17.50   23.30
   9 -11  14   16.90   29.10
  -9 -11 -14   82.89   48.30
  -9 -11 -14    5.80   38.60
  -9  11 -14   -5.70   37.60
   9  11  14   20.20   29.20
  10  12 -14   -2.90   31.40
   8 -12 -14    5.50   29.20
   8 -12 -14  -21.00   23.20
   8  12 -14   36.10   29.40
   6 -12 -14  293.07   41.40
   6 -12 -14  225.08   42.30
   6  12 -14  252.57   41.10
   4 -12 -14   93.99   27.80
   4 -12 -14  121.99   30.70
   4  12 -14   62.09   25.50
   2 -12 -14  -17.60   17.60
   2 -12 -14    0.50   17.30
   2  12 -14    3.60   17.50
   0 -12 -14   48.80   22.00
   0 -12 -14   43.40   20.80
   0  12 -14   58.39   17.30
   0  12  14   23.10   16.20
  -2 -12 -14   43.30   21.30
  -2 -12 -14   83.99   26.90
  -2 -12 -14   48.80   22.50
   2  12  14   74.89   20.30
  -4 -12 -14   20.20   21.60
  -4 -12 -14   16.70   18.00
   4 -12  14   31.40   22.60
  -4 -12 -14   49.70   29.90
   4  12  14   -3.50   25.70
   4  12  14   18.60   19.50
  -4  12 -14    3.10   26.20
   6 -12  14   22.30   25.10
  -6 -12 -14    8.40   20.60
  -6 -12 -14   27.70   34.70
  -6 -12 -14   73.39   28.80
  -6  12 -14   52.29   31.50
   6  12  14   37.70   23.60
   8 -12  14   41.50   29.50
  -8 -12 -14   17.00   37.90
  -8 -12 -14   23.70   37.40
  -8  12 -14  -41.90   35.00
   8  12  14  -11.70   25.60
  11  13 -14   -7.20   35.00
   9  13 -14   -5.90   28.30
   7 -13 -14   24.40   25.50
   7 -13 -14   93.59   33.20
  -7 -13  14   37.90   35.70
   7  13 -14   75.59   32.40
   5 -13 -14    0.90   23.00
   5 -13 -14  -23.80   23.70
   5  13 -14    2.90   21.50
   3 -13 -14    3.60   19.90
   3 -13 -14   -5.90   19.70
   3  13 -14   30.50   22.00
   1 -13 -14   27.50   19.40
   1 -13 -14   -9.10   16.50
   1  13 -14    6.10   17.30
  -1 -13 -14   36.60   20.90
  -1 -13 -14   14.70   24.40
  -1 -13 -14   14.30   19.10
   1  13  14    1.60   16.00
  -3 -13 -14    8.80   19.90
  -3 -13 -14   -3.40   18.60
   3 -13  14   51.69   22.90
  -3 -13 -14   63.79   30.10
   3  13  14   -7.30   18.40
  -3  13 -14  -31.50   21.10
  -5 -13 -14   20.90   31.00
   5 -13  14   68.19   26.60
  -5 -13 -14   -7.10   19.10
  -5 -13 -14   17.30   24.80
   5  13  14   -2.60   26.60
   5  13  14   34.50   22.20
  -5  13 -14   25.70   30.30
  -7 -13 -14   52.49   36.20
  -7 -13 -14   -4.90   21.20
   7 -13  14   24.40   28.60
  -7 -13 -14   57.69   33.50
  -7  13 -14   24.00   31.60
   7  13  14  -15.90   24.80
   9 -13  14   -5.00   32.50
  -9 -13 -14   -9.00   41.70
  -9 -13 -14  -20.70   44.60
   9  13  14   35.30   30.90
  -9  13 -14   26.30   41.10
  10  14 -14   11.80   33.90
   8 -14 -14  -33.50   26.10
   8 -14 -14   -4.30   26.50
   8 -14 -14   -9.10   30.30
   8  14 -14   -9.30   30.70
  -6 -14  14  -20.10   24.90
   6 -14 -14   21.90   24.90
   6 -14 -14   -3.30   27.50
   6  14 -14  -27.90   24.20
   4 -14 -14  267.37   41.40
   4 -14 -14  141.09   34.80
  -4 -14  14  316.77   38.10
   4  14 -14  205.88   35.80
   2 -14 -14   25.00   20.50
   2 -14 -14    2.40   18.80
   2  14 -14    4.10   19.90
   0 -14 -14   95.29   26.40
   0 -14 -14   77.09   24.30
   0 -14 -14   59.69   24.50
   0  14 -14   48.60   19.60
  -2 -14 -14  -28.30   26.20
  -2 -14 -14   15.60   19.90
  -2 -14 -14   17.30   19.80
   2  14  14  -17.50   17.80
  -4 -14 -14   35.70   30.60
  -4 -14 -14   -5.90   18.70
  -4 -14 -14   10.90   23.30
   4 -14  14  -11.40   22.70
   4  14  14   17.30   21.30
  -4  14 -14   30.90   27.00
   4  14  14   47.20   29.30
   6 -14  14   -5.80   27.80
  -6 -14 -14  -13.30   31.00
  -6 -14 -14   11.40   21.70
  -6 -14 -14   44.50   30.80
  -6  14 -14  -30.50   28.30
   6  14  14   -8.40   23.50
   8 -14  14   13.00   31.10
  -8 -14 -14   -0.70   39.70
  -8 -14 -14   17.40   41.10
  -8  14 -14  -26.40   31.50
   8  14  14  -38.50   26.50
   9  15 -14   55.69   32.40
  -7 -15  14   26.90   38.60
   7 -15 -14    1.20   24.10
   7 -15 -14  -38.60   29.20
   7 -15 -14   47.40   28.70
   7  15 -14   -8.30   27.30
   5 -15 -14   -9.60   27.20
   5 -15 -14  -22.60   20.50
  -5 -15  14   -4.00   26.60
   5  15 -14   -6.90   23.40
   3 -15 -14    7.20   22.10
   3 -15 -14   19.80   22.80
   3  15 -14   25.70   23.00
   1 -15 -14    8.30   20.80
   1 -15 -14    1.40   19.00
   1 -15 -14  -13.10   20.10
   1  15 -14   -8.20   17.10
  -1 -15 -14   70.29   28.00
   1 -15  14   30.10   18.80
  -1 -15 -14   53.19   22.40
  -1 -15 -14   43.10   21.20
   1  15  14   30.30   18.10
  -1  15 -14   29.00   27.30
  -3 -15 -14    2.50   28.10
  -3 -15 -14   31.50   20.90
  -3 -15 -14   37.10   23.40
   3 -15  14   84.59   26.10
   3  15  14   15.20   20.20
  -5 -15 -14   30.60   21.70
  -5 -15 -14   30.50   26.70
  -5 -15 -14   31.70   33.80
   5 -15  14   13.00   26.30
   5  15  14   62.19   31.80
   5  15  14    5.20   22.40
  -5  15 -14   75.49   31.80
  -7 -15 -14   14.30   33.20
  -7 -15 -14   26.60   37.00
   7 -15  14    1.10   29.40
  -7 -15 -14    9.50   22.60
  -7  15 -14  -23.20   30.80
   7  15  14   -8.90   26.20
  10  16 -14   59.69   37.20
   8 -16 -14   10.80   28.80
   8 -16 -14   28.80   36.40
   8 -16 -14  -17.90   33.20
   8  16 -14   13.60   28.90
   6 -16 -14  167.68   32.20
   6 -16 -14  208.88   40.00
  -6 -16  14  174.38   37.60
   6 -16 -14  195.28   43.80
   6  16 -14  194.08   42.00
   4 -16 -14  164.58   35.10
   4 -16 -14  146.29   36.00
   4  16 -14  155.88   33.60
   2 -16 -14   -3.00   20.70
   2 -16 -14   27.20   22.60
   2  16 -14    2.80   20.40
   0 -16 -14   14.20   20.20
   0 -16  14   38.70   20.90
   0 -16 -14   -8.20   18.60
   0 -16 -14   63.59   28.10
   0  16 -14    8.40   19.40
  -2 -16 -14   30.60   30.20
  -2 -16 -14    1.40   18.50
  -2 -16 -14   -9.00   20.30
   2 -16  14   20.60   21.30
   2  16  14   11.00   19.60
  -4 -16 -14   17.70   24.40
  -4 -16 -14   18.70   35.80
  -4 -16 -14   18.40   22.20
   4 -16  14   28.40   27.50
   4  16  14   45.50   23.40
   4  16  14   95.39   34.20
  -6 -16 -14    5.30   36.70
  -6 -16 -14   53.69   32.90
   6 -16  14   46.40   30.20
  -6 -16 -14   25.80   23.40
  -6  16 -14   49.00   31.00
   6  16  14   -3.20   38.20
   6  16  14   27.80   25.80
   8 -16  14  -30.70   32.30
  -8 -16 -14    5.60   40.70
  -8 -16 -14   82.29   40.90
  -8  16 -14  -14.80   34.80
   8  16  14  -33.40   28.90
   9  17 -14  -26.70   30.90
  -7 -17  14    1.40   43.80
   7 -17 -14    7.30   27.60
   7 -17 -14  -24.60   34.70
   7 -17 -14  -10.90   28.40
   7  17 -14   47.40   34.60
   5 -17 -14    0.50   21.60
   5 -17 -14  -18.10   22.10
  -5 -17  14  -25.60   27.90
   5 -17 -14  -22.50   28.10
   5  17 -14   33.00   28.00
   3 -17 -14   14.20   24.10
   3 -17 -14  -11.10   22.20
   3  17 -14  -17.60   22.60
   1 -17 -14   43.70   24.40
   1 -17 -14  103.19   29.80
   1 -17 -14   94.89   27.60
   1  17 -14   96.59   27.60
  -1 -17 -14  215.58   37.80
   1 -17  14  164.88   29.00
  -1 -17 -14  121.19   29.60
  -1 -17 -14  205.58   35.20
  -3 -17 -14   68.09   26.30
   3 -17  14   85.89   28.30
  -3 -17 -14   61.19   37.70
  -3 -17 -14   41.70   22.50
   3  17  14   52.79   23.70
  -5 -17 -14   30.60   21.70
   5 -17  14    8.20   28.60
  -5 -17 -14   39.40   35.50
  -5 -17 -14   -1.60   26.00
   5  17  14    5.40   33.50
  -5  17 -14  -18.80   28.90
   5  17  14   34.50   26.00
  -7 -17 -14  -21.90   33.80
  -7 -17 -14  -30.00   35.10
  -7 -17 -14    1.10   21.80
   7 -17  14  -33.10   32.10
   7  17  14   30.50   29.80
  -7  17 -14   26.00   34.80
   8 -18 -14  -26.60   35.40
   8 -18 -14  -14.00   27.40
   8  18 -14   23.00   31.60
   6 -18 -14   69.19   32.40
   6 -18 -14  148.79   40.90
  -6 -18  14  130.39   38.30
   6 -18 -14  104.69   30.60
   6  18 -14  100.99   34.70
   4 -18 -14  155.58   39.10
   4 -18 -14  163.48   36.10
   4  18 -14  158.48   34.90
   2 -18 -14   18.40   22.50
   2 -18 -14   17.00   23.00
   2  18 -14   35.10   24.00
   0 -18 -14   24.10   23.90
   0 -18 -14   60.09   24.60
   0 -18 -14  101.69   30.70
   0 -18  14   53.09   23.80
   0  18 -14  112.69   25.80
   2 -18  14    1.90   23.90
  -2 -18 -14    5.40   28.00
  -2 -18 -14  -24.50   19.20
  -2 -18 -14   10.60   21.60
   2  18  14  -13.10   20.20
  -4 -18 -14    8.60   26.40
  -4 -18 -14   26.20   21.20
  -4 -18 -14  -38.00   31.20
   4 -18  14   21.90   27.90
   4  18  14   -3.20   23.50
   4  18  14   23.80   36.10
   6 -18  14   28.30   31.70
  -6 -18 -14    2.70   36.00
  -6 -18 -14  -18.70   29.00
  -6 -18 -14    7.20   20.40
   6  18  14    9.10   37.20
  -6  18 -14  -28.30   29.10
   6  18  14   38.80   27.00
   9  19 -14   89.39   39.10
  -7 -19  14    7.00   57.49
   7 -19 -14  -54.19   35.80
   7 -19 -14   37.80   31.30
   7  19 -14  -23.50   28.10
   5 -19 -14  -14.40   24.60
   5 -19 -14   -7.80   30.90
  -5 -19  14   -9.20   31.70
   5 -19 -14   20.40   24.80
   5  19 -14   13.80   27.80
   3 -19 -14   21.80   23.60
   3 -19 -14    0.10   24.10
   3 -19 -14   -0.20   24.50
   3  19 -14   11.00   25.80
   1 -19 -14   -0.80   21.10
  -1 -19  14    8.40   20.90
   1 -19 -14   20.90   21.60
   1  19 -14   -8.20   20.60
  -1 -19 -14    8.60   22.20
   1 -19  14  -12.80   22.70
  -1 -19 -14   28.60   21.00
  -1 -19 -14   -1.90   30.10
   3 -19  14  -18.50   24.00
  -3 -19 -14    2.80   22.10
  -3 -19 -14    2.40   35.80
  -3 -19 -14  -22.60   21.30
   3  19  14  -20.20   19.80
   3  19  14    5.10   38.40
  -5 -19 -14   -0.20   35.50
  -5 -19 -14   40.50   31.70
  -5 -19 -14   11.20   21.50
   5 -19  14   27.50   31.50
   5  19  14  -26.40   34.00
   5  19  14   18.00   28.10
  -7 -19 -14   -9.40   39.30
   7 -19  14  -36.50   36.90
  -7 -19 -14  -11.80   21.10
  -7 -19 -14   25.60   37.10
   7  19  14  -24.50   27.90
  -7  19 -14   28.50   37.90
   8 -20 -14    3.80   31.80
   8 -20 -14  -16.30   39.60
   8  20 -14    7.50   32.90
   6 -20 -14   88.29   46.40
   6 -20 -14  168.88   45.90
   6 -20 -14   71.69   31.10
  -6 -20  14   60.89   39.10
   6  20 -14   59.29   35.40
   4 -20 -14   93.99   33.50
   4 -20 -14   66.79   31.30
   4 -20 -14  164.58   40.00
   4  20 -14  160.88   38.10
   2 -20 -14   -4.30   20.60
   2 -20 -14   -2.20   23.30
   2 -20 -14  -24.10   21.40
   2  20 -14  -43.30   22.70
   0 -20 -14    0.50   20.90
   0 -20 -14   69.09   30.90
   0 -20  14   23.10   23.60
   0 -20 -14    0.20   22.10
   0  20 -14   28.30   26.00
  -2 -20 -14   -8.40   22.20
  -2 -20 -14   10.00   29.90
  -2 -20 -14   25.40   25.40
   2 -20  14    3.00   24.50
   2  20  14   23.20   22.50
  -4 -20 -14    6.80   33.50
  -4 -20 -14   -1.10   22.40
  -4 -20 -14  -37.30   23.20
   4 -20  14   18.10   29.50
   4  20  14    4.60   38.90
   4  20  14  -17.90   24.40
  -6 -20 -14  -37.40   33.90
  -6 -20 -14  -20.40   20.40
  -6 -20 -14   28.30   36.40
   6 -20  14   43.40   35.70
   6  20  14   26.00   28.90
   6  20  14   -5.30   38.40
   7 -21 -14   35.90   44.00
   7 -21 -14   34.10   32.90
   7  21 -14  -35.30   32.40
  -5 -21  14   12.70   37.10
   5 -21 -14  -16.50   35.30
   5 -21 -14  -32.50   26.70
   5  21 -14   -9.80   27.80
   3 -21 -14   36.90   38.50
   3 -21 -14    5.20   25.70
   3 -21 -14   33.30   27.60
   3  21 -14   26.70   27.20
   1 -21 -14   45.10   27.30
   1 -21 -14   40.80   26.80
  -1 -21  14  148.09   30.40
   1  21 -14  104.39   30.50
   1 -21  14   42.90   26.90
  -1 -21 -14    3.50   22.30
  -1 -21 -14    4.30   23.10
  -1 -21 -14   26.90   32.30
  -3 -21 -14   36.00   35.50
  -3 -21 -14    3.90   21.60
   3 -21  14   18.40   28.90
  -3 -21 -14   -7.90   23.00
   3  21  14   27.30   39.20
   3  21  14  -28.40   22.20
  -5 -21 -14  -21.70   29.90
   5 -21  14   -0.80   35.20
  -5 -21 -14  -18.30   22.60
  -5 -21 -14  -70.69   36.00
   5  21  14   -6.50   39.00
   5  21  14  -26.90   26.00
  -6 -22  14   95.89   44.40
   6 -22 -14  180.18   41.70
   6 -22 -14   63.69   44.70
   6  22 -14  114.89   40.10
   4 -22 -14  165.38   40.30
   4 -22 -14  183.38   43.80
   4  22 -14  114.89   36.40
   2 -22 -14    9.00   28.30
   2 -22 -14  -25.40   22.30
   2  22 -14   21.80   26.20
   0 -22 -14   -4.40   22.80
   0 -22 -14   27.20   32.00
   0 -22 -14   48.80   27.90
   0 -22  14  -33.40   24.30
   2 -22  14   13.30   26.80
  -2 -22 -14  -25.50   22.60
  -2 -22 -14   30.90   34.70
  -2 -22 -14    9.30   22.40
  -4 -22 -14  -34.90   38.80
   4 -22  14    0.80   29.90
  -4 -22 -14   35.50   29.10
  -4 -22 -14  -11.10   25.80
   4  22  14  -37.40   23.30
   4  22  14   -9.30   40.40
  -6 -22 -14  -14.80   41.50
  -6 -22 -14   -4.80   37.60
   6 -22  14   14.20   38.30
  -6 -22 -14   -1.70   23.90
   6  22  14  -31.60   28.50
   7 -23 -14    8.70   32.70
   7 -23 -14    3.00   46.00
   7  23 -14  -12.10   34.70
  -5 -23  14   25.40   40.10
   5 -23 -14  -13.60   27.20
   5 -23 -14   61.99   41.20
   5  23 -14    2.70   30.60
   3 -23 -14    5.40   26.70
   3 -23 -14   -8.70   26.40
   3  23 -14  -28.90   26.50
  -1 -23  14    7.70   27.70
   1 -23 -14   31.90   28.00
   1 -23 -14   50.59   29.40
   1  23 -14   15.80   26.20
  -1 -23 -14   25.20   26.20
   1 -23  14   54.89   28.30
  -1 -23 -14   63.59   37.30
  -3 -23 -14   62.89   31.30
  -3 -23 -14   26.70   34.60
   3 -23  14   11.00   29.80
   3  23  14    0.00   41.70
  -5 -23 -14   33.60   28.80
   5 -23  14   -7.00   34.70
  -5 -23 -14   -5.60   32.40
  -5 -23 -14   49.30   45.60
   5  23  14   80.39   47.60
   5  23  14   46.50   31.60
  -6 -24  14   -8.90   46.90
   6 -24 -14   36.20   35.00
   6 -24 -14   -1.20   47.20
   6  24 -14   13.70   35.30
   4 -24 -14   38.60   32.20
   4 -24 -14   49.50   36.10
   4  24 -14    1.30   31.20
  -2 -24  14    8.10   28.20
   2 -24 -14  -18.40   24.60
   2 -24 -14   -6.10   26.10
   2  24 -14   36.50   30.20
   0 -24 -14   45.80   27.70
   0 -24  14   34.60   27.90
   0 -24 -14   21.50   34.40
  -2 -24 -14   11.50   34.80
  -2 -24 -14   -1.60   24.40
   2 -24  14   -4.00   27.20
  -4 -24 -14    7.50   42.20
  -4 -24 -14   49.00   35.00
   4 -24  14   78.29   36.00
   4  24  14   47.30   30.90
   4  24  14   -8.60   46.10
   5 -25 -14   13.30   30.30
   5 -25 -14   13.00   42.40
  -5 -25  14   -8.50   46.60
   5  25 -14   51.19   36.90
   3 -25 -14  -17.00   30.50
   3 -25 -14  -13.90   25.80
   3  25 -14   29.40   31.20
   1 -25 -14   34.00   28.60
   1 -25 -14   20.70   27.10
  -1 -25  14  -11.00   27.60
  -1 -25 -14  -18.40   36.10
  -1 -25 -14    9.70   27.50
   1 -25  14   -9.90   29.00
  -3 -25 -14  -13.90   36.90
  -3 -25 -14    3.10   30.90
   3 -25  14  -14.80   30.60
   3  25  14  -26.30   41.50
   4 -26 -14    3.10   31.10
   4 -26 -14   -9.20   34.30
   4  26 -14    4.60   34.20
  -2 -26  14  -55.89   27.60
   2 -26 -14  -43.20   24.40
   2 -26 -14   -6.60   31.00
   2  26 -14    6.60   30.50
   0 -26 -14    9.40   37.70
   0 -26 -14   60.79   31.00
   0 -26  14   60.19   34.70
  -2 -26 -14  -35.30   35.70
   2 -26  14  -29.80   29.90
  -2 -26 -14   59.49   33.30
   2  26  14   19.30   48.10
   1 -27 -14   91.19   34.80
  -1 -27  14   22.20   34.10
  12   0 -15    2.90   29.20
  10   0 -15   -8.80   24.70
   8   0 -15  135.89   32.40
   8   0 -15   90.49   26.70
   6   0 -15   31.20   21.10
   6   0 -15   24.10   13.80
   6   0 -15   14.90   22.10
   4   0 -15    3.20   16.70
   4   0 -15    5.50   13.50
   4   0 -15  -16.30   15.20
   2   0 -15  183.78   26.80
   2   0 -15  193.48   25.70
   2   0 -15  110.29   24.30
   0   0 -15  357.26   39.70
   0   0 -15  424.46   42.10
  -2   0 -15   21.40   21.50
  -2   0 -15   10.40   18.40
  -4   0 -15  147.89   37.70
  -4   0 -15    9.20   19.50
  -4   0 -15   85.99   26.70
  -6   0 -15   45.60   23.20
   6   0  15   20.90   20.10
  -6   0 -15   -9.70   22.30
  -6   0 -15    5.60   28.80
  -8   0 -15   -1.10   31.10
   8   0  15    4.60   25.30
  -8   0 -15   -8.50   33.60
 -10   0 -15   65.79   42.00
  10   0  15   -4.90   29.90
  11  -1 -15    9.20   29.80
  11   1 -15    4.10   27.40
   9  -1 -15   24.80   22.40
   9   1 -15   51.19   27.70
   7  -1 -15    5.10   21.50
   7  -1 -15   53.59   25.70
   7   1 -15    3.80   23.20
   7   1 -15   29.60   23.30
   5  -1 -15  670.03   59.89
   5  -1 -15  682.53   61.79
   5  -1 -15  720.23   56.39
   5   1 -15  646.94   54.69
   5   1 -15  711.33   60.09
   5   1 -15  675.23   62.29
   3  -1 -15  112.99   25.00
   3  -1 -15  139.59   24.30
   3  -1 -15  197.58   27.20
   3   1 -15  168.58   24.80
   3   1 -15  172.28   25.90
   3   1 -15  101.19   24.70
   1  -1 -15    8.10   13.10
   1  -1 -15   22.90   17.10
   1  -1 -15    8.50   13.20
   1   1 -15    5.70   15.40
   1   1 -15   10.10   14.30
   1   1 -15   -9.50   13.30
  -1  -1 -15   68.99   21.40
  -1  -1 -15   70.59   19.10
  -1   1 -15  112.99   24.80
  -1   1 -15   46.60   20.60
  -3  -1 -15   54.79   23.30
  -3  -1 -15    3.10   14.10
  -3  -1 -15    1.20   17.60
  -3   1 -15   22.00   17.90
  -3   1 -15   73.39   23.60
  -3   1 -15   32.40   25.30
  -5  -1 -15  104.89   26.80
  -5  -1 -15   71.29   27.10
  -5  -1 -15  108.69   32.70
  -5   1 -15  103.39   27.20
  -5   1 -15   40.90   28.10
  -5   1 -15   43.10   23.80
  -7  -1 -15   12.90   32.60
  -7  -1 -15  -22.10   27.60
  -7  -1 -15   15.90   22.70
   7  -1  15   -3.80   20.90
  -7   1 -15   14.70   27.50
   7   1  15   18.10   23.00
  -7   1 -15   11.50   32.40
   9  -1  15  -43.50   25.20
  -9  -1 -15   44.20   38.70
  -9  -1 -15   21.20   36.80
  -9   1 -15    6.20   35.80
   9   1  15   31.50   28.70
  12  -2 -15   46.80   33.90
  12   2 -15   27.60   33.10
  10  -2 -15   61.39   30.60
  10   2 -15   44.70   29.40
   8  -2 -15   38.20   25.80
   8  -2 -15   37.00   24.50
   8   2 -15   38.70   26.60
   6  -2 -15   67.49   24.10
   6  -2 -15   81.49   19.20
   6  -2 -15   49.99   25.10
   6   2 -15   82.09   26.50
   6   2 -15   91.49   26.10
   6   2 -15   79.49   19.00
   4  -2 -15   11.60   18.00
   4  -2 -15   16.30   15.30
   4  -2 -15   -1.50   14.30
   4   2 -15    3.60   17.00
   4   2 -15   26.30   17.50
   4   2 -15    3.70   13.80
   2  -2 -15   -4.00   13.40
   2  -2 -15   17.30   14.80
   2  -2 -15   12.60   15.10
   2   2 -15   29.60   16.30
   2   2 -15    6.60   14.00
   2   2 -15   43.60   16.20
   0  -2 -15   35.30   15.80
   0  -2 -15   24.80   17.20
   0   2 -15   10.90   16.40
   0   2 -15   40.10   18.80
   0   2 -15   32.30   13.60
  -2  -2 -15   -6.00   11.90
  -2  -2 -15  -15.20   15.60
  -2   2 -15  -22.00   15.60
  -2   2 -15  -18.60   19.50
  -4  -2 -15   34.40   16.60
  -4  -2 -15   39.80   21.70
  -4  -2 -15   91.49   26.40
  -4   2 -15   19.70   20.90
  -4   2 -15  102.99   37.40
  -4   2 -15   19.50   25.00
  -6  -2 -15   16.80   30.20
  -6  -2 -15   -8.90   24.00
  -6  -2 -15   17.60   20.80
   6  -2  15    8.00   18.60
  -6   2 -15   30.20   21.40
   6   2  15   29.10   20.50
  -6   2 -15   61.49   32.60
  -6   2 -15   20.10   22.50
  -8  -2 -15   64.79   36.30
   8  -2  15    3.90   24.00
  -8  -2 -15   20.30   35.50
   8   2  15   10.20   26.10
  -8   2 -15   41.50   35.50
  10  -2  15  -41.10   29.60
 -10  -2 -15   -7.60   38.40
 -10   2 -15  -28.10   38.80
  10   2  15    4.20   29.60
  11  -3 -15   27.20   30.80
  11   3 -15   13.90   27.80
   9  -3 -15   -0.80   25.50
   9  -3 -15    8.70   27.00
   9   3 -15   10.10   24.70
   7  -3 -15  192.28   35.70
   7  -3 -15  127.49   31.30
   7   3 -15  151.38   31.20
   5  -3 -15  361.66   43.20
   5  -3 -15  359.26   44.40
   5  -3 -15  339.77   37.40
   5   3 -15  316.17   34.80
   5   3 -15  355.86   45.10
   5   3 -15  361.96   42.70
   3  -3 -15  313.77   35.40
   3  -3 -15  291.87   34.30
   3  -3 -15  217.48   34.40
   3   3 -15  310.77   38.90
   3   3 -15  198.28   29.20
   3   3 -15  228.08   31.20
   1  -3 -15   41.10   17.30
   1  -3 -15   59.49   20.10
   1   3 -15   46.00   15.20
   1   3 -15   54.29   19.20
   1   3 -15   44.50   17.60
  -1  -3 -15  106.19   24.20
  -1  -3 -15   85.79   23.30
  -1   3 -15   82.59   24.80
  -1   3 -15   94.59   22.90
  -3  -3 -15   -2.30   18.10
  -3  -3 -15   26.20   21.80
  -3  -3 -15   40.70   19.50
  -3   3 -15    6.30   19.20
  -3   3 -15   52.49   28.40
  -3   3 -15   44.90   22.20
  -5  -3 -15   11.00   17.10
  -5  -3 -15   16.00   27.20
  -5  -3 -15   27.60   26.40
  -5   3 -15  110.89   27.10
  -5   3 -15   84.19   24.60
  -5   3 -15   88.49   30.90
  -7  -3 -15   10.90   33.50
   7  -3  15  -41.50   19.90
  -7  -3 -15   -6.30   18.10
  -7  -3 -15   14.00   27.40
  -7   3 -15    0.30   31.90
   7   3  15   11.80   22.00
  -9  -3 -15   27.60   37.50
   9  -3  15  -17.10   25.70
  -9  -3 -15    8.30   39.70
   9   3  15   26.60   28.00
  -9   3 -15   32.70   38.40
  12  -4 -15  -56.59   31.50
  12   4 -15  -16.40   29.50
  10  -4 -15   82.59   33.20
  10   4 -15   65.49   31.60
   8  -4 -15   19.00   28.80
   8  -4 -15  -19.50   22.60
   8   4 -15    8.30   25.70
   6  -4 -15   12.10   22.10
   6  -4 -15   10.60   15.60
   6  -4 -15   10.40   21.20
   6   4 -15  -14.60   21.10
   4  -4 -15   27.30   18.10
   4  -4 -15    9.10   17.30
   4  -4 -15   15.80   16.10
   4   4 -15   -5.60   18.10
   4   4 -15   39.50   19.10
   4   4 -15    4.40   14.20
   2  -4 -15  205.88   30.20
   2  -4 -15  184.58   31.90
   2   4 -15  165.08   26.80
   2   4 -15  192.38   25.20
   2   4 -15  137.39   27.50
   0  -4 -15   54.79   20.10
   0  -4 -15   80.39   21.50
   0   4 -15   50.79   20.70
   0   4 -15   40.00   20.30
   0   4 -15   56.69   13.40
  -2  -4 -15   31.60   18.50
  -2  -4 -15  -16.40   13.80
  -2   4 -15    8.00   22.90
  -2   4 -15   10.80   18.50
  -4  -4 -15   69.29   26.70
  -4  -4 -15   64.19   24.30
  -4  -4 -15   48.00   20.00
  -4   4 -15  130.19   28.70
  -4   4 -15   34.50   21.10
  -4   4 -15  133.09   43.70
   6  -4  15  -12.20   18.20
  -6  -4 -15   -1.80   17.50
  -6  -4 -15   -3.40   29.70
  -6  -4 -15  -12.40   23.70
   6   4  15   15.60   20.80
  -6   4 -15   37.50   32.40
  -6   4 -15    3.30   20.80
  -8  -4 -15   32.40   34.10
  -8  -4 -15   -0.80   35.40
   8  -4  15    9.30   25.00
   8   4  15   25.00   27.60
  -8   4 -15   42.30   36.20
  10  -4  15   24.80   32.80
 -10  -4 -15   37.90   47.70
 -10  -4 -15    0.50   40.40
  10   4  15   62.69   33.40
 -10   4 -15   17.50   41.80
  11  -5 -15   17.60   26.70
  11   5 -15   23.80   31.90
   9  -5 -15    5.90   29.20
   9  -5 -15   13.20   25.80
   9   5 -15  -20.20   23.90
   7  -5 -15  144.69   32.10
   7  -5 -15  151.98   34.10
   7   5 -15  175.58   32.90
   5  -5 -15  238.08   32.30
   5  -5 -15  196.68   34.90
   5  -5 -15  227.98   33.50
   5   5 -15  261.07   35.90
   3  -5 -15  266.87   33.60
   3  -5 -15  207.78   33.70
   3   5 -15  273.97   32.50
   3   5 -15  195.28   32.90
   3   5 -15  225.38   29.60
   1  -5 -15  -16.00   13.60
   1  -5 -15  -10.10   14.30
   1   5 -15   11.50   16.20
   1   5 -15   -7.70   12.60
   1   5 -15   13.20   15.30
  -1  -5 -15   51.19   20.10
  -1  -5 -15   75.29   21.20
  -1   5 -15   77.69   22.60
  -1   5 -15   68.49   25.20
  -3  -5 -15   -8.10   16.40
  -3  -5 -15  -32.20   20.40
  -3  -5 -15   13.20   17.20
  -3   5 -15   10.80   18.00
  -3   5 -15    6.70   21.30
  -3   5 -15  -16.50   29.30
  -5  -5 -15   62.79   27.10
  -5  -5 -15   55.09   28.60
  -5  -5 -15   44.00   21.00
  -5   5 -15   49.90   24.40
  -5   5 -15  132.39   32.20
   5   5  15   67.49   22.10
   7  -5  15    1.50   22.40
  -7  -5 -15   26.80   32.00
  -7  -5 -15   32.30   29.90
  -7  -5 -15   66.79   26.80
  -7   5 -15  -13.10   33.10
   7   5  15   19.10   21.90
  -9  -5 -15   10.60   38.00
  -9  -5 -15   10.10   37.20
   9  -5  15   11.70   30.80
   9   5  15  -19.20   27.20
  -9   5 -15   39.60   39.30
  12  -6 -15  -15.00   32.40
  12   6 -15  -10.90   32.10
  10  -6 -15   36.70   28.70
  10   6 -15   36.40   30.50
   8  -6 -15  147.49   36.70
   8  -6 -15  104.39   29.50
   8   6 -15  176.38   35.80
   6  -6 -15  170.58   28.70
   6  -6 -15  142.69   29.90
   6  -6 -15  154.08   32.50
   6   6 -15  182.28   33.80
   4  -6 -15   29.70   20.90
   4  -6 -15   51.29   22.30
   4  -6 -15   -2.50   17.50
   4   6 -15   45.90   20.80
   2  -6 -15  310.67   42.00
   2  -6 -15  367.66   39.30
   2   6 -15  392.96   35.80
   0  -6 -15   79.39   21.50
   0  -6 -15   24.90   17.80
   0   6 -15   26.90   18.90
  -2  -6 -15  -14.90   13.70
  -2  -6 -15  -21.40   13.40
  -2   6 -15  -12.20   24.40
  -4  -6 -15   50.09   22.90
  -4  -6 -15   55.09   20.70
  -4  -6 -15   57.79   27.70
  -4   6 -15   82.59   26.90
   4   6  15   30.20   17.60
  -6  -6 -15  -47.10   28.00
   6  -6  15   77.89   23.50
  -6  -6 -15   25.70   22.70
  -6  -6 -15   53.29   29.60
   6   6  15   17.90   21.20
  -6   6 -15   22.10   30.10
   8  -6  15  -29.20   24.60
  -8  -6 -15   70.49   39.50
  -8  -6 -15  -28.20   32.70
   8   6  15    4.30   25.50
  -8   6 -15   10.70   34.20
 -10  -6 -15   27.30   43.20
 -10  -6 -15   54.39   53.79
 -10   6 -15   44.80   41.90
  10   6  15   56.69   33.50
  11  -7 -15  -26.50   27.50
  11   7 -15   -7.80   33.00
   9  -7 -15  -23.50   29.40
   9  -7 -15   26.30   23.90
   9   7 -15  -21.60   25.90
   7  -7 -15    0.50   18.50
   7  -7 -15    9.00   26.30
   7  -7 -15   28.70   24.80
   7   7 -15   12.70   24.00
   5  -7 -15  130.69   26.20
   5  -7 -15  117.69   28.50
   5  -7 -15   90.29   28.90
   5   7 -15  113.79   27.40
   3  -7 -15  114.19   25.30
   3  -7 -15   85.29   23.00
   3   7 -15   87.09   23.00
   1  -7 -15   86.99   22.50
   1  -7 -15   38.70   21.00
   1   7 -15   47.10   15.90
  -1  -7 -15  110.19   24.50
  -1  -7 -15  107.79   25.10
  -3  -7 -15   36.10   26.00
  -3  -7 -15   -8.90   15.30
  -3  -7 -15   18.80   17.30
  -3   7 -15   -1.20   21.00
  -5  -7 -15   14.80   29.00
  -5  -7 -15   27.60   20.40
  -5  -7 -15   58.19   26.10
  -5   7 -15   57.09   30.30
   5   7  15   67.29   20.80
   7  -7  15   31.40   23.50
  -7  -7 -15   44.40   34.20
  -7  -7 -15   19.40   24.40
  -7  -7 -15  -24.50   27.90
   7   7  15  -12.00   21.90
  -7   7 -15   21.10   34.40
  -9  -7 -15  -11.40   40.50
  -9  -7 -15   -2.80   39.50
  -9   7 -15  -24.00   34.10
   9   7  15   20.60   29.60
  10  -8 -15    5.10   28.50
  10   8 -15   17.10   32.10
   8  -8 -15   34.90   25.50
   8  -8 -15   -9.20   28.20
   8   8 -15   24.80   26.30
   6  -8 -15   97.79   27.40
   6  -8 -15   81.89   30.60
   6  -8 -15  119.39   27.00
   6   8 -15   66.29   28.60
   4  -8 -15  179.58   32.90
   4  -8 -15  139.59   29.30
   4   8 -15  167.28   30.40
   2  -8 -15   40.50   19.90
   2  -8 -15   91.29   24.50
   2   8 -15   82.89   19.50
   0  -8 -15   46.80   21.90
   0  -8 -15   56.69   21.60
   0   8 -15   35.80   14.20
  -2  -8 -15    6.20   18.20
  -2  -8 -15   10.90   18.40
  -2   8 -15   30.40   19.70
  -4  -8 -15   25.90   20.10
  -4  -8 -15   13.50   19.70
  -4  -8 -15   47.80   29.50
  -4   8 -15   57.49   27.60
   4   8  15   58.19   19.20
   4   8  15   65.09   24.70
  -6  -8 -15   32.90   28.70
   6  -8  15   37.60   24.00
  -6  -8 -15   10.40   31.80
  -6  -8 -15   75.69   25.60
   6   8  15   62.19   23.80
  -6   8 -15   45.70   34.10
  -8  -8 -15  -18.70   34.20
  -8  -8 -15   25.80   37.20
   8   8  15    0.30   25.50
  -8   8 -15   48.30   37.30
  11  -9 -15  -54.89   25.70
  11   9 -15  -26.70   32.20
   9  -9 -15    3.60   27.20
   9  -9 -15   40.70   30.20
   9   9 -15   -3.00   27.50
   7  -9 -15  165.78   33.00
   7  -9 -15  146.49   29.50
   7  -9 -15  125.49   35.10
   7   9 -15  141.59   35.70
   5  -9 -15  173.58   34.30
   5  -9 -15  188.18   32.90
   5   9 -15  182.28   34.30
   3  -9 -15  162.38   29.80
   3  -9 -15   96.09   25.90
   3   9 -15  125.29   26.10
   1  -9 -15    0.00   17.50
   1  -9 -15   19.70   19.40
   1   9 -15   20.90   15.40
  -1  -9 -15  247.68   38.40
  -1  -9 -15  296.17   40.30
  -3  -9 -15   19.00   18.60
  -3  -9 -15   22.00   25.90
  -3  -9 -15   -3.10   20.10
  -3   9 -15    7.50   22.90
   3   9  15   18.20   17.30
  -5  -9 -15   18.90   20.30
  -5  -9 -15   13.50   24.00
  -5  -9 -15   56.49   32.20
  -5   9 -15   45.50   32.10
   5   9  15   82.19   23.20
  -7  -9 -15   28.10   34.00
  -7  -9 -15   50.09   35.00
   7  -9  15   28.80   44.40
  -7  -9 -15   61.29   26.80
  -7   9 -15   75.09   37.60
   7   9  15   29.10   25.80
  -9  -9 -15   44.70   43.90
  -9  -9 -15  -18.00   38.50
  -9   9 -15  -48.10   35.30
   9   9  15   12.60   30.90
  10 -10 -15   29.00   31.50
  10  10 -15   51.29   33.60
   8 -10 -15   19.50   32.10
   8  10 -15   -4.10   25.80
   6 -10 -15   83.89   27.50
   6 -10 -15  102.39   32.40
   6  10 -15   79.09   29.00
   4 -10 -15    6.30   20.40
   4 -10 -15   -0.30   20.60
   4  10 -15   -9.50   19.30
   2 -10 -15   14.70   19.90
   2 -10 -15   40.40   20.90
   2  10 -15   28.40   17.40
   0 -10 -15   49.10   21.50
   0 -10 -15   31.80   22.40
   0  10  15   49.10   15.80
   0  10 -15   39.30   15.70
  -2 -10 -15   -9.40   17.80
  -2 -10 -15   -3.60   17.50
   2  10  15   13.40   15.90
  -2  10 -15   20.20   20.70
  -4 -10 -15   32.30   21.60
  -4 -10 -15   10.70   19.50
  -4 -10 -15  -24.40   26.50
   4  10  15   45.00   20.80
  -4  10 -15   16.80   24.80
   4  10  15   36.20   25.40
  -6 -10 -15   40.50   34.80
   6 -10  15   12.20   44.00
  -6 -10 -15   44.90   23.50
  -6 -10 -15   27.40   28.60
  -6  10 -15    4.10   34.10
   6  10  15   65.59   26.40
  -8 -10 -15  -22.30   37.60
  -8 -10 -15    0.00   38.00
  -8  10 -15  -15.90   33.60
   8  10  15   25.20   28.50
  11  11 -15   59.59   38.70
   9 -11 -15   17.30   34.00
   9  11 -15   -7.10   28.80
   7 -11 -15    1.50   23.40
   7 -11 -15  -44.20   27.00
   7  11 -15  -53.19   22.30
   5 -11 -15   32.60   25.20
   5 -11 -15  -13.90   20.30
   5  11 -15   45.00   23.50
   3 -11 -15   60.19   24.20
   3 -11 -15   43.80   24.80
   3  11 -15   83.39   23.20
   1 -11 -15   44.30   22.00
   1 -11 -15    5.60   18.50
   1  11 -15    5.40   15.40
  -1 -11 -15  112.39   28.50
  -1 -11 -15   89.09   26.10
   1  11  15  104.69   20.90
  -3 -11 -15   -8.00   25.40
  -3 -11 -15  -24.20   16.80
  -3 -11 -15   20.70   21.70
   3  11  15   13.20   18.30
  -3  11 -15   60.39   26.10
  -5 -11 -15   69.49   36.50
  -5 -11 -15   28.90   24.20
  -5 -11 -15   50.29   25.10
   5 -11  15   52.99   45.20
   5  11  15   80.49   24.50
  -5  11 -15   68.29   31.00
  -7 -11 -15   -1.30   31.70
  -7 -11 -15  -14.20   37.70
  -7 -11 -15  -16.10   21.50
   7  11  15  -18.80   23.50
  -7  11 -15   19.50   35.00
  -9 -11 -15   28.10   50.29
  -9 -11 -15  -34.50   37.70
  -9  11 -15   -2.30   38.60
   9  11  15   19.10   31.80
  10  12 -15   33.10   33.70
   8 -12 -15  -20.00   30.90
   8  12 -15   15.00   28.60
   6 -12 -15   58.59   28.50
   6 -12 -15   -1.10   22.40
   6  12 -15   25.70   26.70
   4 -12 -15  -17.00   21.20
   4 -12 -15   33.70   22.40
   4  12 -15    9.80   21.70
   2 -12 -15   87.79   26.40
   2 -12 -15  115.19   28.70
   2  12 -15  151.48   26.70
   0 -12 -15   25.20   21.90
   0 -12 -15   29.00   21.50
   0  12 -15   28.60   16.80
   0  12  15   39.10   17.20
  -2 -12 -15   11.00   19.40
  -2 -12 -15    7.60   21.40
  -2 -12 -15   25.40   25.70
   2  12  15   46.40   19.80
  -4 -12 -15   80.39   25.70
  -4 -12 -15  108.39   32.90
  -4 -12 -15   90.99   27.80
   4 -12  15   60.89   39.40
   4  12  15   88.89   25.10
  -4  12 -15  122.59   32.50
   4  12  15  166.88   32.80
  -6 -12 -15  122.39   40.10
  -6 -12 -15   96.09   30.00
  -6 -12 -15   -5.60   22.10
   6  12  15   21.60   24.10
  -6  12 -15   32.20   32.20
  -8 -12 -15  -31.30   39.00
  -8 -12 -15   56.49   41.50
   8  12  15   22.90   28.80
  -8  12 -15  -28.10   34.80
   9  13 -15   16.70   31.30
   7 -13 -15   30.90   26.80
   7 -13 -15   60.59   33.10
   7  13 -15   44.20   31.90
   5 -13 -15  113.39   31.10
   5 -13 -15  108.39   35.10
   5  13 -15  118.39   30.60
   3 -13 -15  133.49   33.00
   3 -13 -15  150.68   31.60
   3  13 -15  136.69   29.80
   1 -13 -15   32.30   21.90
   1 -13 -15   -0.90   19.30
   1  13 -15   39.80   18.90
  -1 -13 -15   28.10   22.20
  -1 -13 -15   37.80   22.30
  -1 -13 -15  101.09   29.70
   1  13  15   98.79   21.60
  -3 -13 -15  -17.40   19.80
  -3 -13 -15  -20.20   27.10
  -3 -13 -15   -3.90   18.70
  -3  13 -15   -7.70   24.40
   3  13  15  -15.20   18.00
  -5 -13 -15   53.69   28.20
  -5 -13 -15   51.89   24.70
  -5 -13 -15   59.99   35.70
   5  13  15   50.49   39.60
   5  13  15   58.99   25.60
  -5  13 -15  106.19   34.40
  -7 -13 -15   15.90   40.60
  -7 -13 -15  -11.20   21.90
  -7 -13 -15   17.80   35.80
  -7  13 -15  -36.80   29.70
   7  13  15    4.70   25.40
  -9 -13 -15  -49.00   40.90
   9  13  15   -1.10   31.30
  -9  13 -15   91.39   43.20
  10  14 -15   -3.30   33.10
   8 -14 -15   58.69   36.10
   8  14 -15   27.30   29.90
   6 -14 -15  -17.20   28.60
   6 -14 -15   30.10   25.60
   6  14 -15   18.30   24.80
   4 -14 -15   42.70   27.60
   4 -14 -15   21.90   23.70
   4  14 -15   -9.30   22.70
   2 -14 -15   49.60   25.90
   2 -14 -15   67.19   25.00
   2  14 -15   69.49   24.90
   0 -14 -15   26.20   21.70
   0 -14 -15   14.70   21.20
   0  14 -15   29.50   18.70
  -2 -14 -15    6.00   21.10
  -2 -14 -15   26.30   21.00
  -2 -14 -15   52.99   29.50
   2  14  15   18.90   19.20
  -4 -14 -15   27.30   21.20
  -4 -14 -15  -21.70   20.40
  -4 -14 -15   15.40   31.30
   4  14  15   45.40   23.70
  -4  14 -15   35.00   28.50
   4  14  15   53.09   32.80
  -6 -14 -15  -22.90   32.30
  -6 -14 -15   33.90   23.00
  -6 -14 -15    5.20   26.70
  -6  14 -15   -4.30   32.10
   6  14  15    6.10   24.70
  -8 -14 -15  -25.00   39.10
  -8 -14 -15  -23.40   41.20
   8  14  15   -7.60   28.60
  -8  14 -15   -6.10   34.20
   9  15 -15   23.20   33.80
   7 -15 -15   26.50   29.70
   7 -15 -15   33.70   35.80
   7  15 -15  121.69   34.50
   5 -15 -15   55.49   32.60
   5 -15 -15   56.19   29.20
   5  15 -15   71.39   31.40
   3 -15 -15   25.70   26.10
   3 -15 -15   76.89   27.20
   3  15 -15   49.80   24.80
   1 -15 -15   21.30   21.60
   1 -15 -15   -7.10   20.20
   1  15 -15   15.00   19.30
  -1 -15 -15   -0.90   20.70
  -1 -15 -15   26.40   22.40
  -1 -15 -15   40.00   29.70
   1  15  15   21.10   19.60
  -3 -15 -15   10.20   22.20
  -3 -15 -15   36.80   30.30
  -3 -15 -15   -5.80   22.40
   3  15  15   53.39   23.40
  -5 -15 -15   63.49   27.10
  -5 -15 -15   19.80   21.60
  -5 -15 -15   28.70   36.20
   5  15  15    3.80   31.90
  -5  15 -15   33.30   33.00
   5  15  15   41.10   25.40
  -7 -15 -15   13.60   34.00
  -7 -15 -15  -17.40   21.40
  -7 -15 -15  -34.30   39.60
   7  15  15   20.60   28.70
  -7  15 -15  -63.29   34.20
  10  16 -15    3.40   36.40
   8 -16 -15    1.90   37.90
   8 -16 -15  -43.30   31.30
   8  16 -15   -2.10   28.70
   6 -16 -15   33.40   33.70
   6 -16 -15  -24.00   25.80
   6  16 -15  -31.60   25.00
   4 -16 -15   60.49   29.90
   4 -16 -15   22.90   25.30
   4  16 -15   52.09   25.30
   2 -16 -15   -6.20   19.50
   2 -16 -15   14.90   22.40
   2  16 -15   -9.20   20.00
   0 -16 -15  209.08   36.10
   0 -16 -15  177.48   33.10
   0 -16  15  119.79   26.70
   0 -16 -15  100.59   31.90
   0  16 -15  167.78   33.40
  -2 -16 -15    3.40   20.70
  -2 -16 -15  -21.20   21.10
   2 -16  15   19.00   29.50
  -2 -16 -15   -9.70   29.20
   2  16  15    6.10   20.30
  -4 -16 -15   61.29   26.50
  -4 -16 -15   32.10   31.80
  -4 -16 -15   49.99   25.20
   4  16  15   68.09   35.20
   4  16  15  -27.10   22.60
  -6 -16 -15  -75.79   34.20
  -6 -16 -15  -33.10   19.30
  -6 -16 -15  -32.00   27.10
  -6  16 -15   18.60   34.40
   6  16  15  -12.40   24.90
  -8 -16 -15   32.80   44.90
  -8 -16 -15   34.40   48.60
  -8  16 -15   14.70   40.00
   8  16  15   41.60   34.00
   9  17 -15   26.50   33.60
   7 -17 -15   13.80   28.50
   7 -17 -15   13.90   36.10
   7  17 -15    7.10   32.40
  -5 -17  15  303.37   54.89
   5 -17 -15  242.88   48.20
   5 -17 -15  189.48   40.40
   5  17 -15  233.18   41.80
   3 -17 -15   -7.90   22.90
   3 -17 -15    8.70   24.70
   3  17 -15  -18.90   23.30
   1 -17 -15  -12.20   20.70
   1 -17 -15    2.20   22.20
   1 -17 -15   17.60   25.90
   1  17 -15   23.20   21.60
  -1 -17 -15    2.00   22.10
   1 -17  15   12.70   25.00
  -1 -17 -15   50.59   24.90
  -1 -17 -15   31.60   26.20
  -3 -17 -15   -2.00   23.10
  -3 -17 -15  -12.30   18.50
  -3 -17 -15   41.10   35.20
   3  17  15   17.60   22.50
  -5 -17 -15   18.20   22.40
  -5 -17 -15   32.90   36.90
  -5 -17 -15   68.59   31.20
   5  17  15   -9.80   24.10
  -5  17 -15   21.70   31.10
   5  17  15   23.20   34.90
  -7 -17 -15  -10.40   21.90
  -7 -17 -15   18.00   35.60
  -7 -17 -15   32.30   39.40
  -7  17 -15   39.20   34.40
   7  17  15   54.09   31.00
   8 -18 -15    9.70   38.10
   8 -18 -15   50.09   33.40
   8  18 -15  -14.20   33.00
   6 -18 -15  -56.09   31.50
   6 -18 -15  -24.60   26.20
   6  18 -15   20.60   30.40
   4 -18 -15  -14.10   26.80
   4 -18 -15   15.60   25.30
   4  18 -15   14.50   25.80
   2 -18 -15   34.00   24.90
   2 -18 -15   66.89   28.10
   2  18 -15   72.29   27.00
   0 -18 -15  134.49   35.10
   0 -18 -15   49.99   25.30
   0 -18  15   42.50   24.80
   0 -18 -15   65.29   26.90
  -2 -18 -15  -32.20   20.00
  -2 -18 -15  -23.30   18.50
  -2 -18 -15  -22.70   31.80
   2  18  15    6.00   21.50
  -4 -18 -15    2.90   21.00
  -4 -18 -15  -23.90   23.00
  -4 -18 -15    5.40   34.70
   4  18  15   19.20   36.90
   4  18  15   35.60   25.50
  -6 -18 -15   10.70   31.90
  -6 -18 -15  -51.99   35.20
  -6 -18 -15   17.70   24.70
   6  18  15  -14.90   27.30
  -6  18 -15  -20.10   34.50
   7 -19 -15   35.40   31.70
   7 -19 -15  -17.80   40.00
   7  19 -15   -4.00   31.40
   5 -19 -15  253.57   50.19
  -5 -19  15  255.57   71.39
   5 -19 -15  188.68   42.10
   5  19 -15  211.48   43.40
   3 -19 -15   77.89   31.20
   3 -19 -15   74.09   32.40
   3  19 -15  121.69   32.90
   1 -19 -15   61.49   26.50
  -1 -19  15   12.50   22.40
   1 -19 -15   10.20   21.00
   1 -19 -15  -18.10   25.90
   1  19 -15  -43.80   21.70
  -1 -19 -15   80.69   28.70
   1 -19  15   96.89   40.00
  -1 -19 -15   84.89   29.60
  -1 -19 -15   75.49   35.00
  -3 -19 -15   32.70   27.80
  -3 -19 -15   36.50   37.70
  -3 -19 -15    3.00   18.80
   3  19  15   -2.60   23.10
  -5 -19 -15   36.90   32.30
  -5 -19 -15   34.90   21.80
  -5 -19 -15   -3.20   39.50
   5  19  15   33.10   37.60
   5  19  15    4.40   26.60
  -7 -19 -15    9.80   43.30
  -7  19 -15  -16.00   36.10
   8 -20 -15   57.49   44.50
   8 -20 -15   -5.00   31.50
   8  20 -15   -1.40   36.00
   6 -20 -15  -45.60   35.40
   6 -20 -15   26.60   30.70
   6  20 -15  -28.60   28.10
   4 -20 -15   18.60   30.30
   4 -20 -15  -25.00   25.00
   4  20 -15   26.10   29.30
   2 -20 -15   35.90   26.60
   2 -20 -15   12.00   23.70
   2  20 -15   34.10   25.40
   0 -20 -15  -25.80   22.20
   0 -20 -15   30.80   23.20
   0 -20 -15   39.90   32.30
   0 -20  15   29.10   26.60
  -2 -20 -15   -5.00   20.40
  -2 -20 -15   15.30   31.80
  -2 -20 -15   -4.40   24.20
  -4 -20 -15    7.60   21.70
  -4 -20 -15   -9.60   36.10
  -4 -20 -15    8.80   27.60
   4  20  15   37.10   27.50
   4  20  15   22.80   40.00
  -6 -20 -15    8.10   33.40
  -6 -20 -15  -15.20   20.60
  -6 -20 -15   -2.40   38.50
   6  20  15  -10.50   30.90
   7 -21 -15   36.10   34.50
   7 -21 -15   38.70   44.00
   7  21 -15   30.00   34.20
   5 -21 -15   81.99   35.80
   5 -21 -15   64.89   38.90
   5  21 -15   76.69   35.70
   3 -21 -15   39.20   31.30
   3 -21 -15   21.70   28.70
   3  21 -15   50.09   28.30
   1 -21 -15  -10.40   21.80
   1 -21 -15   43.00   33.60
   1 -21 -15   24.40   24.70
  -1 -21  15   28.50   25.40
   1  21 -15   20.00   30.90
  -1 -21 -15   34.30   23.60
  -1 -21 -15    2.30   31.50
  -1 -21 -15    4.60   21.80
  -3 -21 -15    5.00   39.00
  -3 -21 -15   12.50   22.10
  -3 -21 -15   11.60   26.20
   3  21  15  -40.30   39.40
   3  21  15    0.20   25.40
  -5 -21 -15   30.00   40.20
  -5 -21 -15   16.30   32.40
  -5 -21 -15  -20.60   19.90
   5  21  15   30.30   30.70
   5  21  15    8.00   40.70
   6 -22 -15   -5.20   41.00
   6 -22 -15   -7.50   31.20
   6  22 -15   29.10   36.10
   4 -22 -15   44.60   30.40
   4 -22 -15   -4.80   33.50
   4  22 -15    1.30   29.50
   2 -22 -15   10.40   25.90
  -2 -22  15   77.89   28.60
   2 -22 -15   36.60   29.10
   2  22 -15   71.39   31.10
   0 -22 -15   60.79   30.30
   0 -22 -15  126.49   34.60
   0 -22  15   51.09   42.00
   0 -22 -15  149.79   40.40
  -2 -22 -15   -6.20   24.70
  -2 -22 -15    3.30   33.30
  -2 -22 -15   23.10   26.70
  -4 -22 -15   68.19   45.80
  -4 -22 -15   32.30   31.80
  -4 -22 -15  -12.90   22.90
   4  22  15    9.60   27.00
   4  22  15   15.10   46.30
   5 -23 -15   39.10   34.00
   5 -23 -15   10.80   41.00
   5  23 -15   54.19   35.20
   3 -23 -15   12.30   27.50
   3 -23 -15   73.99   34.70
   3  23 -15  113.99   36.00
  -1 -23  15   24.40   30.40
   1 -23 -15  -14.60   22.30
   1 -23 -15  -38.10   23.20
  -1 -23 -15   50.89   36.50
  -1 -23 -15    3.40   24.10
  -1 -23 -15   18.80   25.20
  -3 -23 -15   22.00   26.90
  -3 -23 -15    8.00   38.60
  -3 -23 -15  -23.60   25.80
   3  23  15   37.20   44.50
   4 -24 -15   47.40   38.70
   4 -24 -15   38.50   34.50
   4  24 -15   23.20   32.50
  -2 -24  15   24.40   29.60
   2 -24 -15  -23.60   25.40
   2 -24 -15   25.60   27.90
   2  24 -15   -1.50   28.20
   0 -24 -15   14.70   27.10
   0 -24 -15   50.29   29.20
   0 -24 -15   54.79   41.90
  -2 -24 -15    9.30   27.80
  -2 -24 -15   52.59   32.40
  -2 -24 -15   14.40   37.60
   3 -25 -15  -14.40   26.30
  -3 -25  15   12.10   30.20
   3 -25 -15    1.00   31.30
   3  25 -15   -6.30   29.90
   1 -25 -15    5.90   27.90
   1 -25 -15   -3.30   25.80
  -1 -25 -15   86.89   33.50
  -1 -25 -15   16.40   27.20
  -1 -25 -15   58.69   41.10
   2 -26 -15   15.60   31.70
  -2 -26  15  -26.40   34.70
   2 -26 -15   36.50   33.30
   0 -26 -15    9.40   27.60
   0 -26 -15   -1.10   28.10
  12   0 -16   42.40   36.40
  10   0 -16  -33.80   23.60
   8   0 -16   37.80   28.60
   8   0 -16    4.50   23.00
   6   0 -16  758.22   66.19
   6   0 -16  728.23   68.39
   6   0 -16  732.83   59.99
   4   0 -16   58.09   21.50
   4   0 -16   59.19   21.40
   4   0 -16   50.89   18.40
   2   0 -16    1.70   14.50
   2   0 -16   32.60   16.80
   2   0 -16   11.80   15.80
   0   0 -16   43.80   19.30
   0   0 -16   12.90   16.90
  -2   0 -16   42.80   25.10
  -2   0 -16   -0.10   18.30
  -4   0 -16   69.19   28.20
  -4   0 -16   -9.20   17.90
  -4   0 -16  173.08   45.40
  -6   0 -16   72.99   33.50
  -6   0 -16   53.49   28.50
  -6   0 -16   44.30   25.40
  -8   0 -16   69.49   35.50
  -8   0 -16   -1.50   35.30
 -10   0 -16  -21.60   40.20
  11  -1 -16   39.80   33.90
  11   1 -16   40.00   33.10
   9  -1 -16   -5.40   24.00
   9   1 -16    9.00   24.90
   7  -1 -16    8.80   25.50
   7  -1 -16   49.40   23.80
   7   1 -16   43.20   26.00
   7   1 -16  -14.50   20.40
   5  -1 -16   48.20   17.60
   5  -1 -16   39.10   21.30
   5  -1 -16   66.49   24.10
   5   1 -16   43.80   23.70
   5   1 -16   14.20   19.10
   5   1 -16  -10.00   14.10
   3  -1 -16   45.30   18.60
   3  -1 -16   49.30   19.40
   3  -1 -16   23.50   17.10
   3   1 -16   47.30   17.90
   3   1 -16   21.30   15.90
   3   1 -16   11.80   16.50
   1  -1 -16  279.67   35.10
   1  -1 -16  239.48   33.80
   1   1 -16  197.18   32.90
   1   1 -16  283.17   29.80
   1   1 -16  245.38   34.00
  -1  -1 -16  118.19   26.60
  -1  -1 -16   85.99   24.00
  -1   1 -16  104.29   25.30
  -1   1 -16  118.09   27.10
  -3  -1 -16   46.00   22.30
  -3  -1 -16   60.49   31.10
  -3   1 -16   39.40   21.40
  -3   1 -16   59.09   31.80
  -5  -1 -16   14.30   22.30
  -5  -1 -16   19.20   30.50
  -5  -1 -16  -28.90   19.90
  -5   1 -16   25.70   29.80
  -5   1 -16    3.80   23.20
  -5   1 -16    8.70   22.40
  -7  -1 -16   19.20   35.30
  -7  -1 -16   41.40   30.20
  -7   1 -16   64.69   36.70
  -7   1 -16   12.60   26.10
  -9  -1 -16   98.99   40.50
  -9  -1 -16   24.80   40.80
  -9   1 -16   -7.80   40.20
  12  -2 -16   33.10   33.00
  12   2 -16   13.10   31.70
  10  -2 -16  108.49   33.10
  10   2 -16   83.79   33.30
   8  -2 -16   19.30   27.10
   8  -2 -16   -2.30   21.40
   8   2 -16   10.90   22.10
   6  -2 -16  322.47   36.70
   6  -2 -16  344.17   44.10
   6  -2 -16  338.87   46.00
   6   2 -16  440.66   48.10
   6   2 -16  280.97   43.30
   4  -2 -16  315.27   38.00
   4  -2 -16  418.16   42.90
   4  -2 -16  300.37   42.70
   4   2 -16  329.87   36.80
   4   2 -16  298.77   41.40
   4   2 -16  344.07   40.60
   2  -2 -16   34.00   17.90
   2  -2 -16    6.20   14.80
   2  -2 -16   27.80   17.60
   2   2 -16   31.80   17.20
   2   2 -16   36.20   15.60
   2   2 -16   26.10   16.90
   0  -2 -16  -11.20   11.60
   0  -2 -16   14.10   17.20
   0   2 -16   29.60   19.20
   0   2 -16   22.20   17.00
   0   2 -16    7.40   13.50
  -2  -2 -16   22.90   14.60
  -2  -2 -16   16.00   18.40
  -2   2 -16    1.00   22.40
  -2   2 -16   -5.90   16.30
  -4  -2 -16   40.50   18.40
  -4  -2 -16   65.29   24.70
  -4  -2 -16   90.79   27.90
  -4   2 -16    4.20   20.90
  -4   2 -16  121.59   43.00
  -4   2 -16   66.59   28.70
  -6  -2 -16   22.10   26.90
  -6  -2 -16   64.89   32.80
  -6  -2 -16   36.40   25.00
  -6   2 -16   37.20   25.70
  -6   2 -16   24.10   25.30
  -6   2 -16   43.70   34.40
  -8  -2 -16   39.70   39.70
  -8  -2 -16    6.70   34.50
  -8   2 -16   65.29   38.60
 -10  -2 -16   11.60   44.00
 -10   2 -16   98.99   46.30
  11  -3 -16    4.10   28.10
  11   3 -16   49.10   34.20
   9  -3 -16   38.80   30.60
   9  -3 -16   41.40   29.10
   9   3 -16  -38.30   23.70
   7  -3 -16   21.60   26.90
   7  -3 -16   52.19   27.70
   7   3 -16   57.49   27.70
   5  -3 -16   -6.20   15.40
   5  -3 -16    0.00   19.30
   5  -3 -16    3.60   21.20
   5   3 -16  -15.70   18.60
   5   3 -16    6.30   21.10
   5   3 -16   26.50   15.40
   3  -3 -16    4.40   15.50
   3  -3 -16  -10.50   15.90
   3  -3 -16   -7.00   16.90
   3   3 -16  -12.80   15.60
   3   3 -16  -13.40   14.90
   3   3 -16  -23.90   13.80
   1  -3 -16  118.49   25.40
   1  -3 -16  188.68   29.70
   1   3 -16  135.29   27.50
   1   3 -16  213.48   24.00
   1   3 -16  136.89   25.80
  -1  -3 -16   84.89   24.60
  -1  -3 -16  102.29   22.90
  -1   3 -16   89.19   24.60
  -1   3 -16   78.49   22.80
  -3  -3 -16    7.50   20.50
  -3  -3 -16   16.50   16.30
  -3   3 -16   47.60   22.90
  -3   3 -16  146.19   39.50
  -3   3 -16   68.39   24.20
  -5  -3 -16   45.80   29.00
  -5  -3 -16   45.00   18.60
  -5  -3 -16   46.10   24.30
  -5   3 -16   82.19   31.70
  -5   3 -16   22.50   22.30
  -5   3 -16   48.10   23.80
  -7  -3 -16   15.50   24.90
  -7  -3 -16    7.00   33.50
  -7  -3 -16   23.50   28.60
  -7   3 -16   18.70   35.90
  -9  -3 -16   69.29   43.20
  -9  -3 -16   75.59   45.90
  -9   3 -16    3.30   41.60
  10  -4 -16   69.99   34.40
  10   4 -16   45.60   32.20
   8  -4 -16  -15.50   27.80
   8  -4 -16  -20.60   23.10
   8   4 -16   12.40   25.20
   6  -4 -16   83.59   20.80
   6  -4 -16   49.30   24.30
   6  -4 -16   57.19   25.70
   6   4 -16   66.29   25.50
   4  -4 -16  439.36   47.60
   4  -4 -16  455.05   45.50
   4  -4 -16  485.45   44.60
   4   4 -16  454.85   48.30
   4   4 -16  433.36   44.80
   4   4 -16  461.25   42.70
   2  -4 -16    8.50   13.90
   2  -4 -16    9.50   16.10
   2   4 -16   18.50   15.40
   2   4 -16    8.70   16.20
   2   4 -16    3.10   16.90
   0  -4 -16   80.29   21.30
   0  -4 -16   77.89   22.10
   0   4 -16   60.69   23.40
   0   4 -16   95.59   23.90
   0   4 -16   70.39   16.20
  -2  -4 -16    9.30   16.90
  -2  -4 -16   10.20   17.40
  -2   4 -16  -14.30   16.60
  -2   4 -16    1.30   24.70
  -4  -4 -16   18.50   21.40
  -4  -4 -16   67.19   28.70
  -4  -4 -16   61.99   25.50
  -4   4 -16   70.39   28.80
  -4   4 -16  125.59   44.90
  -4   4 -16   30.10   21.50
  -6  -4 -16   55.39   28.10
  -6  -4 -16   20.80   20.90
  -6  -4 -16   25.10   33.70
  -6   4 -16   37.40   33.90
  -6   4 -16   36.60   24.70
   6   4  16   -0.10   23.80
  -8  -4 -16   25.70   33.20
  -8  -4 -16    0.00   37.80
  -8   4 -16   -6.30   36.70
  11  -5 -16   -1.80   31.10
  11   5 -16   -6.90   32.30
   9  -5 -16   -0.30   29.90
   9  -5 -16   12.60   25.30
   9   5 -16   27.90   29.10
   7  -5 -16   38.40   27.90
   7  -5 -16   36.70   25.20
   7   5 -16   50.49   29.30
   5  -5 -16   38.20   22.40
   5  -5 -16   19.10   19.80
   5  -5 -16   17.60   17.40
   5   5 -16   39.30   24.00
   3  -5 -16  153.48   31.80
   3  -5 -16  245.98   33.50
   3   5 -16  144.49   30.30
   3   5 -16  202.98   29.00
   3   5 -16  235.68   30.60
   1  -5 -16  166.38   28.20
   1  -5 -16  110.99   26.50
   1   5 -16  103.29   24.70
   1   5 -16  191.38   31.70
   1   5 -16  136.79   21.80
  -1  -5 -16   79.39   23.20
  -1  -5 -16   98.79   23.60
  -1   5 -16   90.49   25.10
  -1   5 -16  112.59   29.40
  -3  -5 -16   26.40   21.10
  -3  -5 -16   12.50   18.60
  -3   5 -16  115.09   38.30
  -3   5 -16   46.40   22.10
  -3   5 -16   23.50   23.40
  -5  -5 -16   15.30   23.60
  -5  -5 -16   10.10   18.80
  -5  -5 -16   43.80   30.00
  -5   5 -16  -10.40   23.20
   5   5  16   11.90   19.30
  -5   5 -16   13.60   28.70
  -7  -5 -16   35.20   24.80
  -7  -5 -16   48.20   32.30
  -7  -5 -16   69.89   36.60
   7   5  16    3.10   24.90
  -7   5 -16  -33.40   31.90
  -9  -5 -16   76.09   46.00
  -9  -5 -16   28.10   42.60
  -9   5 -16  -16.20   38.30
  10  -6 -16   58.59   33.40
  10   6 -16   38.30   32.50
   8  -6 -16   12.20   26.10
   8  -6 -16   -3.00   28.50
   8   6 -16  -17.00   23.90
   6  -6 -16  181.08   30.80
   6  -6 -16  208.28   34.90
   6  -6 -16  222.78   38.20
   6   6 -16  247.78   39.70
   4  -6 -16   58.99   22.40
   4  -6 -16   81.39   27.60
   4   6 -16   90.19   24.40
   2  -6 -16   18.40   17.60
   2  -6 -16   24.00   18.20
   2   6 -16    8.90   16.00
   2   6 -16   -0.60   16.20
   0  -6 -16   74.69   22.40
   0  -6 -16   20.40   18.10
   0   6 -16    4.20   19.20
  -2  -6 -16   -8.90   15.30
  -2  -6 -16   -3.30   15.90
  -2   6 -16   -5.90   25.10
  -4  -6 -16   60.39   28.50
  -4  -6 -16   12.70   21.20
  -4  -6 -16   45.30   21.20
  -4   6 -16   19.50   25.70
  -6  -6 -16  -20.00   30.80
  -6  -6 -16   10.10   26.90
  -6  -6 -16   48.30   24.30
  -6   6 -16    3.70   31.80
   6   6  16   25.00   23.40
  -8  -6 -16  -17.00   34.70
  -8  -6 -16    8.20   35.10
   8   6  16   20.10   29.40
  -8   6 -16   52.79   38.50
  11  -7 -16   43.50   32.00
  11   7 -16  -20.10   28.20
   9  -7 -16   39.80   29.00
   9  -7 -16   93.79   36.70
   9   7 -16   68.79   32.60
   7  -7 -16  124.59   33.80
   7  -7 -16   54.19   27.60
   7   7 -16   93.19   31.20
   5  -7 -16   50.89   27.20
   5  -7 -16   53.49   23.20
   5   7 -16   50.29   24.50
   3  -7 -16   23.90   19.60
   3  -7 -16   39.30   21.00
   3   7 -16    4.70   17.70
   1  -7 -16  284.57   39.00
   1  -7 -16  296.67   41.10
   1   7 -16  302.67   30.90
  -1  -7 -16   10.50   18.60
  -1  -7 -16   -8.50   16.00
  -3  -7 -16   31.50   18.10
  -3  -7 -16    6.20   17.40
  -3   7 -16  -11.00   21.20
  -5  -7 -16   18.30   19.70
  -5  -7 -16   44.00   31.10
  -5  -7 -16   29.30   26.50
  -5   7 -16   74.39   31.50
   5   7  16   22.40   21.20
  -7  -7 -16   23.10   30.60
  -7  -7 -16  -10.70   34.20
  -7  -7 -16  -17.00   22.10
  -7   7 -16   24.30   35.50
   7   7  16    2.40   24.60
  -9  -7 -16  -21.40   42.90
  -9  -7 -16  -19.30   38.80
  -9   7 -16   19.80   39.60
   9   7  16   70.59   37.20
  10  -8 -16   54.59   34.30
  10   8 -16   48.60   33.60
   8  -8 -16   17.00   31.60
   8  -8 -16   12.30   26.40
   8   8 -16  -24.20   23.80
   6  -8 -16  116.39   33.00
   6  -8 -16   84.29   25.40
   6   8 -16   70.69   28.10
   4  -8 -16    3.60   20.80
   4  -8 -16    9.30   19.70
   4   8 -16   10.80   21.50
   2  -8 -16   18.40   19.30
   2  -8 -16   57.79   23.00
   2   8 -16   57.19   19.20
   0  -8 -16   36.20   20.30
   0  -8 -16   46.20   22.00
   0   8 -16   36.50   14.20
  -2  -8 -16    8.40   18.60
  -2  -8 -16   -2.10   17.10
  -2   8 -16   16.60   21.40
  -4  -8 -16   28.70   20.90
  -4  -8 -16   25.50   28.90
  -4  -8 -16   -6.20   20.70
  -4   8 -16   33.00   26.30
  -6  -8 -16  116.09   31.40
  -6  -8 -16   42.00   23.30
  -6  -8 -16   27.40   31.80
  -6   8 -16   33.50   29.80
   6   8  16   12.60   22.70
  -8  -8 -16    8.00   38.70
  -8  -8 -16   -3.70   37.50
  -8   8 -16  -92.29   35.20
   8   8  16   26.30   27.90
  11  -9 -16   34.70   33.90
  11   9 -16   39.40   35.10
   9  -9 -16   29.70   30.80
   9  -9 -16   23.00   34.30
   9   9 -16   46.70   31.40
   7  -9 -16   22.20   29.60
   7  -9 -16   24.70   24.10
   7   9 -16  -22.20   25.40
   5  -9 -16    7.40   20.60
   5  -9 -16   -4.60   24.10
   5   9 -16   38.80   24.90
   3  -9 -16    7.90   18.60
   3  -9 -16   17.00   20.10
   3   9 -16    9.60   18.30
   1  -9 -16   22.20   20.10
   1  -9 -16   18.40   19.60
   1   9 -16   26.00   16.80
  -1  -9 -16  144.49   29.20
  -1  -9 -16  151.78   30.30
  -3  -9 -16   -2.90   17.80
  -3  -9 -16   52.39   28.20
  -3  -9 -16    9.30   19.80
  -3   9 -16   23.80   24.60
   3   9  16   22.10   17.40
  -5  -9 -16   -4.40   18.60
  -5  -9 -16    1.20   23.30
  -5  -9 -16  -15.20   30.70
   5   9  16  -34.50   19.30
  -5   9 -16   19.70   30.10
  -7  -9 -16    8.50   22.10
  -7  -9 -16   28.40   33.60
  -7  -9 -16  -17.30   33.20
  -7   9 -16   37.10   36.00
   7   9  16   -4.20   25.40
  -9  -9 -16   -4.10   40.90
  -9  -9 -16   59.59   47.30
   9   9  16   22.40   31.80
  -9   9 -16   27.60   40.60
  10 -10 -16   -8.20   28.60
  10  10 -16   52.59   33.40
   8 -10 -16   24.80   32.20
   8  10 -16   27.10   30.50
   6 -10 -16  127.09   36.90
   6 -10 -16  121.59   30.50
   6  10 -16  131.19   33.60
   4 -10 -16   45.90   25.00
   4 -10 -16   11.20   21.60
   4  10 -16   18.80   21.40
   2 -10 -16   46.40   24.20
   2 -10 -16   75.09   26.30
   2  10 -16   52.69   20.70
   0 -10 -16   -1.00   16.90
   0 -10 -16    7.40   20.20
   0  10 -16    3.60   13.40
  -2 -10 -16   -6.10   18.60
  -2 -10 -16   44.20   21.10
  -4 -10 -16   58.09   32.50
  -4 -10 -16   29.30   22.50
  -4 -10 -16   72.09   24.90
   4  10  16   44.30   20.70
  -4  10 -16   56.79   29.10
  -6 -10 -16   74.79   30.10
  -6 -10 -16  102.29   28.40
  -6 -10 -16   92.79   40.20
   6  10  16   35.40   25.20
  -6  10 -16   88.69   36.20
  -8 -10 -16    0.80   40.20
  -8 -10 -16   19.50   38.70
   8  10  16   37.10   29.40
  -8  10 -16  -48.50   35.20
   9 -11 -16   26.60   34.00
   9  11 -16   -5.90   29.10
   7 -11 -16   -0.20   30.60
   7 -11 -16    8.00   23.70
   7  11 -16   17.10   28.20
   5 -11 -16    5.00   23.80
   5 -11 -16   19.60   22.90
   5  11 -16  -27.20   21.60
   3 -11 -16   97.79   27.80
   3 -11 -16   43.00   24.90
   3  11 -16   39.60   22.30
   1 -11 -16    5.00   20.90
   1 -11 -16   -1.70   18.30
   1  11 -16    8.10   15.80
  -1 -11 -16   20.40   21.50
  -1 -11 -16   16.30   20.90
   1  11  16  -12.40   15.50
  -3 -11 -16   25.50   28.40
  -3 -11 -16    3.60   20.20
  -3 -11 -16   12.00   21.20
   3  11  16   11.60   18.80
  -3  11 -16  -19.90   24.70
  -5 -11 -16   16.70   22.00
  -5 -11 -16    4.90   33.80
  -5 -11 -16   14.00   24.30
  -5  11 -16   67.99   30.80
   5  11  16   42.90   23.40
  -7 -11 -16   11.30   24.20
  -7 -11 -16  -37.40   29.70
  -7 -11 -16    6.00   37.00
   7  11  16   28.10   27.70
  -7  11 -16   28.20   35.50
  10  12 -16   75.49   40.40
   8 -12 -16   20.80   34.00
   8  12 -16    4.10   28.20
   6 -12 -16  -14.70   26.50
   6 -12 -16   65.79   26.80
   6  12 -16   36.90   28.80
   4 -12 -16  152.28   35.40
   4 -12 -16  159.78   32.80
   4  12 -16  147.69   31.60
   2 -12 -16   -1.70   21.20
   2 -12 -16   17.70   22.80
   2  12 -16    6.00   17.30
   0 -12 -16   15.90   21.70
   0 -12 -16   38.70   22.70
  -2 -12 -16   81.39   27.50
  -2 -12 -16   40.00   27.80
  -2 -12 -16    6.00   21.10
   2  12  16   48.10   20.60
  -4 -12 -16   56.39   25.10
  -4 -12 -16   23.80   22.90
  -4 -12 -16   78.79   33.70
   4  12  16   81.79   36.30
  -4  12 -16   79.39   29.80
   4  12  16   24.30   22.00
  -6 -12 -16   27.80   23.50
  -6 -12 -16   90.79   41.30
  -6 -12 -16   89.59   32.70
   6  12  16   59.99   27.30
  -6  12 -16   92.49   35.80
  -8 -12 -16   46.20   41.30
  -8 -12 -16  -55.09   37.40
   8  12  16  -25.20   28.40
  -8  12 -16    5.30   38.70
   9 -13 -16    9.20   45.20
   9  13 -16   27.70   35.10
   7 -13 -16   -7.00   29.70
   7 -13 -16  -13.30   23.00
   7  13 -16    1.70   28.70
   5 -13 -16   10.60   24.00
   5 -13 -16  -12.20   26.90
   5  13 -16   -8.40   23.40
   3 -13 -16   23.70   24.80
   3 -13 -16    2.00   24.30
   3  13 -16   12.00   20.90
   1 -13 -16   86.59   29.20
   1 -13 -16  137.69   31.00
   1  13 -16  157.28   26.60
  -1 -13 -16   46.70   23.10
  -1 -13 -16   31.90   21.50
   1  13  16   -3.00   17.60
  -3 -13 -16  -32.10   17.20
  -3 -13 -16   34.70   24.20
  -3 -13 -16   -2.60   30.50
   3  13  16   20.50   22.60
  -5 -13 -16   16.20   25.30
  -5 -13 -16   77.69   36.40
  -5 -13 -16    9.10   21.90
  -5  13 -16   76.09   33.40
   5  13  16    9.00   24.50
  -7 -13 -16   33.80   41.10
  -7 -13 -16    0.00   33.40
  -7 -13 -16   -2.50   23.70
  -7  13 -16   12.50   34.60
   7  13  16   16.40   28.00
  10  14 -16  117.29   41.80
   8 -14 -16    2.30   34.80
   8  14 -16   41.50   31.60
   6 -14 -16  144.49   34.50
   6 -14 -16  132.69   38.40
   6  14 -16  125.39   35.20
   4 -14 -16  -19.00   24.00
   4 -14 -16  -27.10   21.10
   4  14 -16   41.90   25.70
   2 -14 -16   -4.20   21.20
   2 -14 -16   -1.80   21.00
   2  14 -16  -14.60   19.80
   0 -14 -16    7.70   20.20
   0 -14 -16   -2.20   19.40
  -2 -14 -16   -1.30   20.70
  -2 -14 -16   16.20   29.10
  -2 -14 -16   13.00   21.10
   2  14  16  -19.70   18.60
  -4 -14 -16   45.20   26.20
  -4 -14 -16   67.69   34.30
  -4 -14 -16   27.10   22.80
   4  14  16   38.00   34.00
  -4  14 -16   12.90   28.90
   4  14  16   24.80   24.70
  -6 -14 -16  -15.00   27.50
  -6 -14 -16   46.40   37.80
  -6 -14 -16   38.60   25.30
  -6  14 -16   63.99   36.20
   6  14  16   12.90   27.00
  -8 -14 -16   29.40   45.70
  -8 -14 -16   10.50   43.40
  -8  14 -16   15.00   36.90
   8  14  16    6.00   32.90
   9  15 -16  -33.40   30.80
   7 -15 -16   58.29   31.80
   7 -15 -16  -16.00   33.60
   7  15 -16   11.00   27.90
   5 -15 -16  -13.10   26.80
   5 -15 -16  -27.60   21.90
   5  15 -16  -19.90   23.10
   3 -15 -16   66.29   27.50
   3 -15 -16   75.69   30.70
   3  15 -16   51.69   25.50
   1 -15 -16  135.49   32.80
   1 -15 -16  168.98   36.10
   1  15 -16  161.98   29.80
  -1 -15 -16  180.88   37.70
  -1 -15 -16  149.39   33.50
  -1 -15 -16  247.58   40.00
   1  15  16  193.58   30.90
  -3 -15 -16   15.80   22.40
  -3 -15 -16   29.90   23.20
  -3 -15 -16    7.80   31.20
   3  15  16   33.80   23.10
  -5 -15 -16   31.80   34.80
  -5 -15 -16   -0.60   22.60
  -5 -15 -16  -17.10   24.10
  -5  15 -16  102.89   34.40
   5  15  16   13.20   25.50
  -7 -15 -16   -1.70   22.90
  -7 -15 -16   -3.00   32.70
  -7 -15 -16   22.20   41.60
  -7  15 -16   35.00   40.10
   7  15  16  -40.40   28.10
   8 -16 -16  -14.50   34.50
   8  16 -16    8.10   32.10
   6 -16 -16  153.78   43.80
   6 -16 -16   74.19   32.90
   6  16 -16  190.98   39.00
   4 -16 -16  220.78   41.20
   4 -16 -16  139.09   37.90
   4  16 -16   86.59   31.80
   2 -16 -16  -22.20   22.40
   2 -16 -16   15.50   21.80
   2  16 -16    5.40   21.50
   0 -16 -16    6.20   21.70
   0 -16 -16    7.40   22.70
  -2 -16 -16  -10.20   21.00
  -2 -16 -16    9.50   23.30
  -2 -16 -16   12.90   31.30
   2  16  16   21.80   21.80
  -4 -16 -16   52.89   24.60
  -4 -16 -16   39.30   28.40
  -4 -16 -16   49.40   36.10
   4  16  16   61.59   36.60
   4  16  16   34.00   25.50
  -6 -16 -16    1.80   21.60
  -6 -16 -16    6.30   38.60
  -6 -16 -16   50.59   33.50
   6  16  16  -10.40   27.70
  -6  16 -16   49.50   35.00
   9  17 -16   90.59   41.60
   7 -17 -16  -57.79   34.20
   7 -17 -16    5.80   27.50
   7  17 -16   18.90   29.30
   5 -17 -16   -8.20   32.90
   5 -17 -16    0.40   27.30
   5  17 -16   11.70   27.90
   3 -17 -16   35.20   25.30
   3 -17 -16  -22.50   26.60
   3  17 -16   53.49   27.70
   1 -17 -16    0.50   22.00
   1 -17 -16   -0.60   21.50
   1  17 -16   -7.30   23.20
  -1 -17 -16    6.80   21.90
  -1 -17 -16   19.70   31.20
  -1 -17 -16    5.60   21.90
  -3 -17 -16   45.30   34.20
  -3 -17 -16  -15.80   23.30
  -3 -17 -16   41.10   26.30
   3  17  16   61.99   26.40
  -5 -17 -16   24.90   28.50
  -5 -17 -16  -28.40   20.50
  -5 -17 -16  -21.80   36.00
   5  17  16    0.90   26.40
  -7 -17 -16   75.89   46.40
  -7 -17 -16   48.20   39.60
  -7 -17 -16  -22.60   22.20
   7  17  16  -30.50   30.50
  -7  17 -16  -15.70   37.40
   8 -18 -16   23.60   41.60
   8  18 -16   22.20   35.20
   6 -18 -16  124.79   46.20
   6 -18 -16  127.99   38.90
   6  18 -16  134.29   37.70
   4 -18 -16   74.09   31.90
   4 -18 -16   86.79   36.20
   4  18 -16   78.49   31.00
   2 -18 -16    1.90   23.10
   2 -18 -16    0.30   24.10
   2  18 -16   18.40   24.70
   0 -18 -16    8.40   23.50
   0 -18 -16    4.10   22.20
  -2 -18 -16    5.60   22.70
  -2 -18 -16   30.20   34.20
  -2 -18 -16    0.00   23.30
   2  18  16   14.30   22.60
  -4 -18 -16   33.00   37.30
  -4 -18 -16   -8.40   24.70
  -4 -18 -16   23.10   24.40
   4  18  16   76.69   38.80
   4  18  16   22.20   26.00
  -6 -18 -16   -5.60   33.90
  -6 -18 -16   28.00   42.00
  -6 -18 -16   34.30   25.10
  -6  18 -16   34.20   36.70
   6  18  16    9.10   30.60
   7 -19 -16   -2.30   31.20
   7 -19 -16  -64.79   40.30
   7  19 -16  -12.80   31.60
   5 -19 -16    0.40   27.10
   5 -19 -16    3.00   35.90
   5  19 -16   -8.40   28.70
   3 -19 -16  -12.30   25.70
   3 -19 -16   69.09   30.90
   3  19 -16    3.00   26.60
   1 -19 -16   92.49   32.60
   1 -19 -16  122.59   32.70
  -1 -19 -16   44.60   25.40
  -1 -19 -16   21.10   23.20
  -1 -19 -16   68.29   45.20
  -3 -19 -16   -6.20   36.00
  -3 -19 -16  -30.70   22.20
  -3 -19 -16   14.90   23.00
   3  19  16   -0.80   24.50
  -5 -19 -16   10.40   29.50
  -5 -19 -16   17.50   38.70
  -5 -19 -16   47.50   26.20
   5  19  16  -17.60   28.80
   6 -20 -16  159.68   50.09
   6 -20 -16  138.49   39.90
   6  20 -16   62.49   36.80
   4 -20 -16   73.99   33.70
   4 -20 -16   82.09   38.00
   4  20 -16   64.09   32.40
   2 -20 -16   23.00   25.60
   2 -20 -16   -4.20   24.40
   2  20 -16    0.00   23.70
   0 -20 -16    5.80   23.60
   0 -20 -16    0.40   23.60
  -2 -20 -16  -30.80   35.20
  -2 -20 -16   20.30   25.40
  -2 -20 -16   -3.60   21.80
  -4 -20 -16   10.80   38.60
  -4 -20 -16   11.40   24.00
  -4 -20 -16    2.20   28.10
   4  20  16    6.50   27.20
   4  20  16   28.50   42.00
   7 -21 -16  -38.40   44.80
   7 -21 -16   28.20   35.00
   7  21 -16  -11.20   34.80
   5 -21 -16   57.99   40.50
   5 -21 -16  -20.50   26.70
   5  21 -16  -20.70   29.60
   3 -21 -16  -20.30   25.00
   3 -21 -16    5.50   31.90
   3  21 -16   11.30   26.60
   1 -21 -16   60.29   30.70
   1 -21 -16   58.19   30.30
  -1 -21 -16   18.00   25.30
  -1 -21 -16    3.70   24.90
  -3 -21 -16   19.70   26.70
  -3 -21 -16   11.80   40.30
  -3 -21 -16   -0.30   22.20
   3  21  16  -29.80   25.40
   3  21  16   16.80   44.10
  -5 -21 -16  104.69   47.20
  -5 -21 -16   63.79   36.30
  -5 -21 -16   24.90   26.20
   5  21  16   21.00   31.50
   6 -22 -16   82.99   37.00
   6 -22 -16   82.29   46.80
   6  22 -16   -8.60   33.00
   4 -22 -16  129.39   42.90
   4 -22 -16   27.70   30.90
   4  22 -16  110.29   35.90
   2 -22 -16    1.70   27.30
   2 -22 -16  -18.10   25.40
   0 -22 -16   81.39   30.90
   0 -22 -16   27.20   27.40
  -2 -22 -16   -2.60   45.30
  -2 -22 -16   23.90   23.70
  -2 -22 -16   21.10   26.70
  -4 -22 -16  -27.40   40.30
  -4 -22 -16   46.60   33.60
  -4 -22 -16  -12.20   23.60
   4  22  16   -0.80   28.90
   4  22  16   19.30   46.40
   5 -23 -16    8.00   40.00
   5 -23 -16    3.20   32.70
   5  23 -16   -9.20   32.70
   3 -23 -16    6.50   31.80
   3 -23 -16   -0.40   27.30
   3  23 -16   51.39   31.70
   1 -23 -16   69.19   31.30
   1 -23 -16   26.80   27.20
  -1 -23 -16   18.40   24.70
  -1 -23 -16  -12.60   23.80
  -3 -23 -16   11.60   24.40
  -3 -23 -16  -27.20   27.60
  -3 -23 -16  -13.40   43.00
   3  23  16  -53.69   46.00
   4 -24 -16   49.30   40.50
   4 -24 -16   70.59   35.40
   4  24 -16   44.20   35.30
   2 -24 -16  -35.20   27.30
   2 -24 -16   -0.50   27.70
   0 -24 -16    4.80   25.20
   0 -24 -16   23.80   27.80
  -2 -24 -16   23.40   27.10
  -2 -24 -16  -12.40   25.90
   3 -25 -16   31.90   36.60
   3 -25 -16   35.30   34.00
   3  25 -16  -12.20   34.60
   1 -25 -16    3.70   26.60
   1 -25 -16   38.60   31.70
  -1 -25 -16   34.60   29.20
  -1 -25 -16   -1.20   25.30
  10   0 -17  -45.00   25.80
   8   0 -17   65.69   28.50
   8   0 -17   39.20   28.60
   6   0 -17  194.28   37.00
   6   0 -17  141.69   30.90
   4   0 -17  -11.90   16.10
   4   0 -17    5.20   18.70
   4   0 -17    8.50   19.50
   2   0 -17   25.50   17.80
   2   0 -17   48.30   18.70
   2   0 -17   25.80   18.90
   0   0 -17   80.19   24.30
   0   0 -17  100.69   24.60
  -2   0 -17  -13.90   18.90
  -2   0 -17  -15.60   22.40
  -4   0 -17   32.90   40.50
  -4   0 -17    1.20   20.20
  -4   0 -17   56.39   29.70
  -6   0 -17   98.79   34.90
  -6   0 -17   43.30   25.80
  -6   0 -17   14.40   27.00
  -8   0 -17  -32.20   28.10
  -8   0 -17  -23.00   35.00
  11  -1 -17   20.60   30.80
  11   1 -17   25.30   32.40
   9  -1 -17   -4.00   29.80
   9  -1 -17   12.10   27.50
   9   1 -17   36.80   29.50
   7  -1 -17   67.49   28.20
   7  -1 -17   69.09   26.90
   7   1 -17   13.60   24.30
   7   1 -17   20.70   26.20
   5  -1 -17  465.85   55.79
   5  -1 -17  471.45   44.50
   5  -1 -17  494.85   52.79
   5   1 -17  519.25   55.19
   5   1 -17  441.46   55.19
   5   1 -17  469.95   44.10
   3  -1 -17   46.30   19.20
   3  -1 -17   35.50   18.30
   3  -1 -17   -1.30   18.10
   3   1 -17   25.10   19.40
   3   1 -17   16.60   19.00
   3   1 -17   16.00   17.30
   1  -1 -17   46.90   20.40
   1  -1 -17   52.09   20.40
   1   1 -17   69.49   22.00
   1   1 -17   84.89   19.30
   1   1 -17   46.80   21.60
  -1  -1 -17   15.80   19.80
  -1  -1 -17    2.50   17.50
  -1   1 -17   25.20   20.50
  -1   1 -17   14.60   19.20
  -3  -1 -17   31.50   33.10
  -3  -1 -17   34.10   22.30
  -3   1 -17   90.99   39.00
  -3   1 -17   13.40   20.30
  -5  -1 -17   64.59   27.20
  -5  -1 -17   99.19   28.60
  -5  -1 -17  143.79   35.40
  -5   1 -17   75.79   28.70
  -5   1 -17   48.40   26.10
  -5   1 -17  126.89   35.20
  -7  -1 -17   43.50   37.00
  -7  -1 -17  -18.80   26.90
  -7   1 -17  -27.40   35.30
  -7   1 -17    4.60   28.10
  -9  -1 -17   -5.50   39.10
  -9  -1 -17   25.10   41.10
  -9   1 -17   -1.90   40.80
  10  -2 -17   16.10   29.60
  10   2 -17   26.60   29.80
   8  -2 -17  -34.70   24.30
   8  -2 -17  -22.10   22.90
   8   2 -17   20.60   25.20
   6  -2 -17  -10.80   17.10
   6  -2 -17  -18.60   21.90
   6  -2 -17  -17.60   22.00
   6   2 -17   37.00   23.90
   6   2 -17    1.70   22.60
   4  -2 -17   24.20   18.30
   4  -2 -17   29.30   19.80
   4  -2 -17   45.60   21.40
   4   2 -17   31.60   20.10
   4   2 -17   22.10   21.60
   4   2 -17   43.80   18.00
   2  -2 -17  246.28   33.80
   2  -2 -17  267.37   31.90
   2  -2 -17  166.58   31.20
   2   2 -17  241.28   29.70
   2   2 -17  249.48   34.00
   2   2 -17  126.09   28.30
   0  -2 -17  275.97   39.00
   0  -2 -17  411.46   41.40
   0   2 -17  330.07   43.30
   0   2 -17  337.67   41.60
  -2  -2 -17   -6.20   13.20
  -2  -2 -17  -11.60   17.80
  -2   2 -17    7.60   18.00
  -2   2 -17   17.00   24.60
  -4  -2 -17   46.80   23.60
  -4  -2 -17  101.99   41.30
  -4   2 -17    9.00   23.10
  -4   2 -17   93.29   31.50
  -4   2 -17   57.89   43.80
  -6  -2 -17   46.90   35.10
  -6  -2 -17   -1.10   24.30
  -6  -2 -17   32.60   26.20
  -6   2 -17   15.30   24.90
  -6   2 -17   -8.40   22.80
  -6   2 -17   25.10   33.00
  -8  -2 -17   51.39   39.90
  -8  -2 -17   78.39   40.00
  -8   2 -17   19.40   39.70
  11  -3 -17   63.19   34.10
  11   3 -17  -10.70   30.20
   9  -3 -17  -28.50   26.90
   9  -3 -17   16.50   29.60
   9   3 -17   41.50   29.90
   7  -3 -17  145.19   34.10
   7  -3 -17  142.59   35.90
   7   3 -17  132.79   33.10
   5  -3 -17  121.29   30.30
   5  -3 -17   99.49   27.70
   5  -3 -17  101.39   23.20
   5   3 -17   98.19   28.80
   5   3 -17  101.29   26.30
   5   3 -17   82.19   21.20
   3  -3 -17    1.30   18.40
   3  -3 -17   -2.20   15.40
   3  -3 -17   -3.40   17.80
   3   3 -17   -1.60   18.90
   3   3 -17  -19.90   15.20
   3   3 -17    8.20   16.10
   1  -3 -17   69.69   23.60
   1  -3 -17   22.20   16.10
   1   3 -17   17.60   18.30
   1   3 -17   47.20   20.60
   1   3 -17   39.80   16.90
  -1  -3 -17   15.00   20.90
  -1  -3 -17   -0.40   15.20
  -1   3 -17   43.90   24.40
  -1   3 -17   11.30   18.30
  -3  -3 -17   74.09   25.10
  -3  -3 -17   36.70   17.80
  -3   3 -17  103.89   41.10
  -3   3 -17   76.29   26.30
  -5  -3 -17   24.40   19.20
  -5  -3 -17   80.99   33.10
  -5  -3 -17   30.90   24.80
  -5   3 -17  140.19   33.50
  -5   3 -17   41.60   25.20
  -5   3 -17   76.79   26.00
  -7  -3 -17    1.80   28.40
  -7  -3 -17   12.20   35.40
  -7   3 -17  -23.40   36.00
  -9  -3 -17  -10.30   41.10
  -9  -3 -17   25.70   43.40
  -9   3 -17   38.00   42.60
  10  -4 -17   60.79   35.70
  10   4 -17   45.60   35.40
   8  -4 -17    3.20   28.70
   8  -4 -17   -1.10   26.10
   8   4 -17   11.10   24.80
   6  -4 -17   93.49   23.20
   6  -4 -17   94.09   30.60
   6  -4 -17   95.39   29.80
   6   4 -17   87.49   29.10
   4  -4 -17   34.10   19.30
   4  -4 -17   74.79   23.60
   4  -4 -17   39.90   21.30
   4   4 -17   46.00   22.70
   4   4 -17   69.79   20.10
   4   4 -17   30.80   22.60
   2  -4 -17  109.79   24.90
   2  -4 -17   75.89   23.00
   2   4 -17  154.38   23.70
   2   4 -17   74.49   24.10
   2   4 -17  119.99   25.10
   0  -4 -17   83.99   22.70
   0  -4 -17   56.79   23.40
   0   4 -17   88.19   18.00
   0   4 -17   81.49   23.90
   0   4 -17   99.89   26.80
  -2  -4 -17  -17.20   16.30
  -2  -4 -17   -6.40   17.10
  -2   4 -17   -3.90   26.90
  -2   4 -17   35.20   22.00
  -4  -4 -17    6.20   23.60
  -4  -4 -17   -7.90   15.70
  -4  -4 -17   52.09   28.90
  -4   4 -17  108.89   48.30
  -4   4 -17   59.69   27.30
  -4   4 -17   11.90   20.60
  -6  -4 -17    2.00   27.10
  -6  -4 -17   22.60   33.00
  -6  -4 -17   19.50   20.60
  -6   4 -17   19.20   24.70
  -6   4 -17   28.90   32.80
  -8  -4 -17   59.89   37.20
  -8  -4 -17   32.00   40.00
  -8   4 -17   41.70   41.60
  11  -5 -17    4.10   36.60
  11   5 -17   26.20   34.00
   9  -5 -17   52.29   29.50
   9  -5 -17   49.30   34.00
   9   5 -17   10.80   27.50
   7  -5 -17   61.19   27.90
   7  -5 -17   44.60   30.30
   7   5 -17   92.59   30.30
   5  -5 -17  275.07   36.10
   5  -5 -17  310.87   41.20
   5  -5 -17  215.38   39.20
   5   5 -17  265.47   39.30
   3  -5 -17   56.79   21.50
   3  -5 -17   49.70   22.60
   3   5 -17   92.59   21.50
   3   5 -17   73.89   21.70
   3   5 -17   45.30   21.80
   1  -5 -17   85.19   23.80
   1  -5 -17   82.69   24.50
   1   5 -17  134.29   20.00
   1   5 -17   43.40   22.10
   1   5 -17   45.20   21.20
  -1  -5 -17    9.70   18.90
  -1  -5 -17    8.10   19.80
  -1   5 -17   14.40   23.00
  -1   5 -17   29.30   20.60
  -3  -5 -17   48.60   21.40
  -3  -5 -17    2.40   17.50
  -3   5 -17  -22.80   35.70
  -3   5 -17   -1.00   19.50
  -5  -5 -17   33.00   22.40
  -5  -5 -17   54.49   27.10
  -5  -5 -17   59.49   34.00
  -5   5 -17   82.49   32.40
  -5   5 -17    0.50   23.40
  -7  -5 -17   51.79   37.20
  -7  -5 -17   23.90   23.80
  -7  -5 -17   17.00   31.40
  -7   5 -17  -14.80   33.60
  -9  -5 -17  -19.90   42.40
  -9  -5 -17   36.20   42.10
  -9   5 -17   15.70   42.10
  10  -6 -17   42.60   32.50
  10   6 -17   27.00   33.90
   8  -6 -17  -13.40   24.00
   8  -6 -17   34.50   31.90
   8   6 -17   10.60   26.60
   6  -6 -17   38.50   26.20
   6  -6 -17    1.20   23.70
   6  -6 -17    0.60   19.10
   6   6 -17   -0.60   23.80
   4  -6 -17   -2.10   19.00
   4  -6 -17   30.50   22.30
   4   6 -17    9.60   20.30
   2  -6 -17   86.69   26.40
   2  -6 -17  131.39   28.00
   2   6 -17  126.49   28.10
   2   6 -17  127.79   23.10
   0  -6 -17  172.38   32.20
   0  -6 -17  243.68   36.20
   0   6 -17  262.47   38.90
  -2  -6 -17   20.00   19.30
  -2  -6 -17   12.20   20.50
  -2   6 -17  -41.80   27.80
  -4  -6 -17   16.10   19.90
  -4  -6 -17   53.29   26.90
  -4  -6 -17    0.40   27.60
  -4   6 -17   15.10   27.60
  -6  -6 -17    7.60   26.40
  -6  -6 -17  -10.90   33.40
  -6  -6 -17   58.19   24.90
  -6   6 -17   75.09   36.30
  -8  -6 -17   64.69   40.60
  -8  -6 -17   79.49   42.90
  -8   6 -17   12.50   39.30
  11  -7 -17   87.79   37.10
  11   7 -17  -15.50   33.60
   9  -7 -17   34.40   32.20
   9  -7 -17   41.40   31.60
   9   7 -17   20.10   30.40
   7  -7 -17   14.10   28.40
   7  -7 -17   -3.40   25.30
   7   7 -17   40.80   27.70
   5  -7 -17  100.69   30.30
   5  -7 -17  143.39   29.70
   5   7 -17  237.58   35.30
   3  -7 -17  207.88   37.40
   3  -7 -17  250.67   37.40
   3   7 -17  278.27   35.40
   1  -7 -17    4.80   19.00
   1  -7 -17   23.40   19.40
   1   7 -17   -1.10   14.70
  -1  -7 -17    9.20   18.80
  -1  -7 -17    9.90   19.60
  -3  -7 -17    8.40   21.10
  -3  -7 -17   -9.80   18.30
  -3   7 -17   33.10   23.70
  -5  -7 -17   16.10   21.50
  -5  -7 -17   38.30   27.80
  -5  -7 -17   11.70   31.30
  -5   7 -17   86.59   33.30
  -7  -7 -17  -55.69   32.60
  -7  -7 -17  -11.80   22.30
  -7  -7 -17    3.40   32.00
  -7   7 -17   11.30   35.10
  -9  -7 -17   66.89   44.10
  -9  -7 -17  -13.20   43.10
  -9   7 -17   11.40   40.20
  10  -8 -17    6.00   31.40
  10   8 -17  -38.10   29.60
   8  -8 -17   -2.60   27.50
   8  -8 -17  -37.30   27.70
   8   8 -17  -20.10   26.20
   6  -8 -17  298.07   40.40
   6  -8 -17  354.16   50.69
   6   8 -17  248.58   42.80
   4  -8 -17   77.49   25.00
   4  -8 -17   48.70   26.10
   4   8 -17   52.99   24.40
   2  -8 -17  101.99   28.20
   2  -8 -17  119.69   28.50
   2   8 -17  124.49   23.80
   0  -8 -17  108.89   27.30
   0  -8 -17   90.39   26.00
  -2  -8 -17    6.10   18.50
  -2  -8 -17   -4.10   16.80
  -4  -8 -17   21.10   20.70
  -4  -8 -17    4.90   21.90
  -4  -8 -17   68.59   32.50
  -4   8 -17   21.40   26.10
  -6  -8 -17    5.50   27.10
  -6  -8 -17   15.10   22.50
  -6  -8 -17  -25.00   32.90
  -6   8 -17  -11.50   32.00
  -8  -8 -17   51.59   40.00
  -8  -8 -17  -35.70   37.30
  -8   8 -17   -0.70   37.40
   9  -9 -17   23.10   29.70
   9  -9 -17    1.40   32.70
   9   9 -17   -3.30   31.70
   7  -9 -17    1.90   29.80
   7   9 -17   -9.10   26.20
   5  -9 -17   62.59   29.50
   5  -9 -17   52.69   25.90
   5   9 -17   99.69   29.10
   3  -9 -17  -19.10   19.30
   3  -9 -17    3.80   22.80
   3   9 -17  -18.70   19.80
   1  -9 -17   78.09   25.30
   1  -9 -17   27.10   22.90
   1   9 -17   49.70   18.30
  -1  -9 -17    8.40   19.20
  -1  -9 -17  -15.90   16.90
  -3  -9 -17   -5.80   16.90
  -3  -9 -17   20.80   19.90
  -3   9 -17   29.00   25.30
  -5  -9 -17   29.10   27.30
  -5  -9 -17   14.40   20.20
  -5  -9 -17   48.40   34.90
  -5   9 -17   25.20   28.70
  -7  -9 -17    6.10   24.60
  -7  -9 -17  -30.10   31.90
  -7  -9 -17    5.70   34.20
  -7   9 -17    0.20   35.70
  10  10 -17   44.20   35.00
   8 -10 -17  -42.70   28.50
   8  10 -17   37.50   31.60
   6 -10 -17   -5.00   22.50
   6 -10 -17  -20.90   27.10
   6  10 -17    3.70   25.60
   4 -10 -17   14.80   23.40
   4 -10 -17   51.99   24.50
   4  10 -17   61.69   24.50
   2 -10 -17  114.19   28.10
   2 -10 -17   87.39   27.20
   2  10 -17  131.39   25.20
   0 -10 -17   21.30   21.50
   0 -10 -17   -8.90   20.80
  -2 -10 -17   10.40   22.40
  -2 -10 -17   17.50   20.90
  -4 -10 -17   22.40   21.20
  -4 -10 -17   56.49   34.90
  -4 -10 -17    4.50   21.60
  -4  10 -17    6.80   27.20
  -6 -10 -17   37.80   36.20
  -6 -10 -17   28.70   30.20
  -6 -10 -17   19.00   22.80
  -6  10 -17  -41.80   29.80
  -8 -10 -17   15.90   38.30
  -8 -10 -17   67.99   43.50
  -8  10 -17   20.40   40.50
   9 -11 -17    1.70   35.70
   9  11 -17   13.00   32.60
   7 -11 -17   70.09   30.50
   7 -11 -17   32.50   35.80
   7  11 -17   12.20   28.70
   5 -11 -17   62.69   27.90
   5 -11 -17   71.39   32.00
   5  11 -17   68.89   27.70
   3 -11 -17   78.69   27.10
   3 -11 -17   99.49   28.50
   3  11 -17   -4.90   19.80
   1 -11 -17    2.30   19.60
   1 -11 -17   24.90   21.40
   1  11 -17   15.20   16.20
  -1 -11 -17  -21.20   17.70
  -1 -11 -17   -2.60   20.70
   1  11  17    6.40   17.50
  -3 -11 -17   55.19   25.00
  -3 -11 -17   24.40   23.80
  -3 -11 -17   40.50   31.80
  -3  11 -17  -10.70   25.90
   3  11  17    3.30   22.30
  -5 -11 -17   10.90   36.20
  -5 -11 -17   -8.90   21.00
  -5 -11 -17   34.10   23.40
  -5  11 -17   25.40   29.70
  -7 -11 -17   18.20   24.50
  -7 -11 -17  -19.20   37.50
  -7 -11 -17   41.40   39.10
  -7  11 -17   37.30   37.30
  10  12 -17  -25.60   35.30
   8 -12 -17   11.80   37.20
   8  12 -17  -29.80   29.30
   6 -12 -17  -13.60   24.10
   6 -12 -17   11.10   30.60
   6  12 -17   -5.90   24.90
   4 -12 -17  -27.40   20.40
   4 -12 -17    2.40   23.40
   4  12 -17  -19.90   21.00
   2 -12 -17   18.90   23.00
   2 -12 -17   46.20   23.80
   2  12 -17   17.90   21.10
   0 -12 -17   39.50   25.10
   0 -12 -17   96.79   29.90
  -2 -12 -17   -9.70   19.30
  -2 -12 -17   22.50   24.90
   2  12  17   -1.50   19.50
  -4 -12 -17   21.00   25.50
  -4 -12 -17   12.50   22.10
  -4 -12 -17   10.60   34.70
  -4  12 -17   -2.20   28.50
   4  12  17   34.90   25.30
  -6 -12 -17   22.30   25.00
  -6 -12 -17   51.39   40.70
  -6 -12 -17  -11.40   26.70
  -6  12 -17   55.09   34.80
  -8 -12 -17  103.49   48.80
  -8 -12 -17   13.50   42.10
  -8  12 -17   12.30   37.80
   9 -13 -17   12.00   43.70
   9  13 -17    4.30   32.70
   7 -13 -17    2.60   25.70
   7 -13 -17  -16.60   34.30
   7  13 -17   49.00   32.10
   5 -13 -17   16.20   24.30
   5 -13 -17   -0.50   27.10
   5  13 -17   50.29   27.60
   3 -13 -17   32.90   25.50
   3 -13 -17    5.10   25.30
   3  13 -17   73.29   23.70
   1 -13 -17   52.89   27.80
   1 -13 -17   11.10   22.30
   1  13 -17   21.30   22.40
  -1 -13 -17   -7.30   22.20
  -1 -13 -17    1.30   22.50
   1  13  17    0.10   18.80
  -3 -13 -17   14.00   23.90
  -3 -13 -17  -15.00   18.20
  -3 -13 -17   25.50   32.00
   3  13  17   54.09   23.00
  -5 -13 -17   54.89   38.50
  -5 -13 -17   40.40   26.00
  -5 -13 -17    5.30   22.70
  -5  13 -17   55.89   32.10
   5  13  17   79.99   29.50
  -7 -13 -17   16.10   40.20
  -7 -13 -17   -0.80   24.90
  -7 -13 -17  -49.30   33.40
  -7  13 -17   -6.70   35.40
   8 -14 -17  -29.60   34.80
   8  14 -17  -13.20   30.50
   6 -14 -17   53.09   33.40
   6 -14 -17   -8.60   24.20
   6  14 -17   44.20   29.90
   4 -14 -17   -1.10   28.40
   4 -14 -17   28.10   25.20
   4  14 -17   17.60   23.90
   2 -14 -17  115.59   31.80
   2 -14 -17   37.70   28.10
   2  14 -17   70.09   24.40
   0 -14 -17  164.38   37.30
   0 -14 -17  164.98   35.20
  -2 -14 -17   22.10   23.50
  -2 -14 -17   -6.10   22.00
   2  14  17    0.40   19.20
  -4 -14 -17   64.19   28.40
  -4 -14 -17    3.80   33.90
  -4 -14 -17    7.20   24.00
   4  14  17   28.80   24.30
  -4  14 -17   40.80   29.10
  -6 -14 -17    2.20   25.80
  -6 -14 -17    2.90   38.40
  -6 -14 -17  -21.40   21.20
  -6  14 -17   23.90   33.80
   6  14  17    5.70   30.50
   9  15 -17   36.80   37.80
   7 -15 -17   31.00   36.70
   7 -15 -17   74.89   32.70
   7  15 -17   58.49   34.00
   5 -15 -17  286.67   50.29
   5 -15 -17  156.88   37.20
   5  15 -17  190.88   39.20
   3 -15 -17    3.90   24.60
   3 -15 -17  -16.30   25.60
   3  15 -17  -29.60   21.00
   1 -15 -17    4.00   25.70
   1 -15 -17   74.89   26.60
  -1 -15 -17  -30.70   21.30
  -1 -15 -17    3.00   22.90
   1  15  17   -6.90   20.20
  -3 -15 -17   31.50   27.70
  -3 -15 -17   32.50   42.10
  -3 -15 -17   16.10   22.60
   3  15  17   37.60   23.90
  -5 -15 -17  120.29   43.40
  -5 -15 -17   65.09   29.50
  -5 -15 -17   75.69   30.80
  -5  15 -17   40.70   34.60
   5  15  17   67.59   30.40
  -7 -15 -17  -25.40   25.30
  -7 -15 -17   68.79   46.20
  -7 -15 -17  -23.30   39.60
   7  15  17   52.99   36.70
  -7  15 -17    8.80   38.20
   8 -16 -17  -50.49   36.80
   8  16 -17  -13.40   31.90
   6 -16 -17   34.10   38.80
   6 -16 -17   56.39   29.20
   6  16 -17   -3.80   27.80
   4 -16 -17   34.00   25.80
   4 -16 -17  -23.50   29.50
   4  16 -17  -26.50   24.30
   2 -16 -17   42.80   27.70
   2 -16 -17   48.40   27.20
   2  16 -17   80.89   27.80
   0 -16 -17  -27.40   19.20
   0 -16 -17   43.00   25.80
  -2 -16 -17  -30.90   20.90
  -2 -16 -17    8.20   23.60
   2  16  17  -20.90   21.00
  -4 -16 -17   97.09   40.00
  -4 -16 -17   -8.80   26.00
  -4 -16 -17   17.20   23.40
   4  16  17   44.90   27.60
  -6 -16 -17   34.70   27.00
  -6 -16 -17   22.90   32.30
  -6 -16 -17    1.10   38.80
  -6  16 -17    3.40   34.90
   6  16  17   28.50   30.30
   7 -17 -17  -25.90   37.10
   7 -17 -17   27.20   32.40
   7  17 -17   17.30   30.70
   5 -17 -17  185.48   38.50
   5 -17 -17   80.59   40.60
   5  17 -17  108.89   34.60
   3 -17 -17  -15.30   25.40
   3 -17 -17   11.40   24.10
   3  17 -17    5.10   23.30
   1 -17 -17   51.69   26.00
   1 -17 -17   67.99   30.20
  -1 -17 -17   23.30   23.40
  -1 -17 -17   -2.20   22.80
  -3 -17 -17    0.80   22.80
  -3 -17 -17   38.60   26.30
   3  17  17   28.50   24.60
  -5 -17 -17  -11.30   38.40
  -5 -17 -17   60.69   30.80
  -5 -17 -17   29.80   29.10
   5  17  17   54.69   31.40
   8 -18 -17  -39.60   40.00
   8  18 -17    9.00   33.50
   6 -18 -17   30.80   40.30
   6 -18 -17   11.50   29.90
   6  18 -17   34.40   32.30
   4 -18 -17   24.60   31.60
   4 -18 -17   12.80   27.90
   4  18 -17   20.30   27.50
   2 -18 -17    9.40   23.50
   2 -18 -17  -15.20   25.20
   2  18 -17   67.99   31.60
   0 -18 -17   96.89   32.70
   0 -18 -17  124.69   33.20
  -2 -18 -17  -17.00   22.90
  -2 -18 -17   -6.00   22.90
   2  18  17   13.50   23.30
  -4 -18 -17   -8.20   45.40
  -4 -18 -17  -21.90   21.30
  -4 -18 -17   14.70   29.00
   4  18  17  -18.10   24.60
  -6 -18 -17    8.80   24.20
  -6 -18 -17   24.80   45.90
  -6 -18 -17  -37.00   31.70
   6  18  17  -12.30   31.90
  -6  18 -17  -19.30   34.30
   7 -19 -17    2.50   32.10
   7 -19 -17   80.49   45.00
   7  19 -17   22.70   34.80
   5 -19 -17  108.49   37.30
   5 -19 -17  169.38   48.10
   5  19 -17   83.89   34.50
   3 -19 -17   53.99   29.40
   3 -19 -17  -11.30   26.70
   3  19 -17   -2.90   24.90
   1 -19 -17   -8.50   24.30
   1 -19 -17   30.80   27.80
  -1 -19 -17    4.00   24.80
  -1 -19 -17  -14.90   20.60
  -3 -19 -17    6.90   24.70
  -3 -19 -17   12.90   28.40
   3  19  17   20.80   26.80
  -5 -19 -17   17.10   30.20
  -5 -19 -17  -28.10   39.20
  -5 -19 -17   30.40   29.20
   5  19  17   48.80   31.30
   6 -20 -17   10.90   31.30
   6 -20 -17   -9.30   40.80
   6  20 -17  -25.60   30.20
   4 -20 -17  -17.00   31.50
   4 -20 -17    6.80   28.40
   4  20 -17  -21.60   25.60
   2 -20 -17   88.09   31.90
   2 -20 -17   68.19   31.50
   0 -20 -17   52.29   29.30
   0 -20 -17    7.60   23.80
  -2 -20 -17   27.90   29.30
  -2 -20 -17   12.10   24.90
  -4 -20 -17   -1.20   23.90
  -4 -20 -17   40.00   32.60
   4  20  17   37.60   51.49
   4  20  17  -43.30   26.30
   5 -21 -17   38.50   43.30
   5 -21 -17   83.59   38.00
   5  21 -17   79.99   37.40
   3 -21 -17   28.30   30.60
   3 -21 -17    9.70   28.90
   3  21 -17   -7.70   28.70
   1 -21 -17   -1.40   26.30
   1 -21 -17    3.20   24.80
  -1 -21 -17   -8.50   23.20
  -1 -21 -17   -9.40   24.80
  -3 -21 -17   22.00   29.20
  -3 -21 -17  -18.80   26.80
   3  21  17  -14.70   26.00
   3  21  17  -20.60   44.70
   4 -22 -17   29.60   36.30
   4 -22 -17   10.70   31.20
   4  22 -17   39.40   32.60
   2 -22 -17  -18.40   26.60
   2 -22 -17   16.00   28.50
   0 -22 -17   -0.50   25.70
   0 -22 -17  139.09   38.30
  -2 -22 -17    0.10   25.70
  -2 -22 -17  -25.80   24.00
   3 -23 -17   -7.30   32.30
   3 -23 -17  -23.60   24.70
   1 -23 -17    3.70   28.10
   1 -23 -17    8.80   26.90
  -1 -23 -17  -13.60   25.80
  -1 -23 -17   26.70   27.20
   2 -24 -17   25.40   29.90
   2 -24 -17   69.99   36.00
   0 -24 -17    5.70   29.10
   0 -24 -17    5.20   26.00
  10   0 -18  100.59   37.30
   8   0 -18  -36.80   25.70
   8   0 -18   -1.10   26.40
   6   0 -18  410.46   50.49
   6   0 -18  399.06   52.69
   4   0 -18   -2.90   15.90
   4   0 -18    2.20   18.90
   4   0 -18   -5.00   19.80
   2   0 -18    6.20   17.50
   2   0 -18   42.20   20.20
   2   0 -18   19.60   18.90
   0   0 -18   17.90   20.70
   0   0 -18    3.20   18.10
  -2   0 -18   58.59   25.70
  -2   0 -18   46.80   29.10
  -4   0 -18   80.09   42.40
  -4   0 -18   -3.70   18.90
  -4   0 -18   63.79   31.60
  -6   0 -18   12.10   24.90
  -6   0 -18    7.00   29.10
  -6   0 -18  109.19   37.80
  -8   0 -18  -50.69   38.30
  -8   0 -18   17.50   33.70
  11  -1 -18    3.10   30.50
  11   1 -18   13.90   33.80
   9  -1 -18   -1.20   29.40
   9  -1 -18   36.10   29.10
   9   1 -18  105.19   33.00
   7  -1 -18    8.70   26.30
   7  -1 -18   -1.70   23.90
   7   1 -18  -23.60   21.90
   7   1 -18  -10.10   26.00
   5  -1 -18   -2.20   17.20
   5  -1 -18   -1.90   20.40
   5  -1 -18   29.20   23.70
   5   1 -18  -36.30   19.90
   5   1 -18    1.60   16.20
   5   1 -18    9.10   21.30
   3  -1 -18   49.00   21.00
   3  -1 -18   73.89   23.30
   3  -1 -18  102.89   23.20
   3   1 -18   56.69   21.30
   3   1 -18   30.00   21.00
   3   1 -18   63.49   23.60
   1  -1 -18  186.78   32.60
   1  -1 -18  117.39   28.40
   1   1 -18  151.88   31.70
   1   1 -18  192.38   27.20
   1   1 -18  209.78   32.90
  -1  -1 -18   32.20   21.90
  -1  -1 -18   18.60   21.80
  -1   1 -18   11.40   19.90
  -1   1 -18   49.99   24.90
  -3  -1 -18   28.60   35.30
  -3  -1 -18   36.30   24.20
  -3   1 -18   32.70   23.40
  -3   1 -18    7.80   35.40
  -5  -1 -18    4.40   22.50
  -5  -1 -18   43.10   32.80
  -5  -1 -18   18.10   25.50
  -5   1 -18   -5.30   24.90
  -5   1 -18   -4.50   25.30
  -5   1 -18   53.99   32.70
  -7  -1 -18   29.10   37.30
  -7  -1 -18  -46.60   26.70
  -7   1 -18   15.70   38.00
  -7   1 -18   -2.90   26.90
  -9  -1 -18   54.89   45.00
  -9   1 -18   41.10   47.60
  10  -2 -18   50.39   32.20
  10   2 -18   54.39   33.80
   8  -2 -18   17.40   26.90
   8  -2 -18    6.90   28.30
   8   2 -18   35.00   28.50
   6  -2 -18  181.18   38.50
   6  -2 -18  217.68   38.70
   6   2 -18  227.58   37.20
   6   2 -18  166.88   35.00
   4  -2 -18   28.10   21.50
   4  -2 -18    2.70   21.00
   4  -2 -18   50.09   20.80
   4   2 -18   51.89   22.70
   4   2 -18   58.79   20.50
   4   2 -18  117.89   28.00
   2  -2 -18  105.89   27.30
   2  -2 -18  154.78   27.90
   2   2 -18  119.29   25.70
   2   2 -18  121.69   23.40
   2   2 -18   61.29   23.20
   0  -2 -18   -9.90   15.70
   0  -2 -18    7.80   19.30
   0   2 -18    0.80   19.10
   0   2 -18   12.00   20.10
  -2  -2 -18    2.50   19.20
  -2  -2 -18    7.40   26.50
  -2   2 -18   -5.00   19.70
  -2   2 -18   16.60   27.70
  -4  -2 -18   76.19   34.20
  -4  -2 -18   50.59   27.30
  -4  -2 -18   40.10   37.30
  -4   2 -18   23.40   44.90
  -4   2 -18  107.89   31.90
  -4   2 -18   19.40   24.40
  -6  -2 -18  -20.60   21.70
  -6  -2 -18   25.10   26.40
  -6  -2 -18  -12.10   31.70
  -6   2 -18   -0.20   25.40
  -6   2 -18   14.10   24.70
  -6   2 -18   69.29   36.90
  -8  -2 -18  -13.90   33.80
  -8  -2 -18   69.19   43.40
  -8   2 -18   15.90   40.50
  11  -3 -18   25.00   34.20
  11   3 -18   -9.50   32.30
   9  -3 -18  -31.50   26.70
   9  -3 -18   12.60   29.20
   9   3 -18    4.50   29.70
   7  -3 -18    2.90   27.90
   7  -3 -18   10.90   25.40
   7   3 -18    7.50   24.60
   5  -3 -18  122.69   25.90
   5  -3 -18   85.09   28.40
   5  -3 -18   99.59   28.50
   5   3 -18   97.59   29.60
   5   3 -18  103.29   23.20
   5   3 -18   97.39   26.80
   3  -3 -18   39.40   21.90
   3  -3 -18   44.80   20.90
   3  -3 -18   23.90   19.40
   3   3 -18   49.60   20.80
   3   3 -18   19.90   21.90
   3   3 -18   22.60   19.10
   1  -3 -18  247.28   36.60
   1  -3 -18  206.58   33.70
   1   3 -18  186.48   34.60
   1   3 -18  221.78   28.90
   1   3 -18  218.28   33.70
  -1  -3 -18  -18.30   13.60
  -1  -3 -18   48.60   22.90
  -1   3 -18   64.49   25.70
  -1   3 -18   21.30   21.00
  -3  -3 -18  -10.70   20.40
  -3  -3 -18    4.20   17.10
  -3   3 -18   24.20   22.30
  -3   3 -18   52.99   41.50
  -5  -3 -18   24.50   25.60
  -5  -3 -18    1.60   32.80
  -5  -3 -18   38.40   26.50
  -5   3 -18   29.10   30.10
  -5   3 -18   24.70   24.40
  -5   3 -18   39.60   26.60
  -7  -3 -18   10.70   27.70
  -7  -3 -18  106.19   42.20
  -7   3 -18    9.30   37.00
  10  -4 -18    3.60   31.70
  10   4 -18   78.29   36.70
   8  -4 -18   28.20   34.20
   8  -4 -18  -13.00   24.80
   8   4 -18   40.00   29.30
   6  -4 -18   -4.40   23.10
   6  -4 -18   42.30   22.10
   6  -4 -18  -43.50   20.80
   6   4 -18   50.69   26.00
   4  -4 -18   95.89   24.90
   4  -4 -18   69.09   26.80
   4  -4 -18   86.59   26.50
   4   4 -18  140.39   28.20
   4   4 -18   97.29   29.20
   4   4 -18  110.09   24.10
   2  -4 -18   23.40   19.00
   2  -4 -18    0.20   15.50
   2   4 -18   14.50   16.60
   2   4 -18   39.10   20.20
   2   4 -18   -0.60   18.60
   0  -4 -18   33.30   22.00
   0  -4 -18   21.00   18.10
   0   4 -18   37.00   24.50
   0   4 -18   40.40   22.80
  -2  -4 -18    2.80   21.70
  -2  -4 -18  -10.30   16.50
  -2   4 -18  -14.20   18.40
  -2   4 -18   17.30   31.90
  -4  -4 -18   32.80   36.50
  -4  -4 -18   36.60   20.00
  -4  -4 -18   40.20   24.20
  -4   4 -18   42.40   23.30
  -4   4 -18   12.80   25.60
  -4   4 -18   53.49   29.10
  -6  -4 -18  -19.10   17.10
  -6  -4 -18   36.70   27.60
  -6  -4 -18   39.20   33.60
  -6   4 -18   33.20   33.30
  -6   4 -18  -18.50   23.70
  -8  -4 -18   37.50   40.50
  -8  -4 -18  -28.40   34.60
  -8   4 -18   27.20   39.50
  11  -5 -18    9.60   34.10
   9  -5 -18  -19.80   32.90
   9  -5 -18  -11.20   28.50
   9   5 -18  -15.50   29.70
   7  -5 -18  172.58   37.00
   7  -5 -18  232.98   43.90
   7   5 -18  171.88   38.20
   5  -5 -18   11.40   22.20
   5  -5 -18   -2.50   18.90
   5  -5 -18    7.90   23.40
   5   5 -18   -7.90   20.60
   3  -5 -18   -6.50   15.70
   3  -5 -18  -11.60   17.20
   3   5 -18   32.60   21.20
   3   5 -18   11.90   17.10
   3   5 -18   -6.60   17.20
   1  -5 -18  256.67   37.30
   1  -5 -18  168.68   34.30
   1   5 -18  279.17   29.70
   1   5 -18  216.48   35.70
   1   5 -18  228.48   35.40
  -1  -5 -18   42.90   22.70
  -1  -5 -18    3.80   20.90
  -1   5 -18   22.90   20.60
  -1   5 -18   46.80   24.60
  -3  -5 -18   58.09   24.80
  -3  -5 -18   52.19   25.60
  -3   5 -18   44.60   40.50
  -5  -5 -18   47.90   33.90
  -5  -5 -18   12.80   17.80
  -5  -5 -18   26.00   26.60
  -5   5 -18   48.00   33.10
  -5   5 -18   26.50   26.30
  -7  -5 -18   62.89   36.10
  -7  -5 -18  109.09   42.70
  -7   5 -18   72.49   40.90
  10  -6 -18  128.59   38.90
  10   6 -18   56.99   38.70
   8  -6 -18   45.70   33.90
   8  -6 -18    9.20   27.90
   8   6 -18    4.50   29.90
   6  -6 -18   66.49   29.70
   6  -6 -18   94.19   30.80
   6  -6 -18  110.49   26.60
   6   6 -18   72.79   29.60
   4  -6 -18  113.99   27.70
   4  -6 -18  127.69   27.80
   4   6 -18  109.09   26.50
   2  -6 -18  -22.30   17.60
   2  -6 -18  -11.20   19.60
   2   6 -18   15.40   16.90
   2   6 -18   15.10   19.50
   0  -6 -18   12.30   18.10
   0  -6 -18    6.20   18.30
   0   6 -18   23.10   22.30
  -2  -6 -18   63.79   24.80
  -2  -6 -18   30.90   21.80
  -2   6 -18   34.50   34.30
  -4  -6 -18   38.70   25.70
  -4  -6 -18    0.20   19.50
  -4  -6 -18   23.10   41.30
  -4   6 -18    9.00   28.70
  -6  -6 -18   52.09   23.60
  -6  -6 -18   66.99   30.40
  -6  -6 -18   28.20   34.90
  -6   6 -18   46.60   36.10
  -8  -6 -18   99.59   45.30
  -8  -6 -18  -57.99   36.90
  -8   6 -18   37.00   41.90
   9  -7 -18  -36.30   26.10
   9  -7 -18  -56.39   32.80
   9   7 -18    6.10   32.50
   7  -7 -18  -16.90   24.30
   7  -7 -18  -40.80   26.20
   7   7 -18   21.50   27.00
   5  -7 -18   19.10   22.80
   5  -7 -18   20.50   21.20
   5   7 -18   54.29   25.20
   3  -7 -18   75.09   26.10
   3  -7 -18  113.89   27.60
   3   7 -18   64.29   22.60
   1  -7 -18   50.99   23.90
   1  -7 -18   35.10   22.60
   1   7 -18   64.09   19.30
  -1  -7 -18  -12.00   17.50
  -1  -7 -18    2.00   17.90
  -3  -7 -18   17.30   20.90
  -3  -7 -18   -4.00   21.30
  -5  -7 -18   -4.40   21.20
  -5  -7 -18  -49.70   32.80
  -5  -7 -18  -21.00   25.30
  -5   7 -18  -18.70   30.90
  -7  -7 -18   -9.00   31.70
  -7  -7 -18   10.20   31.80
  -7  -7 -18   12.80   39.30
  -7   7 -18   50.79   37.70
  10  -8 -18   84.99   37.70
  10   8 -18   47.10   36.60
   8  -8 -18  -22.40   30.30
   8  -8 -18    8.10   26.30
   8   8 -18  -22.30   25.60
   6  -8 -18   55.59   30.10
   6  -8 -18   49.99   25.30
   6   8 -18   41.30   29.00
   4  -8 -18   57.19   26.00
   4  -8 -18   31.50   22.40
   4   8 -18    6.40   23.00
   2  -8 -18   18.70   22.10
   2  -8 -18   -4.30   19.60
   2   8 -18   32.30   19.30
   0  -8 -18   26.70   21.40
   0  -8 -18   17.60   20.00
  -2  -8 -18  -11.80   17.60
  -2  -8 -18  -15.20   18.90
  -4  -8 -18   29.60   21.70
  -4  -8 -18    7.50   24.20
  -4   8 -18   28.10   26.80
  -6  -8 -18   50.79   38.70
  -6  -8 -18  -10.00   22.20
  -6  -8 -18   55.99   32.60
  -6   8 -18   -3.80   33.90
  -8  -8 -18   -8.70   39.80
  -8  -8 -18   55.69   42.60
  -8   8 -18   49.30   42.30
   9  -9 -18  -31.70   34.10
   9  -9 -18   43.30   30.40
   9   9 -18   12.20   31.60
   7  -9 -18   84.99   37.50
   7   9 -18  128.59   36.70
   5  -9 -18   26.50   24.00
   5  -9 -18    5.70   27.40
   5   9 -18   27.90   24.90
   3  -9 -18   89.79   29.40
   3  -9 -18  142.29   30.40
   3   9 -18  133.89   28.30
   1  -9 -18   -6.20   19.70
   1  -9 -18   27.60   21.70
  -1  -9 -18   34.60   22.50
  -1  -9 -18   26.60   23.30
  -3  -9 -18   -3.10   18.50
  -3  -9 -18   10.50   19.90
  -3   9 -18   77.89   38.70
  -5  -9 -18   37.90   39.50
  -5  -9 -18  -12.70   19.90
  -5  -9 -18  -15.10   24.80
  -5   9 -18    1.50   28.20
  -7  -9 -18   -5.90   25.00
  -7  -9 -18   33.10   36.20
  -7  -9 -18   16.50   38.80
  -7   9 -18   46.70   39.90
  10  10 -18  -34.50   31.00
   8 -10 -18  -28.30   32.10
   8  10 -18    4.90   29.50
   6 -10 -18  -17.50   23.80
   6 -10 -18   16.70   31.50
   6  10 -18   12.00   26.30
   4 -10 -18   55.59   27.10
   4 -10 -18   48.10   28.10
   4  10 -18   53.49   26.10
   2 -10 -18   35.10   23.00
   2 -10 -18   33.90   23.10
   2  10 -18   39.60   21.20
   0 -10 -18   -0.90   19.50
   0 -10 -18  -15.00   18.60
  -2 -10 -18   44.30   22.70
  -2 -10 -18   15.60   21.80
  -4 -10 -18    8.60   20.30
  -4 -10 -18   37.60   22.70
  -4  10 -18   -2.60   28.10
  -6 -10 -18   33.00   32.00
  -6 -10 -18  -14.60   36.50
  -6 -10 -18  -21.10   20.80
  -6  10 -18   59.29   34.80
  -8 -10 -18   73.89   47.20
  -8  10 -18   47.20   45.70
   9 -11 -18   31.70   38.40
   9  11 -18   30.80   35.90
   7 -11 -18  126.69   42.00
   7  11 -18  129.09   39.40
   5 -11 -18   -0.70   23.60
   5 -11 -18   39.20   30.60
   5  11 -18  -13.10   23.40
   3 -11 -18   35.00   23.90
   3 -11 -18  -11.00   22.30
   3  11 -18    2.80   19.70
   1 -11 -18   95.89   27.20
   1 -11 -18  165.98   32.70
  -1 -11 -18   29.20   24.30
  -1 -11 -18   29.80   23.00
  -3 -11 -18    9.80   21.10
  -3 -11 -18   13.80   22.60
  -3  11 -18   -4.90   39.30
  -5 -11 -18   14.00   23.10
  -5 -11 -18   31.10   53.19
  -5 -11 -18   18.50   28.40
  -5  11 -18    0.10   30.70
  -7 -11 -18  -10.20   23.50
  -7 -11 -18   86.69   40.10
  -7 -11 -18   24.80   40.30
  -7  11 -18    2.10   37.70
   8 -12 -18  -35.30   34.20
   8  12 -18   -6.30   33.70
   6 -12 -18  151.68   42.20
   6 -12 -18   75.09   31.00
   6  12 -18   81.69   33.90
   4 -12 -18    9.90   25.50
   4 -12 -18    2.40   24.40
   4  12 -18  -18.70   20.80
   2 -12 -18   12.80   23.20
   2 -12 -18  -18.30   22.60
   2  12 -18   22.20   19.30
   0 -12 -18  -12.10   22.00
   0 -12 -18   23.30   22.40
  -2 -12 -18    9.80   21.30
  -2 -12 -18   14.90   22.50
  -4 -12 -18  -20.40   20.90
  -4 -12 -18   23.10   24.10
  -4  12 -18  -26.50   28.10
  -6 -12 -18   12.20   43.30
  -6 -12 -18   49.00   34.80
  -6 -12 -18  -11.50   19.90
  -6  12 -18   53.39   38.20
   9 -13 -18  -42.10   39.00
   9  13 -18  -24.80   35.80
   7 -13 -18   37.20   37.80
   7  13 -18   10.10   31.60
   5 -13 -18   -8.80   26.00
   5 -13 -18  -10.70   27.90
   5  13 -18  -10.70   23.90
   3 -13 -18   58.79   29.80
   3 -13 -18  106.89   31.50
   3  13 -18   39.30   24.70
   1 -13 -18  158.78   37.20
   1 -13 -18   89.09   32.10
  -1 -13 -18   -5.10   22.90
  -1 -13 -18   45.80   28.10
  -3 -13 -18    0.40   23.10
  -3 -13 -18    1.80   22.40
  -5 -13 -18   -7.60   23.40
  -5 -13 -18   -0.20   24.00
  -5  13 -18   49.40   33.50
  -7 -13 -18   43.00   39.10
  -7 -13 -18   18.80   24.90
  -7 -13 -18   30.70   45.40
  -7  13 -18   -5.80   36.90
   8 -14 -18    6.90   38.40
   8  14 -18   79.29   36.00
   6 -14 -18   11.00   27.40
   6 -14 -18   60.49   37.00
   6  14 -18   59.19   32.00
   4 -14 -18  103.79   33.00
   4 -14 -18   57.59   32.20
   4  14 -18   36.00   27.60
   2 -14 -18   10.70   25.90
   2 -14 -18    5.60   23.90
   2  14 -18   16.60   32.10
   0 -14 -18   27.90   25.30
   0 -14 -18   25.90   27.90
  -2 -14 -18    0.60   23.50
  -2 -14 -18  -11.10   22.00
  -4 -14 -18   21.30   23.30
  -4 -14 -18    1.10   24.00
  -6 -14 -18  -23.40   22.60
  -6 -14 -18   16.10   28.90
  -6  14 -18   11.30   35.80
   7 -15 -18    3.50   37.20
   7 -15 -18   -8.40   27.20
   7  15 -18    1.30   33.70
   5 -15 -18   -0.80   27.80
   5 -15 -18  -50.39   26.90
   5  15 -18   36.70   27.60
   3 -15 -18    6.70   24.70
   3 -15 -18   -8.00   24.60
   3  15 -18  -12.50   21.40
   1 -15 -18  -25.20   23.00
   1 -15 -18    5.40   24.10
  -1 -15 -18  -25.40   20.90
  -1 -15 -18  -25.20   20.30
  -3 -15 -18   23.40   25.00
  -3 -15 -18  -35.30   20.50
  -5 -15 -18  -37.50   21.90
  -5 -15 -18   18.40   26.70
  -5  15 -18  -40.40   30.80
   8 -16 -18   -1.80   40.40
   8  16 -18   12.40   35.10
   6 -16 -18   76.49   33.20
   6 -16 -18   80.49   43.60
   6  16 -18   65.19   33.50
   4 -16 -18   31.10   33.30
   4 -16 -18   36.70   28.70
   4  16 -18   15.00   25.80
   2 -16 -18   37.80   28.00
   2 -16 -18    7.00   26.90
   0 -16 -18  -15.00   22.80
   0 -16 -18   -5.20   21.60
  -2 -16 -18    6.50   22.10
  -2 -16 -18   12.40   24.60
  -4 -16 -18   28.60   29.50
  -4 -16 -18   -8.10   24.30
  -6 -16 -18   -3.70   26.70
  -6 -16 -18   -4.30   31.00
  -6  16 -18   28.70   37.80
   7 -17 -18  -32.40   38.10
   7 -17 -18   37.30   33.70
   7  17 -18  -31.30   29.60
   5 -17 -18   11.10   36.50
   5 -17 -18    7.30   27.30
   5  17 -18    6.50   28.20
   3 -17 -18   50.49   30.70
   3 -17 -18   66.39   34.70
   3  17 -18  120.19   30.80
   1 -17 -18  173.58   40.90
   1 -17 -18  160.08   37.70
  -1 -17 -18   56.79   29.20
  -1 -17 -18   68.39   30.40
  -3 -17 -18    1.20   24.00
  -3 -17 -18   13.30   27.30
  -5 -17 -18   -7.00   23.70
  -5 -17 -18  -21.10   26.10
   6 -18 -18  142.39   48.50
   6 -18 -18   87.59   36.20
   6  18 -18  132.89   38.90
   4 -18 -18  -15.70   33.80
   4 -18 -18   24.40   28.50
   4  18 -18   -1.40   27.30
   2 -18 -18   31.20   30.10
   2 -18 -18  -12.00   23.20
   0 -18 -18  -39.30   20.70
   0 -18 -18   33.70   27.00
  -2 -18 -18   14.30   25.40
  -2 -18 -18  -12.40   22.50
   2  18  18    1.50   33.30
  -4 -18 -18   38.40   28.20
  -4 -18 -18   61.69   30.50
   7 -19 -18   24.90   34.60
   7 -19 -18   15.80   45.20
   5 -19 -18    9.20   29.30
   5 -19 -18    5.20   39.00
   5  19 -18  -15.90   28.60
   3 -19 -18   11.80   26.40
   3 -19 -18   23.00   32.80
   1 -19 -18    7.40   27.90
   1 -19 -18  -11.80   25.40
  -1 -19 -18    7.90   23.20
  -1 -19 -18   22.60   26.70
  -3 -19 -18   69.99   32.80
  -3 -19 -18   -7.00   26.20
   3  19  18   20.20   44.10
   6 -20 -18   86.19   35.90
   6 -20 -18    8.60   43.50
   6  20 -18   33.40   34.40
   4 -20 -18  -17.90   33.60
   4 -20 -18   -1.80   30.40
   4  20 -18  -17.90   27.60
   2 -20 -18   23.10   29.50
   2 -20 -18   54.39   31.90
   0 -20 -18   21.50   26.40
   0 -20 -18   24.40   29.60
  -2 -20 -18  -21.60   23.20
  -2 -20 -18   40.40   28.80
  -4 -20 -18   42.50   32.90
  -4 -20 -18  -22.50   24.00
   5 -21 -18  -33.40   37.80
   5 -21 -18   21.10   34.00
   5  21 -18   -0.60   31.40
   3 -21 -18   70.39   35.00
   3 -21 -18   -8.60   33.70
   1 -21 -18  141.49   37.80
   1 -21 -18   75.89   32.90
  -1 -21 -18   -4.10   26.50
  -1 -21 -18    5.10   26.10
  -3 -21 -18   -6.70   25.80
  -3 -21 -18   11.30   29.00
   3  21  18  -19.10   48.60
   3  21  18  -16.70   28.70
   4 -22 -18  -22.60   36.30
   4 -22 -18   -0.90   30.10
   4  22 -18   93.79   43.70
   2 -22 -18    6.00   29.60
   2 -22 -18   25.50   29.70
   0 -22 -18   -9.10   26.00
   0 -22 -18    5.10   27.10
  -2 -22 -18   12.80   29.10
  -2 -22 -18  -25.20   26.20
   1 -23 -18   39.00   32.50
   1 -23 -18  107.99   37.30
  10   0 -19   62.09   32.30
   8   0 -19    5.10   29.40
   8   0 -19    7.00   27.60
   6   0 -19   -1.50   24.30
   6   0 -19    8.40   24.50
   4   0 -19   89.19   25.90
   4   0 -19   84.39   24.70
   4   0 -19   44.10   23.10
   2   0 -19  309.47   40.60
   2   0 -19  224.78   37.40
   2   0 -19  342.07   37.40
   0   0 -19  136.09   31.20
   0   0 -19  165.68   32.90
  -2   0 -19   34.10   27.90
  -2   0 -19   -3.20   23.00
  -4   0 -19   35.60   46.30
  -4   0 -19    8.60   23.80
  -6   0 -19   -2.30   26.00
  -6   0 -19   27.30   29.80
  -8   0 -19   69.19   37.40
  -8   0 -19  -27.10   44.40
   9  -1 -19  -11.50   28.90
   9  -1 -19   37.80   33.50
   9   1 -19   -1.20   28.60
   7  -1 -19   22.20   27.60
   7  -1 -19   14.60   28.00
   7   1 -19   45.40   26.50
   7   1 -19   34.40   27.30
   5  -1 -19    6.40   22.00
   5  -1 -19   28.20   20.10
   5  -1 -19  -29.20   20.40
   5   1 -19   -2.30   23.60
   5   1 -19   -4.40   17.50
   5   1 -19  -15.80   19.50
   3  -1 -19  -12.90   17.80
   3  -1 -19   12.00   17.80
   3  -1 -19    7.00   18.90
   3   1 -19  -13.40   18.10
   3   1 -19   17.00   18.00
   3   1 -19   37.30   21.20
   1  -1 -19   27.40   21.90
   1  -1 -19   12.30   19.10
   1   1 -19   -3.80   19.10
   1   1 -19  -12.40   17.50
  -1  -1 -19    5.40   22.80
  -1  -1 -19    7.10   21.30
  -1   1 -19    4.20   20.70
  -1   1 -19   -6.40   22.30
  -3  -1 -19    8.70   23.10
  -3  -1 -19   94.09   41.00
  -3   1 -19   91.19   43.30
  -3   1 -19   21.10   23.70
  -5  -1 -19   68.09   30.40
  -5  -1 -19   71.59   27.10
  -5   1 -19   47.90   29.50
  -5   1 -19   28.00   29.40
  -7  -1 -19   52.19   57.19
  -7  -1 -19    7.60   31.70
  -7   1 -19   36.80   53.19
  -7   1 -19   30.90   28.20
  10  -2 -19   55.29   36.60
  10   2 -19   -4.70   31.10
   8  -2 -19   51.89   31.30
   8  -2 -19   77.39   34.70
   8   2 -19   77.59   31.80
   6  -2 -19  -13.80   23.70
   6  -2 -19  -30.30   22.40
   6   2 -19  -14.30   24.90
   6   2 -19    5.80   23.10
   4  -2 -19  -14.20   17.80
   4  -2 -19   16.80   20.30
   4  -2 -19   11.60   21.20
   4   2 -19   -1.00   17.90
   4   2 -19    5.00   19.70
   4   2 -19   -5.80   21.70
   2  -2 -19  120.09   29.30
   2  -2 -19  166.78   31.70
   2   2 -19  219.38   29.20
   2   2 -19  203.38   33.40
   2   2 -19  134.29   30.60
   0  -2 -19   14.00   21.70
   0  -2 -19   19.70   21.20
   0   2 -19   26.10   21.50
   0   2 -19   17.90   21.10
  -2  -2 -19   -4.30   21.20
  -2  -2 -19    6.00   26.70
  -2   2 -19   -6.20   30.40
  -2   2 -19    4.80   21.00
  -4  -2 -19   19.90   25.80
  -4  -2 -19   17.20   45.80
  -4   2 -19    3.80   25.20
  -4   2 -19   53.29   28.60
  -6  -2 -19   -0.20   27.00
  -6  -2 -19   29.50   26.40
  -6   2 -19  -14.50   23.00
  -6   2 -19  -29.90   23.20
  -8  -2 -19   -1.30   37.60
  -8  -2 -19   19.40   49.60
  -8   2 -19   -1.40   48.60
   9  -3 -19    9.90   31.10
   9  -3 -19   47.40   31.70
   9   3 -19    5.20   29.80
   7  -3 -19   16.50   26.60
   7  -3 -19   27.20   30.20
   7   3 -19  -19.00   23.70
   5  -3 -19  458.25   49.40
   5  -3 -19  448.06   50.39
   5  -3 -19  345.47   50.49
   5   3 -19  381.56   52.69
   5   3 -19  441.46   49.80
   5   3 -19  433.86   63.39
   3  -3 -19   -8.30   18.80
   3  -3 -19   13.60   19.20
   3   3 -19   19.10   19.10
   3   3 -19   33.80   22.20
   3   3 -19   36.90   20.20
   1  -3 -19  156.48   30.80
   1  -3 -19   93.89   27.50
   1   3 -19  118.89   25.50
   1   3 -19  112.79   27.20
   1   3 -19  130.79   30.30
  -1  -3 -19   26.10   24.00
  -1  -3 -19   21.60   18.20
  -1   3 -19    2.90   21.70
  -1   3 -19   -3.90   25.00
  -3  -3 -19   46.80   25.20
  -3  -3 -19   -7.10   16.00
  -3   3 -19  -18.20   21.80
  -3   3 -19   35.50   43.70
  -5  -3 -19    9.20   26.60
  -5  -3 -19   57.79   30.20
  -5   3 -19    2.10   22.00
  -5   3 -19   23.40   27.50
  -7  -3 -19   49.00   32.70
  -7   3 -19  -10.60   44.40
  10  -4 -19   27.80   35.20
  10   4 -19   33.30   34.30
   8  -4 -19   21.40   33.90
   8  -4 -19   61.49   32.20
   8   4 -19   68.89   34.30
   6  -4 -19   16.60   25.80
   6  -4 -19   54.59   28.60
   6   4 -19   15.70   25.00
   4  -4 -19   94.09   27.90
   4  -4 -19  177.78   30.40
   4  -4 -19  105.89   28.20
   4   4 -19  172.68   30.10
   4   4 -19  145.59   28.20
   4   4 -19  122.29   32.80
   2  -4 -19   70.89   24.10
   2  -4 -19  142.89   31.00
   2   4 -19  129.59   28.70
   2   4 -19  179.78   26.60
   2   4 -19  139.89   31.00
   0  -4 -19  147.89   32.00
   0  -4 -19   85.19   25.70
   0   4 -19  151.88   33.50
   0   4 -19  140.79   29.40
  -2  -4 -19  -23.00   20.20
  -2  -4 -19   13.90   17.20
  -2   4 -19   23.90   34.30
  -2   4 -19   17.60   22.00
  -4  -4 -19   23.00   26.00
  -4  -4 -19   27.50   19.10
  -4   4 -19    5.10   22.10
  -4   4 -19   50.59   28.00
  -6  -4 -19   -1.10   27.90
  -6  -4 -19   62.09   31.00
  -6   4 -19   -6.60   26.10
  -8  -4 -19   46.10   39.50
  -8  -4 -19    8.70   58.09
  -8   4 -19   95.19   47.40
   9  -5 -19  -18.10   35.50
   9  -5 -19   37.40   32.70
   9   5 -19  -34.20   29.40
   7  -5 -19  -21.10   22.20
   7  -5 -19   15.30   31.50
   7   5 -19  -51.39   23.30
   5  -5 -19   27.60   24.40
   5  -5 -19   -2.90   20.60
   5  -5 -19   30.40   24.60
   5   5 -19   30.10   23.70
   3  -5 -19   43.20   24.00
   3  -5 -19   17.60   20.50
   3   5 -19   52.89   21.50
   3   5 -19   48.60   25.30
   1  -5 -19   33.00   23.30
   1  -5 -19   14.30   18.40
   1   5 -19   30.40   21.40
   1   5 -19   16.90   20.50
  -1  -5 -19  -12.70   20.70
  -1  -5 -19   -6.30   15.40
  -1   5 -19   16.20   21.40
  -1   5 -19   -8.70   26.00
  -3  -5 -19   29.80   23.60
  -3  -5 -19   23.60   18.40
  -3   5 -19   35.50   46.30
  -5  -5 -19   -5.10   16.90
  -5  -5 -19  -31.70   22.70
  -7  -5 -19    8.30   32.10
  -7   5 -19   -4.30   52.59
  10  -6 -19   15.40   32.60
  10   6 -19   32.70   37.50
   8  -6 -19   48.60   36.70
   8  -6 -19   66.69   30.60
   8   6 -19   70.29   32.70
   6  -6 -19  302.27   48.30
   6  -6 -19  222.18   43.90
   6  -6 -19  301.87   44.30
   6   6 -19  242.78   42.20
   4  -6 -19   -4.70   20.40
   4  -6 -19   84.09   25.60
   4   6 -19   51.39   24.10
   2  -6 -19   45.60   24.10
   2  -6 -19   48.00   22.00
   2   6 -19   98.09   22.20
   0  -6 -19   15.30   21.50
   0  -6 -19   15.60   19.60
   0   6 -19    8.10   22.40
  -2  -6 -19    8.50   23.00
  -2  -6 -19   18.70   22.50
  -2   6 -19   37.20   36.40
  -4  -6 -19   40.50   23.90
  -4  -6 -19   13.30   25.20
  -6  -6 -19   22.30   22.60
  -6  -6 -19   28.20   31.00
  -8   6 -19  102.59   48.20
   9  -7 -19   -9.20   37.90
   9  -7 -19   19.40   31.50
   9   7 -19   -0.70   31.80
   7  -7 -19   -1.10   27.50
   7  -7 -19  -15.30   29.20
   7   7 -19    5.50   27.70
   5  -7 -19    8.60   24.20
   5  -7 -19   24.40   24.30
   5   7 -19   63.99   27.50
   3  -7 -19   69.39   25.60
   3  -7 -19   81.09   27.40
   3   7 -19   84.59   23.80
   1  -7 -19   11.40   21.00
   1  -7 -19    9.90   20.80
  -1  -7 -19   18.00   20.70
  -1  -7 -19   -4.60   17.50
  -3  -7 -19    1.40   22.50
  -3  -7 -19  -13.00   19.40
  -5  -7 -19   16.80   22.90
  -5  -7 -19  -34.30   24.30
  -7  -7 -19   -4.50   31.70
  -7   7 -19   -1.20   45.40
  10  -8 -19   -8.40   35.50
  10   8 -19   35.80   37.80
   8  -8 -19   17.40   29.90
   8  -8 -19    6.50   37.10
   8   8 -19   46.50   33.10
   6  -8 -19   10.10   28.80
   6  -8 -19   -3.50   21.60
   6   8 -19    9.60   26.10
   4  -8 -19   -3.30   20.70
   4  -8 -19   -1.20   25.20
   4   8 -19  -16.60   20.30
   2  -8 -19  286.27   45.40
   2  -8 -19  301.07   43.20
   2   8 -19  272.47   34.60
   0  -8 -19  -30.90   17.20
   0  -8 -19   26.00   22.10
  -2  -8 -19    3.50   19.60
  -2  -8 -19   -3.90   19.00
  -4  -8 -19   -4.60   20.30
  -4  -8 -19   38.20   26.10
  -6  -8 -19  -20.50   27.40
  -6  -8 -19    8.50   24.90
   9  -9 -19   15.80   40.10
   9   9 -19   37.70   35.00
   7  -9 -19    1.40   31.70
   7   9 -19  -13.40   28.30
   5  -9 -19   26.10   26.90
   5  -9 -19   84.69   27.50
   5   9 -19   76.59   28.00
   3  -9 -19   87.89   29.40
   3  -9 -19   50.29   26.20
   3   9 -19   93.99   25.30
   1  -9 -19  -21.60   19.00
   1  -9 -19    1.20   18.90
  -1  -9 -19  -14.20   19.10
  -1  -9 -19   14.50   21.10
  -3  -9 -19   20.10   22.40
  -3  -9 -19   48.90   28.00
  -5  -9 -19    7.50   25.80
  -5  -9 -19   -1.00   22.00
  -7  -9 -19   -4.50   34.70
  -7   9 -19  -10.90   55.09
   8 -10 -19  128.29   46.70
   8  10 -19  249.28   47.70
   6 -10 -19  224.68   38.50
   6 -10 -19  144.99   43.10
   6  10 -19  226.58   43.30
   4 -10 -19   11.50   26.90
   4 -10 -19  -31.50   22.10
   4  10 -19   51.69   26.20
   2 -10 -19  305.77   45.80
   2 -10 -19  295.37   47.70
   0 -10 -19   29.00   23.10
   0 -10 -19   21.80   22.80
  -2 -10 -19   20.60   23.10
  -2 -10 -19   -5.30   20.20
  -4 -10 -19   34.90   23.40
  -4 -10 -19    2.50   22.90
  -6 -10 -19   16.10   32.80
  -6 -10 -19   16.30   24.40
   9 -11 -19  100.49   43.70
   9  11 -19  -31.00   32.60
   7 -11 -19   19.30   37.80
   7  11 -19   -9.80   28.20
   5 -11 -19   14.70   27.70
   5 -11 -19   27.10   31.40
   5  11 -19   50.99   28.30
   3 -11 -19  -10.80   24.20
   3 -11 -19   38.80   25.70
   3  11 -19   54.49   24.90
   1 -11 -19    8.50   21.50
   1 -11 -19    6.50   23.20
  -1 -11 -19   30.50   22.60
  -1 -11 -19   18.90   22.20
  -3 -11 -19   -2.40   21.10
  -3 -11 -19    8.60   21.70
  -5 -11 -19   -5.40   21.90
  -5 -11 -19    0.70   27.00
  -7 -11 -19  -23.90   37.60
  -7 -11 -19   15.10   38.80
   8 -12 -19   39.10   41.90
   8  12 -19   39.70   34.90
   6 -12 -19  116.99   41.00
   6 -12 -19   61.49   30.70
   6  12 -19   68.09   33.80
   4 -12 -19   56.29   29.00
   4 -12 -19   20.80   28.10
   4  12 -19   81.29   28.20
   2 -12 -19   84.49   29.90
   2 -12 -19   54.59   28.90
   0 -12 -19   34.10   23.30
   0 -12 -19    3.30   23.10
  -2 -12 -19  -25.20   20.50
  -2 -12 -19   27.20   24.50
  -4 -12 -19   -0.10   23.10
  -4 -12 -19   19.80   24.10
  -6 -12 -19   47.50   34.50
  -6 -12 -19  -23.80   21.40
   7 -13 -19   76.49   42.20
   7  13 -19   -9.60   29.90
   5 -13 -19   62.49   30.60
   5 -13 -19   77.39   35.70
   5  13 -19  115.59   33.00
   3 -13 -19   13.30   25.10
   3 -13 -19  -15.10   23.00
   3  13 -19   -9.20   21.10
   1 -13 -19    6.50   22.80
   1 -13 -19    7.30   24.30
  -1 -13 -19  -40.20   18.90
  -1 -13 -19    0.90   23.60
  -3 -13 -19   22.30   26.20
  -3 -13 -19   -3.60   23.40
  -5 -13 -19   42.20   27.00
  -5 -13 -19  -20.20   23.30
   8 -14 -19   52.29   44.50
   8  14 -19   35.30   38.10
   6 -14 -19   80.09   41.40
   6 -14 -19  -27.40   27.10
   6  14 -19   56.69   31.30
   4 -14 -19   75.99   32.70
   4 -14 -19   37.20   29.70
   4  14 -19   42.40   27.10
   2 -14 -19   43.50   28.20
   2 -14 -19   32.60   27.20
   0 -14 -19    4.80   22.20
   0 -14 -19   65.99   31.00
  -2 -14 -19   11.30   22.90
  -2 -14 -19  -31.50   21.90
  -4 -14 -19  -24.20   22.60
  -4 -14 -19   15.40   26.00
  -6 -14 -19    3.30   25.20
  -6 -14 -19   50.39   35.00
   7 -15 -19  -35.40   40.40
   7  15 -19   -0.90   30.80
   5 -15 -19   50.69   33.20
   5 -15 -19   35.40   33.80
   5  15 -19   12.90   30.10
   3 -15 -19    4.10   26.60
   3 -15 -19   -8.50   26.80
   1 -15 -19   -3.00   23.80
   1 -15 -19   17.90   26.10
  -1 -15 -19    2.70   25.30
  -1 -15 -19   25.90   25.70
  -3 -15 -19   32.50   27.40
  -3 -15 -19   17.70   24.70
  -5 -15 -19   20.00   27.20
  -5 -15 -19  -30.50   24.10
   6 -16 -19   22.90   37.20
   6 -16 -19  -35.40   27.40
   6  16 -19  -29.20   29.60
   4 -16 -19  -14.10   25.40
   4 -16 -19  -26.90   28.60
   4  16 -19   16.00   27.20
   2 -16 -19   84.99   32.80
   2 -16 -19   87.29   34.90
   0 -16 -19   46.50   30.20
   0 -16 -19    4.70   25.80
  -2 -16 -19    8.70   26.40
  -2 -16 -19   13.40   26.30
  -4 -16 -19    3.80   27.00
  -4 -16 -19   33.10   30.90
   7 -17 -19  -16.90   42.00
   7  17 -19    9.60   35.40
   5 -17 -19   34.20   36.70
   5 -17 -19   28.10   31.70
   5  17 -19   57.29   31.40
   3 -17 -19   -7.50   27.90
   3 -17 -19    1.20   29.80
   1 -17 -19   57.49   30.20
   1 -17 -19   38.80   29.50
  -1 -17 -19  -25.60   23.70
  -1 -17 -19    3.50   25.40
  -3 -17 -19   -3.50   27.00
  -3 -17 -19   48.60   29.40
   6 -18 -19   29.40   42.00
   6 -18 -19   25.40   31.10
   6  18 -19  -10.50   29.50
   4 -18 -19    3.00   28.70
   4 -18 -19   -6.60   32.90
   4  18 -19    7.30   27.90
   2 -18 -19  131.69   37.20
   2 -18 -19   77.79   36.80
   0 -18 -19   12.00   27.30
   0 -18 -19   62.29   31.30
  -2 -18 -19   -3.30   25.50
  -2 -18 -19   -8.90   23.10
  -4 -18 -19    7.80   27.50
  -4 -18 -19    8.80   27.40
   5 -19 -19   27.10   40.50
   5 -19 -19    4.20   30.10
   5  19 -19  -27.80   27.90
   3 -19 -19   10.50   29.60
   3 -19 -19   20.50   32.80
   1 -19 -19   32.70   31.40
   1 -19 -19   45.70   29.20
  -1 -19 -19  -35.80   22.90
  -1 -19 -19  -20.30   23.90
  -3 -19 -19  -10.70   25.10
  -3 -19 -19   11.40   29.70
   4 -20 -19   79.79   34.60
   4 -20 -19   28.10   43.10
   2 -20 -19   34.40   31.90
   2 -20 -19   36.30   33.30
   0 -20 -19    9.30   28.20
   0 -20 -19   35.80   32.90
  -2 -20 -19  -27.90   26.50
  -2 -20 -19  -20.60   25.10
   3 -21 -19   -6.70   35.30
   3 -21 -19   -4.50   29.90
   1 -21 -19   13.70   29.40
   1 -21 -19   32.50   34.80
  -1 -21 -19    7.60   28.10
  -1 -21 -19   11.00   29.50
   2 -22 -19   20.30   34.10
   2 -22 -19   48.90   34.70
  10   0 -20   40.40   35.50
   8   0 -20   61.19   32.50
   8   0 -20   55.99   32.40
   6   0 -20   48.70   28.60
   6   0 -20   12.00   26.00
   4   0 -20   52.19   24.50
   4   0 -20   29.50   23.50
   4   0 -20   60.99   22.40
   2   0 -20  183.28   30.10
   2   0 -20  179.28   32.70
   2   0 -20  171.38   34.20
   0   0 -20   -7.40   20.00
   0   0 -20    6.00   21.90
  -2   0 -20   26.40   24.80
  -2   0 -20   97.09   37.20
  -4   0 -20    0.50   29.20
  -4   0 -20   40.70   28.20
  -6   0 -20    7.20   29.50
  -6   0 -20   53.19   31.50
   9  -1 -20  -15.40   30.80
   9  -1 -20  -18.10   30.80
   9   1 -20    2.80   31.50
   7  -1 -20    8.10   28.00
   7  -1 -20   -0.70   28.40
   7   1 -20   -8.00   27.10
   7   1 -20   57.89   30.30
   5  -1 -20  -26.30   21.50
   5  -1 -20   16.00   20.90
   5  -1 -20   34.10   24.90
   5   1 -20  -21.20   24.90
   5   1 -20   18.90   24.40
   3  -1 -20  134.59   30.20
   3  -1 -20   89.29   25.60
   3  -1 -20  112.49   28.50
   3   1 -20  142.59   26.80
   3   1 -20  106.29   29.10
   3   1 -20  118.59   28.10
   1  -1 -20  183.28   32.60
   1  -1 -20  113.19   31.20
   1   1 -20  126.39   29.90
   1   1 -20  133.39   31.00
  -1  -1 -20   19.50   21.60
  -1  -1 -20   12.60   25.10
  -1   1 -20   41.60   26.80
  -1   1 -20   41.30   23.70
  -3  -1 -20  132.79   47.00
  -3  -1 -20   53.29   28.80
  -3   1 -20   97.99   30.60
  -3   1 -20   93.79   49.99
  -5  -1 -20    2.30   28.00
  -5  -1 -20   35.50   25.90
  -5   1 -20   43.20   27.60
  -5   1 -20   12.90   28.90
  -7  -1 -20   19.90   32.10
  -7   1 -20    2.60   28.60
  10  -2 -20   -6.70   34.30
  10   2 -20   75.59   39.50
   8  -2 -20  -12.10   26.90
   8  -2 -20   -7.50   28.20
   8   2 -20  -11.60   28.30
   6  -2 -20  -17.10   25.20
   6  -2 -20   -5.50   24.60
   6   2 -20   -9.70   24.20
   6   2 -20  -29.70   23.30
   4  -2 -20    1.20   20.90
   4  -2 -20    6.30   21.00
   4  -2 -20   33.60   21.80
   4   2 -20   31.20   23.70
   4   2 -20   41.40   21.30
   4   2 -20   38.40   25.20
   2  -2 -20   13.80   18.60
   2  -2 -20   39.90   23.80
   2   2 -20    3.30   19.10
   2   2 -20    8.70   18.40
   2   2 -20    0.10   20.20
   0  -2 -20   15.40   21.60
   0  -2 -20    3.00   20.60
   0   2 -20   -2.90   19.20
   0   2 -20   -3.70   20.70
  -2  -2 -20   -5.50   31.30
  -2  -2 -20   26.30   25.20
  -2   2 -20   32.40   23.30
  -2   2 -20  -19.30   31.60
  -4  -2 -20   23.10   28.70
  -4  -2 -20   20.70   27.60
  -4   2 -20   19.70   30.00
  -4   2 -20   64.09   27.90
  -6  -2 -20   19.80   27.90
  -6  -2 -20  -17.60   27.50
  -6   2 -20  -14.80   26.20
  -6   2 -20  -12.10   23.50
   9  -3 -20   -2.80   31.00
   9  -3 -20   54.39   34.20
   9   3 -20   74.39   34.90
   7  -3 -20  125.89   36.10
   7  -3 -20  164.58   42.00
   7   3 -20  179.18   38.10
   5  -3 -20   46.00   24.60
   5  -3 -20   10.70   20.30
   5  -3 -20    1.20   22.20
   5   3 -20    3.60   24.20
   5   3 -20    2.20   23.30
   3  -3 -20   33.70   22.30
   3  -3 -20   -1.70   19.40
   3   3 -20   31.10   24.20
   3   3 -20    3.70   19.50
   3   3 -20  -11.60   18.30
   1  -3 -20  111.79   29.70
   1  -3 -20   96.99   27.40
   1   3 -20  167.48   31.70
   1   3 -20  106.39   31.30
  -1  -3 -20   48.80   24.20
  -1  -3 -20   21.70   24.70
  -1   3 -20  -18.90   21.70
  -1   3 -20   33.20   27.60
  -3  -3 -20   13.00   26.10
  -3  -3 -20   88.89   43.60
  -3   3 -20   44.50   25.70
  -3   3 -20   19.70   46.40
  -5  -3 -20   23.50   32.10
  -5  -3 -20   -8.60   26.30
  -5   3 -20   62.99   27.80
  -5   3 -20   25.60   27.90
  -7  -3 -20   45.40   35.40
  10  -4 -20   -6.90   33.50
  10   4 -20  -21.90   31.70
   8  -4 -20  -44.90   25.80
   8  -4 -20   21.40   35.40
   8   4 -20  -24.60   26.00
   6  -4 -20   79.69   32.40
   6  -4 -20   59.99   28.30
   6   4 -20   34.40   28.30
   4  -4 -20   19.00   22.60
   4  -4 -20  -35.00   19.50
   4   4 -20   12.90   19.40
   4   4 -20  -24.90   20.30
   4   4 -20  -19.20   22.40
   2  -4 -20    3.40   21.70
   2  -4 -20   21.60   20.00
   2   4 -20   24.60   21.90
   2   4 -20    2.80   20.30
   2   4 -20   38.30   21.80
   0  -4 -20   -7.50   20.80
   0  -4 -20   -0.70   15.80
   0   4 -20   26.10   25.10
   0   4 -20  -11.00   19.90
  -2  -4 -20   48.00   25.50
  -2  -4 -20   16.50   18.50
  -2   4 -20   13.90   23.90
  -2   4 -20   46.80   37.70
  -4  -4 -20   -2.00   18.70
  -4  -4 -20   56.49   27.30
  -4   4 -20   23.10   24.10
  -4   4 -20  -22.90   25.90
  -6  -4 -20  -17.70   27.50
  -6  -4 -20    7.90   31.10
   9  -5 -20  -30.30   37.40
   9  -5 -20  -27.10   29.30
   9   5 -20   77.29   36.30
   7  -5 -20   -2.60   28.20
   7  -5 -20   27.30   33.90
   7   5 -20   59.79   29.90
   5  -5 -20  -14.80   20.80
   5  -5 -20   45.10   23.70
   5   5 -20   42.70   25.30
   3  -5 -20   24.40   24.00
   3  -5 -20   38.80   23.80
   3   5 -20   11.50   20.10
   3   5 -20   38.60   24.90
   1  -5 -20   33.20   23.90
   1  -5 -20    8.70   17.60
   1   5 -20   46.10   23.40
   1   5 -20  -17.50   20.10
  -1  -5 -20   -6.40   20.20
  -1  -5 -20   24.90   20.10
  -1   5 -20   25.40   31.90
  -1   5 -20   49.50   25.70
  -3  -5 -20   49.10   23.20
  -3  -5 -20    5.70   26.00
  -3   5 -20   56.49   50.69
  -5  -5 -20  -12.50   18.00
  -5  -5 -20  -58.69   21.70
  -7  -5 -20   57.09   36.10
   8  -6 -20    7.50   30.60
   8  -6 -20  -26.70   35.70
   8   6 -20   16.10   30.50
   6  -6 -20   19.80   28.70
   6   6 -20  -16.70   24.30
   4  -6 -20   49.20   25.30
   4  -6 -20   17.80   22.00
   4   6 -20   24.70   22.30
   2  -6 -20    4.30   21.00
   2  -6 -20    6.70   19.80
   0  -6 -20   -8.40   24.20
   0  -6 -20  -11.60   18.40
   0   6 -20    6.20   25.40
  -2  -6 -20   13.40   23.00
  -2  -6 -20   18.10   21.20
  -2   6 -20  -19.10   37.40
  -4  -6 -20   25.40   21.00
  -4  -6 -20   39.10   27.70
  -6  -6 -20  -23.70   17.30
  -6  -6 -20    0.30   28.70
   9  -7 -20   18.70   40.50
   9  -7 -20   49.20   36.00
   9   7 -20   40.50   35.30
   7  -7 -20  261.17   50.79
   7   7 -20  267.67   46.50
   5  -7 -20   41.10   27.10
   5  -7 -20    6.30   23.70
   5   7 -20    6.00   25.00
   3  -7 -20  186.38   34.90
   3  -7 -20  130.89   32.80
   3   7 -20  197.98   31.20
   1  -7 -20   41.30   24.90
   1  -7 -20   24.80   25.60
  -1  -7 -20   16.50   22.10
  -1  -7 -20  -32.20   19.30
  -3  -7 -20   22.30   27.10
  -3  -7 -20   46.40   26.10
  -5  -7 -20    2.60   28.30
  -5  -7 -20    5.20   21.00
  -7  -7 -20   48.50   38.70
   8  -8 -20  -59.59   34.30
   8   8 -20  -27.10   28.40
   6  -8 -20    0.20   28.20
   6   8 -20   -6.50   26.70
   4  -8 -20   -7.00   22.00
   4  -8 -20   27.50   24.90
   4   8 -20   -5.70   23.20
   2  -8 -20  -60.69   18.70
   2  -8 -20   -7.00   21.50
   0  -8 -20   51.69   27.40
   0  -8 -20  -16.40   18.10
  -2  -8 -20  -17.60   20.50
  -2  -8 -20   10.00   26.10
  -4  -8 -20  -13.60   25.40
  -4  -8 -20    3.30   21.80
  -6  -8 -20    2.60   20.80
  -6  -8 -20   22.10   30.80
   9  -9 -20    8.10   42.20
   9   9 -20   19.70   34.50
   7  -9 -20  101.59   40.90
   7   9 -20  138.59   38.60
   5  -9 -20   36.40   26.70
   5  -9 -20   11.30   27.10
   5   9 -20   36.00   26.30
   3  -9 -20  118.89   31.60
   3  -9 -20  120.99   34.00
   3   9 -20  187.88   32.90
   1  -9 -20   79.79   28.50
   1  -9 -20   88.49   29.30
  -1  -9 -20   14.50   24.20
  -1  -9 -20  -16.30   20.30
  -3  -9 -20  -11.50   22.60
  -3  -9 -20   -3.20   21.90
  -5  -9 -20  -39.20   19.30
  -5  -9 -20    0.60   28.20
   8 -10 -20  -58.09   34.80
   8  10 -20    0.40   30.80
   6 -10 -20  -21.60   28.70
   6 -10 -20   23.00   27.00
   6  10 -20  -11.60   27.80
   4 -10 -20   -2.70   23.00
   4 -10 -20   17.40   26.30
   4  10 -20   24.20   23.80
   2 -10 -20   15.60   21.90
   2 -10 -20   72.39   28.60
   0 -10 -20   41.10   26.50
   0 -10 -20   -0.30   22.20
  -2 -10 -20   -1.80   22.40
  -2 -10 -20   44.80   24.40
  -4 -10 -20   21.20   27.70
  -4 -10 -20    1.90   24.10
  -6 -10 -20  -35.20   24.00
  -6 -10 -20   -7.70   32.10
   7 -11 -20   90.09   41.70
   7  11 -20   66.59   36.90
   5 -11 -20   54.99   34.60
   5 -11 -20   58.79   29.10
   5  11 -20   61.79   29.60
   3 -11 -20  142.49   33.70
   3 -11 -20   54.79   31.30
   1 -11 -20   71.09   28.50
   1 -11 -20  107.09   29.90
  -1 -11 -20    9.20   22.80
  -1 -11 -20    6.90   22.10
  -3 -11 -20   53.09   26.20
  -3 -11 -20   47.70   27.80
  -5 -11 -20   -0.20   23.90
  -5 -11 -20  -20.60   26.70
   8 -12 -20   42.50   42.90
   8  12 -20  -35.80   32.00
   6 -12 -20   -5.50   27.40
   6 -12 -20   12.90   37.20
   6  12 -20   23.90   32.20
   4 -12 -20    0.30   27.10
   4 -12 -20   16.10   29.20
   4  12 -20   92.09   29.90
   2 -12 -20    5.60   24.50
   2 -12 -20   15.80   24.90
   0 -12 -20   39.80   24.00
   0 -12 -20  -20.60   20.10
  -2 -12 -20   -8.80   23.40
  -2 -12 -20  -28.10   21.10
  -4 -12 -20  -12.90   21.30
  -4 -12 -20   -0.80   22.50
   7 -13 -20  179.28   51.39
   7  13 -20  122.49   41.70
   5 -13 -20   14.80   28.10
   5 -13 -20   39.10   35.20
   5  13 -20   53.39   30.40
   3 -13 -20   57.59   30.40
   3 -13 -20   50.79   29.00
   1 -13 -20   75.09   30.40
   1 -13 -20   30.00   26.30
  -1 -13 -20   17.90   24.30
  -1 -13 -20   16.30   25.40
  -3 -13 -20    5.00   22.30
  -3 -13 -20   13.00   24.60
  -5 -13 -20  -11.40   23.70
  -5 -13 -20   30.00   31.80
   6 -14 -20  -29.60   36.20
   6 -14 -20  -25.40   27.50
   6  14 -20  -36.20   28.70
   4 -14 -20   48.30   31.80
   4 -14 -20   12.10   28.10
   4  14 -20   31.70   27.80
   2 -14 -20   -4.60   25.10
   2 -14 -20  -15.80   22.60
   0 -14 -20    4.30   25.80
   0 -14 -20   25.90   25.60
  -2 -14 -20    9.20   25.30
  -2 -14 -20    3.60   26.40
  -4 -14 -20   -4.00   25.40
  -4 -14 -20   28.90   26.60
   7 -15 -20   17.20   44.30
   7  15 -20   86.69   37.20
   5 -15 -20  -31.30   32.70
   5 -15 -20   -7.20   28.90
   5  15 -20   18.10   28.40
   3 -15 -20   42.30   30.70
   3 -15 -20   49.80   31.40
   1 -15 -20  101.89   35.20
   1 -15 -20   50.99   31.30
  -1 -15 -20   26.50   28.60
  -1 -15 -20   -8.20   23.00
  -3 -15 -20    6.40   26.90
  -3 -15 -20    9.10   26.90
   6 -16 -20    7.80   32.90
   6 -16 -20  -50.49   36.30
   6  16 -20   57.19   33.00
   4 -16 -20  -42.50   28.50
   4 -16 -20  -33.90   27.70
   2 -16 -20  -55.29   24.90
   2 -16 -20   12.20   27.00
   0 -16 -20   29.40   28.40
   0 -16 -20   -7.50   25.10
  -2 -16 -20   29.50   25.90
  -2 -16 -20  -11.00   25.20
  -4 -16 -20   -9.00   26.40
  -4 -16 -20    2.60   27.70
   5 -17 -20  -15.70   35.70
   5 -17 -20  -19.00   28.80
   5  17 -20   10.30   31.00
   3 -17 -20   -7.10   33.00
   3 -17 -20   12.90   31.10
   1 -17 -20    6.80   27.00
   1 -17 -20   -7.50   29.20
  -1 -17 -20   -6.50   27.70
  -1 -17 -20   44.50   29.40
  -3 -17 -20   25.30   29.90
  -3 -17 -20    6.40   28.60
   4 -18 -20    0.10   35.90
   4 -18 -20  -15.40   29.40
   2 -18 -20   24.50   30.70
   2 -18 -20   -6.60   26.60
   0 -18 -20   33.30   28.10
   0 -18 -20   40.20   32.60
  -2 -18 -20    9.80   28.50
  -2 -18 -20   15.90   30.60
   3 -19 -20   11.50   34.20
   3 -19 -20  -16.50   29.10
   1 -19 -20  133.89   38.10
   1 -19 -20   94.99   36.90
  -1 -19 -20  -23.50   25.50
  -1 -19 -20    1.90   29.50
   2 -20 -20   76.19   39.30
   2 -20 -20   25.70   31.20
   0 -20 -20   36.40   31.00
   0 -20 -20    1.80   31.10
   8   0 -21   96.69   37.00
   8   0 -21  174.58   42.70
   6   0 -21   27.00   28.80
   6   0 -21   37.40   29.80
   4   0 -21    0.20   21.80
   4   0 -21  -15.30   18.60
   4   0 -21  -26.60   17.20
   2   0 -21   99.29   27.60
   2   0 -21  132.89   31.20
   0   0 -21   21.00   24.10
   0   0 -21  -13.00   20.40
  -2   0 -21   14.00   35.30
  -2   0 -21   -7.30   22.50
  -4   0 -21   65.99   32.20
  -4   0 -21   32.40   25.00
  -6   0 -21  -26.20   26.90
  -6   0 -21  -40.70   28.10
   9  -1 -21  -15.00   32.50
   9  -1 -21  -29.50   31.20
   9   1 -21   37.00   33.90
   7  -1 -21  -23.80   27.60
   7  -1 -21   10.90   29.00
   7   1 -21   11.30   28.90
   7   1 -21   46.60   29.50
   5  -1 -21    7.70   22.40
   5  -1 -21  -23.80   21.50
   5   1 -21   -6.50   23.10
   5   1 -21   -0.90   25.30
   3  -1 -21   52.49   22.80
   3  -1 -21   23.40   23.50
   3  -1 -21   11.10   20.90
   3   1 -21   35.50   23.20
   3   1 -21   16.80   21.40
   3   1 -21   35.90   21.30
   1  -1 -21   79.59   28.60
   1  -1 -21   44.70   23.00
   1   1 -21   45.30   24.20
   1   1 -21   33.10   24.20
  -1  -1 -21   28.20   23.70
  -1  -1 -21   14.90   27.90
  -1   1 -21   34.60   25.80
  -1   1 -21   16.60   31.20
  -3  -1 -21   25.90   25.90
  -3  -1 -21   31.20   48.80
  -3   1 -21    6.50   45.30
  -3   1 -21   36.70   26.10
  -5  -1 -21  -12.50   30.00
  -5  -1 -21   18.40   27.50
  -5   1 -21   -0.70   29.50
  -5   1 -21   -1.50   24.50
   8  -2 -21  -29.60   28.40
   8  -2 -21  -12.40   28.20
   8   2 -21  -23.90   28.00
   6  -2 -21   13.70   28.60
   6  -2 -21   60.39   27.40
   6   2 -21    3.60   29.10
   6   2 -21   54.79   28.40
   4  -2 -21  -14.10   22.00
   4  -2 -21   31.70   23.70
   4  -2 -21   19.30   22.50
   4   2 -21   -6.00   21.40
   4   2 -21  -11.60   18.90
   4   2 -21   27.80   26.00
   2  -2 -21   25.60   22.20
   2  -2 -21   96.89   28.90
   2   2 -21  133.09   29.50
   2   2 -21   84.49   29.20
   0  -2 -21  108.69   29.60
   0  -2 -21   52.09   26.60
   0   2 -21   78.19   28.70
   0   2 -21  103.99   29.10
  -2  -2 -21   -2.50   34.80
  -2  -2 -21    0.10   23.70
  -2   2 -21   59.99   40.50
  -2   2 -21   18.10   26.40
  -4  -2 -21   38.40   29.80
  -4  -2 -21   -8.60   28.50
  -4   2 -21   49.30   28.90
  -4   2 -21   46.80   29.80
  -6  -2 -21   -0.20   26.40
  -6  -2 -21    5.60   29.70
  -6   2 -21   52.69   29.30
   9  -3 -21   85.99   37.00
   9  -3 -21    5.90   34.70
   9   3 -21   45.50   34.30
   7  -3 -21  -18.70   25.80
   7  -3 -21   24.90   31.70
   7   3 -21   -5.50   26.30
   5  -3 -21   14.30   24.30
   5  -3 -21   18.30   23.10
   5  -3 -21   75.29   30.00
   5   3 -21   -6.60   22.50
   5   3 -21   21.20   26.50
   3  -3 -21   32.50   23.60
   3  -3 -21   70.49   25.20
   3   3 -21  -10.90   23.30
   3   3 -21   22.00   23.50
   3   3 -21   75.79   24.10
   1  -3 -21   26.50   23.00
   1  -3 -21   -5.30   22.60
   1   3 -21  -11.60   23.00
   1   3 -21  -22.30   22.40
  -1  -3 -21   35.90   25.90
  -1  -3 -21   12.80   24.90
  -1   3 -21   -0.90   23.10
  -1   3 -21   10.20   31.30
  -3  -3 -21   35.70   27.70
  -3  -3 -21  -14.10   41.80
  -3   3 -21   39.60   25.10
  -3   3 -21   50.29   51.69
  -5  -3 -21    8.80   29.50
  -5  -3 -21  -19.20   24.30
  -5   3 -21   13.10   26.30
  -5   3 -21   32.20   30.10
   8  -4 -21  116.59   38.90
   8  -4 -21  112.49   42.90
   8   4 -21  136.19   38.10
   6  -4 -21   93.89   34.70
   6  -4 -21  140.09   34.30
   6   4 -21  111.69   32.10
   4  -4 -21   -8.50   21.50
   4  -4 -21  -17.20   20.70
   4   4 -21   14.90   20.60
   4   4 -21    5.50   21.50
   4   4 -21   -8.20   23.80
   2  -4 -21  -18.80   19.50
   2  -4 -21   22.50   22.40
   2   4 -21   19.60   23.20
   2   4 -21    0.40   20.40
   0  -4 -21   36.10   24.60
   0  -4 -21   17.00   25.20
   0   4 -21   32.70   27.60
   0   4 -21   37.60   25.00
  -2  -4 -21   24.60   33.10
  -2  -4 -21   39.70   26.40
  -2   4 -21   43.30   26.70
  -2   4 -21   71.59   43.50
  -4  -4 -21   -6.60   27.60
  -4  -4 -21   25.70   30.90
  -4   4 -21   18.30   29.20
  -6  -4 -21   -3.90   28.70
  -6  -4 -21    7.60   28.70
   9  -5 -21  -32.80   33.50
   9  -5 -21   23.70   33.70
   9   5 -21  -10.60   31.10
   7  -5 -21  -18.40   27.90
   7  -5 -21  -49.99   29.50
   7   5 -21  -31.80   26.10
   5  -5 -21   32.80   24.00
   5  -5 -21   -4.50   24.50
   5   5 -21   27.60   24.60
   3  -5 -21   43.80   25.80
   3  -5 -21   13.20   20.70
   3   5 -21   21.60   22.80
   3   5 -21  -17.30   23.10
   1  -5 -21   -3.40   17.70
   1  -5 -21   -9.50   21.10
   1   5 -21   18.40   22.40
   1   5 -21   30.30   26.80
  -1  -5 -21   13.50   17.10
  -1  -5 -21   14.00   24.00
  -1   5 -21   18.40   22.60
  -1   5 -21   44.60   36.60
  -3  -5 -21   38.70   23.10
  -3  -5 -21   30.00   26.70
  -3   5 -21   37.80   52.89
  -5  -5 -21   16.80   29.20
  -5  -5 -21   -8.80   27.00
   8  -6 -21  -28.90   28.80
   8  -6 -21   26.00   39.60
   8   6 -21   23.40   29.50
   6  -6 -21   15.10   31.50
   6   6 -21    5.90   27.20
   4  -6 -21   -4.80   22.70
   4  -6 -21   26.80   26.00
   4   6 -21  -19.00   21.50
   2  -6 -21  105.39   29.70
   2  -6 -21  144.49   35.00
   0  -6 -21   -4.10   18.50
   0  -6 -21  -11.30   22.10
   0   6 -21  -13.00   26.20
  -2  -6 -21   -7.90   18.30
  -2  -6 -21   49.30   29.00
  -4  -6 -21   10.40   20.50
  -4  -6 -21   -5.60   26.70
  -6  -6 -21  -20.40   20.30
  -6  -6 -21    1.10   32.30
   9  -7 -21   -5.80   31.70
   7  -7 -21   -9.20   33.40
   7   7 -21    7.00   28.80
   5  -7 -21  -14.00   25.30
   5  -7 -21   16.70   24.80
   5   7 -21   -5.20   23.30
   3  -7 -21   -8.80   20.10
   3  -7 -21    1.60   22.60
   1  -7 -21   26.20   22.80
   1  -7 -21  -17.00   21.20
  -1  -7 -21   33.60   28.00
  -1  -7 -21   41.60   22.40
  -3  -7 -21    5.80   20.40
  -3  -7 -21   81.39   29.90
  -5  -7 -21  -13.60   19.80
  -5  -7 -21   17.20   28.50
   8  -8 -21  169.08   51.59
   8   8 -21  154.18   41.50
   6  -8 -21  194.18   44.50
   6   8 -21  188.28   40.60
   4  -8 -21  -12.00   20.50
   4  -8 -21    7.30   24.30
   4   8 -21   10.30   22.10
   2  -8 -21   60.39   25.90
   2  -8 -21   84.89   29.80
   0  -8 -21   46.90   27.20
   0  -8 -21   16.50   24.30
  -2  -8 -21  -26.40   22.10
  -2  -8 -21   -8.40   24.80
  -4  -8 -21   12.70   24.70
  -4  -8 -21   62.99   30.20
  -6  -8 -21   10.50   23.10
  -6  -8 -21   13.30   31.90
   7  -9 -21   -9.50   36.00
   7   9 -21  -28.00   28.10
   5  -9 -21    2.80   24.70
   5  -9 -21   12.60   25.40
   5   9 -21  -29.10   24.40
   3  -9 -21  -17.00   25.60
   3  -9 -21   20.40   27.10
   1  -9 -21  -17.00   21.30
   1  -9 -21  -20.40   21.50
  -1  -9 -21    6.70   23.80
  -1  -9 -21    0.80   22.00
  -3  -9 -21   -7.30   25.00
  -3  -9 -21   16.50   24.20
  -5  -9 -21    0.40   30.00
  -5  -9 -21  -12.10   24.10
   8 -10 -21   78.59   43.90
   8  10 -21   13.00   34.10
   6 -10 -21   42.10   33.30
   6  10 -21   61.99   32.40
   4 -10 -21    7.50   25.10
   4 -10 -21  -19.50   27.10
   4  10 -21  -15.80   24.80
   2 -10 -21   34.30   28.30
   2 -10 -21   24.20   25.30
   0 -10 -21   45.80   26.70
   0 -10 -21   37.10   26.80
  -2 -10 -21   35.40   24.90
  -2 -10 -21    7.00   23.60
  -4 -10 -21   -5.50   26.90
  -4 -10 -21   -7.70   22.40
   7 -11 -21   40.20   40.20
   7  11 -21   44.70   32.80
   5 -11 -21   -5.40   32.20
   5 -11 -21  -26.40   24.40
   5  11 -21   -6.00   26.10
   3 -11 -21   14.20   28.00
   3 -11 -21  -33.50   20.90
   1 -11 -21  -21.00   22.10
   1 -11 -21  -14.90   22.70
  -1 -11 -21   22.40   23.30
  -1 -11 -21   -0.20   23.70
  -3 -11 -21  -27.20   24.10
  -3 -11 -21    7.80   25.10
  -5 -11 -21   -3.80   34.20
  -5 -11 -21   34.60   30.50
   6 -12 -21  190.88   50.79
   6  12 -21  188.08   41.50
   4 -12 -21  -21.70   25.40
   4 -12 -21    4.70   29.50
   2 -12 -21   74.89   34.30
   2 -12 -21  152.88   35.40
   0 -12 -21    4.90   25.10
   0 -12 -21    2.60   23.70
  -2 -12 -21    8.70   24.90
  -2 -12 -21  -19.50   22.40
  -4 -12 -21   11.80   25.50
  -4 -12 -21    4.70   28.70
   7 -13 -21   27.90   44.10
   7  13 -21   -1.70   33.30
   5 -13 -21  -14.40   32.20
   5 -13 -21   17.40   28.10
   5  13 -21  -30.70   25.90
   3 -13 -21   27.50   31.50
   3 -13 -21   70.19   30.30
   1 -13 -21  -28.20   24.30
   1 -13 -21   20.80   25.20
  -1 -13 -21   23.80   25.10
  -1 -13 -21   48.00   30.80
  -3 -13 -21   39.60   27.80
  -3 -13 -21    8.50   24.50
   6 -14 -21   77.49   37.10
   6 -14 -21   59.59   43.40
   6  14 -21   -0.90   30.00
   4 -14 -21    4.60   29.40
   4 -14 -21   -6.60   30.50
   2 -14 -21   21.90   27.70
   2 -14 -21   52.59   31.60
   0 -14 -21   43.10   29.00
   0 -14 -21    9.50   25.40
  -2 -14 -21   -6.50   25.50
  -2 -14 -21  -25.90   23.10
  -4 -14 -21   -6.90   24.40
  -4 -14 -21   53.79   29.70
   5 -15 -21    8.50   31.20
   5 -15 -21   52.09   39.10
   5  15 -21  -14.20   40.80
   3 -15 -21   -9.30   27.50
   3 -15 -21  -12.70   25.70
   1 -15 -21   -7.80   26.10
   1 -15 -21   -5.00   26.10
  -1 -15 -21   13.80   27.00
  -1 -15 -21  -15.50   22.60
  -3 -15 -21   -4.20   27.60
  -3 -15 -21   -6.10   23.00
   4 -16 -21   -7.50   29.60
   4 -16 -21   37.30   33.60
   2 -16 -21   36.30   31.20
   2 -16 -21  -21.00   26.70
   0 -16 -21   22.90   28.80
   0 -16 -21   26.60   29.20
  -2 -16 -21    5.60   25.70
  -2 -16 -21   33.10   30.50
   5 -17 -21  -41.10   29.50
   5 -17 -21    6.50   37.00
   3 -17 -21   14.60   31.60
   3 -17 -21   44.80   33.30
   1 -17 -21   38.90   32.60
   1 -17 -21  -44.60   24.50
  -1 -17 -21   43.00   30.10
  -1 -17 -21  -18.00   26.40
   4 -18 -21  -34.00   28.70
   4 -18 -21  -18.20   34.90
   2 -18 -21    1.80   32.60
   2 -18 -21    6.40   32.00
   0 -18 -21    6.90   31.10
   0 -18 -21   22.90   28.60
   1 -19 -21  -13.70   28.50
   1 -19 -21  -21.00   30.20
   8   0 -22   14.40   32.40
   8   0 -22  -13.60   30.50
   6   0 -22   38.50   31.40
   6   0 -22  171.78   36.50
   4   0 -22   39.80   26.20
   4   0 -22   47.40   24.30
   4   0 -22   28.60   23.70
   2   0 -22   -8.80   22.00
   2   0 -22   11.50   21.80
   0   0 -22   17.70   23.20
   0   0 -22  -18.20   22.80
  -2   0 -22   22.80   26.20
  -2   0 -22   77.59   44.80
  -4   0 -22    8.40   28.50
  -4   0 -22   14.20   31.00
  -6   0 -22   41.20   33.60
   7  -1 -22  145.99   39.20
   7  -1 -22  169.48   39.80
   7   1 -22  135.89   39.00
   7   1 -22   71.79   35.90
   5  -1 -22   32.10   28.20
   5  -1 -22   47.90   27.00
   5   1 -22   75.79   33.80
   5   1 -22    2.90   25.30
   3  -1 -22    4.30   21.80
   3  -1 -22   -2.40   23.40
   3   1 -22    6.60   21.80
   3   1 -22    7.80   21.30
   1  -1 -22   45.40   24.60
   1  -1 -22   65.29   26.70
   1   1 -22   37.40   23.70
   1   1 -22   45.60   25.90
  -1  -1 -22   37.30   28.00
  -1  -1 -22   -2.30   25.10
  -1   1 -22  -16.80   27.60
  -1   1 -22   14.50   23.20
  -3  -1 -22  -22.70   22.30
  -3  -1 -22   -4.80   48.10
  -3   1 -22   39.10   31.60
  -3   1 -22   44.20   53.09
  -5  -1 -22    9.00   32.00
  -5  -1 -22  -10.00   27.10
  -5   1 -22   35.20   29.40
  -5   1 -22   11.20   31.10
   8  -2 -22    3.50   32.40
   8  -2 -22    0.20   32.60
   8   2 -22   16.20   30.90
   6  -2 -22  -24.90   29.10
   6  -2 -22   27.70   26.60
   6   2 -22  -48.50   25.00
   6   2 -22   13.60   28.40
   4  -2 -22   10.50   24.40
   4  -2 -22   11.60   23.60
   4  -2 -22    1.90   23.80
   4   2 -22   -8.80   21.40
   4   2 -22  -15.10   21.50
   4   2 -22  -14.40   25.70
   2  -2 -22   15.40   24.40
   2  -2 -22   24.80   24.00
   2   2 -22   21.40   25.10
   2   2 -22   15.10   23.20
   0  -2 -22   32.30   25.50
   0  -2 -22    1.30   25.00
   0   2 -22  -17.10   21.40
   0   2 -22   22.80   27.10
  -2  -2 -22  -26.40   23.20
  -2  -2 -22    2.40   36.70
  -2   2 -22    0.30   26.40
  -2   2 -22   41.20   44.80
  -4  -2 -22  -51.39   23.50
  -4  -2 -22  -22.20   30.40
  -4   2 -22  -11.90   26.00
  -4   2 -22  -34.20   27.80
   7  -3 -22  -20.20   28.00
   7  -3 -22   46.00   36.30
   7   3 -22   10.40   29.00
   5  -3 -22   36.80   28.80
   5  -3 -22   50.79   27.80
   5   3 -22   35.10   26.90
   5   3 -22   28.80   30.30
   3  -3 -22   74.79   28.90
   3  -3 -22   65.69   25.70
   3   3 -22   38.30   26.10
   3   3 -22   45.60   24.80
   1  -3 -22  -17.60   23.70
   1  -3 -22   17.10   23.60
   1   3 -22  -21.00   20.70
   1   3 -22  -15.80   22.60
  -1  -3 -22   -9.00   23.50
  -1  -3 -22    0.00   26.80
  -1   3 -22   10.70   33.90
  -1   3 -22   32.90   25.50
  -3  -3 -22  106.59   51.79
  -3  -3 -22   -7.90   26.20
  -3   3 -22   34.20   27.10
  -3   3 -22   62.99   54.59
  -5  -3 -22    3.20   27.50
  -5  -3 -22    0.10   33.40
  -5   3 -22  -10.40   28.20
   8  -4 -22    8.90   39.60
   8  -4 -22  -16.30   30.20
   8   4 -22  -36.20   27.20
   6  -4 -22   63.49   33.70
   6  -4 -22   85.59   32.10
   6   4 -22   80.49   32.90
   4  -4 -22  134.49   31.60
   4  -4 -22   93.99   31.80
   4   4 -22  130.69   31.40
   4   4 -22   95.79   33.50
   4   4 -22   85.39   38.70
   2  -4 -22   21.90   24.30
   2  -4 -22   32.20   25.00
   2   4 -22   35.20   26.90
   2   4 -22  -11.00   20.80
   0  -4 -22   15.10   26.40
   0  -4 -22   -1.70   24.30
   0   4 -22   -8.70   25.10
   0   4 -22   12.20   24.30
  -2  -4 -22   68.49   41.70
  -2  -4 -22   37.30   27.10
  -2   4 -22   55.29   42.70
  -2   4 -22   42.30   26.20
  -4  -4 -22   15.80   33.00
  -4  -4 -22   59.79   32.30
  -4   4 -22   15.60   31.70
   7  -5 -22  147.79   46.80
   7  -5 -22  234.88   43.80
   7   5 -22  114.09   36.70
   5  -5 -22    1.30   26.60
   5  -5 -22  -55.79   26.60
   5   5 -22   17.20   25.10
   3  -5 -22   42.00   25.00
   3  -5 -22   27.50   25.90
   3   5 -22   43.40   28.30
   1  -5 -22   29.10   23.90
   1  -5 -22   54.19   28.60
   1   5 -22   35.30   27.20
  -1  -5 -22   -8.80   24.70
  -1  -5 -22   33.80   23.10
  -1   5 -22   29.70   35.70
  -3  -5 -22   54.89   29.70
  -3  -5 -22   60.09   46.40
  -3   5 -22   23.20   55.99
  -5  -5 -22   -5.20   33.40
  -5  -5 -22    4.50   31.20
   8  -6 -22    3.00   33.60
   8  -6 -22    7.00   41.90
   8   6 -22   37.90   33.70
   6  -6 -22   22.90   32.00
   6   6 -22    6.10   26.60
   4  -6 -22    3.10   24.50
   4  -6 -22   13.20   23.60
   4   6 -22    9.30   30.60
   2  -6 -22  -12.80   17.60
   2  -6 -22   10.90   24.10
   0  -6 -22   -3.10   22.90
   0  -6 -22  -22.20   16.70
  -2  -6 -22   -5.20   19.90
  -2  -6 -22  -13.60   25.60
  -4  -6 -22    0.60   21.10
  -4  -6 -22  -10.60   28.10
   7  -7 -22   60.29   40.10
   7   7 -22   94.79   34.10
   5  -7 -22  -31.30   24.30
   5  -7 -22   -3.20   25.50
   5   7 -22  -18.00   24.40
   3  -7 -22  -21.10   23.10
   3  -7 -22  -14.30   20.40
   1  -7 -22    0.80   20.00
   1  -7 -22   62.19   29.30
  -1  -7 -22   10.20   27.20
  -1  -7 -22   16.90   22.10
  -3  -7 -22   30.90   22.80
  -3  -7 -22   13.40   28.90
  -5  -7 -22  -29.50   28.90
  -5  -7 -22   -0.50   22.90
   6  -8 -22  -20.20   31.50
   6   8 -22   25.00   28.40
   4  -8 -22   39.50   29.30
   4  -8 -22   -9.70   22.60
   2  -8 -22   16.20   25.00
   2  -8 -22   22.20   25.00
   0  -8 -22   11.00   19.80
   0  -8 -22   -1.00   24.40
  -2  -8 -22   30.10   21.50
  -2  -8 -22   11.20   26.20
  -4  -8 -22  -39.20   24.60
  -4  -8 -22   13.60   22.30
   7  -9 -22  129.89   45.10
   7   9 -22  132.79   38.50
   5  -9 -22   17.30   28.80
   5  -9 -22   27.60   27.90
   5   9 -22   24.40   27.90
   3  -9 -22   51.09   29.40
   3  -9 -22  110.19   31.50
   1  -9 -22   61.29   30.60
   1  -9 -22   36.20   28.60
  -1  -9 -22   10.30   26.10
  -1  -9 -22  -25.90   21.70
  -3  -9 -22   29.60   26.20
  -3  -9 -22   25.90   30.30
   6 -10 -22  -16.70   31.80
   6  10 -22   37.20   31.10
   4 -10 -22  -15.00   24.50
   4 -10 -22  -14.40   27.20
   2 -10 -22   20.20   26.80
   2 -10 -22   94.59   31.80
   0 -10 -22   29.00   25.40
   0 -10 -22   57.19   31.50
  -2 -10 -22   10.00   26.00
  -2 -10 -22   25.30   28.10
  -4 -10 -22  -18.30   24.90
  -4 -10 -22  -10.80   27.60
   7 -11 -22   -5.00   39.00
   7  11 -22   20.00   34.60
   5 -11 -22   13.80   31.40
   5 -11 -22   10.30   28.20
   5  11 -22   -3.60   33.90
   3 -11 -22   51.39   32.10
   3 -11 -22   -2.40   27.30
   1 -11 -22   37.10   27.70
   1 -11 -22   -0.90   27.40
  -1 -11 -22   -1.10   24.10
  -1 -11 -22   22.00   27.70
  -3 -11 -22  -31.60   24.70
  -3 -11 -22  -15.60   24.40
   6 -12 -22   48.00   39.10
   6  12 -22   -4.60   29.90
   4 -12 -22   20.10   32.70
   4 -12 -22   29.80   29.10
   2 -12 -22    3.50   27.90
   2 -12 -22   10.10   27.40
   0 -12 -22  -20.20   24.60
   0 -12 -22   39.00   29.10
  -2 -12 -22   15.00   27.70
  -2 -12 -22    0.60   23.00
   5 -13 -22   24.30   36.70
   5 -13 -22   34.40   30.40
   3 -13 -22   27.30   31.50
   3 -13 -22   26.00   28.20
   1 -13 -22   81.39   33.80
   1 -13 -22   49.20   29.80
  -1 -13 -22   15.60   26.80
  -1 -13 -22   -4.50   26.10
  -3 -13 -22   -4.50   25.20
  -3 -13 -22   47.40   31.70
   4 -14 -22   23.00   30.30
   4 -14 -22    6.20   32.50
   2 -14 -22  102.19   38.10
   2 -14 -22   57.89   32.00
   0 -14 -22    2.60   26.80
   0 -14 -22  -46.90   22.30
  -2 -14 -22  -10.60   23.40
  -2 -14 -22   33.30   28.80
   5 -15 -22   20.80   32.40
   5 -15 -22   -4.90   38.30
   3 -15 -22   17.60   33.70
   3 -15 -22   43.80   32.30
   1 -15 -22   35.30   31.20
   1 -15 -22   19.20   29.40
  -1 -15 -22  -14.30   25.10
  -1 -15 -22   11.30   27.80
   4 -16 -22   61.09   36.10
   4 -16 -22   21.20   38.50
   2 -16 -22   75.09   32.70
   2 -16 -22   35.50   32.10
   0 -16 -22   36.70   28.60
   0 -16 -22   10.10   32.10
   1 -17 -22    5.60   31.00
   1 -17 -22   10.10   30.40
   6   0 -23   30.20   32.10
   6   0 -23   81.09   32.60
   4   0 -23   62.59   29.50
   4   0 -23   31.80   27.00
   4   0 -23   30.00   26.20
   2   0 -23   -6.00   20.40
   2   0 -23    9.00   24.00
   0   0 -23   -9.50   24.90
   0   0 -23   23.30   27.40
  -2   0 -23   43.40   27.60
  -2   0 -23   36.60   44.00
  -4   0 -23   73.09   34.20
  -4   0 -23  -38.20   26.40
   7  -1 -23  -18.20   29.40
   7  -1 -23  -15.70   30.00
   7   1 -23    9.70   30.20
   7   1 -23  -15.60   29.30
   5  -1 -23   38.10   30.00
   5  -1 -23   66.49   29.10
   5   1 -23   19.00   30.60
   5   1 -23    1.10   25.90
   3  -1 -23   11.30   22.50
   3  -1 -23    6.20   23.40
   3   1 -23  -23.30   26.60
   3   1 -23   16.10   23.40
   1  -1 -23  -22.90   21.50
   1  -1 -23  -16.20   24.20
   1   1 -23  -36.80   21.80
   1   1 -23   23.50   24.20
  -1  -1 -23   71.29   34.20
  -1  -1 -23   26.90   27.60
  -1   1 -23    6.20   24.80
  -1   1 -23   25.40   31.70
  -3  -1 -23  -29.50   49.90
  -3  -1 -23   19.00   27.40
  -3   1 -23   38.70   30.50
  -3   1 -23   23.10   55.49
   6  -2 -23   71.39   31.90
   6  -2 -23   -8.70   29.00
   6   2 -23  -13.40   30.00
   6   2 -23   67.19   30.70
   4  -2 -23  -25.80   22.90
   4  -2 -23  -27.30   21.30
   4   2 -23   36.30   29.50
   2  -2 -23   19.70   22.80
   2  -2 -23   24.70   24.60
   2   2 -23   24.90   27.50
   2   2 -23   25.90   25.30
   0  -2 -23  -18.80   23.40
   0  -2 -23   13.50   25.40
   0   2 -23   38.40   31.00
   0   2 -23   -2.10   24.60
  -2  -2 -23    8.80   27.60
  -2  -2 -23   31.40   40.70
  -2   2 -23   70.59   46.50
  -2   2 -23   24.70   28.70
  -4  -2 -23   14.90   35.00
  -4  -2 -23    1.50   29.40
  -4   2 -23  -10.00   31.30
  -4   2 -23   52.59   31.40
   7  -3 -23   16.80   31.60
   7  -3 -23  -17.10   36.80
   7   3 -23   13.00   30.30
   5  -3 -23  -23.20   25.40
   5   3 -23   -4.50   26.40
   5   3 -23  -36.70   25.30
   3  -3 -23  163.68   35.90
   3  -3 -23  141.19   36.10
   3   3 -23  180.38   35.00
   3   3 -23  132.79   36.30
   1  -3 -23    8.80   21.90
   1  -3 -23  -13.40   23.10
   1   3 -23  -12.70   26.30
   1   3 -23  -12.60   22.20
  -1  -3 -23   -2.30   29.70
  -1  -3 -23    3.10   24.70
  -1   3 -23   61.99   28.50
  -1   3 -23   19.70   35.60
  -3  -3 -23   38.20   54.99
  -3  -3 -23  -15.70   28.30
  -3   3 -23  -35.70   30.60
  -3   3 -23   -1.00   26.60
   6  -4 -23   11.60   32.90
   6   4 -23   52.39   27.90
   4  -4 -23   20.30   26.00
   4  -4 -23    3.10   24.20
   4   4 -23   -3.50   29.90
   2  -4 -23   58.79   28.60
   2  -4 -23   66.89   28.90
   2   4 -23   -3.50   24.20
   2   4 -23   60.09   30.90
   0  -4 -23  -12.60   23.70
   0  -4 -23   32.90   27.00
   0   4 -23   21.90   25.40
   0   4 -23   29.40   29.30
  -2  -4 -23    2.20   40.10
  -2  -4 -23   20.20   29.70
  -2   4 -23  -17.00   44.30
  -2   4 -23  -11.50   23.40
  -4  -4 -23  -26.90   32.10
  -4  -4 -23  -35.60   28.00
  -4   4 -23   32.60   35.00
   7  -5 -23   -1.80   37.20
   7   5 -23   61.39   32.10
   5  -5 -23   56.39   32.80
   5   5 -23   23.40   27.60
   3  -5 -23   36.50   27.60
   3  -5 -23   75.09   30.60
   1  -5 -23   35.00   27.20
   1  -5 -23   -8.90   23.20
   1   5 -23    1.80   26.70
  -1  -5 -23   10.90   30.30
  -1  -5 -23   15.20   28.10
  -1   5 -23   26.90   37.70
  -3  -5 -23   21.50   30.20
  -3  -5 -23   73.89   54.89
  -3   5 -23   40.20   35.00
   6  -6 -23   61.49   37.00
   6   6 -23   55.79   30.20
   4  -6 -23   -9.80   23.30
   4  -6 -23  -20.50   25.00
   2  -6 -23   47.50   27.60
   2  -6 -23   43.20   29.30
   0  -6 -23    5.90   22.30
   0  -6 -23    5.20   25.00
  -2  -6 -23   -1.80   20.70
  -2  -6 -23   70.49   31.90
  -4  -6 -23   11.30   33.40
  -4  -6 -23  -48.20   26.50
   7  -7 -23   31.50   37.70
   7   7 -23   17.40   31.40
   5  -7 -23    2.20   28.20
   3  -7 -23   -1.70   26.90
   3  -7 -23   49.50   28.90
   1  -7 -23  -30.40   22.50
   1  -7 -23    1.30   21.80
  -1  -7 -23  -14.60   26.60
  -1  -7 -23   12.10   21.90
  -3  -7 -23  -20.10   25.80
  -3  -7 -23   20.70   21.80
   6  -8 -23   24.30   36.40
   6   8 -23   27.70   30.50
   4  -8 -23   62.69   31.00
   4  -8 -23  -16.40   26.90
   2  -8 -23   33.20   30.50
   2  -8 -23   11.10   24.20
   0  -8 -23   -1.40   21.50
   0  -8 -23    7.20   26.30
  -2  -8 -23   52.69   27.70
  -2  -8 -23    3.10   28.50
  -4  -8 -23   -6.20   21.50
  -4  -8 -23   46.60   34.30
   5  -9 -23   66.89   33.30
   5  -9 -23   35.50   33.90
   3  -9 -23   25.30   27.10
   3  -9 -23   -2.50   28.10
   1  -9 -23    9.40   27.70
   1  -9 -23   17.70   25.20
  -1  -9 -23  -36.00   27.90
  -1  -9 -23    8.20   23.50
  -3  -9 -23   -3.20   29.60
  -3  -9 -23  -11.60   21.60
   6 -10 -23  114.39   44.10
   6  10 -23   44.70   35.90
   4 -10 -23  -17.50   27.20
   4 -10 -23   26.80   28.00
   2 -10 -23   20.20   26.70
   2 -10 -23   13.30   27.10
   0 -10 -23   30.40   30.20
   0 -10 -23  -25.70   25.40
  -2 -10 -23   16.70   30.00
  -2 -10 -23   31.30   29.20
   5 -11 -23   22.80   32.10
   5 -11 -23    5.80   31.80
   3 -11 -23   18.20   27.70
   3 -11 -23    1.90   30.90
   1 -11 -23  -51.69   22.80
   1 -11 -23   15.70   29.10
  -1 -11 -23  -19.30   22.20
  -1 -11 -23   42.80   30.10
   4 -12 -23   18.80   31.40
   4 -12 -23  -32.00   32.00
   2 -12 -23   73.79   35.40
   2 -12 -23  143.59   41.30
   0 -12 -23  -16.20   24.60
   0 -12 -23  -41.10   24.10
  -2 -12 -23  -25.20   27.40
  -2 -12 -23   57.69   34.20
   3 -13 -23   56.79   33.00
   3 -13 -23   -5.60   30.80
   1 -13 -23  -13.20   29.50
   1 -13 -23  -12.00   27.00
  -1 -13 -23   23.70   31.10
  -1 -13 -23  -33.20   23.60
   2 -14 -23   41.70   30.90
   2 -14 -23   -2.30   32.60
   0 -14 -23   52.59   34.50
   0 -14 -23   -9.90   26.20
   1 -15 -23   15.80   30.80
   1 -15 -23    4.10   30.00
   6   0 -24    3.70   27.20
   6   0 -24   28.30   32.40
   4   0 -24   25.70   33.70
   2   0 -24   11.80   24.60
   2   0 -24  -29.20   20.70
   0   0 -24   19.60   29.90
   0   0 -24   42.50   28.80
  -2   0 -24   -6.70   27.60
  -2   0 -24   60.39   52.39
   5  -1 -24  -11.20   28.30
   5  -1 -24   15.10   29.10
   5   1 -24   26.40   33.40
   5   1 -24   28.70   31.80
   3  -1 -24  -12.30   21.40
   3  -1 -24  -13.20   24.20
   3   1 -24   -3.20   25.20
   3   1 -24   27.70   30.00
   1  -1 -24  -75.09   22.30
   1  -1 -24   18.70   27.40
   1   1 -24  -17.80   23.20
   1   1 -24   22.10   24.90
  -1  -1 -24   39.30   29.20
  -1  -1 -24   21.90   36.90
  -1   1 -24   46.70   30.30
  -1   1 -24   19.20   39.10
  -3  -1 -24   15.70   59.99
  -3  -1 -24   36.50   30.70
  -3   1 -24   13.10   31.50
  -3   1 -24   31.40   33.90
   6  -2 -24  143.79   37.10
   6  -2 -24  102.99   42.50
   6   2 -24   83.29   39.40
   6   2 -24   95.49   36.30
   4  -2 -24   76.99   35.50
   4  -2 -24   73.79   30.10
   4   2 -24   32.90   30.40
   2  -2 -24    8.10   24.20
   2  -2 -24    5.10   22.70
   2   2 -24   15.00   28.50
   2   2 -24   -1.70   25.30
   0  -2 -24    7.70   28.10
   0  -2 -24  -10.60   24.70
   0   2 -24   -1.30   29.50
   0   2 -24    2.50   25.30
  -2  -2 -24   13.60   45.50
  -2  -2 -24    3.30   28.30
  -2   2 -24  -17.10   25.30
  -2   2 -24   -0.90   47.70
   5  -3 -24  -25.80   26.90
   5   3 -24   10.50   33.00
   3  -3 -24  -22.80   25.00
   3  -3 -24   -8.00   21.80
   3   3 -24   -7.20   24.20
   3   3 -24  -38.50   26.30
   1  -3 -24    2.00   23.30
   1  -3 -24   11.40   26.80
   1   3 -24   43.70   27.90
   1   3 -24  -13.90   26.10
  -1  -3 -24    1.00   33.40
  -1  -3 -24    2.30   27.20
  -1   3 -24   19.60   39.90
  -1   3 -24   14.30   27.50
  -3  -3 -24   42.20   56.89
  -3  -3 -24   20.70   32.40
  -3   3 -24  -14.20   29.90
  -3   3 -24   65.89   30.50
   6  -4 -24   -9.40   32.90
   6   4 -24  -19.50   29.00
   4  -4 -24  -11.00   26.40
   4  -4 -24   33.40   29.50
   4   4 -24    3.70   31.90
   2  -4 -24   10.50   23.90
   2  -4 -24   68.09   29.90
   2   4 -24   47.50   30.80
   2   4 -24   22.90   25.40
   0  -4 -24   -1.00   26.50
   0  -4 -24  -24.80   25.80
   0   4 -24   15.00   25.70
   0   4 -24  -12.60   30.40
  -2  -4 -24   31.90   31.20
  -2  -4 -24  -13.60   45.40
  -2   4 -24   66.59   54.79
   5  -5 -24   15.70   30.70
   3  -5 -24  -22.80   23.90
   3  -5 -24   19.30   25.40
   1  -5 -24   25.80   27.30
   1  -5 -24   -8.90   23.60
   1   5 -24   13.70   30.90
  -1  -5 -24   28.50   35.70
  -1  -5 -24   68.49   31.60
  -1   5 -24  -29.60   39.80
  -3  -5 -24   16.40   57.59
  -3  -5 -24   -7.60   29.40
   6  -6 -24  -32.60   31.20
   6   6 -24  -25.10   33.40
   4  -6 -24   88.99   34.80
   4  -6 -24   68.69   33.10
   2  -6 -24    2.50   26.40
   2  -6 -24   -2.00   23.20
   0  -6 -24   35.30   30.10
   0  -6 -24   27.00   28.90
  -2  -6 -24  -16.70   44.80
  -2  -6 -24    6.20   30.40
   5  -7 -24  -18.80   30.80
   3  -7 -24    1.20   29.40
   3  -7 -24   22.10   28.00
   1  -7 -24    6.10   26.40
   1  -7 -24   -3.10   24.00
  -1  -7 -24   65.99   32.60
  -1  -7 -24   11.20   24.10
   4  -8 -24   27.00   30.10
   4  -8 -24   64.99   32.00
   2  -8 -24  -18.50   23.10
   2  -8 -24    6.70   31.10
   0  -8 -24   12.70   29.00
   0  -8 -24   -2.50   22.30
  -2  -8 -24  -24.20   20.10
  -2  -8 -24   -8.70   29.90
   5  -9 -24   -7.40   32.30
   3  -9 -24   -1.20   27.50
   3  -9 -24   -0.70   25.60
   1  -9 -24  -18.20   27.10
   1  -9 -24   18.70   25.30
  -1  -9 -24   -0.10   24.10
  -1  -9 -24   26.40   31.00
   4 -10 -24   63.09   34.80
   4 -10 -24   39.10   33.00
   2 -10 -24   22.10   26.60
   2 -10 -24   59.99   32.60
   0 -10 -24  -50.69   26.10
   0 -10 -24  -19.30   22.90
   3 -11 -24   -5.60   28.30
   3 -11 -24    1.30   30.30
   1 -11 -24  -17.20   25.50
   1 -11 -24   12.90   32.40
   2 -12 -24   28.20   37.70
   2 -12 -24   64.09   34.20
   4   0 -25  -16.00   29.50
   2   0 -25   38.00   29.20
   2   0 -25  -26.10   24.30
   0   0 -25   -7.20   27.00
   0   0 -25   -1.20   29.60
  -2   0 -25  -57.19   27.60
  -2   0 -25   71.09   60.29
   5  -1 -25   15.70   34.60
   5   1 -25   35.40   34.40
   3  -1 -25   40.00   28.60
   3  -1 -25   27.80   28.80
   3   1 -25   61.39   30.80
   3   1 -25   58.39   35.50
   1  -1 -25    6.80   28.60
   1  -1 -25    4.30   27.70
   1   1 -25    2.00   27.40
   1   1 -25  -16.20   28.70
  -1  -1 -25    5.00   40.20
  -1  -1 -25   11.60   30.80
  -1   1 -25  -33.10   28.30
  -1   1 -25   52.29   44.50
   4  -2 -25  -10.80   27.70
   4   2 -25   14.40   32.40
   2  -2 -25   54.19   30.40
   2  -2 -25   -7.40   26.20
   2   2 -25    7.30   31.30
   2   2 -25    6.60   25.60
   0  -2 -25  -29.50   28.00
   0  -2 -25    5.50   31.00
   0   2 -25   20.50   33.80
   0   2 -25   30.90   27.80
  -2  -2 -25   70.59   54.49
  -2  -2 -25    7.80   30.80
  -2   2 -25   71.89   33.60
  -2   2 -25  -12.80   54.59
   5  -3 -25   50.79   35.10
   5   3 -25   21.20   35.30
   3  -3 -25   -9.40   25.70
   3  -3 -25   -4.70   26.30
   3   3 -25   33.70   30.30
   3   3 -25  -33.40   28.50
   1  -3 -25   29.30   29.10
   1  -3 -25  -35.00   22.40
   1   3 -25   33.20   29.60
   1   3 -25  -15.60   28.20
  -1  -3 -25   50.69   43.90
  -1  -3 -25   23.30   33.20
  -1   3 -25   51.79   29.20
  -1   3 -25   16.30   41.80
   4  -4 -25    8.60   29.60
   2  -4 -25  -13.40   24.00
   2  -4 -25    8.10   28.90
   2   4 -25   14.20   28.60
   0  -4 -25   39.00   33.10
   0  -4 -25    1.70   30.60
   0   4 -25   28.70   28.70
   0   4 -25  -10.80   32.00
   3  -5 -25   17.90   29.10
   3  -5 -25   62.69   32.90
   1  -5 -25   45.60   30.00
   1  -5 -25   28.60   29.60
   1   5 -25    4.90   29.90
  -1  -5 -25   41.50   38.20
  -1  -5 -25   24.60   32.80
  -1   5 -25   20.90   47.20
   4  -6 -25   23.90   32.40
   4  -6 -25    6.80   28.90
   2  -6 -25    9.80   28.70
   2  -6 -25   41.80   29.20
   0  -6 -25   46.10   33.80
   0  -6 -25  -15.60   28.00
   3  -7 -25  145.19   41.40
   3  -7 -25  156.38   41.50
   1  -7 -25   13.30   29.60
   1  -7 -25   31.20   30.60
   2  -8 -25  -20.40   28.70
   2  -8 -25  -29.20   25.10
   0  -8 -25   19.50   33.10
   0   0   0    0.00    0.00


_computing_structure_solution     'SHELXT 2014/4 (Sheldrick, 2014)'
_computing_structure_solution     'SHELXT 2014/5 (Sheldrick, 2014)'
_computing_structure_solution     'SHELXT 2014/5 (Sheldrick, 2014)'
;
_shelx_hkl_checksum              22816
_shelx_fab_file
;
-14 0 1 -3.7365 0.8415
-14 0 2 -15.8523 0.5663
-14 0 3 -9.4382 0.4111
-14 0 4 15.8196 0.1070
-14 0 5 10.4331 -0.0977
-14 0 6 23.1120 -0.4649
-14 2 1 -9.2267 0.5043
-14 2 2 -11.0359 0.7143
-14 2 3 -0.7171 0.4505
-14 2 4 9.6368 0.2044
-14 2 5 25.5138 0.1880
-14 2 6 15.6247 -0.0811
-14 4 2 -1.9404 0.2452
-14 4 3 -10.9044 0.3520
-14 4 4 -6.8765 0.2563
-13 1 1 -14.7797 0.2923
-13 1 2 9.2862 0.0135
-13 1 3 -1.8291 -0.4284
-13 1 4 6.6154 -0.5004
-13 1 5 8.9863 -0.8414
-13 1 6 -9.3992 -0.8168
-13 1 7 -17.7165 -1.2537
-13 1 8 -12.2619 -1.0362
-13 1 9 -3.6776 -1.4757
-13 1 10 -6.7504 -1.3214
-13 1 11 -2.8110 -1.5548
-13 1 12 -8.0218 -1.3073
-13 3 1 -6.9535 0.0850
-13 3 2 -8.7639 -0.1886
-13 3 3 0.8856 -0.0143
-13 3 4 1.4647 -0.0873
-13 3 5 0.0495 0.0147
-13 3 6 -5.6335 -0.1244
-13 3 7 -15.6726 -0.1067
-13 3 8 2.9214 -0.2598
-13 3 9 -1.2157 -0.3269
-13 3 10 19.9807 -0.2516
-13 3 11 8.2022 -0.4082
-13 3 12 -9.9182 -0.4870
-13 5 1 -8.2737 -0.0206
-13 5 2 -23.9839 -0.0354
-13 5 3 9.6883 0.0033
-13 5 4 1.1309 -0.0339
-13 5 5 23.5757 -0.0113
-13 5 6 8.7799 -0.0209
-13 5 7 0.9289 0.0362
-13 5 8 12.2948 -0.0634
-13 5 9 -9.5372 -0.1147
-13 5 10 8.3267 -0.0780
-13 5 11 -6.6612 -0.2210
-13 5 12 -14.6414 -0.1987
-13 7 1 4.2109 -0.1292
-13 7 2 0.1345 -0.1049
-13 7 3 -7.9529 -0.1895
-13 7 4 9.7068 -0.1049
-13 7 5 7.4912 -0.2163
-13 7 6 -3.3044 -0.3356
-13 7 7 -1.5371 -0.3122
-13 7 8 3.0599 -0.2245
-13 7 9 -3.4251 -0.2920
-13 7 10 -1.9241 -0.2388
-13 7 11 -1.4240 -0.3690
-13 9 1 -0.3955 -0.1276
-13 9 2 5.3001 -0.1267
-13 9 3 -4.9826 -0.2271
-13 9 4 1.9689 -0.2605
-13 9 5 14.7497 -0.3334
-13 9 6 11.7889 -0.3620
-13 9 7 7.2274 -0.6576
-13 9 8 9.1864 -0.5097
-13 9 9 -7.8669 -0.3728
-13 9 10 -22.1580 -0.8158
-13 11 1 0.7338 0.1061
-13 11 2 6.1805 -0.0679
-13 11 3 -1.9284 -0.2714
-13 11 4 7.6654 -0.2859
-13 11 5 -12.1983 -0.5240
-13 11 6 8.4151 -0.4787
-13 11 7 -6.5792 -0.4689
-13 11 8 9.7691 -0.4514
-12 0 1 -14.5837 -0.6727
-12 0 2 -6.0894 -1.0776
-12 0 3 -9.9237 -1.7604
-12 0 4 -23.3641 -2.0718
-12 0 5 -2.0842 -2.0047
-12 0 6 15.2733 -2.2510
-12 0 7 19.7922 -1.8974
-12 0 8 -2.0597 -2.2620
-12 0 9 36.9352 -1.4264
-12 0 10 7.2089 -1.7033
-12 0 11 -20.3595 -0.7915
-12 0 12 12.3925 -0.8270
-12 0 13 -9.9974 -0.2164
-12 0 14 2.0416 0.3265
-12 0 15 -4.3703 0.2144
-12 0 16 -24.7132 1.2251
-12 2 1 -2.4653 -0.2459
-12 2 2 14.8954 -0.2288
-12 2 3 2.1094 -0.1812
-12 2 4 -10.3218 -0.2949
-12 2 5 -0.7262 -0.2785
-12 2 6 2.5553 -0.4375
-12 2 7 8.7571 -0.2233
-12 2 8 -5.3092 -0.4593
-12 2 9 16.2546 -0.0300
-12 2 10 -10.6662 -0.3529
-12 2 11 -1.1776 -0.0271
-12 2 12 -6.4041 -0.1791
-12 2 13 9.6687 -0.1260
-12 2 14 11.9355 0.1034
-12 2 15 17.7879 -0.3706
-12 2 16 -4.9793 0.4776
-12 4 1 4.4046 0.2387
-12 4 2 -19.1442 0.2761
-12 4 3 -9.5728 0.3785
-12 4 4 -1.4109 0.5328
-12 4 5 -2.1658 0.5912
-12 4 6 -9.0827 0.6463
-12 4 7 26.7733 0.4597
-12 4 8 6.4990 0.5467
-12 4 9 0.3271 0.4340
-12 4 10 4.8223 0.3879
-12 4 11 10.0826 0.3047
-12 4 12 -6.8002 0.1384
-12 4 13 -3.1549 -0.2729
-12 4 14 -9.6331 -0.0455
-12 4 15 -1.5705 -0.1829
-12 6 1 3.1953 0.2249
-12 6 2 -15.7484 0.3212
-12 6 3 3.4221 0.4044
-12 6 4 9.3327 0.5106
-12 6 5 -1.0667 0.4369
-12 6 6 -12.6517 0.5918
-12 6 7 0.4232 0.3637
-12 6 8 0.8819 0.7084
-12 6 9 -38.6516 0.3277
-12 6 10 6.9150 0.4626
-12 6 11 -1.8772 0.0991
-12 6 12 -6.1653 -0.0189
-12 6 13 4.1303 -0.0901
-12 6 14 -16.5499 0.0727
-12 6 15 7.7726 0.0568
-12 8 1 -7.9233 -0.0771
-12 8 2 -11.7169 0.0581
-12 8 3 -12.1835 0.1485
-12 8 4 -4.4036 0.0809
-12 8 5 1.6101 0.1497
-12 8 6 -4.4993 0.2117
-12 8 7 5.2262 0.1239
-12 8 8 3.1514 0.0718
-12 8 9 -4.6340 0.1295
-12 8 10 0.8985 -0.0346
-12 8 11 18.6987 -0.1162
-12 8 12 -9.6054 -0.2007
-12 8 13 3.1746 -0.1434
-12 8 14 -13.6681 -0.0734
-12 10 1 -18.3170 -0.1918
-12 10 2 -7.3675 -0.1370
-12 10 3 -15.0076 -0.0709
-12 10 4 4.7721 -0.0824
-12 10 5 -0.5311 -0.0638
-12 10 6 -10.0974 -0.0707
-12 10 7 -11.4424 0.0775
-12 10 8 -4.5513 -0.3208
-12 10 9 -4.2239 -0.0621
-12 10 10 9.9623 -0.4255
-12 10 11 -5.6893 -0.5162
-12 10 12 12.5233 -0.4790
-12 10 13 -13.5465 -0.4885
-12 12 1 -1.9530 0.0045
-12 12 2 7.4330 0.0280
-12 12 3 -4.6252 -0.0570
-12 12 4 6.0535 -0.0652
-12 12 5 11.8197 -0.1382
-12 12 6 1.9668 -0.2450
-12 12 7 12.2231 -0.0566
-12 12 8 0.0292 -0.2496
-12 12 9 16.7052 -0.3538
-12 12 10 -7.5154 -0.7163
-12 12 11 -1.1844 -0.5600
-12 12 12 -5.1076 -0.7473
-12 14 1 -7.6106 0.0131
-12 14 2 -14.9646 0.0652
-12 14 3 5.4811 -0.0262
-12 14 4 -0.1654 -0.0511
-12 14 5 -0.7056 -0.1059
-12 14 6 3.7885 -0.3850
-12 14 7 6.3447 -0.4885
-12 14 8 1.9362 -0.6641
-12 14 9 16.7141 -0.5310
-12 14 10 5.9554 -0.9538
-12 16 1 2.2303 -0.1565
-12 16 2 1.1343 -0.3267
-12 16 3 5.5779 -0.4634
-12 16 4 2.5635 -0.6640
-12 16 5 -5.2973 -0.5984
-12 16 6 -7.4978 -0.6289
-12 16 7 11.3463 -0.5967
-11 1 1 36.4101 -1.3701
-11 1 2 -2.8117 -1.4167
-11 1 3 2.8357 -1.3219
-11 1 4 -2.2395 -1.2137
-11 1 5 2.5582 -1.3196
-11 1 6 1.9012 -0.8404
-11 1 7 7.0254 -1.1956
-11 1 8 -27.9504 -0.3727
-11 1 9 9.1723 -0.8553
-11 1 10 -14.7738 0.2868
-11 1 11 -5.8181 -0.1450
-11 1 12 -0.7141 0.8206
-11 1 13 -2.9516 0.6676
-11 1 14 12.3752 0.9352
-11 1 15 5.6279 1.3657
-11 1 16 -18.5509 0.4717
-11 1 17 4.6415 2.0195
-11 1 18 -6.5615 0.3425
-11 3 1 47.9770 -0.3869
-11 3 2 3.5325 -0.0159
-11 3 3 1.4173 0.0552
-11 3 4 -3.7666 0.0637
-11 3 5 -3.5680 0.1994
-11 3 6 3.0144 -0.0138
-11 3 7 7.9670 0.2965
-11 3 8 -1.8081 -0.0603
-11 3 9 13.6729 0.1209
-11 3 10 -14.5392 -0.1309
-11 3 11 -2.0923 0.1647
-11 3 12 2.7499 -0.0262
-11 3 13 -1.8819 0.1574
-11 3 14 12.3170 -0.0632
-11 3 15 2.2231 -0.3671
-11 3 16 7.3660 -0.0565
-11 3 17 3.1620 0.6669
-11 3 18 -5.1236 0.3139
-11 5 1 15.4488 0.3433
-11 5 2 -9.3769 0.1696
-11 5 3 7.9433 0.2742
-11 5 4 -3.1935 0.3892
-11 5 5 -2.3528 0.5236
-11 5 6 1.4066 0.3847
-11 5 7 0.3357 0.5077
-11 5 8 19.5754 0.1343
-11 5 9 -0.9687 0.2855
-11 5 10 -5.1845 0.1229
-11 5 11 12.1816 0.0528
-11 5 12 -9.1942 -0.0466
-11 5 13 23.3386 -0.2335
-11 5 14 -15.0867 -0.2644
-11 5 15 7.5211 -0.2605
-11 5 16 15.0989 0.1914
-11 5 17 8.1972 0.6391
-11 5 18 6.7720 0.2085
-11 7 1 5.0487 0.1356
-11 7 2 21.2795 0.2716
-11 7 3 0.2905 0.1263
-11 7 4 18.9769 0.0421
-11 7 5 -1.7077 0.1515
-11 7 6 9.9139 0.1275
-11 7 7 3.0845 0.1923
-11 7 8 6.9958 0.1744
-11 7 9 3.3034 0.0995
-11 7 10 -10.4113 0.0905
-11 7 11 -2.8106 0.2222
-11 7 12 5.0001 0.1430
-11 7 13 4.4344 -0.0004
-11 7 14 6.5293 0.2604
-11 7 15 7.3641 0.1156
-11 7 16 11.1346 0.2571
-11 7 17 5.6028 0.5573
-11 9 1 -7.1692 0.0462
-11 9 2 8.7219 -0.0864
-11 9 3 1.6923 -0.0650
-11 9 4 5.9801 -0.0724
-11 9 5 1.9903 -0.2312
-11 9 6 6.5189 -0.0845
-11 9 7 -2.6380 -0.1757
-11 9 8 5.3330 -0.0782
-11 9 9 3.4453 0.0372
-11 9 10 2.0227 0.2471
-11 9 11 -19.9587 0.2484
-11 9 12 6.9931 0.2836
-11 9 13 -11.9979 0.0951
-11 9 14 1.5188 0.1181
-11 9 15 18.0827 0.6866
-11 9 16 -11.3384 0.3435
-11 11 1 -3.4247 -0.0010
-11 11 2 -5.9385 -0.0656
-11 11 3 7.5940 -0.0405
-11 11 4 -6.3928 -0.1138
-11 11 5 5.6240 -0.2318
-11 11 6 -7.0862 -0.2031
-11 11 7 -3.2446 -0.1301
-11 11 8 0.2845 0.2129
-11 11 9 2.2829 0.0905
-11 11 10 4.6289 0.0325
-11 11 11 -6.6397 0.1073
-11 11 12 -17.0661 -0.0236
-11 11 13 3.4883 0.4782
-11 11 14 -15.6538 0.3121
-11 11 15 -2.9967 0.3236
-11 13 1 4.8000 0.0813
-11 13 2 -1.0396 0.0234
-11 13 3 -0.6001 0.0744
-11 13 4 2.4619 0.1279
-11 13 5 -16.6301 0.1547
-11 13 6 8.7828 0.1308
-11 13 7 4.4120 0.2022
-11 13 8 -8.1706 0.1916
-11 13 9 4.7567 0.2008
-11 13 10 14.0319 0.1274
-11 13 11 -13.2776 0.0964
-11 13 12 9.6614 0.0709
-11 13 13 -0.2117 0.0640
-11 13 14 16.6134 -0.1902
-11 15 1 1.8736 0.1120
-11 15 2 -3.8617 0.1775
-11 15 3 8.4976 0.3216
-11 15 4 -2.4682 0.2947
-11 15 5 -16.6068 0.3708
-11 15 6 -9.0889 0.2675
-11 15 7 9.4517 0.4095
-11 15 8 -21.8507 0.2799
-11 15 9 8.5638 0.2323
-11 15 10 8.4928 0.1340
-11 15 11 -2.9810 -0.0283
-11 15 12 1.6042 -0.3816
-11 15 13 5.8274 0.0818
-11 17 1 18.1223 -0.0300
-11 17 2 7.9940 0.0355
-11 17 3 -0.1815 0.0380
-11 17 4 -1.8792 0.0466
-11 17 5 -4.6502 0.1001
-11 17 6 -0.4846 0.1691
-11 17 7 17.3051 -0.0657
-11 17 8 -19.4669 -0.0026
-11 17 9 7.9525 -0.2582
-11 17 10 -10.5476 -0.4100
-11 17 11 4.0319 -0.4772
-11 19 1 10.2310 -0.5434
-11 19 2 -3.3354 -0.5434
-11 19 3 10.0163 -0.7497
-11 19 4 6.2444 -0.6178
-11 19 5 0.7175 -0.6734
-11 19 6 15.7360 -0.6191
-11 19 7 4.0767 -0.8345
-11 19 8 4.1440 -0.4611
-10 0 1 33.0896 -1.9840
-10 0 2 -10.4584 -1.6076
-10 0 3 10.2664 -2.2359
-10 0 4 16.5044 -1.6413
-10 0 5 -6.3928 -1.3090
-10 0 6 -5.9919 -0.9782
-10 0 7 -20.8780 0.0413
-10 0 8 26.5216 -0.2023
-10 0 9 -0.9682 1.5112
-10 0 10 -23.6904 0.6699
-10 0 11 19.5521 2.5550
-10 0 12 3.1249 1.4444
-10 0 13 9.3357 2.9668
-10 0 14 -12.7026 2.2314
-10 0 15 -11.5972 2.4910
-10 0 16 -2.6363 2.5590
-10 0 17 11.6003 1.5086
-10 0 18 7.5240 2.6973
-10 0 19 13.1481 0.4059
-10 0 20 9.5641 2.0322
-10 2 1 -4.6536 -1.2694
-10 2 2 -51.1304 -0.6246
-10 2 3 -9.9556 -0.3027
-10 2 4 -32.7776 -0.1374
-10 2 5 6.9960 -0.2620
-10 2 6 -23.3384 -0.2671
-10 2 7 9.0579 0.1286
-10 2 8 17.2405 -0.3327
-10 2 9 18.9930 0.5924
-10 2 10 -18.2877 -0.1750
-10 2 11 1.4825 0.7907
-10 2 12 2.3289 -0.0431
-10 2 13 -2.7916 0.6287
-10 2 14 -7.3178 0.1640
-10 2 15 -8.1266 0.2425
-10 2 16 -2.6838 0.6906
-10 2 17 1.5863 -0.1201
-10 2 18 -18.5887 1.1231
-10 2 19 -6.6731 -0.4804
-10 2 20 -9.8984 1.1097
-10 4 1 -7.4570 0.2215
-10 4 2 -13.9453 -0.0553
-10 4 3 -10.5512 0.1748
-10 4 4 -9.7489 0.3509
-10 4 5 5.2827 0.4028
-10 4 6 15.3758 0.1821
-10 4 7 -13.9533 -0.0488
-10 4 8 15.5336 -0.0892
-10 4 9 11.9332 -0.3556
-10 4 10 -10.6879 -0.1825
-10 4 11 12.0379 -0.5200
-10 4 12 -4.9295 -0.2942
-10 4 13 -1.7960 -0.6468
-10 4 14 3.7008 -0.6763
-10 4 15 -22.8312 -0.7915
-10 4 16 1.4101 -0.7476
-10 4 17 1.4265 -0.2341
-10 4 18 -11.6856 0.1872
-10 4 19 14.5336 0.1117
-10 4 20 1.7868 0.8094
-10 6 1 -9.4318 0.5829
-10 6 2 48.4453 0.2710
-10 6 3 -10.9937 0.3384
-10 6 4 -3.4359 0.1880
-10 6 5 -17.8947 0.2433
-10 6 6 -0.9229 0.1197
-10 6 7 -18.2864 -0.2158
-10 6 8 -5.3703 0.1384
-10 6 9 4.5718 -0.4595
-10 6 10 8.1806 0.0192
-10 6 11 3.5523 -0.5736
-10 6 12 -7.0630 -0.0712
-10 6 13 9.5831 -0.6363
-10 6 14 4.9292 -0.3870
-10 6 15 -9.1314 -0.5998
-10 6 16 -3.3154 -0.6324
-10 6 17 -10.3731 0.2027
-10 6 18 -10.4381 -0.0114
-10 6 19 -18.2901 0.2351
-10 8 1 -13.3972 0.0369
-10 8 2 -14.8931 -0.0062
-10 8 3 3.8665 -0.0871
-10 8 4 -26.4297 -0.0586
-10 8 5 -11.5283 -0.0840
-10 8 6 -12.4898 -0.0193
-10 8 7 -3.0332 -0.0176
-10 8 8 -16.1057 0.0213
-10 8 9 -4.4028 -0.0183
-10 8 10 27.6867 0.1244
-10 8 11 -15.1765 0.0508
-10 8 12 1.2937 0.1441
-10 8 13 14.8162 0.0384
-10 8 14 -18.5704 -0.1093
-10 8 15 11.7733 0.2715
-10 8 16 -21.6130 -0.1989
-10 8 17 4.6338 0.4205
-10 8 18 -1.0274 0.8440
-10 8 19 -9.2013 -0.1906
-10 10 1 7.5363 -0.3919
-10 10 2 7.8356 -0.2804
-10 10 3 0.3354 -0.3914
-10 10 4 8.8392 -0.2761
-10 10 5 -32.8575 -0.1730
-10 10 6 20.1432 -0.1357
-10 10 7 -19.9382 0.0425
-10 10 8 15.6129 0.0269
-10 10 9 -0.8798 0.2067
-10 10 10 15.1544 0.0899
-10 10 11 -4.5214 0.2884
-10 10 12 -0.8571 0.0221
-10 10 13 5.6751 0.2427
-10 10 14 -1.0651 0.1215
-10 10 15 2.0047 0.2756
-10 10 16 -2.1929 0.6182
-10 10 17 -2.4669 0.5343
-10 10 18 23.7767 0.8864
-10 12 1 -2.1092 -0.3141
-10 12 2 -6.5272 -0.1481
-10 12 3 0.4923 -0.2481
-10 12 4 -3.9202 -0.1709
-10 12 5 -1.0182 -0.1801
-10 12 6 10.8838 -0.1146
-10 12 7 -7.8609 0.0247
-10 12 8 -1.7136 -0.1912
-10 12 9 -0.6199 0.2383
-10 12 10 -5.7477 -0.1631
-10 12 11 2.1015 0.0723
-10 12 12 10.4557 -0.1075
-10 12 13 -5.5091 0.1498
-10 12 14 13.7635 0.0684
-10 12 15 6.6001 0.2781
-10 12 16 -17.7078 0.5209
-10 12 17 14.9905 0.2540
-10 14 1 -2.1843 0.1519
-10 14 2 8.3867 0.0943
-10 14 3 2.2192 0.0859
-10 14 4 1.3764 -0.0284
-10 14 5 18.6841 0.0939
-10 14 6 2.6049 0.0004
-10 14 7 12.3953 -0.0363
-10 14 8 6.8658 0.0102
-10 14 9 1.1879 -0.0124
-10 14 10 5.1183 0.0799
-10 14 11 -0.1380 0.0218
-10 14 12 -3.3903 0.0158
-10 14 13 3.3365 -0.0291
-10 14 14 -6.7018 0.0354
-10 14 15 5.9719 -0.0050
-10 14 16 -12.2375 0.8785
-10 16 1 -4.1403 0.3491
-10 16 2 -0.9138 0.2817
-10 16 3 -3.5417 0.3577
-10 16 4 -1.2192 0.1850
-10 16 5 7.5717 0.1433
-10 16 6 4.5708 0.3510
-10 16 7 -6.1655 0.1241
-10 16 8 5.0643 0.4651
-10 16 9 -0.3249 0.2279
-10 16 10 -13.2470 0.2650
-10 16 11 2.6471 -0.0596
-10 16 12 1.0874 0.1696
-10 16 13 -4.4800 0.0056
-10 16 14 2.9567 0.0299
-10 16 15 -0.5907 0.5142
-10 18 1 -1.0880 0.1586
-10 18 2 -36.3930 0.1959
-10 18 3 -5.2772 0.1801
-10 18 4 -17.2084 0.3378
-10 18 5 4.1619 0.2512
-10 18 6 -15.5639 0.4368
-10 18 7 -3.4260 0.2796
-10 18 8 -0.2656 0.3732
-10 18 9 -0.6467 0.0853
-10 18 10 -8.4442 0.2986
-10 18 11 7.1298 0.0190
-10 18 12 7.4568 0.0668
-10 18 13 -11.8316 0.2374
-10 20 1 8.5478 -0.2014
-10 20 2 1.0584 -0.2625
-10 20 3 -2.6652 -0.1787
-10 20 4 17.6541 -0.0563
-10 20 5 -23.3392 -0.0616
-10 20 6 -0.3819 -0.1200
-10 20 7 -9.6546 0.0893
-10 20 8 -9.0737 -0.3304
-10 20 9 -7.0781 0.3001
-10 20 10 -20.8468 -0.2251
-10 20 11 29.2519 0.4465
-10 22 1 -1.0162 -0.9579
-10 22 2 -0.8554 -0.8049
-10 22 3 15.0914 -0.9130
-10 22 4 10.0029 -0.7544
-10 22 5 -4.0625 -0.5687
-10 22 6 12.1865 -0.7204
-10 22 7 14.6445 -0.2651
-9 1 1 26.0492 -0.9702
-9 1 2 -11.1297 -1.3608
-9 1 3 26.5265 -0.0689
-9 1 4 0.2140 -0.5148
-9 1 5 24.8585 0.3262
-9 1 6 -13.0448 0.5417
-9 1 7 -14.0728 0.4579
-9 1 8 -10.5756 1.5352
-9 1 9 -7.2210 0.6500
-9 1 10 -10.3815 2.2723
-9 1 11 16.6565 0.7039
-9 1 12 -1.0234 2.4646
-9 1 13 8.3010 0.7672
-9 1 14 12.8439 1.9250
-9 1 15 -0.6136 1.0265
-9 1 16 8.9941 0.8302
-9 1 17 3.7908 1.0977
-9 1 18 4.7610 -0.3138
-9 1 19 8.8841 0.9862
-9 1 20 -10.8121 -1.3227
-9 1 21 2.5217 1.3166
-9 3 1 8.2709 -0.1590
-9 3 2 5.6372 0.5370
-9 3 3 5.4564 -0.0770
-9 3 4 1.2396 0.0722
-9 3 5 14.1331 -0.0859
-9 3 6 0.6941 -0.1729
-9 3 7 -9.5170 -0.0465
-9 3 8 -6.1713 -0.5080
-9 3 9 -2.3019 0.1221
-9 3 10 0.2914 -0.5430
-9 3 11 3.9248 0.2055
-9 3 12 -18.3056 -0.5075
-9 3 13 1.4791 0.0337
-9 3 14 -10.0405 -0.4738
-9 3 15 12.7670 -0.0480
-9 3 16 -5.9014 -0.0629
-9 3 17 4.7533 -0.3998
-9 3 18 -2.2852 0.6383
-9 3 19 5.5234 -0.6480
-9 3 20 -1.0472 -0.1328
-9 3 21 -13.7176 0.0781
-9 5 1 36.0125 0.2552
-9 5 2 22.9267 0.4620
-9 5 3 9.0256 0.2835
-9 5 4 13.2234 0.2065
-9 5 5 22.6252 -0.0357
-9 5 6 8.0429 -0.3018
-9 5 7 -6.9525 -0.2910
-9 5 8 -19.2792 -0.6553
-9 5 9 -4.7101 -0.3157
-9 5 10 -10.7153 -0.8222
-9 5 11 -11.6341 -0.4689
-9 5 12 -0.1826 -0.8661
-9 5 13 -12.6081 -0.6182
-9 5 14 18.0625 -0.6915
-9 5 15 15.8866 -0.6334
-9 5 16 -1.2860 -0.2612
-9 5 17 4.6784 -0.5938
-9 5 18 0.5153 0.3613
-9 5 19 21.8588 -0.4946
-9 5 20 -5.3777 -0.2746
-9 5 21 -7.4600 0.0459
-9 7 1 28.8820 0.1431
-9 7 2 -14.4041 0.2267
-9 7 3 -11.7355 -0.0065
-9 7 4 -12.7880 0.1225
-9 7 5 17.0249 -0.0251
-9 7 6 -11.0570 -0.0005
-9 7 7 -0.3817 0.0228
-9 7 8 19.7762 -0.2438
-9 7 9 -0.7005 -0.0909
-9 7 10 22.7192 -0.3535
-9 7 11 12.8142 -0.0922
-9 7 12 -7.4482 -0.2990
-9 7 13 6.5989 -0.1436
-9 7 14 -6.8582 -0.2700
-9 7 15 12.7810 -0.1241
-9 7 16 -3.1661 -0.2474
-9 7 17 -17.2002 -0.5814
-9 7 18 9.6358 0.2590
-9 7 19 -0.2119 -0.0077
-9 7 20 5.7859 -0.1365
-9 7 21 -3.1883 0.4774
-9 9 1 2.8825 -0.0502
-9 9 2 18.8029 -0.1475
-9 9 3 -24.8756 -0.0474
-9 9 4 36.5298 -0.1181
-9 9 5 2.3518 -0.0373
-9 9 6 6.9877 0.1374
-9 9 7 -10.0816 0.0320
-9 9 8 7.3444 0.2959
-9 9 9 -28.2708 -0.0200
-9 9 10 -7.8729 0.4053
-9 9 11 -15.7150 0.1280
-9 9 12 -16.5648 0.4981
-9 9 13 2.7434 0.2538
-9 9 14 -0.4537 0.2796
-9 9 15 16.6813 0.0884
-9 9 16 -3.2593 -0.0491
-9 9 17 -3.8345 -0.0364
-9 9 18 4.4581 -0.3186
-9 9 19 -3.2715 0.8707
-9 9 20 3.0510 -0.9249
-9 11 1 -3.6302 -0.1536
-9 11 2 3.0324 -0.3283
-9 11 3 -8.4857 -0.0635
-9 11 4 10.9339 -0.1843
-9 11 5 14.3549 -0.0902
-9 11 6 4.4544 0.0246
-9 11 7 14.7469 -0.0713
-9 11 8 -2.9293 0.2179
-9 11 9 2.2357 -0.0307
-9 11 10 0.1732 0.3975
-9 11 11 6.1624 0.0638
-9 11 12 2.3352 0.4018
-9 11 13 -3.5251 0.1601
-9 11 14 -5.1509 0.1436
-9 11 15 2.0244 -0.0931
-9 11 16 -7.3320 0.0340
-9 11 17 2.6865 0.1772
-9 11 18 15.1139 0.1581
-9 11 19 -3.5895 0.7203
-9 13 1 1.4873 -0.0248
-9 13 2 -17.8133 -0.2393
-9 13 3 -7.0217 -0.1176
-9 13 4 -21.9946 -0.1635
-9 13 5 -14.0007 -0.0737
-9 13 6 -4.1547 -0.1392
-9 13 7 -28.1500 -0.2088
-9 13 8 3.4278 -0.1697
-9 13 9 -19.5426 -0.2383
-9 13 10 5.1436 -0.1944
-9 13 11 11.3205 -0.0379
-9 13 12 -0.7610 -0.2929
-9 13 13 4.3203 -0.2462
-9 13 14 7.1042 -0.2488
-9 13 15 3.9961 -0.2037
-9 13 16 -12.2155 -0.0389
-9 13 17 -1.8127 0.6859
-9 13 18 -7.6340 -0.1240
-9 15 1 13.5672 0.0166
-9 15 2 6.9580 0.0728
-9 15 3 18.4955 -0.1024
-9 15 4 4.7826 -0.0399
-9 15 5 14.8572 -0.1590
-9 15 6 11.3519 -0.2568
-9 15 7 -5.2414 -0.1891
-9 15 8 -14.3624 -0.4103
-9 15 9 -9.5255 -0.2045
-9 15 10 -12.3890 -0.3446
-9 15 11 8.4448 -0.2514
-9 15 12 -6.9020 -0.5753
-9 15 13 0.5252 -0.2650
-9 15 14 4.6585 -0.2891
-9 15 15 -11.5776 0.0298
-9 15 16 -1.1836 0.0972
-9 15 17 -1.3597 -0.0261
-9 17 1 2.0033 0.0287
-9 17 2 -6.8411 0.2234
-9 17 3 -3.5279 -0.0929
-9 17 4 -4.7712 0.1021
-9 17 5 3.0465 -0.1376
-9 17 6 5.0013 -0.0495
-9 17 7 12.5562 0.0622
-9 17 8 -6.4519 -0.2183
-9 17 9 3.0872 0.0712
-9 17 10 8.1030 -0.1454
-9 17 11 -3.9519 0.2251
-9 17 12 3.5858 -0.3319
-9 17 13 14.6603 -0.2522
-9 17 14 0.1546 -0.1896
-9 17 15 -1.9854 -0.1172
-9 17 16 -9.3158 0.2747
-9 19 1 -5.4005 0.0870
-9 19 2 5.3237 0.1401
-9 19 3 -0.1520 0.1220
-9 19 4 11.3828 0.0433
-9 19 5 -3.1832 0.1604
-9 19 6 11.5620 0.0411
-9 19 7 -0.8348 0.3983
-9 19 8 0.1795 0.3026
-9 19 9 -5.8267 0.2600
-9 19 10 -6.0326 0.0370
-9 19 11 2.3001 0.0310
-9 19 12 -9.1273 0.2764
-9 19 13 -6.0289 0.0035
-9 19 14 -3.8682 0.5488
-9 21 1 7.7715 -0.0856
-9 21 2 0.3254 -0.0421
-9 21 3 4.8491 0.1656
-9 21 4 -8.4818 0.0767
-9 21 5 -5.2369 0.1581
-9 21 6 1.4410 0.0528
-9 21 7 17.0119 0.0231
-9 21 8 13.3664 0.3864
-9 21 9 5.4901 0.2744
-9 21 10 -2.0737 0.5320
-9 21 11 14.1869 0.1212
-9 21 12 13.0195 0.9755
-9 23 1 0.7654 -0.2761
-9 23 2 -15.3818 -0.5244
-9 23 3 9.1301 0.0229
-9 23 4 11.7379 -0.1177
-9 23 5 -5.3811 -0.2246
-9 23 6 8.4913 0.1448
-9 23 7 -0.5278 -0.0816
-9 23 8 1.5175 0.4322
-9 23 9 -6.3130 0.1028
-8 0 1 -9.9632 -1.0864
-8 0 2 -44.9911 0.9262
-8 0 3 9.2826 0.1873
-8 0 4 0.5894 2.3047
-8 0 5 8.4092 1.5072
-8 0 6 -12.6165 2.8299
-8 0 7 23.0101 2.9445
-8 0 8 0.0553 2.8159
-8 0 9 6.9235 3.9414
-8 0 10 -5.3263 2.0152
-8 0 11 8.6715 4.1726
-8 0 12 -6.6359 1.0747
-8 0 13 -14.3297 3.4662
-8 0 14 -11.0797 0.2659
-8 0 15 -8.8893 1.8666
-8 0 16 -8.1856 -0.2587
-8 0 17 12.1363 -0.2659
-8 0 18 -2.9971 -0.3894
-8 0 19 8.6311 -2.1776
-8 0 20 -17.8139 -0.4858
-8 0 21 5.4352 -3.3819
-8 0 22 -0.0511 -0.4350
-8 2 1 0.6053 -0.8573
-8 2 2 -36.9001 0.5480
-8 2 3 12.4221 -0.2734
-8 2 4 -10.9689 0.8012
-8 2 5 7.6488 0.0498
-8 2 6 -15.9491 0.6948
-8 2 7 3.7455 0.6483
-8 2 8 3.9481 0.3224
-8 2 9 -5.1801 1.0882
-8 2 10 -1.1793 -0.0289
-8 2 11 29.5935 1.2977
-8 2 12 1.4714 -0.4080
-8 2 13 5.5221 1.2485
-8 2 14 -2.7559 -0.3612
-8 2 15 -11.6803 0.6470
-8 2 16 -15.5234 -0.0886
-8 2 17 0.7011 -0.2505
-8 2 18 -3.9762 0.2436
-8 2 19 0.5492 -0.5956
-8 2 20 -0.4217 0.4295
-8 2 21 -12.8761 -1.9734
-8 2 22 8.1680 0.4508
-8 4 1 10.6411 0.1525
-8 4 2 -24.5713 -0.3808
-8 4 3 21.9332 0.0483
-8 4 4 11.2596 -0.3436
-8 4 5 30.7570 -0.2350
-8 4 6 -11.3942 -0.5768
-8 4 7 19.5283 -0.5182
-8 4 8 -1.4455 -0.4888
-8 4 9 4.2758 -0.7571
-8 4 10 -5.1402 -0.3580
-8 4 11 3.9412 -0.7739
-8 4 12 1.4606 -0.2430
-8 4 13 -0.3201 -0.5540
-8 4 14 7.8728 0.0970
-8 4 15 3.5118 -0.5770
-8 4 16 -1.6374 0.0680
-8 4 17 7.5948 -0.0209
-8 4 18 15.1119 0.1807
-8 4 19 16.1759 0.7943
-8 4 20 10.8172 -0.0433
-8 4 21 11.9527 -0.0302
-8 4 22 3.8447 -0.2450
-8 6 1 -7.3270 0.4317
-8 6 2 -5.5155 -0.3977
-8 6 3 -28.6398 0.1960
-8 6 4 -2.4374 -0.4617
-8 6 5 -4.7309 -0.0004
-8 6 6 -13.6148 -0.5198
-8 6 7 -2.1974 -0.4054
-8 6 8 -9.6821 -0.3670
-8 6 9 -4.4294 -0.7337
-8 6 10 0.9466 -0.0731
-8 6 11 7.5969 -0.8078
-8 6 12 17.3944 0.2548
-8 6 13 2.5582 -0.7479
-8 6 14 -15.4710 0.2676
-8 6 15 -6.3100 -0.6530
-8 6 16 -34.6085 0.2234
-8 6 17 -6.5167 -0.0389
-8 6 18 -8.5838 -0.3572
-8 6 19 5.0476 0.8371
-8 6 20 9.9124 -0.3767
-8 6 21 -20.4643 -0.2603
-8 6 22 6.3069 -0.0931
-8 8 1 17.4724 0.1192
-8 8 2 -13.1427 0.0027
-8 8 3 -1.3112 -0.0006
-8 8 4 3.9284 0.0545
-8 8 5 -4.5651 0.1147
-8 8 6 0.5312 0.2335
-8 8 7 3.1351 0.1637
-8 8 8 3.2910 0.1625
-8 8 9 -0.6656 0.1280
-8 8 10 -9.2404 0.1256
-8 8 11 10.2492 0.1906
-8 8 12 -13.7424 0.1645
-8 8 13 9.6107 0.2791
-8 8 14 -5.8026 -0.0913
-8 8 15 10.9439 -0.0126
-8 8 16 8.1995 -0.0282
-8 8 17 -20.0543 -0.2580
-8 8 18 -0.2358 -0.4811
-8 8 19 5.6613 0.2515
-8 8 20 8.9532 -0.3380
-8 8 21 2.4142 -0.7873
-8 10 1 18.3738 -0.1675
-8 10 2 -4.0004 0.1832
-8 10 3 27.0020 0.0053
-8 10 4 -3.2020 0.3829
-8 10 5 12.2931 0.1113
-8 10 6 -1.4027 0.4185
-8 10 7 18.2426 0.3839
-8 10 8 -6.5591 0.4365
-8 10 9 -14.8237 0.5293
-8 10 10 -4.6429 0.3138
-8 10 11 4.4082 0.6166
-8 10 12 9.4748 0.2266
-8 10 13 -1.7448 0.3448
-8 10 14 0.4632 -0.0868
-8 10 15 -0.4141 0.0566
-8 10 16 13.6734 -0.1000
-8 10 17 -6.8546 0.1983
-8 10 18 10.9638 -0.3371
-8 10 19 14.0785 -0.5105
-8 10 20 5.0312 -0.2078
-8 10 21 -5.7799 -1.1773
-8 12 1 2.4378 -0.2228
-8 12 2 -2.0041 0.2559
-8 12 3 -0.2523 -0.0854
-8 12 4 5.1034 0.3363
-8 12 5 -17.8680 -0.0323
-8 12 6 8.2594 0.1799
-8 12 7 1.4037 0.1265
-8 12 8 6.8477 0.0928
-8 12 9 5.3655 0.3833
-8 12 10 -0.9569 0.0154
-8 12 11 13.6167 0.3887
-8 12 12 -6.3780 -0.0808
-8 12 13 6.9817 0.3914
-8 12 14 -17.6916 -0.0973
-8 12 15 25.5343 0.1400
-8 12 16 -12.5923 -0.2705
-8 12 17 -14.8827 -0.1111
-8 12 18 -7.1297 0.1022
-8 12 19 -13.7312 -0.2260
-8 12 20 3.3933 0.1624
-8 14 1 6.9002 -0.0313
-8 14 2 1.4956 -0.1197
-8 14 3 3.3163 0.0150
-8 14 4 -2.4493 -0.2085
-8 14 5 2.6599 0.0369
-8 14 6 9.3130 -0.1534
-8 14 7 17.6001 -0.1682
-8 14 8 -7.1857 -0.2617
-8 14 9 10.3307 -0.2189
-8 14 10 -11.9050 -0.1388
-8 14 11 1.8862 -0.2520
-8 14 12 7.8168 0.0788
-8 14 13 -14.5981 -0.2183
-8 14 14 9.9096 -0.0278
-8 14 15 -0.4229 -0.0730
-8 14 16 19.5241 -0.1891
-8 14 17 -4.9675 -0.1229
-8 14 18 25.9639 0.3028
-8 14 19 10.5679 -0.7725
-8 16 1 6.4780 0.1595
-8 16 2 -4.7011 -0.2286
-8 16 3 1.7914 0.0002
-8 16 4 -16.2146 -0.2586
-8 16 5 -9.0719 -0.0317
-8 16 6 -8.7172 -0.3885
-8 16 7 0.1898 -0.2420
-8 16 8 0.5082 -0.2066
-8 16 9 -12.3265 -0.3541
-8 16 10 1.9989 -0.1160
-8 16 11 9.0513 -0.4173
-8 16 12 -4.3730 -0.0615
-8 16 13 -1.2467 -0.4684
-8 16 14 -6.5831 0.0061
-8 16 15 2.4834 -0.2823
-8 16 16 3.5308 -0.0298
-8 16 17 4.2021 -0.0640
-8 16 18 0.6876 -0.1157
-8 18 1 -0.8656 0.1814
-8 18 2 -1.1693 -0.0881
-8 18 3 9.2406 0.1043
-8 18 4 -5.3460 -0.2351
-8 18 5 1.8706 0.0155
-8 18 6 3.5235 -0.1019
-8 18 7 1.2390 -0.1198
-8 18 8 8.3007 -0.0006
-8 18 9 -4.8557 -0.1934
-8 18 10 -12.8968 -0.0510
-8 18 11 28.8838 -0.1579
-8 18 12 -9.9774 0.1593
-8 18 13 6.5151 -0.2836
-8 18 14 8.7216 -0.5412
-8 18 15 -2.1527 -0.2313
-8 18 16 14.3983 -0.2673
-8 18 17 -0.9854 -0.2371
-8 20 1 0.4924 -0.0488
-8 20 2 -2.4639 0.2425
-8 20 3 -5.5208 0.1064
-8 20 4 -6.7252 0.3339
-8 20 5 -10.7856 0.0004
-8 20 6 7.8089 -0.0071
-8 20 7 4.5209 -0.1570
-8 20 8 -10.1586 0.0896
-8 20 9 0.7834 0.1970
-8 20 10 -8.6651 0.1415
-8 20 11 -1.4822 0.0982
-8 20 12 17.7508 -0.4103
-8 20 13 -15.6647 -0.0267
-8 20 14 0.1426 -0.4644
-8 20 15 -6.0680 0.3189
-8 22 1 0.3427 0.1187
-8 22 2 -4.7078 0.3101
-8 22 3 6.2963 -0.0432
-8 22 4 0.6600 0.3362
-8 22 5 -14.7903 -0.0214
-8 22 6 10.6680 0.2820
-8 22 7 -11.0194 -0.0928
-8 22 8 -2.0671 -0.0706
-8 22 9 -8.8808 0.0277
-8 22 10 -0.0431 -0.0939
-8 22 11 -2.6058 0.7754
-8 22 12 10.1361 -0.1597
-8 22 13 17.1723 0.5618
-8 24 1 6.0631 -0.1040
-8 24 2 -1.3603 -0.0167
-8 24 3 -3.7880 -0.0189
-8 24 4 6.5068 -0.1010
-8 24 5 -6.3829 0.1386
-8 24 6 5.1220 0.0950
-8 24 7 5.4419 0.3381
-8 24 8 -9.7549 0.2328
-8 24 9 -0.5124 1.0477
-8 24 10 -4.8465 0.4953
-8 24 11 -3.5123 0.9230
-8 26 1 4.0861 -0.3486
-8 26 2 -5.0061 -0.0325
-8 26 3 4.2025 -0.1025
-8 26 4 -1.5901 0.1536
-8 26 5 -10.4312 0.1643
-8 26 6 -3.0615 0.2077
-7 1 1 4.8724 1.8879
-7 1 2 -8.0497 0.3944
-7 1 3 22.8086 2.5228
-7 1 4 2.7916 0.6850
-7 1 5 23.5165 2.6551
-7 1 6 -12.5334 1.2416
-7 1 7 22.8783 2.1004
-7 1 8 -2.2557 1.7938
-7 1 9 -0.8925 0.9807
-7 1 10 -1.8309 2.1032
-7 1 11 -0.7150 -0.4024
-7 1 12 -14.9814 1.9224
-7 1 13 5.2571 -1.3588
-7 1 14 14.0730 1.1857
-7 1 15 0.5449 -1.7847
-7 1 16 -12.8739 -0.0866
-7 1 17 -0.9509 -1.5216
-7 1 18 -1.2308 -1.4047
-7 1 19 -0.2199 -0.9767
-7 1 20 3.0288 -2.0492
-7 1 21 7.6149 -0.4097
-7 1 22 11.9652 -3.1555
-7 1 23 3.1205 -0.0541
-7 3 1 10.6095 0.2632
-7 3 2 -31.1276 0.4896
-7 3 3 5.7739 -0.6072
-7 3 4 -1.4833 0.1153
-7 3 5 -8.0709 -0.5567
-7 3 6 5.1992 0.0130
-7 3 7 -7.8410 -0.3836
-7 3 8 5.9752 -0.2795
-7 3 9 1.2944 0.0893
-7 3 10 -13.6535 -0.6472
-7 3 11 -2.9434 0.4621
-7 3 12 -17.9232 -0.8370
-7 3 13 6.7897 0.7120
-7 3 14 20.7805 -0.5624
-7 3 15 2.6798 0.6353
-7 3 16 -11.8409 -0.3543
-7 3 17 3.4714 0.4282
-7 3 18 -9.6740 0.0683
-7 3 19 -3.9679 -0.2708
-7 3 20 -3.9418 0.6800
-7 3 21 7.8445 -0.6897
-7 3 22 -0.6597 0.6234
-7 3 23 3.3781 -0.3393
-7 5 1 -0.4479 -0.4970
-7 5 2 -28.3046 0.0738
-7 5 3 6.1178 -0.6123
-7 5 4 -3.3119 -0.4557
-7 5 5 25.1311 -0.9963
-7 5 6 -17.3706 -0.7694
-7 5 7 25.7603 -0.8124
-7 5 8 -7.6209 -0.7466
-7 5 9 11.8229 -0.4456
-7 5 10 -1.9055 -0.8451
-7 5 11 -7.8184 -0.0337
-7 5 12 -8.6719 -0.5681
-7 5 13 5.8775 0.2554
-7 5 14 1.3818 -0.1132
-7 5 15 1.9673 0.6360
-7 5 16 -1.1659 0.1114
-7 5 17 13.7299 0.7032
-7 5 18 7.4810 0.6198
-7 5 19 -6.4663 0.5305
-7 5 20 -1.6105 1.2770
-7 5 21 -7.1899 0.2654
-7 5 22 5.1062 -0.2683
-7 5 23 -16.1867 -0.1613
-7 7 1 1.2085 -0.3594
-7 7 2 -34.7843 -0.0517
-7 7 3 11.9637 -0.4056
-7 7 4 -0.6081 0.1023
-7 7 5 7.7955 -0.3643
-7 7 6 8.3520 -0.1273
-7 7 7 -3.8273 -0.2922
-7 7 8 6.8180 -0.3201
-7 7 9 4.9619 -0.1838
-7 7 10 -4.1965 -0.3097
-7 7 11 12.1023 0.0970
-7 7 12 -13.5655 -0.1967
-7 7 13 6.7568 0.1696
-7 7 14 5.9162 0.0130
-7 7 15 1.7501 0.1308
-7 7 16 -5.8537 -0.0247
-7 7 17 -5.6031 0.3407
-7 7 18 -3.9438 0.3192
-7 7 19 3.4216 0.3131
-7 7 20 -6.1039 1.0575
-7 7 21 13.0291 -0.4676
-7 7 22 0.8557 -1.0539
-7 7 23 12.4916 0.0737
-7 9 1 13.2206 0.2166
-7 9 2 -18.4895 0.0471
-7 9 3 5.4034 0.3033
-7 9 4 13.2966 0.0683
-7 9 5 6.0220 0.5720
-7 9 6 0.7771 0.2226
-7 9 7 9.2361 0.3633
-7 9 8 -8.3550 0.3766
-7 9 9 -3.1949 0.0805
-7 9 10 -8.5904 0.4549
-7 9 11 3.1162 -0.1382
-7 9 12 -6.7823 0.4680
-7 9 13 -12.4574 -0.2433
-7 9 14 9.0809 0.2288
-7 9 15 3.5521 -0.3638
-7 9 16 -7.6041 -0.1855
-7 9 17 -5.4863 -0.1639
-7 9 18 0.5733 -0.2713
-7 9 19 -4.6363 -0.2709
-7 9 20 1.7281 -0.0652
-7 9 21 -4.9339 -0.2190
-7 9 22 3.3173 -1.5062
-7 11 1 -5.9574 0.3738
-7 11 2 -31.2309 0.1557
-7 11 3 -12.5163 0.4943
-7 11 4 -1.5264 0.1319
-7 11 5 4.8254 0.6122
-7 11 6 0.2193 0.2999
-7 11 7 5.7413 0.3639
-7 11 8 -3.8802 0.3220
-7 11 9 -0.1958 0.1712
-7 11 10 -0.4519 0.4409
-7 11 11 23.7559 -0.0131
-7 11 12 -14.9360 0.3926
-7 11 13 0.4521 -0.2991
-7 11 14 -3.3475 0.1580
-7 11 15 13.0883 -0.4229
-7 11 16 9.6078 -0.1439
-7 11 17 -8.5334 -0.0616
-7 11 18 16.4477 0.1236
-7 11 19 -2.8063 -0.1608
-7 11 20 -4.0922 -0.9638
-7 11 21 12.8772 -0.5424
-7 11 22 -20.2667 -1.6622
-7 13 1 3.1951 0.1908
-7 13 2 -18.5149 0.0794
-7 13 3 16.3116 0.2049
-7 13 4 -13.7614 0.0170
-7 13 5 11.9366 0.0789
-7 13 6 -2.4625 0.0945
-7 13 7 4.0559 0.0304
-7 13 8 -3.4510 -0.0398
-7 13 9 -0.1004 -0.0545
-7 13 10 1.9737 0.0637
-7 13 11 9.0998 0.1432
-7 13 12 -15.1658 -0.0766
-7 13 13 -6.5043 0.2171
-7 13 14 -0.7512 -0.0620
-7 13 15 -2.6720 0.1853
-7 13 16 -4.1120 -0.0020
-7 13 17 -31.5316 0.1712
-7 13 18 2.0447 0.3189
-7 13 19 -6.7210 0.0223
-7 13 20 13.3911 -0.5008
-7 13 21 15.1454 -0.4611
-7 15 1 -0.0827 -0.1955
-7 15 2 -4.2688 0.0246
-7 15 3 7.2476 -0.1638
-7 15 4 -3.8797 0.0074
-7 15 5 6.7175 -0.3040
-7 15 6 8.7136 -0.1943
-7 15 7 8.7768 -0.2381
-7 15 8 -5.5456 -0.2309
-7 15 9 -14.1648 -0.0715
-7 15 10 2.8217 -0.1050
-7 15 11 12.1505 0.2422
-7 15 12 -14.0814 -0.0057
-7 15 13 -0.4823 0.3381
-7 15 14 -1.2023 -0.0939
-7 15 15 5.6836 0.2830
-7 15 16 -3.3802 0.2854
-7 15 17 2.2247 0.1311
-7 15 18 -10.6328 0.0805
-7 15 19 -1.2420 0.1369
-7 15 20 -8.4363 -0.8890
-7 17 1 6.6263 -0.2957
-7 17 2 0.3713 -0.0696
-7 17 3 4.1671 -0.2440
-7 17 4 8.1719 0.1173
-7 17 5 -17.9768 -0.2793
-7 17 6 7.4335 0.0066
-7 17 7 5.4130 -0.2399
-7 17 8 -3.6671 -0.1427
-7 17 9 9.3807 0.0910
-7 17 10 -10.8907 -0.0717
-7 17 11 9.4141 0.2569
-7 17 12 -10.5885 0.0169
-7 17 13 -18.1755 0.2920
-7 17 14 16.8193 -0.2069
-7 17 15 -8.9582 0.0818
-7 17 16 -3.6068 0.1986
-7 17 17 -18.7858 0.1372
-7 17 18 -2.8825 -0.0241
-7 17 19 -18.3996 -0.3409
-7 19 1 -2.0221 0.0913
-7 19 2 -5.9801 -0.0178
-7 19 3 -4.4842 0.1011
-7 19 4 -2.9839 0.0497
-7 19 5 4.1445 0.0670
-7 19 6 3.0074 -0.0297
-7 19 7 11.0088 0.1419
-7 19 8 -8.7718 -0.0339
-7 19 9 -4.4819 0.0607
-7 19 10 -4.9340 0.1896
-7 19 11 -4.5478 -0.1473
-7 19 12 -0.8206 -0.0194
-7 19 13 -16.0187 -0.0827
-7 19 14 10.7482 0.0355
-7 19 15 -2.6328 -0.3810
-7 19 16 -1.4787 0.1319
-7 19 17 4.3172 -0.2222
-7 19 18 10.0275 -1.1871
-7 21 1 5.9508 0.1478
-7 21 2 9.9096 0.0718
-7 21 3 4.3766 0.2685
-7 21 4 10.1038 0.0850
-7 21 5 -1.1142 0.2265
-7 21 6 4.1224 0.0202
-7 21 7 11.0926 -0.1049
-7 21 8 12.9478 0.0119
-7 21 9 -8.6055 0.0798
-7 21 10 1.9061 0.0170
-7 21 11 12.6698 -0.0874
-7 21 12 -20.6434 -0.3633
-7 21 13 7.9274 -0.6513
-7 21 14 -3.5023 0.1110
-7 21 15 0.6019 -0.2367
-7 21 16 1.9693 -0.0486
-7 23 1 -2.6726 0.0881
-7 23 2 -8.2111 0.0579
-7 23 3 -2.5797 -0.0006
-7 23 4 7.2003 -0.1940
-7 23 5 -2.9619 -0.0284
-7 23 6 -2.6018 0.0582
-7 23 7 12.7489 0.0714
-7 23 8 7.1752 -0.1101
-7 23 9 -8.5179 -0.2044
-7 23 10 -5.1840 -0.1389
-7 23 11 5.2871 -0.3923
-7 23 12 -4.1329 0.1953
-7 23 13 -15.1875 -0.2517
-7 23 14 6.7218 0.5884
-7 25 1 -6.4268 -0.0595
-7 25 2 1.2914 0.1636
-7 25 3 0.5132 -0.1090
-7 25 4 5.8600 0.0143
-7 25 5 -6.4577 -0.3069
-7 25 6 -8.3056 -0.1267
-7 25 7 8.4019 0.0266
-7 25 8 4.3305 0.2765
-7 25 9 -12.8250 0.0998
-7 25 10 -1.5864 0.3496
-7 25 11 2.0206 0.3107
-7 27 1 -9.8092 0.2812
-7 27 2 -8.7523 0.1924
-7 27 3 -5.6297 0.4828
-7 27 4 4.5282 0.3475
-7 27 5 4.5626 0.5301
-7 27 6 1.2811 0.5765
-7 27 7 17.8696 0.4986
-6 0 1 -2.5123 1.2694
-6 0 2 -11.8720 3.7599
-6 0 3 45.9388 1.8494
-6 0 4 -43.5724 5.1199
-6 0 5 5.8204 1.5239
-6 0 6 -23.0531 4.2398
-6 0 7 -1.1570 1.2542
-6 0 8 18.7441 2.4044
-6 0 9 -22.7765 1.0691
-6 0 10 13.0842 -0.3486
-6 0 11 0.2135 0.7531
-6 0 12 -6.0357 -2.6915
-6 0 13 17.6182 0.2660
-6 0 14 -6.7512 -4.2349
-6 0 15 14.8473 -0.5571
-6 0 16 2.2039 -4.5534
-6 0 17 13.5477 -1.6836
-6 0 18 -0.3725 -3.5102
-6 0 19 3.6122 -2.6876
-6 0 20 5.0825 -1.8440
-6 0 21 -3.8175 -3.0847
-6 0 22 -13.7532 -0.1260
-6 0 23 -4.1247 -2.3835
-6 0 24 -4.6207 0.8690
-6 2 1 -2.8416 0.7791
-6 2 2 9.3078 1.9584
-6 2 3 -18.8838 -0.5805
-6 2 4 -10.4554 1.3678
-6 2 5 -45.3638 -0.3912
-6 2 6 -8.2704 1.4779
-6 2 7 1.9466 -0.0131
-6 2 8 -13.8245 0.6944
-6 2 9 6.7712 0.2821
-6 2 10 -15.0659 -0.2625
-6 2 11 6.0853 0.6619
-6 2 12 5.8140 -1.1574
-6 2 13 7.6847 0.8426
-6 2 14 7.7470 -1.4881
-6 2 15 -2.6455 0.7172
-6 2 16 -0.3589 -1.4662
-6 2 17 -4.9326 -0.1532
-6 2 18 2.1986 -0.7165
-6 2 19 -3.4680 -0.7611
-6 2 20 -4.7811 -0.0727
-6 2 21 -2.3584 -0.9733
-6 2 22 -19.3717 0.1778
-6 2 23 1.5520 -1.7224
-6 2 24 6.1127 1.1249
-6 4 1 -16.8235 -0.1925
-6 4 2 22.9739 -0.5427
-6 4 3 19.7967 0.0479
-6 4 4 -23.8906 -1.1030
-6 4 5 -13.3721 -0.5148
-6 4 6 -12.4310 -0.9158
-6 4 7 -5.1945 -0.2210
-6 4 8 -3.0532 -0.4270
-6 4 9 -5.1143 -0.0706
-6 4 10 -3.0093 0.0728
-6 4 11 8.1234 -0.1717
-6 4 12 10.6580 0.5281
-6 4 13 4.9193 0.0338
-6 4 14 1.1038 0.8310
-6 4 15 -3.4085 0.3513
-6 4 16 -4.6074 0.8017
-6 4 17 4.3300 0.2504
-6 4 18 -14.4456 0.8262
-6 4 19 2.1124 0.4982
-6 4 20 1.5491 0.5341
-6 4 21 7.9719 0.9297
-6 4 22 -11.2450 -0.2029
-6 4 23 2.5878 -0.2354
-6 4 24 1.7313 0.2783
-6 6 1 4.8657 -0.4607
-6 6 2 -8.9452 -1.2396
-6 6 3 33.5418 -0.1067
-6 6 4 -31.8102 -1.2940
-6 6 5 -5.3842 -0.0041
-6 6 6 7.4340 -1.0323
-6 6 7 -1.3518 0.0936
-6 6 8 10.0596 -0.5517
-6 6 9 -6.6440 -0.1532
-6 6 10 3.9127 0.0950
-6 6 11 6.7481 -0.3312
-6 6 12 -2.1504 0.8122
-6 6 13 -2.3591 -0.3818
-6 6 14 -12.8381 0.9682
-6 6 15 -1.7356 -0.1140
-6 6 16 8.4951 1.0009
-6 6 17 11.5646 -0.0024
-6 6 18 0.3966 0.9376
-6 6 19 1.0804 0.6291
-6 6 20 8.6458 0.5232
-6 6 21 -13.3086 1.3494
-6 6 22 -17.7573 -0.2713
-6 6 23 9.2336 -0.0784
-6 6 24 -2.0886 0.1527
-6 8 1 7.7712 -0.1605
-6 8 2 3.9509 -0.3424
-6 8 3 -10.0199 -0.0936
-6 8 4 -0.3060 -0.1111
-6 8 5 -33.8382 -0.0583
-6 8 6 -15.1490 0.0615
-6 8 7 -3.5289 -0.0859
-6 8 8 -15.0709 0.1488
-6 8 9 11.3186 0.0374
-6 8 10 -10.0838 -0.0789
-6 8 11 18.3515 -0.0260
-6 8 12 -7.1904 -0.1159
-6 8 13 1.6491 0.1508
-6 8 14 -3.4394 -0.2894
-6 8 15 -4.0430 0.1158
-6 8 16 3.7247 -0.1619
-6 8 17 -11.6314 0.0320
-6 8 18 -6.4717 0.2144
-6 8 19 9.9273 -0.0732
-6 8 20 7.7315 -0.2054
-6 8 21 2.9344 0.5308
-6 8 22 -5.0102 -0.2872
-6 8 23 13.6486 -0.5072
-6 10 1 -2.0413 0.1584
-6 10 2 -1.6445 0.5591
-6 10 3 8.9202 0.1341
-6 10 4 -19.7900 0.6055
-6 10 5 20.7545 0.0162
-6 10 6 -10.5889 0.5286
-6 10 7 -8.5828 -0.0155
-6 10 8 9.1576 0.1493
-6 10 9 -23.1476 0.0145
-6 10 10 10.2776 -0.0066
-6 10 11 12.4402 0.0293
-6 10 12 11.5388 -0.2297
-6 10 13 7.5574 -0.0988
-6 10 14 -8.5103 -0.5101
-6 10 15 11.9650 -0.1420
-6 10 16 3.8834 -0.4908
-6 10 17 4.2272 -0.1218
-6 10 18 -14.2001 -0.2859
-6 10 19 1.2250 -0.1686
-6 10 20 -22.0205 -0.5259
-6 10 21 -4.5822 -0.3003
-6 10 22 -9.3100 -0.3045
-6 10 23 8.9125 -0.9174
-6 12 1 -1.9785 0.1928
-6 12 2 2.1148 0.4932
-6 12 3 11.0567 -0.0097
-6 12 4 -11.2351 0.6150
-6 12 5 -1.0102 -0.1629
-6 12 6 -1.1141 0.3923
-6 12 7 -9.3482 -0.1496
-6 12 8 9.2137 0.1350
-6 12 9 17.7835 -0.1158
-6 12 10 -11.0795 -0.1419
-6 12 11 4.2285 0.1449
-6 12 12 -5.9447 -0.3169
-6 12 13 -4.7528 0.1105
-6 12 14 -3.0293 -0.4224
-6 12 15 -7.4473 -0.0773
-6 12 16 25.6441 -0.4036
-6 12 17 -11.8804 -0.0503
-6 12 18 5.3550 0.1986
-6 12 19 5.9353 0.2015
-6 12 20 -11.3692 0.1514
-6 12 21 5.8540 -0.6375
-6 12 22 -9.2137 -0.0809
-6 14 1 1.8598 -0.1231
-6 14 2 2.1580 -0.1702
-6 14 3 -10.6273 -0.0033
-6 14 4 -2.5708 -0.1549
-6 14 5 -5.6665 0.1323
-6 14 6 -2.4797 -0.3728
-6 14 7 -22.7614 -0.0290
-6 14 8 -8.3493 -0.2321
-6 14 9 -0.3662 -0.0915
-6 14 10 -4.8063 -0.0295
-6 14 11 12.2115 0.0430
-6 14 12 13.4095 0.1916
-6 14 13 7.2507 -0.1189
-6 14 14 -15.7291 0.3122
-6 14 15 -5.6085 -0.0388
-6 14 16 4.6625 0.3350
-6 14 17 9.7491 0.2566
-6 14 18 1.0755 0.1879
-6 14 19 -5.3056 0.5151
-6 14 20 -6.2217 0.3845
-6 14 21 -3.5022 -0.9862
-6 16 1 3.9569 -0.2884
-6 16 2 -3.4063 -0.5398
-6 16 3 -5.5809 -0.0282
-6 16 4 -8.3990 -0.3878
-6 16 5 11.5668 0.0911
-6 16 6 -7.8308 -0.4071
-6 16 7 10.3049 -0.0526
-6 16 8 4.8504 -0.3078
-6 16 9 7.9885 0.0715
-6 16 10 -1.3733 0.1061
-6 16 11 10.0687 0.1629
-6 16 12 -1.6678 0.3924
-6 16 13 -1.0773 0.0064
-6 16 14 2.0550 0.4522
-6 16 15 7.8532 -0.0506
-6 16 16 15.6252 0.5314
-6 16 17 9.1590 0.4168
-6 16 18 12.8313 0.1811
-6 16 19 -11.3058 0.2124
-6 16 20 2.8786 -0.1515
-6 18 1 -6.0732 -0.0475
-6 18 2 10.6907 -0.1402
-6 18 3 -9.9260 -0.0388
-6 18 4 5.2951 -0.1158
-6 18 5 -7.2399 0.0709
-6 18 6 -14.9754 -0.0839
-6 18 7 5.5137 0.1576
-6 18 8 -1.3201 0.0761
-6 18 9 1.1724 0.0829
-6 18 10 18.3069 0.2407
-6 18 11 11.5191 0.0832
-6 18 12 3.8224 0.1262
-6 18 13 -3.8525 -0.0309
-6 18 14 -1.6778 0.0731
-6 18 15 0.0177 -0.0277
-6 18 16 -0.9006 0.1509
-6 18 17 -2.7819 0.5280
-6 18 18 4.7616 0.2837
-6 18 19 6.6332 0.0880
-6 20 1 -8.1867 -0.0070
-6 20 2 -12.4546 0.3196
-6 20 3 2.4258 0.1160
-6 20 4 7.7881 0.3368
-6 20 5 -7.5754 0.1036
-6 20 6 -1.6985 0.3286
-6 20 7 -12.9869 -0.0117
-6 20 8 -11.3727 0.2990
-6 20 9 -10.6289 0.0700
-6 20 10 3.4625 0.0479
-6 20 11 5.4865 0.0385
-6 20 12 0.7926 -0.1034
-6 20 13 -5.2384 -0.2188
-6 20 14 6.1027 -0.1197
-6 20 15 3.0534 0.2842
-6 20 16 -1.2677 -0.1597
-6 20 17 -3.0959 0.4727
-6 20 18 -1.5606 -0.8648
-6 22 1 -10.6612 0.0599
-6 22 2 0.2661 0.2725
-6 22 3 -13.6447 0.0001
-6 22 4 -6.6871 0.3022
-6 22 5 -9.4204 -0.1935
-6 22 6 -10.2100 0.1704
-6 22 7 6.1524 -0.0212
-6 22 8 0.9408 0.1194
-6 22 9 18.8930 -0.0928
-6 22 10 9.0053 0.0772
-6 22 11 3.9592 -0.0695
-6 22 12 10.3166 -0.0839
-6 22 13 0.9752 0.3902
-6 22 14 6.8305 -0.7283
-6 22 15 4.5995 0.4369
-6 22 16 9.0720 -0.5641
-6 24 1 3.2523 0.0299
-6 24 2 8.9364 -0.2285
-6 24 3 -2.6651 -0.0629
-6 24 4 6.2229 -0.3382
-6 24 5 -4.2295 -0.1335
-6 24 6 -17.6245 -0.3705
-6 24 7 -6.2602 -0.1436
-6 24 8 -7.5206 -0.0105
-6 24 9 -3.9080 -0.1247
-6 24 10 -0.2127 0.1292
-6 24 11 -17.7573 0.2374
-6 24 12 -3.7485 -0.4522
-6 24 13 8.7872 0.0620
-6 24 14 -15.5242 -0.2507
-6 26 1 4.8637 0.1228
-6 26 2 1.5925 -0.0921
-6 26 3 3.2807 0.1410
-6 26 4 8.3436 -0.2270
-6 26 5 4.4947 -0.0983
-6 26 6 -7.5456 -0.3080
-6 26 7 5.9546 -0.0848
-6 26 8 -1.4282 0.0096
-6 26 9 4.1455 0.1645
-6 26 10 -6.0913 -0.1979
-6 26 11 0.7332 0.2584
-6 26 12 -6.3424 -0.2541
-6 28 1 5.2062 0.4942
-6 28 2 1.6781 0.8513
-6 28 3 7.9576 0.5551
-6 28 4 -1.4009 0.8105
-6 28 5 -9.8659 0.4274
-6 28 6 -11.5688 0.5611
-6 28 7 1.4949 0.2563
-6 28 8 10.0967 0.3538
-5 1 1 12.6733 3.0667
-5 1 2 12.2797 1.3736
-5 1 3 20.0837 2.9065
-5 1 4 6.2770 -0.1909
-5 1 5 9.7221 2.7461
-5 1 6 38.1646 -1.0685
-5 1 7 -9.9446 1.7448
-5 1 8 -8.7229 -1.2458
-5 1 9 -8.7533 -0.1375
-5 1 10 12.7141 -0.8755
-5 1 11 -4.2038 -2.0743
-5 1 12 -24.8398 -0.3281
-5 1 13 -3.0036 -3.2784
-5 1 14 -16.1569 -0.0083
-5 1 15 -8.7654 -3.6727
-5 1 16 0.6255 -0.0320
-5 1 17 0.7159 -3.0748
-5 1 18 0.2657 -0.4303
-5 1 19 -8.2543 -1.5234
-5 1 20 -1.7720 -0.7168
-5 1 21 7.4627 0.1382
-5 1 22 0.5152 -0.8546
-5 1 23 12.8235 1.2629
-5 1 24 0.2040 -0.8194
-5 1 25 3.7502 1.8345
-5 3 1 3.6468 0.4661
-5 3 2 14.5374 -0.1594
-5 3 3 10.7618 -0.5733
-5 3 4 5.0593 0.7372
-5 3 5 31.1023 -0.6748
-5 3 6 25.2845 0.8938
-5 3 7 39.5522 -0.5782
-5 3 8 -11.8111 0.5844
-5 3 9 17.1605 -0.1841
-5 3 10 24.1657 0.0187
-5 3 11 -9.8409 0.5502
-5 3 12 -1.0067 -0.5426
-5 3 13 -6.7534 1.0616
-5 3 14 -5.8885 -0.7813
-5 3 15 -9.2946 0.9957
-5 3 16 -3.0739 -0.5364
-5 3 17 5.0064 0.7784
-5 3 18 1.7046 -0.5773
-5 3 19 12.9423 0.3647
-5 3 20 10.4065 0.0715
-5 3 21 8.1205 -0.0733
-5 3 22 6.5713 0.9593
-5 3 23 5.3811 -0.8626
-5 3 24 -14.3914 -0.3613
-5 3 25 -4.7187 0.7062
-5 5 1 36.0005 -0.6249
-5 5 2 -9.0146 -0.2551
-5 5 3 15.7139 -0.9241
-5 5 4 7.0430 -0.0528
-5 5 5 -3.8597 -0.7062
-5 5 6 36.1148 0.1665
-5 5 7 -23.9039 -0.1760
-5 5 8 -14.5316 0.3619
-5 5 9 -19.0815 0.1782
-5 5 10 -1.8491 0.3401
-5 5 11 -6.5749 0.6884
-5 5 12 -29.5917 0.3027
-5 5 13 1.2258 1.0748
-5 5 14 -6.8706 0.1603
-5 5 15 14.4363 0.9921
-5 5 16 10.2464 0.2503
-5 5 17 15.7326 0.7764
-5 5 18 -13.2350 0.2458
-5 5 19 -0.7357 0.7452
-5 5 20 -12.0086 0.2201
-5 5 21 -1.8419 -0.0048
-5 5 22 -10.0384 0.5673
-5 5 23 -2.2164 -0.5379
-5 5 24 3.5327 -0.1087
-5 7 1 17.8588 -0.3622
-5 7 2 3.3088 -0.1269
-5 7 3 -6.3821 -0.3459
-5 7 4 2.6156 0.1094
-5 7 5 10.3923 -0.3362
-5 7 6 14.3184 0.1007
-5 7 7 7.1607 -0.2618
-5 7 8 -14.5271 0.1390
-5 7 9 3.6782 0.0780
-5 7 10 -1.8268 0.1025
-5 7 11 -12.2636 0.3074
-5 7 12 -6.8892 0.0260
-5 7 13 -1.6197 0.4530
-5 7 14 14.7969 0.0681
-5 7 15 -16.3140 0.1454
-5 7 16 6.3370 0.0980
-5 7 17 -6.8428 0.1402
-5 7 18 2.7088 0.0409
-5 7 19 9.4668 0.4340
-5 7 20 -0.0678 0.0482
-5 7 21 20.8788 -0.2870
-5 7 22 -11.0976 0.4540
-5 7 23 6.5424 -0.4326
-5 7 24 -3.3714 -0.0202
-5 9 1 -6.8384 0.1346
-5 9 2 23.9232 0.1039
-5 9 3 -2.2817 0.4035
-5 9 4 2.1898 -0.0579
-5 9 5 26.6717 0.5166
-5 9 6 20.5767 -0.2448
-5 9 7 -7.2910 0.3536
-5 9 8 5.9042 -0.2547
-5 9 9 3.8684 -0.1166
-5 9 10 13.4107 -0.0997
-5 9 11 -1.9093 -0.4899
-5 9 12 -3.6264 -0.0301
-5 9 13 7.1016 -0.5982
-5 9 14 -6.7653 0.0606
-5 9 15 6.4396 -0.6665
-5 9 16 3.7197 0.0526
-5 9 17 5.3542 -0.4908
-5 9 18 -2.1608 -0.0238
-5 9 19 1.7089 0.0521
-5 9 20 0.8503 -0.2181
-5 9 21 15.9935 -0.3069
-5 9 22 0.9511 -0.5271
-5 9 23 -4.8340 0.8040
-5 9 24 -2.6800 -0.4058
-5 11 1 42.6486 0.4450
-5 11 2 5.4460 0.2171
-5 11 3 9.6469 0.4522
-5 11 4 -0.9700 0.0357
-5 11 5 -3.8719 0.5254
-5 11 6 14.6540 -0.1294
-5 11 7 -24.0450 0.2417
-5 11 8 -5.2456 -0.2453
-5 11 9 -10.1815 -0.1105
-5 11 10 -4.2905 -0.2133
-5 11 11 -11.5071 -0.4075
-5 11 12 -7.9067 -0.1066
-5 11 13 10.2612 -0.7121
-5 11 14 -1.3619 -0.0026
-5 11 15 0.0073 -0.6669
-5 11 16 -0.9535 0.0099
-5 11 17 3.8477 -0.4781
-5 11 18 -4.2063 -0.0355
-5 11 19 14.3234 0.0072
-5 11 20 -4.2430 -0.0704
-5 11 21 -0.6246 -0.0883
-5 11 22 -6.9179 -0.1422
-5 11 23 -2.6388 0.8103
-5 13 1 0.5017 0.1130
-5 13 2 -2.3622 0.0729
-5 13 3 -3.2086 0.0236
-5 13 4 12.3590 -0.0032
-5 13 5 8.1633 -0.0574
-5 13 6 -2.9356 0.0564
-5 13 7 16.0861 -0.1799
-5 13 8 -14.1597 0.0436
-5 13 9 11.3119 -0.0691
-5 13 10 1.7868 -0.0512
-5 13 11 -11.8578 0.0123
-5 13 12 -14.7765 -0.0379
-5 13 13 -1.6854 0.1037
-5 13 14 6.5440 -0.3161
-5 13 15 -11.3622 0.0914
-5 13 16 1.2996 -0.2536
-5 13 17 5.3295 0.1608
-5 13 18 -9.3276 0.1036
-5 13 19 10.6156 0.0360
-5 13 20 5.5471 0.2983
-5 13 21 7.5156 0.2462
-5 13 22 7.7756 0.0918
-5 15 1 13.2799 -0.4081
-5 15 2 11.7339 -0.2019
-5 15 3 -0.2497 -0.3476
-5 15 4 -1.8452 -0.0447
-5 15 5 0.7650 -0.3895
-5 15 6 6.7638 0.0379
-5 15 7 -17.3375 -0.2700
-5 15 8 -8.7187 -0.0574
-5 15 9 -20.2485 0.1259
-5 15 10 9.2595 0.1351
-5 15 11 -6.9284 0.2402
-5 15 12 1.2529 0.0887
-5 15 13 11.7701 0.2429
-5 15 14 1.2391 -0.0782
-5 15 15 -7.8321 0.3462
-5 15 16 -2.0066 0.0689
-5 15 17 4.9013 0.4369
-5 15 18 1.2301 0.3772
-5 15 19 -0.1092 -0.0005
-5 15 20 1.7302 0.0058
-5 15 21 11.8595 -0.0454
-5 15 22 0.1442 -0.4158
-5 17 1 5.4557 -0.2417
-5 17 2 20.1784 -0.1142
-5 17 3 8.6486 -0.2235
-5 17 4 1.9512 0.0187
-5 17 5 12.9592 -0.3276
-5 17 6 14.0222 0.0610
-5 17 7 9.6462 -0.2467
-5 17 8 0.6536 0.1069
-5 17 9 7.0620 -0.0109
-5 17 10 -14.1806 0.1017
-5 17 11 -7.7671 0.1856
-5 17 12 -11.8556 0.0340
-5 17 13 0.2901 0.1759
-5 17 14 0.7824 -0.1854
-5 17 15 -11.3117 0.2667
-5 17 16 1.1893 -0.1687
-5 17 17 2.8865 0.2547
-5 17 18 -10.8605 0.3606
-5 17 19 1.6179 -0.0881
-5 17 20 -1.2219 -0.0063
-5 17 21 12.1982 0.1600
-5 19 1 -0.6015 0.1036
-5 19 2 8.5449 0.0889
-5 19 3 1.8970 0.2789
-5 19 4 0.6434 -0.0069
-5 19 5 4.9589 0.2909
-5 19 6 -0.0374 -0.0823
-5 19 7 -1.9422 0.0556
-5 19 8 -5.5155 -0.0332
-5 19 9 -9.7650 0.1385
-5 19 10 -4.5653 0.0041
-5 19 11 -1.2095 -0.1417
-5 19 12 13.6211 -0.0402
-5 19 13 2.8695 -0.4134
-5 19 14 -2.1133 -0.2113
-5 19 15 -7.1114 -0.1503
-5 19 16 3.7552 -0.0481
-5 19 17 11.6354 0.0684
-5 19 18 0.0059 0.2333
-5 19 19 -7.3901 -0.0078
-5 21 1 7.4069 0.2479
-5 21 2 10.7829 0.1583
-5 21 3 2.3103 0.4138
-5 21 4 12.6563 0.0623
-5 21 5 1.1501 0.3317
-5 21 6 2.3833 -0.0238
-5 21 7 7.6745 0.0953
-5 21 8 3.5661 -0.0462
-5 21 9 3.6019 0.0237
-5 21 10 1.3932 -0.1007
-5 21 11 -1.0574 -0.1437
-5 21 12 -8.4050 -0.3206
-5 21 13 -3.3776 -0.1457
-5 21 14 -18.0611 -0.1256
-5 21 15 -1.9036 -0.1018
-5 21 16 -6.3663 0.4818
-5 21 17 5.0739 0.1321
-5 21 18 1.4118 -0.1836
-5 23 1 -9.3074 0.1226
-5 23 2 -3.9238 0.0357
-5 23 3 9.9687 -0.0030
-5 23 4 4.6180 -0.1528
-5 23 5 20.2699 -0.1051
-5 23 6 10.1321 -0.1739
-5 23 7 4.9389 -0.0350
-5 23 8 6.6242 -0.0331
-5 23 9 -15.3786 -0.0230
-5 23 10 11.4445 -0.0570
-5 23 11 -6.1760 0.1718
-5 23 12 1.0602 0.0349
-5 23 13 3.3036 0.0080
-5 23 14 -0.5760 0.3845
-5 23 15 -2.4608 0.0787
-5 23 16 -11.7084 0.1600
-5 25 1 -5.8115 -0.3861
-5 25 2 8.4018 -0.1861
-5 25 3 -0.9828 -0.5054
-5 25 4 -8.8278 -0.1419
-5 25 5 4.5490 -0.4554
-5 25 6 -15.4749 -0.1742
-5 25 7 -7.3209 -0.1579
-5 25 8 -7.8485 -0.0136
-5 25 9 2.5281 0.1267
-5 25 10 14.3264 0.3180
-5 25 11 10.6675 -0.1574
-5 25 12 -1.3649 0.2154
-5 25 13 9.5785 -0.0211
-5 25 14 11.4299 0.0704
-5 27 1 -7.2800 -0.1079
-5 27 2 -11.7983 0.0236
-5 27 3 -3.1106 -0.2912
-5 27 4 9.9133 0.0503
-5 27 5 5.8023 -0.2376
-5 27 6 12.5189 0.2172
-5 27 7 11.1609 0.0802
-5 27 8 -12.8328 -0.0974
-5 27 9 8.8929 -0.1303
-5 27 10 -1.3901 -0.1498
-5 27 11 -0.9344 -0.3318
-5 27 12 -1.4267 -0.3135
-5 29 1 10.0126 0.9764
-5 29 2 -6.0529 0.5528
-5 29 3 10.8257 0.9638
-5 29 4 -0.2074 0.2709
-5 29 5 -2.6572 0.8220
-5 29 6 6.3003 -0.0060
-5 29 7 9.3953 0.3020
-5 29 8 -3.2236 -0.0731
-4 0 1 40.6356 1.7176
-4 0 2 -43.7929 2.4786
-4 0 3 39.3082 -0.3933
-4 0 4 7.5194 2.4455
-4 0 5 -33.5767 -2.7940
-4 0 6 14.0489 1.3475
-4 0 7 -23.4769 -4.3113
-4 0 8 -7.4604 -0.4506
-4 0 9 -0.7534 -4.6039
-4 0 10 12.5241 -2.6270
-4 0 11 24.0767 -3.6297
-4 0 12 6.1467 -4.4043
-4 0 13 17.4577 -1.9792
-4 0 14 6.6650 -4.9965
-4 0 15 6.7418 -0.4811
-4 0 16 8.1193 -4.2493
-4 0 17 -30.5584 0.4090
-4 0 18 -4.9634 -2.3781
-4 0 19 -8.8475 0.8111
-4 0 20 -1.6489 -0.1691
-4 0 21 -7.1165 0.7893
-4 0 22 4.9145 1.8554
-4 0 23 25.3975 0.7671
-4 0 24 -7.1500 2.6115
-4 0 25 20.5707 0.7001
-4 2 1 -8.7180 1.6175
-4 2 2 -14.3335 0.9815
-4 2 3 -30.4435 -0.8794
-4 2 4 -16.2660 1.0053
-4 2 5 -36.4403 -1.5142
-4 2 6 -16.7788 1.1408
-4 2 7 5.1398 -1.7679
-4 2 8 -2.8153 0.5504
-4 2 9 -1.8357 -1.4327
-4 2 10 12.9402 -0.4422
-4 2 11 -3.2829 -0.6956
-4 2 12 0.6386 -1.1157
-4 2 13 -1.1103 0.1145
-4 2 14 0.3903 -1.5882
-4 2 15 9.8558 0.5493
-4 2 16 3.9354 -1.6983
-4 2 17 11.7346 0.8132
-4 2 18 -4.2106 -1.0210
-4 2 19 13.9770 0.4751
-4 2 20 -5.3889 -0.1208
-4 2 21 -8.7904 0.1009
-4 2 22 7.2915 0.2957
-4 2 23 -8.2586 -0.2759
-4 2 24 -5.3913 1.3472
-4 2 25 -17.6714 -0.0653
-4 4 1 7.6218 -0.4470
-4 4 2 -44.0707 0.0548
-4 4 3 11.0735 0.3237
-4 4 4 -11.4332 -0.7374
-4 4 5 5.1135 0.3911
-4 4 6 0.3801 -0.3831
-4 4 7 -11.2039 0.7138
-4 4 8 6.6289 0.1090
-4 4 9 -4.3772 0.8323
-4 4 10 27.6638 0.5016
-4 4 11 14.4241 0.6706
-4 4 12 16.2151 0.9187
-4 4 13 12.4802 0.3040
-4 4 14 7.3118 0.9258
-4 4 15 18.5955 -0.0161
-4 4 16 -0.5510 0.6372
-4 4 17 -5.6375 0.0730
-4 4 18 -5.3792 0.4048
-4 4 19 -21.3851 -0.2421
-4 4 20 -7.8991 0.1745
-4 4 21 -3.7151 -0.3103
-4 4 22 -9.6542 -0.5813
-4 4 23 6.4248 0.2761
-4 4 24 3.7550 -0.1378
-4 4 25 6.0222 0.0527
-4 6 1 -3.3752 -0.7782
-4 6 2 -18.1981 -0.5766
-4 6 3 -32.5290 0.2899
-4 6 4 9.1554 -0.7534
-4 6 5 -23.0418 0.9219
-4 6 6 5.6525 -0.5939
-4 6 7 1.6770 1.1900
-4 6 8 -10.2028 -0.4314
-4 6 9 19.2359 1.0061
-4 6 10 0.2582 0.2699
-4 6 11 7.9869 0.6492
-4 6 12 5.8333 0.9093
-4 6 13 -6.7832 -0.0101
-4 6 14 4.1598 1.2234
-4 6 15 -9.4368 -0.4052
-4 6 16 -7.5515 0.9457
-4 6 17 -4.9325 -0.3399
-4 6 18 3.1097 0.6963
-4 6 19 -5.4169 -0.3109
-4 6 20 -6.6001 0.2057
-4 6 21 13.5039 -0.4180
-4 6 22 12.5237 -0.7345
-4 6 23 2.5733 0.2241
-4 6 24 6.9000 0.1116
-4 6 25 -11.8862 0.2648
-4 8 1 -4.4605 -0.1262
-4 8 2 -1.7827 -0.1771
-4 8 3 10.3215 0.1516
-4 8 4 8.0760 -0.0026
-4 8 5 7.6025 0.0229
-4 8 6 3.7469 0.0491
-4 8 7 9.1118 -0.2217
-4 8 8 7.4261 0.1275
-4 8 9 1.6771 -0.2184
-4 8 10 16.5781 -0.0204
-4 8 11 -14.5673 0.0217
-4 8 12 -2.1426 -0.1344
-4 8 13 -4.8192 0.0699
-4 8 14 -1.3946 -0.2117
-4 8 15 -4.2785 0.1298
-4 8 16 -4.2621 -0.3003
-4 8 17 8.3498 0.2130
-4 8 18 -6.4070 -0.1689
-4 8 19 2.9902 -0.0754
-4 8 20 -34.0855 -0.0113
-4 8 21 12.1750 -0.0228
-4 8 22 -4.5883 -0.4542
-4 8 23 -9.1931 0.1426
-4 8 24 -1.5452 0.7771
-4 10 1 -16.3923 0.3013
-4 10 2 -42.5829 0.3318
-4 10 3 -6.9499 -0.1405
-4 10 4 -3.4355 0.4806
-4 10 5 -6.2493 -0.2895
-4 10 6 19.9529 0.2064
-4 10 7 -0.4525 -0.5743
-4 10 8 -1.8025 -0.1407
-4 10 9 14.0007 -0.4455
-4 10 10 7.7659 -0.1929
-4 10 11 23.2317 -0.3644
-4 10 12 4.4848 -0.4111
-4 10 13 13.6367 -0.2729
-4 10 14 8.6556 -0.5340
-4 10 15 -17.3406 -0.1113
-4 10 16 -7.1679 -0.4570
-4 10 17 -6.8813 0.0612
-4 10 18 -6.3341 -0.4206
-4 10 19 -9.4491 0.0342
-4 10 20 -10.6177 -0.0597
-4 10 21 5.8763 -0.0275
-4 10 22 8.3634 0.0845
-4 10 23 -1.4883 0.6159
-4 10 24 -8.0537 1.0929
-4 12 1 -14.9761 0.3042
-4 12 2 18.5659 0.1783
-4 12 3 -19.7665 -0.1118
-4 12 4 6.6512 0.2847
-4 12 5 -16.1838 -0.3824
-4 12 6 4.8157 0.3828
-4 12 7 6.9291 -0.3848
-4 12 8 14.6165 0.2124
-4 12 9 -3.8392 -0.3760
-4 12 10 11.5344 0.0133
-4 12 11 -22.5502 -0.1613
-4 12 12 -6.6262 -0.2519
-4 12 13 -15.1292 0.1088
-4 12 14 4.5304 -0.5187
-4 12 15 -8.0695 -0.0132
-4 12 16 -8.5751 -0.2650
-4 12 17 18.5275 0.0683
-4 12 18 7.0442 -0.1754
-4 12 19 2.3436 0.0202
-4 12 20 -4.3632 -0.0903
-4 12 21 8.4676 -0.1763
-4 12 22 -0.4358 0.3630
-4 12 23 6.0385 0.2188
-4 14 1 -8.0180 -0.1972
-4 14 2 -24.8436 -0.0695
-4 14 3 2.8141 0.0573
-4 14 4 -6.1895 -0.2159
-4 14 5 18.1476 0.0730
-4 14 6 -0.4366 -0.2510
-4 14 7 3.1445 0.3116
-4 14 8 -1.1025 0.0030
-4 14 9 -4.2766 0.3454
-4 14 10 14.0092 0.2597
-4 14 11 14.1115 0.2544
-4 14 12 5.5677 0.1255
-4 14 13 5.0946 -0.0068
-4 14 14 -1.0165 0.2316
-4 14 15 -4.9311 -0.1436
-4 14 16 -19.9507 0.2923
-4 14 17 6.4159 -0.0505
-4 14 18 -17.6431 0.1780
-4 14 19 -14.5418 -0.0229
-4 14 20 -14.2218 -0.2127
-4 14 21 -0.4797 -0.1088
-4 14 22 -3.0548 0.6855
-4 16 1 -2.1816 -0.1840
-4 16 2 -7.6845 -0.2420
-4 16 3 -16.4688 0.0423
-4 16 4 -4.0262 -0.2703
-4 16 5 -0.1145 0.2046
-4 16 6 1.9529 -0.3132
-4 16 7 7.5017 0.4090
-4 16 8 1.9067 -0.0476
-4 16 9 9.0472 0.4163
-4 16 10 13.5599 0.1645
-4 16 11 7.5940 0.2820
-4 16 12 -0.7888 0.1410
-4 16 13 10.8350 0.0560
-4 16 14 8.3651 0.2420
-4 16 15 -6.5371 -0.0886
-4 16 16 8.4802 0.4684
-4 16 17 10.2611 -0.2474
-4 16 18 3.9895 0.2370
-4 16 19 -6.4332 -0.1311
-4 16 20 -0.6605 -0.1548
-4 16 21 -7.6129 0.0320
-4 16 22 0.8966 0.5309
-4 18 1 1.2583 0.0575
-4 18 2 -8.3459 0.0066
-4 18 3 -5.4261 0.0122
-4 18 4 -1.6301 -0.0642
-4 18 5 -7.4825 0.0910
-4 18 6 10.0053 -0.0236
-4 18 7 -10.6545 0.0365
-4 18 8 -7.4331 0.0043
-4 18 9 -8.8559 0.0596
-4 18 10 -0.1266 -0.0595
-4 18 11 -3.9682 -0.1009
-4 18 12 -1.1420 -0.1221
-4 18 13 7.0680 -0.0675
-4 18 14 3.0084 -0.0803
-4 18 15 -5.7507 -0.1512
-4 18 16 0.5590 0.2020
-4 18 17 24.0451 -0.1423
-4 18 18 -11.8071 -0.4041
-4 18 19 7.9946 0.1545
-4 18 20 -1.4326 -0.3976
-4 18 21 3.8503 0.2436
-4 20 1 2.6485 0.2826
-4 20 2 -9.9908 0.3400
-4 20 3 3.1701 0.0258
-4 20 4 -16.3113 0.2827
-4 20 5 7.4908 -0.2006
-4 20 6 -6.5204 0.1585
-4 20 7 0.8282 -0.1745
-4 20 8 -9.6437 -0.0094
-4 20 9 -4.8401 -0.2679
-4 20 10 5.4948 -0.1420
-4 20 11 -3.9212 -0.2750
-4 20 12 10.1408 -0.3167
-4 20 13 10.4543 -0.2686
-4 20 14 -3.1041 -0.1628
-4 20 15 1.8830 -0.2741
-4 20 16 -2.6957 -0.3181
-4 20 17 -0.1107 0.1947
-4 20 18 -9.9066 -0.3918
-4 20 19 -13.4714 0.2580
-4 22 1 10.3973 0.1549
-4 22 2 -0.0374 0.2038
-4 22 3 -10.1596 0.0414
-4 22 4 -2.9660 0.3068
-4 22 5 -12.4817 -0.1901
-4 22 6 19.4730 0.1880
-4 22 7 -1.5629 -0.2170
-4 22 8 7.9548 0.0096
-4 22 9 -6.7486 -0.3407
-4 22 10 -10.2718 -0.0170
-4 22 11 -7.9544 -0.0897
-4 22 12 -10.3488 -0.0744
-4 22 13 0.3932 -0.2038
-4 22 14 -10.7240 -0.1650
-4 22 15 1.6286 0.4887
-4 22 16 8.7677 -0.6653
-4 22 17 -4.0373 0.4832
-4 22 18 5.0808 -0.3715
-4 24 1 -0.6772 -0.1391
-4 24 2 -10.2901 -0.1831
-4 24 3 -2.6964 -0.0142
-4 24 4 -17.6217 -0.2380
-4 24 5 -0.6119 0.0171
-4 24 6 0.0966 -0.1791
-4 24 7 1.1496 0.2158
-4 24 8 4.9524 -0.0770
-4 24 9 -2.2346 0.1387
-4 24 10 1.1379 0.0833
-4 24 11 0.1201 0.0843
-4 24 12 5.1573 0.5440
-4 24 13 9.3941 0.3298
-4 24 14 -2.9520 -0.3690
-4 24 15 16.3111 0.3171
-4 24 16 6.5971 -0.5929
-4 26 1 7.2092 -0.3860
-4 26 2 -3.1400 -0.3952
-4 26 3 3.4755 -0.0009
-4 26 4 -13.2453 -0.3071
-4 26 5 0.1601 0.0004
-4 26 6 -10.9701 -0.3363
-4 26 7 1.8042 0.1464
-4 26 8 8.5028 0.1232
-4 26 9 1.3664 0.6821
-4 26 10 7.4976 0.0211
-4 26 11 -7.0267 0.0962
-4 26 12 -0.8435 -0.2872
-4 26 13 -8.0100 -0.1244
-4 26 14 -8.6891 -0.9045
-4 28 1 4.4088 -0.1906
-4 28 2 6.0313 -0.1612
-4 28 3 -2.2386 0.0108
-4 28 4 1.8529 -0.1210
-4 28 5 0.1603 0.3691
-4 28 6 -16.2411 0.1539
-4 28 7 3.0244 -0.3019
-4 28 8 -2.0594 -0.0699
-4 28 9 -3.9921 -0.3872
-4 28 10 5.5816 -0.4511
-4 28 11 -0.0254 -0.4853
-4 30 1 2.3656 0.5197
-4 30 2 2.0032 0.7296
-4 30 3 5.3329 0.1341
-4 30 4 4.0185 0.6607
-4 30 5 -1.4789 -0.3125
-4 30 6 -7.6561 0.2940
-4 30 7 -3.1739 -0.5730
-3 1 1 9.1918 -0.7342
-3 1 2 -5.6112 0.0845
-3 1 3 -51.3940 -0.3243
-3 1 4 11.6713 -2.4648
-3 1 5 -5.1889 0.4343
-3 1 6 -1.1972 -3.9255
-3 1 7 -22.5038 0.3657
-3 1 8 34.4488 -4.2448
-3 1 9 -9.6239 -0.3077
-3 1 10 -22.6756 -3.3578
-3 1 11 -6.9947 -1.2631
-3 1 12 6.0487 -1.5895
-3 1 13 -22.0569 -1.8766
-3 1 14 -5.1808 0.2130
-3 1 15 13.0602 -2.0499
-3 1 16 -7.4028 1.5016
-3 1 17 4.3787 -1.3559
-3 1 18 7.9989 2.0757
-3 1 19 7.7364 -0.2046
-3 1 20 10.4270 1.7799
-3 1 21 -0.9391 0.8469
-3 1 22 5.3279 1.1258
-3 1 23 1.1520 1.6126
-3 1 24 4.3933 0.2667
-3 1 25 -3.5974 2.0921
-3 3 1 21.6024 0.0298
-3 3 2 29.5762 -0.7222
-3 3 3 -18.8224 -0.0465
-3 3 4 27.3221 0.8676
-3 3 5 37.7516 -0.7159
-3 3 6 -7.3678 1.3783
-3 3 7 4.4775 -0.9452
-3 3 8 27.6846 1.2968
-3 3 9 0.7187 -0.7300
-3 3 10 -25.2670 0.7892
-3 3 11 -7.5601 -0.1967
-3 3 12 6.3992 0.1958
-3 3 13 -19.9264 0.5293
-3 3 14 3.9822 -0.4767
-3 3 15 2.9056 0.8246
-3 3 16 -1.5662 -0.7724
-3 3 17 -3.1145 0.8775
-3 3 18 9.8164 -0.6155
-3 3 19 -16.8079 0.6071
-3 3 20 0.8309 -0.5234
-3 3 21 -14.8678 0.0239
-3 3 22 1.3206 -0.2714
-3 3 23 -14.0424 -0.5987
-3 3 24 -0.8287 0.0180
-3 3 25 5.3869 0.9703
-3 5 1 20.7374 0.1527
-3 5 2 -5.8470 -0.0586
-3 5 3 -22.0529 -0.3061
-3 5 4 52.2302 0.7387
-3 5 5 -17.6037 0.1235
-3 5 6 -2.5943 1.2612
-3 5 7 -34.5082 0.4159
-3 5 8 28.3683 1.3358
-3 5 9 -14.1459 0.3675
-3 5 10 -14.8699 1.1989
-3 5 11 1.2143 0.5761
-3 5 12 -4.9036 0.7184
-3 5 13 2.6492 0.6274
-3 5 14 -7.2997 0.0374
-3 5 15 -0.0132 0.5820
-3 5 16 -3.9267 -0.3261
-3 5 17 10.3596 0.3818
-3 5 18 10.3234 -0.3343
-3 5 19 10.3490 -0.0058
-3 5 20 -6.2838 -0.7462
-3 5 21 11.1709 -0.4099
-3 5 22 0.9353 -0.4535
-3 5 23 2.3768 -0.6267
-3 5 24 16.7353 0.2749
-3 5 25 -1.4297 0.5400
-3 7 1 -8.1346 0.3285
-3 7 2 13.0133 -0.0556
-3 7 3 -8.0242 0.1854
-3 7 4 -5.6484 0.0896
-3 7 5 21.2600 -0.0469
-3 7 6 -79.6585 0.3746
-3 7 7 5.0014 0.0612
-3 7 8 -9.1667 0.5362
-3 7 9 -12.5277 0.2445
-3 7 10 -3.7578 0.3513
-3 7 11 -3.8606 0.3625
-3 7 12 25.6635 0.1909
-3 7 13 -15.2738 0.2048
-3 7 14 20.8324 -0.0299
-3 7 15 -25.2222 0.2206
-3 7 16 15.2607 -0.0956
-3 7 17 12.5651 0.1228
-3 7 18 2.7331 -0.0425
-3 7 19 14.9506 0.0026
-3 7 20 -7.3853 -0.2687
-3 7 21 1.6290 -0.2573
-3 7 22 2.8688 -0.0317
-3 7 23 3.1826 -0.1870
-3 7 24 11.6444 0.6266
-3 7 25 -18.2808 0.6145
-3 9 1 -7.0749 -0.2384
-3 9 2 6.4207 0.0955
-3 9 3 -26.0168 0.0739
-3 9 4 37.6014 -0.2064
-3 9 5 -27.8308 0.1939
-3 9 6 -3.4082 -0.7771
-3 9 7 -26.6609 0.1599
-3 9 8 3.8353 -0.8889
-3 9 9 -21.6250 -0.0299
-3 9 10 -9.1866 -0.4241
-3 9 11 9.2707 -0.1729
-3 9 12 6.8132 -0.1245
-3 9 13 -2.7708 -0.3493
-3 9 14 -5.2088 0.0032
-3 9 15 11.2032 -0.2986
-3 9 16 -3.4174 0.2938
-3 9 17 8.7359 -0.2748
-3 9 18 -4.0100 0.4636
-3 9 19 3.2385 -0.2019
-3 9 20 -6.3724 0.0903
-3 9 21 -19.2290 0.0864
-3 9 22 -6.1077 0.0312
-3 9 23 3.3201 0.2026
-3 9 24 13.1057 0.3975
-3 11 1 -14.0256 -0.1090
-3 11 2 0.6698 -0.0129
-3 11 3 0.4357 0.0489
-3 11 4 7.2449 -0.2736
-3 11 5 -4.3039 0.0615
-3 11 6 -19.6360 -0.6527
-3 11 7 11.9861 -0.0666
-3 11 8 -9.4280 -0.6360
-3 11 9 -9.5806 -0.0066
-3 11 10 -13.0879 -0.5632
-3 11 11 0.9625 -0.0928
-3 11 12 9.0974 -0.3130
-3 11 13 -27.3207 -0.3119
-3 11 14 -0.2742 0.1428
-3 11 15 2.6210 -0.3750
-3 11 16 4.8450 0.2055
-3 11 17 9.4816 -0.2267
-3 11 18 22.7544 0.2637
-3 11 19 20.1857 -0.2297
-3 11 20 -6.0998 0.2229
-3 11 21 3.1546 -0.0950
-3 11 22 8.0601 0.0636
-3 11 23 12.0700 0.7950
-3 11 24 20.9791 0.4156
-3 13 1 -7.4351 -0.0407
-3 13 2 14.3151 -0.0273
-3 13 3 -3.8485 -0.0286
-3 13 4 -1.1099 0.1064
-3 13 5 -10.7341 -0.0525
-3 13 6 -12.4857 0.1045
-3 13 7 -7.0479 -0.2121
-3 13 8 1.1579 0.2363
-3 13 9 -33.6172 -0.0305
-3 13 10 2.2278 0.2313
-3 13 11 8.2338 0.0978
-3 13 12 26.3357 0.0473
-3 13 13 9.0589 -0.0072
-3 13 14 13.2923 -0.1151
-3 13 15 32.1064 0.2425
-3 13 16 1.3148 -0.1125
-3 13 17 -0.3088 0.2312
-3 13 18 8.9447 -0.1823
-3 13 19 -4.7393 -0.1516
-3 13 20 -13.8866 -0.2587
-3 13 21 -0.1371 0.0892
-3 13 22 -5.8496 0.1540
-3 13 23 0.3363 0.6648
-3 15 1 13.3232 -0.0578
-3 15 2 -8.3151 0.0371
-3 15 3 2.1881 -0.0785
-3 15 4 10.5166 0.2725
-3 15 5 -8.3314 -0.0356
-3 15 6 17.1510 0.4772
-3 15 7 -1.2468 0.0357
-3 15 8 26.5438 0.5556
-3 15 9 -11.4393 0.2323
-3 15 10 -8.9547 0.3455
-3 15 11 -1.0013 0.2585
-3 15 12 -20.2199 0.2188
-3 15 13 -11.5592 0.1713
-3 15 14 -11.8892 0.2010
-3 15 15 -3.1978 0.1996
-3 15 16 0.5255 -0.0433
-3 15 17 -2.6896 0.2422
-3 15 18 9.6365 -0.0741
-3 15 19 6.4765 -0.0907
-3 15 20 6.1520 -0.4196
-3 15 21 9.4912 -0.2781
-3 15 22 -5.8539 0.2149
-3 17 1 5.0946 0.1960
-3 17 2 5.7959 -0.0119
-3 17 3 -7.3125 0.0087
-3 17 4 3.0250 0.1407
-3 17 5 12.5957 -0.0573
-3 17 6 -18.8822 0.3302
-3 17 7 11.6198 0.0401
-3 17 8 -11.8769 0.3581
-3 17 9 8.7325 0.0012
-3 17 10 -3.1600 0.3280
-3 17 11 2.2200 0.0201
-3 17 12 12.1490 0.1144
-3 17 13 -13.5169 0.0791
-3 17 14 12.1593 0.0506
-3 17 15 -11.1614 0.2720
-3 17 16 -15.9625 -0.0741
-3 17 17 8.0404 0.3299
-3 17 18 -21.8709 -0.3373
-3 17 19 -8.1884 -0.1993
-3 17 20 7.0308 -0.0258
-3 17 21 -1.6305 0.3095
-3 19 1 16.7584 0.0437
-3 19 2 -15.7238 0.1318
-3 19 3 -11.3316 0.0401
-3 19 4 1.3248 -0.1013
-3 19 5 -6.6693 0.0944
-3 19 6 9.3716 -0.3162
-3 19 7 -6.0010 0.1224
-3 19 8 16.7538 -0.2391
-3 19 9 -3.4636 -0.0562
-3 19 10 2.3548 -0.2960
-3 19 11 -6.3540 -0.1540
-3 19 12 -10.0780 -0.0172
-3 19 13 4.0510 -0.0740
-3 19 14 -5.3525 0.0971
-3 19 15 15.7971 -0.2156
-3 19 16 -6.8480 -0.0441
-3 19 17 9.6265 -0.0622
-3 19 18 1.0668 -0.0130
-3 19 19 -5.7971 -0.2787
-3 19 20 24.8620 0.0480
-3 21 1 -6.5491 0.1240
-3 21 2 2.9043 0.0085
-3 21 3 -11.2544 0.0473
-3 21 4 4.7113 -0.2669
-3 21 5 -9.9159 0.0637
-3 21 6 -6.9832 -0.3432
-3 21 7 -14.3030 -0.0473
-3 21 8 4.6954 -0.3511
-3 21 9 7.3413 -0.0159
-3 21 10 6.9769 -0.3100
-3 21 11 13.4629 -0.1585
-3 21 12 -3.2068 -0.2231
-3 21 13 -12.0425 -0.1145
-3 21 14 -4.3868 -0.0713
-3 21 15 -8.2485 0.0570
-3 21 16 4.2959 0.0319
-3 21 17 4.2802 -0.5426
-3 21 18 -0.3636 -0.1340
-3 21 19 13.3302 -0.0839
-3 23 1 12.1969 -0.0178
-3 23 2 14.5955 0.0336
-3 23 3 11.0715 0.0446
-3 23 4 6.3673 -0.0923
-3 23 5 11.5051 0.0056
-3 23 6 -0.7686 0.0010
-3 23 7 7.1771 0.0322
-3 23 8 5.9127 -0.0204
-3 23 9 -9.5517 0.0708
-3 23 10 -1.3592 0.0976
-3 23 11 9.7602 0.0057
-3 23 12 7.4853 -0.0734
-3 23 13 9.7475 0.2688
-3 23 14 2.5479 -0.0145
-3 23 15 9.7478 -0.1147
-3 23 16 -15.3023 0.2034
-3 23 17 -7.5199 -0.3747
-3 25 1 -6.4254 -0.0339
-3 25 2 0.7591 0.0353
-3 25 3 16.0021 -0.1415
-3 25 4 6.6761 0.2276
-3 25 5 -5.8144 0.0139
-3 25 6 6.3799 0.5395
-3 25 7 -13.2735 0.0982
-3 25 8 11.5770 0.3357
-3 25 9 -20.1858 0.0481
-3 25 10 -3.4724 0.2739
-3 25 11 0.4112 0.3783
-3 25 12 -3.8954 0.2948
-3 25 13 -13.7567 0.0758
-3 25 14 -3.5325 0.2858
-3 25 15 -1.7383 -0.2975
-3 25 16 -3.2998 0.1193
-3 27 1 -9.4363 0.0391
-3 27 2 4.1976 0.0295
-3 27 3 3.6059 0.0657
-3 27 4 -15.8816 0.2210
-3 27 5 6.1466 -0.1399
-3 27 6 -14.0344 0.3296
-3 27 7 10.2207 0.0115
-3 27 8 -5.3589 0.5314
-3 27 9 -9.8373 0.0032
-3 27 10 -6.3128 -0.0960
-3 27 11 -1.4438 -0.1653
-3 27 12 3.5011 0.0082
-3 27 13 -3.3404 -0.4059
-3 29 1 -5.2089 -0.0305
-3 29 2 -5.5957 -0.0075
-3 29 3 0.9354 0.1029
-3 29 4 1.3175 0.1215
-3 29 5 -4.2829 0.0148
-3 29 6 8.6000 -0.6919
-3 29 7 -2.2342 -0.1775
-3 29 8 4.6143 -0.7486
-3 29 9 -5.3435 -0.4410
-3 29 10 -4.5546 -0.7703
-3 31 1 1.8826 0.0143
-3 31 2 3.3010 -0.1510
-3 31 3 11.8710 -0.0661
-3 31 4 4.1835 -0.7744
-3 31 5 7.6669 -0.2246
-2 0 1 111.7910 -0.0370
-2 0 2 126.6741 -2.7498
-2 0 3 -38.9143 -3.0403
-2 0 4 17.9955 -2.7486
-2 0 5 -37.6497 -5.4995
-2 0 6 98.6045 -1.6582
-2 0 7 -14.8872 -6.5482
-2 0 8 -11.3017 -0.8145
-2 0 9 21.8491 -5.7105
-2 0 10 -4.9698 -0.3972
-2 0 11 26.1725 -3.2226
-2 0 12 -11.3691 -0.3995
-2 0 13 6.1982 -0.2081
-2 0 14 -18.8713 -0.3271
-2 0 15 -36.4325 2.2450
-2 0 16 3.7282 0.0984
-2 0 17 1.0586 3.7185
-2 0 18 1.1961 0.9107
-2 0 19 -4.0387 3.9938
-2 0 20 6.1017 1.6551
-2 0 21 0.7784 3.2069
-2 0 22 17.0546 2.1097
-2 0 23 -8.5248 2.0030
-2 0 24 -15.5658 1.8459
-2 0 25 1.6536 0.6864
-2 2 1 -7.7490 1.0551
-2 2 2 118.9578 -2.0349
-2 2 3 -45.4546 -0.5988
-2 2 4 -64.7883 0.1384
-2 2 5 3.5383 -1.7501
-2 2 6 51.0873 0.5172
-2 2 7 -28.1284 -2.3134
-2 2 8 -10.5149 0.6638
-2 2 9 -34.9979 -1.9971
-2 2 10 25.3588 0.5892
-2 2 11 -24.9880 -1.1313
-2 2 12 38.7757 0.1798
-2 2 13 16.6660 0.0236
-2 2 14 14.3538 -0.3058
-2 2 15 -0.5042 0.9894
-2 2 16 1.4895 -0.4960
-2 2 17 9.7995 1.3243
-2 2 18 -7.2466 -0.4116
-2 2 19 -11.5528 1.4399
-2 2 20 5.0280 -0.1539
-2 2 21 -9.6072 0.8893
-2 2 22 2.7673 0.1585
-2 2 23 -12.1791 0.2934
-2 2 24 5.0344 0.5905
-2 2 25 12.8994 -0.3630
-2 4 1 -13.4486 -0.4690
-2 4 2 107.1952 0.8718
-2 4 3 -7.1326 0.1247
-2 4 4 -29.5292 0.2793
-2 4 5 6.1265 1.1888
-2 4 6 27.7268 0.3719
-2 4 7 -20.2764 1.1789
-2 4 8 -37.2656 0.2158
-2 4 9 -4.3439 0.9415
-2 4 10 -12.8053 0.1460
-2 4 11 -17.3820 0.5864
-2 4 12 -3.7536 0.1466
-2 4 13 1.7784 0.0442
-2 4 14 -8.6200 0.1029
-2 4 15 -13.1030 -0.4908
-2 4 16 13.7305 0.0593
-2 4 17 3.8172 -0.6241
-2 4 18 5.0764 -0.1748
-2 4 19 -0.8151 -0.6421
-2 4 20 0.6517 -0.4661
-2 4 21 13.6089 -0.6843
-2 4 22 1.0004 -0.5530
-2 4 23 -0.4467 -0.3874
-2 4 24 5.1172 -0.6774
-2 4 25 0.6052 -0.0522
-2 6 1 34.0034 -0.2649
-2 6 2 33.2805 1.0117
-2 6 3 -8.3730 0.6252
-2 6 4 -7.8902 0.2637
-2 6 5 -8.4375 1.1526
-2 6 6 57.6002 -0.1419
-2 6 7 2.2964 1.4438
-2 6 8 27.0503 -0.4688
-2 6 9 21.1860 1.4696
-2 6 10 -3.7281 -0.3000
-2 6 11 -18.3434 0.7887
-2 6 12 17.5345 -0.1096
-2 6 13 -12.1203 0.0452
-2 6 14 0.4322 0.1822
-2 6 15 -18.1466 -0.6664
-2 6 16 -15.9919 0.3690
-2 6 17 1.6211 -0.9371
-2 6 18 -15.6453 0.2576
-2 6 19 -9.7700 -0.9506
-2 6 20 -2.7927 -0.1628
-2 6 21 4.1682 -0.7848
-2 6 22 2.5446 -0.3744
-2 6 23 -20.6697 -0.1496
-2 6 24 16.1832 -0.0156
-2 6 25 -9.4442 0.1153
-2 8 1 -43.5320 0.1932
-2 8 2 -9.8183 0.0849
-2 8 3 -25.5487 0.2627
-2 8 4 -21.8151 -0.0911
-2 8 5 8.5634 -0.1439
-2 8 6 -3.1279 -0.0677
-2 8 7 -8.6909 -0.2498
-2 8 8 25.2368 0.0704
-2 8 9 12.5780 -0.3446
-2 8 10 17.6123 0.0278
-2 8 11 -9.0185 -0.1185
-2 8 12 16.8610 0.0031
-2 8 13 -1.8989 -0.0584
-2 8 14 -0.5734 -0.1548
-2 8 15 3.4471 0.0454
-2 8 16 -3.7085 0.0341
-2 8 17 11.7827 0.2173
-2 8 18 -6.2897 0.0267
-2 8 19 -15.9320 0.0955
-2 8 20 -2.5605 -0.0161
-2 8 21 8.0675 -0.1814
-2 8 22 -4.4256 0.0446
-2 8 23 -7.9156 0.3030
-2 8 24 16.1130 0.5667
-2 8 25 3.2137 0.1761
-2 10 1 18.3966 0.0947
-2 10 2 70.1649 -0.3147
-2 10 3 0.0988 -0.3446
-2 10 4 49.8155 -0.1429
-2 10 5 16.7826 -0.7366
-2 10 6 12.9667 -0.2973
-2 10 7 11.7725 -0.8412
-2 10 8 -6.4761 -0.1178
-2 10 9 3.7619 -0.5331
-2 10 10 -24.6784 -0.1171
-2 10 11 -25.5428 -0.4023
-2 10 12 -2.9972 -0.0764
-2 10 13 -2.8806 -0.1549
-2 10 14 4.6110 -0.1170
-2 10 15 -12.3169 0.2846
-2 10 16 7.8371 0.0870
-2 10 17 -1.2093 0.4181
-2 10 18 17.8844 0.1339
-2 10 19 -4.3547 0.4766
-2 10 20 8.4426 0.0793
-2 10 21 15.8684 0.1348
-2 10 22 -14.7820 0.0850
-2 10 23 -1.5514 0.3021
-2 10 24 -5.5156 0.6253
-2 12 1 -15.0386 0.1902
-2 12 2 -1.7540 -0.4256
-2 12 3 6.1978 -0.1745
-2 12 4 -6.7857 -0.2243
-2 12 5 23.5999 -0.3577
-2 12 6 11.4800 0.1051
-2 12 7 -3.6027 -0.6009
-2 12 8 29.3194 0.0663
-2 12 9 3.7694 -0.4623
-2 12 10 22.7696 0.1825
-2 12 11 -10.4387 -0.2646
-2 12 12 -0.5354 0.0766
-2 12 13 3.3573 -0.0143
-2 12 14 -13.8034 -0.2434
-2 12 15 -2.4130 0.3530
-2 12 16 -4.0802 -0.1165
-2 12 17 -0.5211 0.4015
-2 12 18 -18.0088 -0.1910
-2 12 19 -14.0098 0.2874
-2 12 20 -9.0591 -0.1552
-2 12 21 4.6493 0.0792
-2 12 22 0.8748 0.1611
-2 12 23 -14.3213 0.2586
-2 12 24 -6.1460 0.7892
-2 14 1 -8.8454 -0.2090
-2 14 2 9.1767 0.2276
-2 14 3 -35.2804 0.0995
-2 14 4 16.5173 0.0609
-2 14 5 -24.3544 0.2328
-2 14 6 20.9862 0.0391
-2 14 7 -14.5680 0.3780
-2 14 8 -14.6081 -0.0039
-2 14 9 11.1315 0.4572
-2 14 10 -4.9103 0.0355
-2 14 11 15.2425 0.1122
-2 14 12 -5.5755 0.0158
-2 14 13 5.1284 0.0031
-2 14 14 -4.1777 0.1339
-2 14 15 -25.5265 -0.0316
-2 14 16 7.2258 0.1371
-2 14 17 -15.4816 -0.1589
-2 14 18 -2.8569 -0.0098
-2 14 19 3.2124 -0.3255
-2 14 20 3.3749 -0.1239
-2 14 21 8.3045 -0.0594
-2 14 22 -14.5442 0.1678
-2 14 23 -3.0868 0.0850
-2 16 1 16.5459 -0.0216
-2 16 2 22.2188 0.3074
-2 16 3 10.4017 0.2860
-2 16 4 -0.3147 0.1631
-2 16 5 8.8634 0.4714
-2 16 6 -3.1795 -0.0134
-2 16 7 5.1475 0.6056
-2 16 8 -12.8665 -0.0203
-2 16 9 -16.3922 0.5109
-2 16 10 10.9427 0.0565
-2 16 11 -29.9859 0.2846
-2 16 12 -0.5022 -0.0378
-2 16 13 -9.3280 0.1120
-2 16 14 1.3521 0.0853
-2 16 15 19.1099 0.0826
-2 16 16 5.3109 0.1844
-2 16 17 11.0732 -0.3251
-2 16 18 -6.5548 0.2841
-2 16 19 -8.9422 -0.5189
-2 16 20 10.0421 0.0074
-2 16 21 9.9871 -0.3002
-2 16 22 -6.6806 0.3894
-2 18 1 -5.4248 -0.0506
-2 18 2 19.4898 0.0434
-2 18 3 -8.5480 0.0491
-2 18 4 -7.4000 -0.0015
-2 18 5 -6.2742 0.0590
-2 18 6 4.5233 0.0603
-2 18 7 -5.9837 0.0499
-2 18 8 -5.1520 0.0577
-2 18 9 -10.4037 -0.0109
-2 18 10 14.7690 -0.0781
-2 18 11 6.1138 0.0464
-2 18 12 8.6427 0.0781
-2 18 13 1.1385 0.1354
-2 18 14 -7.6785 0.1743
-2 18 15 10.6974 0.0645
-2 18 16 -2.7844 0.0759
-2 18 17 -0.6707 -0.1533
-2 18 18 9.7970 -0.0727
-2 18 19 -7.2880 0.2791
-2 18 20 10.9017 -0.3443
-2 18 21 10.9093 0.5505
-2 20 1 0.0387 0.0293
-2 20 2 22.5477 -0.1973
-2 20 3 -0.3911 -0.2297
-2 20 4 8.5543 -0.2006
-2 20 5 -4.2455 -0.4602
-2 20 6 21.9661 -0.0355
-2 20 7 2.4017 -0.4630
-2 20 8 3.4909 -0.0223
-2 20 9 4.8908 -0.3853
-2 20 10 -15.7525 -0.0784
-2 20 11 0.4035 -0.1968
-2 20 12 -11.0829 0.0420
-2 20 13 -1.6984 0.0413
-2 20 14 6.7652 0.0642
-2 20 15 12.4096 0.0697
-2 20 16 3.0303 0.1172
-2 20 17 -6.2485 -0.1592
-2 20 18 -12.7140 -0.1873
-2 20 19 -11.3326 -0.0111
-2 20 20 -4.0647 0.5199
-2 22 1 -8.9638 0.0315
-2 22 2 -1.2721 -0.3309
-2 22 3 -2.8182 -0.2469
-2 22 4 -14.9061 -0.1896
-2 22 5 2.5284 -0.3203
-2 22 6 5.3254 -0.0962
-2 22 7 -11.6959 -0.4160
-2 22 8 1.9875 0.0631
-2 22 9 -2.4103 -0.4310
-2 22 10 -3.4502 -0.0661
-2 22 11 -5.2187 -0.1614
-2 22 12 2.8707 0.0327
-2 22 13 -9.4146 0.0249
-2 22 14 -1.7677 0.2134
-2 22 15 -3.2699 -0.2408
-2 22 16 -5.3271 -0.2518
-2 22 17 4.9576 0.1682
-2 22 18 -9.2294 -0.3020
-2 22 19 3.6444 1.3284
-2 24 1 0.7654 -0.0864
-2 24 2 18.8818 0.0083
-2 24 3 -8.0860 -0.0698
-2 24 4 2.6712 -0.0310
-2 24 5 -6.0076 0.1436
-2 24 6 8.8563 0.0670
-2 24 7 -1.9713 0.3283
-2 24 8 12.8306 -0.0298
-2 24 9 -2.6767 0.2179
-2 24 10 -3.3190 -0.0710
-2 24 11 -2.3887 0.1755
-2 24 12 -1.5841 0.1289
-2 24 13 10.3900 -0.1746
-2 24 14 4.7400 0.0206
-2 24 15 6.7909 0.1052
-2 24 16 4.3424 -0.1794
-2 24 17 1.3579 0.3386
-2 26 1 -5.2552 0.0496
-2 26 2 3.6196 0.2496
-2 26 3 7.9207 0.2705
-2 26 4 3.8985 0.2797
-2 26 5 9.6570 0.4837
-2 26 6 7.1311 0.1689
-2 26 7 13.6876 0.6055
-2 26 8 19.8485 0.0112
-2 26 9 3.0302 0.4647
-2 26 10 15.0875 0.1485
-2 26 11 7.5171 0.2479
-2 26 12 -1.1374 -0.0530
-2 26 13 11.1993 0.1166
-2 26 14 -2.0278 0.0181
-2 26 15 6.9854 0.0839
-2 28 1 -15.9232 -0.1117
-2 28 2 3.6911 0.0929
-2 28 3 -9.6989 0.1823
-2 28 4 -17.7958 0.1648
-2 28 5 -9.1188 0.3952
-2 28 6 -10.2367 0.0124
-2 28 7 2.5673 0.1431
-2 28 8 5.6559 -0.0790
-2 28 9 -7.4528 -0.3864
-2 28 10 5.1312 0.0518
-2 28 11 -7.8523 -0.0118
-2 28 12 -2.8812 -0.1623
-2 30 1 -9.7432 -0.1382
-2 30 2 4.5743 -0.3813
-2 30 3 2.8834 -0.4079
-2 30 4 -2.1032 -0.3002
-2 30 5 7.7362 -0.9684
-2 30 6 2.7409 -0.5570
-2 30 7 5.9256 -1.2945
-2 30 8 -1.8036 -0.1464
-2 30 9 8.1281 -1.0750
-2 32 1 9.2697 -0.0669
-1 1 1 -297.4177 -5.0428
-1 1 2 143.2108 -1.1694
-1 1 3 -79.8179 -3.1122
-1 1 4 54.2353 -2.3119
-1 1 5 29.2457 -1.1995
-1 1 6 35.3429 -3.1841
-1 1 7 -2.1025 0.3871
-1 1 8 -2.7309 -3.1779
-1 1 9 27.1590 1.5446
-1 1 10 14.2102 -2.0900
-1 1 11 -15.0119 1.8881
-1 1 12 9.3021 -0.4212
-1 1 13 -30.6128 1.5412
-1 1 14 -7.1469 1.2397
-1 1 15 2.4706 1.0442
-1 1 16 2.6262 2.3716
-1 1 17 -7.3545 0.7550
-1 1 18 -3.1672 2.6958
-1 1 19 4.7289 0.5458
-1 1 20 -1.3417 2.0654
-1 1 21 -9.0286 0.3879
-1 1 22 0.6749 1.1953
-1 1 23 6.6370 0.4371
-1 1 24 -10.9593 0.1911
-1 1 25 -7.2125 0.0481
-1 3 1 -107.3734 0.0529
-1 3 2 -161.7909 -0.2810
-1 3 3 68.1338 0.7178
-1 3 4 -118.8765 0.1255
-1 3 5 -2.3105 -0.3142
-1 3 6 -1.3708 0.8580
-1 3 7 -59.5727 -0.9605
-1 3 8 46.3499 1.1587
-1 3 9 -0.7890 -1.0205
-1 3 10 44.3065 0.9924
-1 3 11 17.3633 -0.5965
-1 3 12 -1.2435 0.5486
-1 3 13 2.3197 -0.3161
-1 3 14 -13.4206 -0.1294
-1 3 15 14.0744 0.0423
-1 3 16 2.0354 -0.5893
-1 3 17 -15.5740 0.3294
-1 3 18 -3.0587 -0.6790
-1 3 19 -4.0179 0.3260
-1 3 20 -3.2721 -0.7427
-1 3 21 -14.8843 0.0217
-1 3 22 4.4036 -0.4729
-1 3 23 3.2808 -0.0638
-1 3 24 7.4587 0.0189
-1 3 25 -1.1761 -0.1254
-1 5 1 -31.7289 1.0441
-1 5 2 154.5885 0.4376
-1 5 3 -46.4302 0.7435
-1 5 4 111.5918 1.0060
-1 5 5 -49.4011 0.6621
-1 5 6 33.7922 0.9683
-1 5 7 -2.2468 0.1146
-1 5 8 -28.2565 0.8307
-1 5 9 -3.6082 -0.2210
-1 5 10 -17.6115 0.6373
-1 5 11 -5.0220 -0.4668
-1 5 12 12.3358 0.0510
-1 5 13 -21.0320 -0.5638
-1 5 14 24.6105 -0.4712
-1 5 15 -4.7427 -0.5344
-1 5 16 20.1872 -0.7543
-1 5 17 2.4891 -0.3862
-1 5 18 0.7229 -0.8574
-1 5 19 21.9533 -0.4972
-1 5 20 4.8841 -0.8414
-1 5 21 -1.0747 -0.3382
-1 5 22 -6.0701 -0.4417
-1 5 23 -2.5614 -0.0872
-1 5 24 -12.1160 -0.0015
-1 5 25 -18.3413 0.0014
-1 7 1 -1.9856 0.9589
-1 7 2 -32.3950 -0.1003
-1 7 3 2.5217 0.4540
-1 7 4 -39.9875 0.0675
-1 7 5 22.1532 0.2704
-1 7 6 11.3935 0.3821
-1 7 7 34.6577 0.1868
-1 7 8 41.1683 0.3865
-1 7 9 20.4185 -0.0541
-1 7 10 41.8663 0.1747
-1 7 11 -9.0547 -0.2467
-1 7 12 -9.9058 -0.0777
-1 7 13 -6.0390 -0.2781
-1 7 14 -25.8969 -0.1228
-1 7 15 15.6989 -0.2227
-1 7 16 -14.6440 -0.1750
-1 7 17 -9.8998 0.0038
-1 7 18 -6.2665 -0.3509
-1 7 19 -13.1229 -0.0547
-1 7 20 21.2673 -0.2712
-1 7 21 -8.8984 0.0130
-1 7 22 1.2691 -0.0600
-1 7 23 15.9516 0.1609
-1 7 24 2.4376 0.2543
-1 7 25 -14.7774 -0.0213
-1 9 1 3.0580 -0.5825
-1 9 2 66.6973 0.1411
-1 9 3 -25.6913 -0.5187
-1 9 4 -16.6995 -0.2108
-1 9 5 -12.3834 -0.2722
-1 9 6 -13.7516 -0.6456
-1 9 7 -12.1090 0.2198
-1 9 8 -18.1736 -0.6349
-1 9 9 -5.6268 0.2927
-1 9 10 -1.5345 -0.3149
-1 9 11 -2.3300 0.2602
-1 9 12 -11.4402 -0.1445
-1 9 13 1.7511 0.1958
-1 9 14 15.4549 0.1294
-1 9 15 2.7397 0.1320
-1 9 16 16.4829 0.5102
-1 9 17 2.9759 0.1307
-1 9 18 4.4740 0.5272
-1 9 19 22.3046 0.0653
-1 9 20 0.0040 0.5143
-1 9 21 6.9031 0.2802
-1 9 22 -9.8317 0.3435
-1 9 23 10.0663 0.0690
-1 9 24 13.0329 0.0148
-1 11 1 12.5760 -0.7591
-1 11 2 -3.0165 -0.2212
-1 11 3 -36.9902 -0.4580
-1 11 4 -25.8779 -0.3949
-1 11 5 -25.4710 -0.3708
-1 11 6 -7.1830 -0.6074
-1 11 7 -24.9747 0.0040
-1 11 8 -6.6022 -0.5442
-1 11 9 2.4651 0.1964
-1 11 10 -2.9534 -0.3979
-1 11 11 -4.2114 0.3605
-1 11 12 -8.9828 -0.2726
-1 11 13 -0.7848 0.3198
-1 11 14 12.0514 0.1272
-1 11 15 7.9194 0.2325
-1 11 16 9.2476 0.3839
-1 11 17 -17.1524 0.1814
-1 11 18 -3.2649 0.5123
-1 11 19 -13.4986 0.0539
-1 11 20 0.8224 0.4070
-1 11 21 -7.4040 0.0188
-1 11 22 1.7980 0.3931
-1 11 23 19.3791 -0.0484
-1 11 24 5.8001 -0.1314
-1 13 1 28.1748 -0.0571
-1 13 2 11.4044 -0.1639
-1 13 3 -19.6076 -0.0379
-1 13 4 10.3416 -0.0894
-1 13 5 5.2583 -0.1244
-1 13 6 20.9989 0.0793
-1 13 7 6.2370 -0.1594
-1 13 8 10.1975 0.2149
-1 13 9 33.8894 -0.2399
-1 13 10 19.4746 0.1317
-1 13 11 -1.3540 -0.2147
-1 13 12 11.0240 -0.0855
-1 13 13 -19.6316 -0.1210
-1 13 14 -10.4044 -0.0316
-1 13 15 9.5698 0.0446
-1 13 16 -11.6485 -0.0261
-1 13 17 -6.5916 0.0893
-1 13 18 -7.5151 -0.2260
-1 13 19 0.0661 0.0329
-1 13 20 6.0394 -0.1940
-1 13 21 -6.1607 0.0308
-1 13 22 -3.7147 -0.0787
-1 13 23 12.1950 -0.0156
-1 15 1 -14.1348 0.4555
-1 15 2 17.2226 0.1696
-1 15 3 -46.8032 0.3369
-1 15 4 -13.8570 0.3283
-1 15 5 6.6983 0.2458
-1 15 6 -18.2940 0.4367
-1 15 7 5.3300 -0.0292
-1 15 8 -6.4106 0.3891
-1 15 9 6.6714 -0.1577
-1 15 10 -2.0648 0.0947
-1 15 11 -1.4080 -0.3240
-1 15 12 -0.4936 -0.0711
-1 15 13 -8.6078 -0.1519
-1 15 14 1.4644 -0.1333
-1 15 15 9.9804 -0.2307
-1 15 16 11.5846 -0.1275
-1 15 17 -5.4510 -0.1846
-1 15 18 10.5220 -0.3307
-1 15 19 6.0908 -0.0829
-1 15 20 -4.8395 -0.1561
-1 15 21 4.1967 -0.1171
-1 15 22 -11.4783 -0.2149
-1 15 23 10.6655 0.0931
-1 17 1 -6.0718 0.5400
-1 17 2 -6.8399 -0.0010
-1 17 3 -2.5769 0.3443
-1 17 4 1.4558 0.1887
-1 17 5 1.4349 0.2535
-1 17 6 11.3829 0.3254
-1 17 7 -20.2626 0.0229
-1 17 8 26.1802 0.1571
-1 17 9 -4.6367 -0.0906
-1 17 10 19.2745 0.1481
-1 17 11 24.9321 -0.2546
-1 17 12 1.5397 0.0684
-1 17 13 8.9761 -0.1077
-1 17 14 -14.5315 0.0573
-1 17 15 14.9419 -0.0115
-1 17 16 -4.6972 -0.1537
-1 17 17 -15.1282 0.1204
-1 17 18 7.0597 -0.3067
-1 17 19 -14.6137 0.0929
-1 17 20 6.3533 -0.0323
-1 17 21 17.0632 -0.1849
-1 17 22 -1.3102 0.1938
-1 19 1 -13.2085 -0.2316
-1 19 2 4.5497 0.0227
-1 19 3 -16.5415 -0.2430
-1 19 4 -3.6302 -0.0389
-1 19 5 7.5268 -0.0976
-1 19 6 -1.2359 -0.1990
-1 19 7 9.4421 0.1482
-1 19 8 1.3224 -0.3415
-1 19 9 4.7936 0.0190
-1 19 10 2.8910 -0.1614
-1 19 11 5.2888 0.2345
-1 19 12 5.4438 0.1189
-1 19 13 -12.7467 0.2012
-1 19 14 1.5200 0.1068
-1 19 15 1.6863 -0.0241
-1 19 16 5.5700 0.0152
-1 19 17 2.8440 -0.0126
-1 19 18 10.7824 0.3764
-1 19 19 -4.7107 0.0299
-1 19 20 -0.0092 -0.0822
-1 19 21 8.7152 0.3618
-1 21 1 -8.0931 -0.5018
-1 21 2 2.9024 -0.1715
-1 21 3 -11.0670 -0.3435
-1 21 4 12.3512 -0.3011
-1 21 5 -8.8328 -0.1718
-1 21 6 -5.4801 -0.4341
-1 21 7 -9.0532 -0.0756
-1 21 8 -9.3025 -0.3325
-1 21 9 1.7094 0.0883
-1 21 10 5.3148 -0.2815
-1 21 11 -4.1212 0.1380
-1 21 12 -2.0717 0.0262
-1 21 13 -19.1272 0.1113
-1 21 14 -3.4311 0.0268
-1 21 15 -4.4289 0.2034
-1 21 16 -6.5534 -0.1930
-1 21 17 3.7261 -0.0727
-1 21 18 -14.3398 0.0824
-1 21 19 -11.6118 -0.1754
-1 23 1 -2.4663 -0.2300
-1 23 2 -0.0153 -0.0547
-1 23 3 -9.8942 -0.1871
-1 23 4 -3.1353 -0.1766
-1 23 5 -1.9225 -0.1212
-1 23 6 -2.3959 -0.0577
-1 23 7 -11.6837 -0.0336
-1 23 8 6.9883 -0.0840
-1 23 9 -8.8345 -0.0896
-1 23 10 21.1729 -0.1050
-1 23 11 17.0971 -0.1920
-1 23 12 -0.7081 0.0367
-1 23 13 16.3672 0.0538
-1 23 14 -13.1610 -0.4409
-1 23 15 7.0427 -0.0774
-1 23 16 3.7418 0.2255
-1 23 17 9.6826 -0.0314
-1 23 18 -3.4179 0.8430
-1 25 1 -5.3085 0.2458
-1 25 2 20.3139 0.0841
-1 25 3 -3.7489 0.2343
-1 25 4 9.2741 0.2641
-1 25 5 5.6577 0.2188
-1 25 6 -4.2158 0.3834
-1 25 7 -6.7121 -0.0888
-1 25 8 -4.2523 0.2269
-1 25 9 -8.7242 -0.1271
-1 25 10 -4.3717 0.3080
-1 25 11 -7.4754 -0.1909
-1 25 12 -4.4412 -0.1545
-1 25 13 -5.8326 -0.0760
-1 25 14 -4.1637 0.0671
-1 25 15 4.6993 0.0888
-1 25 16 13.8644 0.4064
-1 27 1 -8.6372 0.5083
-1 27 2 -4.0022 0.2409
-1 27 3 -1.9656 0.5866
-1 27 4 -13.4883 0.2808
-1 27 5 3.2014 0.1928
-1 27 6 -15.7011 0.4183
-1 27 7 -7.3661 0.0532
-1 27 8 6.0495 0.4789
-1 27 9 -0.4210 0.0747
-1 27 10 2.5622 0.0256
-1 27 11 -0.4636 0.0520
-1 27 12 1.9202 0.1868
-1 27 13 1.0200 0.1464
-1 27 14 -20.1262 0.4021
-1 29 1 -12.2258 0.1143
-1 29 2 -5.5382 0.0190
-1 29 3 1.0432 -0.0133
-1 29 4 11.8238 -0.0159
-1 29 5 4.8768 0.0782
-1 29 6 -2.7275 -0.3956
-1 29 7 -2.0982 0.0876
-1 29 8 -2.8352 -0.2897
-1 29 9 -7.3546 0.3943
-1 29 10 -12.8182 -0.3355
-1 29 11 -9.4008 0.4891
-1 31 1 4.9840 -0.8753
-1 31 2 -14.1431 -0.6381
-1 31 3 8.0440 -0.9460
-1 31 4 -6.0301 -1.0691
-1 31 5 -5.3621 -0.6474
-1 31 6 -9.4840 -0.9926
-1 31 7 -8.1858 -0.1786
0 0 1 28.8514 -0.5536
0 0 2 205.5379 -5.8336
0 0 3 26.1894 -1.2738
0 0 4 -8.4423 -3.5757
0 0 5 12.0092 -2.0462
0 0 6 -224.6877 -0.4197
0 0 7 -53.3497 -1.8693
0 0 8 -6.2877 2.4537
0 0 9 -56.6740 -0.9975
0 0 10 22.0494 4.0781
0 0 11 -3.9310 0.5614
0 0 12 22.8333 4.3442
0 0 13 3.1819 2.1577
0 0 14 20.5939 3.5561
0 0 15 11.5586 3.2288
0 0 16 -1.0565 2.5015
0 0 17 -1.5021 3.4302
0 0 18 6.3262 1.3879
0 0 19 4.2648 2.6741
0 0 20 7.1817 0.3948
0 0 21 6.3001 1.3361
0 0 22 8.6183 -0.3337
0 0 23 16.5986 0.0348
0 0 24 0.0085 -0.7271
0 0 25 -8.7486 -0.8786
0 2 0 5.9945 -3.6693
0 2 1 -86.5742 0.6935
0 2 3 -10.0653 0.3893
0 2 4 203.0650 -0.5950
0 2 5 29.2650 -0.3884
0 2 6 -2.0062 0.2881
0 2 7 -8.1097 -0.8259
0 2 8 56.0987 1.1136
0 2 9 6.9943 -1.0045
0 2 10 -8.9315 1.6364
0 2 11 -3.7861 -0.5694
0 2 12 -33.4910 1.4176
0 2 13 -16.6226 -0.0052
0 2 14 -2.1065 0.9178
0 2 15 10.6037 0.6301
0 2 16 8.3657 0.2834
0 2 17 -3.6873 0.9331
0 2 18 11.7222 -0.0168
0 2 19 13.6850 0.8053
0 2 20 2.0384 -0.4733
0 2 21 -0.7337 0.4991
0 2 22 3.4717 -0.3669
0 2 23 8.0179 0.2199
0 2 24 -5.2969 -0.3087
0 2 25 -1.1709 -0.8109
0 4 0 283.1414 1.4815
0 4 1 60.9918 -0.5163
0 4 2 -54.3227 1.1265
0 4 3 -141.2541 0.0923
0 4 4 83.9366 0.7621
0 4 5 -82.4368 0.7595
0 4 6 -113.9046 0.1162
0 4 7 -25.6826 0.3997
0 4 8 -26.2310 -0.4961
0 4 9 12.5369 0.1545
0 4 10 1.3208 -0.7029
0 4 11 8.9975 -0.1634
0 4 12 33.6073 -0.8483
0 4 13 -5.1889 -0.4894
0 4 14 20.4755 -0.7247
0 4 15 13.9188 -0.6022
0 4 16 -4.1948 -0.5244
0 4 17 -4.1843 -0.7396
0 4 18 -1.9092 -0.3013
0 4 19 6.0570 -0.6501
0 4 20 -9.6767 -0.2143
0 4 21 -10.3231 -0.2499
0 4 22 -1.8928 0.0367
0 4 23 8.3413 0.1082
0 4 24 -4.4618 -0.0669
0 4 25 7.3653 -0.5090
0 6 0 273.7957 1.6832
0 6 1 -76.4179 -0.0236
0 6 2 -15.5774 1.5420
0 6 3 7.7315 0.0753
0 6 4 79.6020 0.7361
0 6 5 57.9724 0.4289
0 6 6 -61.1730 -0.0943
0 6 7 23.7681 0.5772
0 6 8 -8.4987 -0.7790
0 6 9 -3.4481 0.6549
0 6 10 14.8227 -1.1223
0 6 11 -25.4048 0.3033
0 6 12 -9.7106 -1.0328
0 6 13 -12.5022 -0.2098
0 6 14 -8.6667 -0.6795
0 6 15 15.6382 -0.6319
0 6 16 -3.2046 -0.3403
0 6 17 -19.4889 -0.7408
0 6 18 -0.5514 -0.0766
0 6 19 -0.3808 -0.6661
0 6 20 -6.7402 0.0974
0 6 21 6.8763 -0.3075
0 6 22 -5.6826 0.3248
0 6 23 -13.2061 0.2905
0 6 24 15.4555 -0.1223
0 6 25 1.8688 -0.3735
0 8 0 53.1172 0.0406
0 8 1 -27.8304 0.2763
0 8 2 -133.1461 0.0589
0 8 3 -3.6292 0.0986
0 8 4 40.4993 -0.0241
0 8 5 -44.0944 -0.0451
0 8 6 16.3779 0.1200
0 8 7 -36.3766 -0.0756
0 8 8 13.5878 0.2041
0 8 9 1.1803 -0.1621
0 8 10 -4.1933 0.2097
0 8 11 35.2566 -0.0655
0 8 12 -18.7987 0.1603
0 8 13 13.6436 -0.0418
0 8 14 2.5466 0.1148
0 8 15 0.5915 0.1703
0 8 16 6.9570 0.1782
0 8 17 -15.9014 0.0880
0 8 18 11.9669 0.0435
0 8 19 -0.5567 0.0172
0 8 20 -1.7313 0.1688
0 8 21 -5.4313 0.2356
0 8 22 -16.8492 0.3350
0 8 23 -5.9730 0.1576
0 8 24 5.0907 -0.4301
0 8 25 11.2717 -0.4396
0 10 0 123.8520 -0.8228
0 10 1 -9.9361 -0.0833
0 10 2 -24.8279 -0.7551
0 10 3 10.2751 -0.0839
0 10 4 8.6051 -0.3669
0 10 5 -0.9006 -0.3514
0 10 6 -61.2162 0.0477
0 10 7 -8.6661 -0.2009
0 10 8 -26.2573 0.4568
0 10 9 11.2685 -0.0164
0 10 10 1.7053 0.3303
0 10 11 7.1183 0.0880
0 10 12 33.1655 0.4953
0 10 13 -17.5733 0.2621
0 10 14 35.1682 0.4958
0 10 15 21.1328 0.4650
0 10 16 -1.5984 0.3457
0 10 17 5.8929 0.5239
0 10 18 -12.3363 0.1284
0 10 19 1.0076 0.3800
0 10 20 14.0263 0.1278
0 10 21 -7.1353 0.2052
0 10 22 20.2170 0.2862
0 10 23 0.7033 -0.2590
0 10 24 8.4405 -0.4038
0 12 0 22.3030 -0.7324
0 12 1 -18.8706 0.0899
0 12 2 -12.4241 -0.6478
0 12 3 -1.5620 0.0393
0 12 4 64.5234 -0.3248
0 12 5 12.3028 -0.0271
0 12 6 -5.1011 -0.0415
0 12 7 0.9490 -0.2595
0 12 8 2.8943 0.2469
0 12 9 10.2822 -0.1921
0 12 10 -6.3341 0.3956
0 12 11 17.0873 -0.0922
0 12 12 -15.2572 0.3583
0 12 13 -6.2010 0.0074
0 12 14 -26.8780 0.2555
0 12 15 3.3437 0.2420
0 12 16 -9.1744 -0.0410
0 12 17 -17.0745 0.2807
0 12 18 2.3424 -0.1865
0 12 19 -0.9381 0.2092
0 12 20 -3.7517 -0.1119
0 12 21 -3.8423 0.2761
0 12 22 -22.9346 -0.2094
0 12 23 8.3987 -0.3283
0 14 0 71.8874 0.3271
0 14 1 -3.8271 -0.1789
0 14 2 7.9405 0.4416
0 14 3 14.7404 -0.0921
0 14 4 31.2327 0.2035
0 14 5 18.4327 0.0851
0 14 6 -27.4859 0.0729
0 14 7 -16.6032 0.1180
0 14 8 0.3058 -0.2421
0 14 9 -18.2886 0.0175
0 14 10 -6.4481 -0.3954
0 14 11 -1.4378 -0.0119
0 14 12 -13.1659 -0.2659
0 14 13 -1.5754 -0.1245
0 14 14 0.5727 -0.0906
0 14 15 12.1394 -0.2325
0 14 16 7.1150 -0.2563
0 14 17 -2.4961 -0.3716
0 14 18 5.7255 -0.2942
0 14 19 -6.3330 -0.2346
0 14 20 6.5624 0.0425
0 14 21 -7.9130 0.0244
0 14 22 9.5344 -0.2570
0 14 23 16.1873 -0.2455
0 16 0 18.8751 0.6965
0 16 1 2.8924 0.1193
0 16 2 -11.3031 0.5335
0 16 3 23.1951 0.0319
0 16 4 22.2289 0.2703
0 16 5 10.2012 0.2402
0 16 6 -24.3772 -0.0118
0 16 7 -10.0274 0.3293
0 16 8 -4.3793 -0.3295
0 16 9 5.5952 0.1002
0 16 10 -7.5703 -0.3966
0 16 11 12.2921 -0.0224
0 16 12 8.2805 -0.4218
0 16 13 -11.4087 -0.1367
0 16 14 14.4658 -0.3612
0 16 15 4.1333 -0.2150
0 16 16 13.3823 -0.2738
0 16 17 16.1827 -0.3996
0 16 18 7.1159 0.1214
0 16 19 13.6743 -0.2133
0 16 20 -8.6869 0.1553
0 16 21 -0.0083 -0.2196
0 16 22 1.5630 -0.3820
0 18 0 3.6273 0.2143
0 18 1 -8.6721 0.0869
0 18 2 -24.1186 0.1501
0 18 3 -14.2719 0.0722
0 18 4 19.8679 0.2173
0 18 5 -12.6353 0.0473
0 18 6 -1.0902 -0.0553
0 18 7 -8.3905 0.0180
0 18 8 -3.1644 0.0508
0 18 9 -5.8033 0.0329
0 18 10 -11.2034 0.0475
0 18 11 6.0895 0.0704
0 18 12 -8.0091 0.0208
0 18 13 -1.0369 -0.0020
0 18 14 -9.5571 -0.0113
0 18 15 -5.5765 -0.1350
0 18 16 3.2537 -0.0294
0 18 17 -14.6053 -0.0832
0 18 18 1.9655 0.3361
0 18 19 -8.2609 0.3083
0 18 20 -17.4740 -0.0677
0 18 21 -2.5722 0.0435
0 20 0 62.1302 -0.3099
0 20 1 16.8291 0.0108
0 20 2 9.7601 -0.4062
0 20 3 18.8275 -0.0538
0 20 4 17.0335 -0.1604
0 20 5 3.5779 -0.0630
0 20 6 -15.6525 0.0778
0 20 7 4.1120 -0.1843
0 20 8 -12.3797 0.1929
0 20 9 -24.1958 -0.0261
0 20 10 -3.5368 0.3852
0 20 11 -17.4652 0.0940
0 20 12 3.0151 0.2990
0 20 13 5.6472 0.2253
0 20 14 3.8976 0.1014
0 20 15 12.6240 0.1081
0 20 16 -0.3307 0.0483
0 20 17 11.8396 0.2039
0 20 18 5.1213 0.1276
0 20 19 4.9829 0.1989
0 20 20 -0.0090 -0.1516
0 22 0 11.5094 -0.6834
0 22 1 8.7715 0.0073
0 22 2 -14.7658 -0.4106
0 22 3 -7.0438 0.0248
0 22 4 21.9276 -0.2719
0 22 5 -11.1744 -0.1588
0 22 6 10.6823 0.0061
0 22 7 8.9957 -0.1018
0 22 8 9.8775 0.2178
0 22 9 -1.2653 -0.1400
0 22 10 1.2105 0.2682
0 22 11 13.6213 -0.0597
0 22 12 0.8765 0.0612
0 22 13 4.5317 0.0838
0 22 14 2.1085 0.0477
0 22 15 -6.7786 -0.2643
0 22 16 -9.5470 0.0711
0 22 17 -6.5555 0.4373
0 22 18 -1.2819 -0.0866
0 24 0 8.1629 0.1455
0 24 1 -17.9116 -0.1350
0 24 2 -15.1474 0.1305
0 24 3 -15.8759 -0.1061
0 24 4 0.3598 0.0790
0 24 5 1.5944 0.0505
0 24 6 -8.3637 0.0658
0 24 7 1.5116 0.0594
0 24 8 -2.7403 -0.2757
0 24 9 -9.0348 -0.1084
0 24 10 -0.6109 -0.3165
0 24 11 2.0524 0.0731
0 24 12 -2.2022 -0.3654
0 24 13 -2.0522 -0.3673
0 24 14 6.4441 -0.0771
0 24 15 -1.4392 0.1124
0 24 16 -2.6941 0.1868
0 24 17 7.2634 0.3754
0 26 0 22.6469 0.5972
0 26 1 24.0443 0.1764
0 26 2 2.9588 0.4653
0 26 3 4.6125 0.2325
0 26 4 10.2454 0.2695
0 26 5 5.7256 -0.0332
0 26 6 5.8037 -0.0606
0 26 7 5.9210 0.3181
0 26 8 -0.6573 -0.2551
0 26 9 -15.3857 0.0777
0 26 10 11.3749 -0.6687
0 26 11 -4.2479 -0.1542
0 26 12 -4.3711 0.0029
0 26 13 19.1873 0.1704
0 26 14 0.4021 0.1917
0 26 15 8.3118 0.3197
0 28 0 1.0173 0.6371
0 28 1 -15.8474 0.1701
0 28 2 -14.9724 0.3680
0 28 3 -2.1344 0.0877
0 28 4 -4.2940 0.1553
0 28 5 13.1626 0.2208
0 28 6 -2.4077 -0.1437
0 28 7 8.4148 -0.0223
0 28 8 -4.5630 0.1250
0 28 9 -6.2391 -0.0620
0 28 10 12.2379 0.5027
0 28 11 3.8653 0.2778
0 28 12 -3.9065 0.4797
0 30 0 12.5302 -0.4867
0 30 1 14.7624 0.0434
0 30 2 -0.7109 -0.4724
0 30 3 3.9567 -0.1419
0 30 4 7.5312 -0.3314
0 30 5 -1.0791 -0.2057
0 30 6 2.8049 0.2017
0 30 7 -1.0183 -0.5054
0 30 8 -0.3392 0.3703
0 30 9 2.8039 -0.0545
0 32 0 1.3951 -1.7455
0 32 1 -1.3082 -0.6590
0 32 2 -10.7256 -1.3846
0 32 3 -3.4483 -0.3424
1 1 0 -23.9496 -0.4699
1 1 2 -146.6881 0.6761
1 1 3 16.4171 -2.2362
1 1 4 -44.6770 1.1083
1 1 5 -35.4227 -0.3568
1 1 6 8.1799 0.7145
1 1 7 17.6611 1.5401
1 1 8 0.9183 0.3698
1 1 9 36.4591 3.0046
1 1 10 -5.7323 0.3805
1 1 11 -11.4517 3.3200
1 1 12 0.7394 0.6935
1 1 13 -0.7347 2.7552
1 1 14 7.7631 0.9391
1 1 15 -0.5963 1.6981
1 1 16 -10.3236 1.0816
1 1 17 7.2096 0.5338
1 1 18 6.6243 0.7910
1 1 19 -9.3851 -0.4471
1 1 20 -13.3116 0.3382
1 1 21 5.9056 -0.8046
1 1 22 -10.8855 -0.1903
1 1 23 2.0445 -0.9858
1 1 24 5.4841 -0.6486
1 1 25 -5.1399 -1.1941
1 3 0 36.0270 0.0069
1 3 1 -147.9134 0.8691
1 3 2 277.4635 -0.6161
1 3 3 4.7418 0.8919
1 3 4 186.0952 -0.8999
1 3 5 29.2398 0.1228
1 3 6 51.9386 -0.1842
1 3 7 3.7133 -0.5486
1 3 8 24.6125 0.3449
1 3 9 17.3240 -0.7138
1 3 10 -8.5091 0.6220
1 3 11 -14.0591 -0.7519
1 3 12 9.2878 0.3797
1 3 13 -11.1014 -0.6308
1 3 14 -0.4713 0.0571
1 3 15 -12.3853 -0.3514
1 3 16 -0.7395 -0.1748
1 3 17 -9.0200 -0.0176
1 3 18 12.4751 -0.3458
1 3 19 -15.0930 0.0433
1 3 20 -14.2989 -0.2039
1 3 21 5.0528 0.1938
1 3 22 -3.8645 0.0281
1 3 23 10.9578 0.6713
1 3 24 5.0309 -0.0503
1 3 25 -2.6285 -0.5452
1 5 0 58.3205 0.1477
1 5 1 -100.9030 0.9788
1 5 2 -85.4295 0.0329
1 5 3 11.4998 0.6802
1 5 4 -150.9949 -0.1634
1 5 5 55.5346 -0.0573
1 5 6 -63.7646 -0.5243
1 5 7 -9.4652 -0.5693
1 5 8 18.2821 -0.4298
1 5 9 -2.4546 -0.8789
1 5 10 -11.3946 -0.4250
1 5 11 -12.4446 -1.1016
1 5 12 15.5130 -0.4520
1 5 13 -4.9115 -0.9785
1 5 14 -17.9971 -0.4795
1 5 15 2.9543 -0.6842
1 5 16 -22.8710 -0.4480
1 5 17 -6.4073 -0.3760
1 5 18 0.3008 -0.3882
1 5 19 -3.4965 -0.0800
1 5 20 -13.6188 0.0189
1 5 21 9.0249 0.3543
1 5 22 6.2906 0.2990
1 5 23 2.9444 0.5702
1 5 24 5.3672 -0.0507
1 5 25 12.7150 -0.3833
1 7 0 -40.8110 -0.1115
1 7 1 -21.7604 0.5588
1 7 2 67.7077 -0.3352
1 7 3 57.8558 0.2620
1 7 4 106.7459 -0.0397
1 7 5 16.6829 0.1214
1 7 6 42.5079 0.0249
1 7 7 -37.8053 -0.2464
1 7 8 0.6957 -0.1535
1 7 9 1.5656 -0.4465
1 7 10 -62.4746 -0.1966
1 7 11 16.7808 -0.5210
1 7 12 -7.4909 -0.0878
1 7 13 -6.5784 -0.3942
1 7 14 15.4847 -0.0930
1 7 15 -9.9457 -0.1858
1 7 16 11.1960 -0.1090
1 7 17 7.1302 -0.2141
1 7 18 23.5431 -0.0837
1 7 19 10.1017 0.0254
1 7 20 -6.7899 0.0254
1 7 21 4.4317 0.3203
1 7 22 17.6638 0.3949
1 7 23 -15.9133 -0.1886
1 7 24 7.2650 -0.3628
1 9 0 50.5818 0.0980
1 9 1 -87.7596 -0.5256
1 9 2 18.6087 0.2238
1 9 3 -19.1244 -0.6043
1 9 4 16.4195 0.2561
1 9 5 11.9393 -0.1464
1 9 6 5.4921 0.1943
1 9 7 28.5801 0.3800
1 9 8 19.9143 0.0356
1 9 9 28.6140 0.5295
1 9 10 -5.4164 0.0102
1 9 11 1.3604 0.5237
1 9 12 5.5046 0.1045
1 9 13 -9.7783 0.5183
1 9 14 -4.4370 0.1754
1 9 15 -9.0586 0.4290
1 9 16 -18.2197 0.1848
1 9 17 -0.3388 0.1000
1 9 18 12.4965 0.0920
1 9 19 -14.2747 -0.0051
1 9 20 -10.3243 0.1949
1 9 21 -1.4548 0.1231
1 9 22 -11.6178 0.1232
1 9 23 -10.3030 -0.3629
1 9 24 -6.2510 -0.5823
1 11 0 0.9307 -0.0620
1 11 1 -45.0087 -0.6904
1 11 2 9.8757 0.1494
1 11 3 50.9725 -0.3749
1 11 4 -5.2816 0.1065
1 11 5 23.8093 -0.0661
1 11 6 -15.0880 0.1070
1 11 7 -7.1332 0.3258
1 11 8 14.9021 0.1456
1 11 9 -31.3002 0.6071
1 11 10 3.1853 0.1424
1 11 11 -4.9977 0.7046
1 11 12 -3.8376 0.1166
1 11 13 15.6354 0.6966
1 11 14 -8.2510 0.1204
1 11 15 0.9456 0.3952
1 11 16 -5.7302 0.1928
1 11 17 4.2272 0.0271
1 11 18 19.4457 0.1258
1 11 19 3.8486 -0.0705
1 11 20 18.0189 0.1163
1 11 21 11.5478 0.2208
1 11 22 10.7600 -0.3141
1 11 23 1.8673 -0.5558
1 13 0 -7.1077 -0.0233
1 13 1 -49.0915 -0.0779
1 13 2 1.4958 -0.0656
1 13 3 -17.4588 0.0467
1 13 4 -3.4202 -0.1354
1 13 5 -15.2319 0.0725
1 13 6 -7.1463 0.0924
1 13 7 6.4774 -0.0411
1 13 8 6.4039 0.1507
1 13 9 13.2790 -0.1609
1 13 10 -36.3409 0.1598
1 13 11 21.9560 -0.1082
1 13 12 -24.7195 0.1762
1 13 13 -11.3793 -0.0229
1 13 14 5.7823 0.0402
1 13 15 -18.9738 -0.0922
1 13 16 1.9795 -0.1429
1 13 17 -4.8785 -0.1198
1 13 18 3.1738 -0.1190
1 13 19 4.4032 0.0396
1 13 20 -18.6279 0.1719
1 13 21 6.5343 -0.1685
1 13 22 -7.6614 -0.1113
1 13 23 -8.7154 -0.5907
1 15 0 -3.9468 0.0355
1 15 1 -23.1234 0.4333
1 15 2 -10.1702 -0.0299
1 15 3 12.0552 0.3088
1 15 4 -25.4950 -0.0935
1 15 5 -1.7849 0.0886
1 15 6 -2.6023 -0.1025
1 15 7 -1.1574 -0.1879
1 15 8 16.2797 -0.0557
1 15 9 -7.2340 -0.4319
1 15 10 -5.3730 -0.1292
1 15 11 -4.1162 -0.4129
1 15 12 16.8720 -0.1787
1 15 13 2.0939 -0.3176
1 15 14 6.2294 -0.1340
1 15 15 13.6139 -0.4200
1 15 16 -12.9958 -0.2045
1 15 17 3.3997 -0.3273
1 15 18 7.2698 -0.2113
1 15 19 -12.5007 0.2698
1 15 20 -2.6301 0.0922
1 15 21 -0.1313 0.1078
1 15 22 -1.5315 -0.1641
1 17 0 -0.5626 0.0488
1 17 1 -24.4728 0.3901
1 17 2 16.5472 -0.1569
1 17 3 17.2900 0.3175
1 17 4 -2.3564 -0.0835
1 17 5 -0.7496 0.1812
1 17 6 16.6932 -0.0483
1 17 7 4.9121 -0.1583
1 17 8 10.7171 -0.0608
1 17 9 16.8139 -0.1835
1 17 10 8.5978 -0.0345
1 17 11 7.6062 -0.2666
1 17 12 -2.5938 0.0826
1 17 13 0.8226 -0.3157
1 17 14 -14.2400 -0.0693
1 17 15 -4.1001 -0.3292
1 17 16 -6.3169 -0.2316
1 17 17 -1.9822 0.0179
1 17 18 -10.1098 0.1115
1 17 19 -5.3982 0.2983
1 17 20 -8.6918 0.0747
1 17 21 2.2738 -0.3131
1 19 0 6.1833 0.0640
1 19 1 -18.0977 -0.1596
1 19 2 -16.0528 0.1567
1 19 3 8.5611 -0.1954
1 19 4 -8.4438 0.1360
1 19 5 -13.2624 -0.0917
1 19 6 17.8979 0.1520
1 19 7 4.4801 0.1427
1 19 8 1.2749 0.1267
1 19 9 7.1940 0.3924
1 19 10 -11.4376 0.0355
1 19 11 4.4663 0.3939
1 19 12 -3.0877 0.0603
1 19 13 -0.0655 0.1306
1 19 14 5.5414 0.0268
1 19 15 -15.9467 0.0950
1 19 16 4.5485 0.0362
1 19 17 -1.5434 0.2267
1 19 18 -9.0966 0.2176
1 19 19 6.7244 0.2120
1 19 20 3.8376 -0.1014
1 21 0 -18.6243 -0.1423
1 21 1 -13.3023 -0.3789
1 21 2 -13.0040 0.0687
1 21 3 -4.4356 -0.1998
1 21 4 -4.3396 0.0867
1 21 5 -20.3550 0.0316
1 21 6 -9.2892 0.0802
1 21 7 5.3226 0.2741
1 21 8 1.9877 0.1253
1 21 9 -0.0382 0.4241
1 21 10 4.5770 0.1020
1 21 11 -0.2278 0.4887
1 21 12 5.5359 0.1173
1 21 13 -7.2617 0.1838
1 21 14 -1.4794 0.0195
1 21 15 -0.5106 0.2389
1 21 16 6.1375 0.1585
1 21 17 9.9862 0.2797
1 21 18 4.3577 0.1184
1 21 19 7.1728 -0.4139
1 23 0 0.6158 -0.0746
1 23 1 2.6860 -0.2806
1 23 2 10.5277 0.0008
1 23 3 13.2879 -0.1288
1 23 4 23.1676 0.0056
1 23 5 -4.5636 0.0057
1 23 6 22.5298 0.0788
1 23 7 11.6456 -0.0013
1 23 8 8.1947 0.0071
1 23 9 8.2690 -0.0372
1 23 10 -6.8748 -0.0614
1 23 11 -11.4033 -0.1368
1 23 12 -9.0130 0.0732
1 23 13 -14.5887 -0.1069
1 23 14 -2.1305 -0.1121
1 23 15 1.1337 0.0068
1 23 16 0.9257 0.0901
1 23 17 -0.1661 0.0393
1 25 0 6.4325 -0.0465
1 25 1 1.0694 0.2880
1 25 2 -9.7920 -0.0332
1 25 3 8.7619 0.1764
1 25 4 -4.6613 -0.0541
1 25 5 -10.1608 -0.0635
1 25 6 1.4224 -0.2335
1 25 7 0.4821 -0.3428
1 25 8 -3.0905 -0.1094
1 25 9 -2.4314 -0.3516
1 25 10 -5.9870 -0.0163
1 25 11 -1.3663 -0.5925
1 25 12 -5.2462 -0.2516
1 25 13 3.1408 -0.0923
1 25 14 4.3915 -0.2083
1 25 15 -5.8201 0.1625
1 25 16 -2.3790 0.3817
1 27 0 11.4183 0.0634
1 27 1 1.8801 0.3801
1 27 2 -3.2949 -0.1001
1 27 3 9.1622 0.2375
1 27 4 -0.6368 -0.1927
1 27 5 -6.5114 0.0797
1 27 6 3.9705 -0.0786
1 27 7 0.3280 -0.2868
1 27 8 15.8905 -0.0809
1 27 9 -3.8976 -0.3808
1 27 10 3.1998 -0.0507
1 27 11 -1.5097 0.4252
1 27 12 -8.8865 0.0809
1 27 13 -7.0055 0.0698
1 29 0 -0.1949 0.0599
1 29 1 -7.8167 0.0211
1 29 2 -19.3167 0.0669
1 29 3 2.5023 -0.2440
1 29 4 -3.5398 -0.0362
1 29 5 -13.3932 -0.1440
1 29 6 -1.9303 0.0060
1 29 7 5.9311 0.5581
1 29 8 1.1918 0.3024
1 29 9 -2.5662 0.8099
1 29 10 -2.5924 0.4054
1 29 11 -5.0671 0.7970
1 31 0 6.7937 -0.2617
1 31 1 5.1229 -0.6930
1 31 2 4.3413 0.0788
1 31 3 10.2807 -0.4964
1 31 4 8.5832 0.2500
1 31 5 -5.0533 -0.0291
1 31 6 -3.7824 0.3404
2 0 0 -80.0830 -3.3078
2 0 1 21.1057 2.0236
2 0 2 1.6514 -2.3723
2 0 3 -95.6055 3.5067
2 0 4 19.4735 0.1216
2 0 5 -12.2144 3.6551
2 0 6 -13.6333 2.5757
2 0 7 -16.0890 3.4633
2 0 8 71.4696 4.3556
2 0 9 -26.5960 2.6313
2 0 10 22.6081 4.6401
2 0 11 -0.4123 1.7144
2 0 12 -19.4792 3.7620
2 0 13 3.7689 0.9736
2 0 14 2.0661 2.1537
2 0 15 9.8206 0.3910
2 0 16 -11.3901 0.4467
2 0 17 -1.9870 -0.2600
2 0 18 10.3217 -1.1033
2 0 19 -1.2694 -0.9105
2 0 20 22.9400 -1.9402
2 0 21 -0.7592 -1.3943
2 0 22 12.8435 -2.2286
2 0 23 -3.9499 -1.6263
2 0 24 10.4226 -1.8172
2 0 25 -19.4944 -1.2960
2 2 0 103.2568 -1.9880
2 2 1 -2.0754 1.4452
2 2 2 130.4848 -0.9674
2 2 3 -3.9340 1.4613
2 2 4 -28.3284 -0.5892
2 2 5 17.5457 1.2535
2 2 6 -66.5401 0.2988
2 2 7 -30.4519 0.7289
2 2 8 -14.1791 1.1279
2 2 9 1.3906 0.1918
2 2 10 -29.1040 1.5031
2 2 11 9.5646 -0.1902
2 2 12 11.3335 1.2182
2 2 13 -7.1414 -0.2197
2 2 14 50.9481 0.7883
2 2 15 -4.1801 -0.1268
2 2 16 5.5078 0.2720
2 2 17 0.6257 -0.0610
2 2 18 -5.0321 -0.4193
2 2 19 -3.1388 -0.0210
2 2 20 -10.1606 -0.5457
2 2 21 3.1978 -0.1606
2 2 22 -27.3780 -0.4522
2 2 23 5.8504 0.0272
2 2 24 -20.2379 -0.5056
2 2 25 8.6889 -0.4791
2 4 0 18.7493 0.3224
2 4 1 -29.5361 -0.7469
2 4 2 10.8195 0.6607
2 4 3 27.3714 -0.4753
2 4 4 -74.6151 -0.0086
2 4 5 21.9740 -0.5097
2 4 6 18.9458 -0.6256
2 4 7 -46.4819 -0.5559
2 4 8 47.2149 -0.8434
2 4 9 31.1293 -0.4016
2 4 10 -12.7405 -0.8747
2 4 11 -1.4269 -0.3388
2 4 12 -25.4238 -0.7619
2 4 13 -5.3693 -0.2285
2 4 14 -8.0957 -0.3388
2 4 15 0.9857 -0.0203
2 4 16 -8.7625 -0.0544
2 4 17 6.4959 -0.0545
2 4 18 6.9182 0.2025
2 4 19 2.7384 0.1457
2 4 20 8.1819 0.4552
2 4 21 8.8801 0.3494
2 4 22 7.7796 0.6748
2 4 23 -10.9555 0.3358
2 4 24 7.1367 -0.0903
2 6 0 -35.1203 0.8514
2 6 1 -35.9568 -0.7364
2 6 2 37.4835 0.6467
2 6 3 -68.7330 -0.9905
2 6 4 -33.1363 0.2839
2 6 5 -34.1197 -0.8071
2 6 6 11.0217 -0.3452
2 6 7 -60.0809 -0.4590
2 6 8 24.9446 -0.8742
2 6 9 17.7882 -0.2287
2 6 10 9.6715 -1.0785
2 6 11 -2.0951 0.0436
2 6 12 11.3694 -1.0015
2 6 13 2.9395 0.0942
2 6 14 6.3059 -0.4751
2 6 15 0.8098 -0.0355
2 6 16 17.4754 -0.0707
2 6 17 2.7740 -0.0437
2 6 18 15.6051 0.3070
2 6 19 6.1260 0.0470
2 6 20 0.6726 0.5308
2 6 21 0.7048 0.1604
2 6 22 -5.4732 0.8256
2 6 23 1.4415 0.0182
2 6 24 -17.1660 -0.1914
2 8 0 -28.2173 0.0744
2 8 1 -46.4680 -0.0531
2 8 2 57.4478 -0.1520
2 8 3 -14.2761 -0.0871
2 8 4 -13.1458 0.0319
2 8 5 43.2848 0.1846
2 8 6 -40.1093 0.1083
2 8 7 15.4371 0.0262
2 8 8 -12.7851 0.0557
2 8 9 27.3271 -0.0609
2 8 10 5.8128 0.1550
2 8 11 0.0221 -0.0269
2 8 12 26.0103 0.1064
2 8 13 2.7136 0.0855
2 8 14 7.7334 0.1473
2 8 15 -4.8463 0.0580
2 8 16 4.2470 -0.0776
2 8 17 -17.4651 0.0238
2 8 18 -8.0232 -0.0380
2 8 19 -23.2377 0.0042
2 8 20 -18.2253 0.1775
2 8 21 -12.1860 0.1916
2 8 22 4.9266 -0.1019
2 8 23 5.5031 -0.5530
2 8 24 -6.2683 -0.5075
2 10 0 15.6973 -0.5219
2 10 1 18.2919 0.2186
2 10 2 -14.8338 -0.3440
2 10 3 -16.8883 0.4157
2 10 4 -27.1467 -0.0415
2 10 5 -14.8569 0.3703
2 10 6 14.8607 0.4920
2 10 7 -36.9458 0.3412
2 10 8 51.7504 0.5402
2 10 9 -29.8819 0.2085
2 10 10 -0.7943 0.4689
2 10 11 -1.6205 0.3026
2 10 12 -34.5818 0.5657
2 10 13 14.7249 0.2684
2 10 14 -21.2737 0.3206
2 10 15 1.2676 0.0676
2 10 16 9.8956 0.0411
2 10 17 15.2436 0.0226
2 10 18 12.8964 -0.2052
2 10 19 6.6483 -0.0282
2 10 20 2.9245 -0.1553
2 10 21 11.0583 0.1728
2 10 22 4.1174 -0.5721
2 10 23 9.1802 -0.3925
2 12 0 5.5170 -0.3413
2 12 1 -26.6044 0.2870
2 12 2 28.7350 -0.3613
2 12 3 -22.7753 0.4626
2 12 4 4.9122 -0.1947
2 12 5 5.8954 0.2625
2 12 6 -17.5802 0.0084
2 12 7 -8.9005 0.2078
2 12 8 -19.1021 0.3170
2 12 9 8.4102 0.0129
2 12 10 -10.7846 0.4847
2 12 11 5.3341 -0.0802
2 12 12 8.2565 0.5737
2 12 13 1.2676 0.0507
2 12 14 18.9326 0.2396
2 12 15 -10.7646 -0.0086
2 12 16 5.9034 -0.0715
2 12 17 6.4748 -0.0323
2 12 18 -3.9657 -0.2156
2 12 19 -12.8854 0.0726
2 12 20 -3.2040 0.0744
2 12 21 -10.0388 -0.1557
2 12 22 -2.5198 -0.4854
2 12 23 0.1800 -0.3793
2 14 0 -9.8156 0.1266
2 14 1 -18.6158 -0.1978
2 14 2 12.5744 0.1481
2 14 3 -0.0827 -0.2112
2 14 4 -10.5240 0.1018
2 14 5 28.1228 -0.2119
2 14 6 8.1696 -0.1034
2 14 7 -3.0798 -0.2393
2 14 8 21.5783 -0.3410
2 14 9 -0.8383 -0.1279
2 14 10 23.8566 -0.3201
2 14 11 -9.5255 0.0134
2 14 12 18.4525 -0.1218
2 14 13 19.6977 -0.0223
2 14 14 -0.4936 -0.1250
2 14 15 11.9734 -0.1529
2 14 16 -12.9342 -0.1263
2 14 17 0.8406 -0.1254
2 14 18 -9.8640 0.0880
2 14 19 -2.0649 0.2749
2 14 20 -6.5126 -0.0423
2 14 21 -2.2598 -0.0228
2 14 22 5.6098 -0.2157
2 16 0 5.1765 0.3531
2 16 1 11.1049 -0.2590
2 16 2 14.4343 0.1474
2 16 3 2.7399 -0.4049
2 16 4 -4.3869 0.0965
2 16 5 -5.2093 -0.2819
2 16 6 19.9012 -0.2197
2 16 7 -23.3485 -0.2152
2 16 8 10.6575 -0.5675
2 16 9 -1.5266 -0.1285
2 16 10 -13.5089 -0.4335
2 16 11 3.6961 -0.1054
2 16 12 -29.1730 -0.4122
2 16 13 -0.2494 -0.0063
2 16 14 -1.9146 -0.3505
2 16 15 3.2219 -0.0006
2 16 16 12.2009 -0.1204
2 16 17 -2.3694 -0.1343
2 16 18 11.2349 0.5425
2 16 19 11.3898 -0.0606
2 16 20 3.9050 0.3738
2 16 21 20.9167 -0.0960
2 18 0 5.9901 0.1365
2 18 1 8.1768 -0.0073
2 18 2 15.1429 0.0543
2 18 3 3.2385 -0.1106
2 18 4 4.4114 -0.0285
2 18 5 -2.6603 -0.2133
2 18 6 -6.0088 -0.0464
2 18 7 -6.8727 -0.0451
2 18 8 -15.4610 -0.0593
2 18 9 2.9442 -0.0124
2 18 10 -6.6129 0.0061
2 18 11 -2.8314 -0.0025
2 18 12 -4.9211 -0.0633
2 18 13 -20.0496 -0.0188
2 18 14 13.9124 -0.0285
2 18 15 -1.2941 -0.0140
2 18 16 -14.4836 0.1403
2 18 17 8.4235 0.2225
2 18 18 -8.6562 0.1846
2 18 19 -4.7526 0.0404
2 18 20 13.8870 -0.2767
2 20 0 -10.1056 -0.2071
2 20 1 -5.0735 0.1151
2 20 2 -4.8009 -0.2032
2 20 3 -1.5126 0.2033
2 20 4 -9.1883 -0.0402
2 20 5 3.8646 0.2875
2 20 6 17.0583 0.1500
2 20 7 -4.9574 0.1233
2 20 8 12.1484 0.3028
2 20 9 -5.5064 0.1189
2 20 10 12.1170 0.4192
2 20 11 13.6454 0.1036
2 20 12 12.7983 0.2238
2 20 13 1.4110 0.0686
2 20 14 17.9032 0.0969
2 20 15 0.4182 0.1819
2 20 16 1.0306 0.2448
2 20 17 16.7238 0.1652
2 20 18 -3.4755 -0.1350
2 20 19 -8.3821 -0.2415
2 22 0 7.6671 -0.2531
2 22 1 -7.6217 0.2529
2 22 2 20.6212 -0.1812
2 22 3 -2.5214 0.3603
2 22 4 -2.5878 -0.1153
2 22 5 -5.9956 0.2548
2 22 6 6.2059 0.0970
2 22 7 -2.2414 0.1512
2 22 8 -4.4202 0.3254
2 22 9 4.4933 0.0982
2 22 10 -7.3550 0.2733
2 22 11 9.1499 -0.1014
2 22 12 -2.4214 0.1525
2 22 13 -0.8606 0.0019
2 22 14 12.5576 0.1912
2 22 15 -4.9752 -0.1480
2 22 16 2.1504 0.0223
2 22 17 6.1787 0.0283
2 22 18 -7.8449 -0.5313
2 24 0 7.8930 0.0850
2 24 1 8.7903 -0.0718
2 24 2 1.9206 0.1295
2 24 3 -4.7327 -0.0433
2 24 4 -8.5449 0.0790
2 24 5 -15.8935 -0.1411
2 24 6 -7.9818 -0.1317
2 24 7 -9.2830 -0.1509
2 24 8 -2.3139 -0.2270
2 24 9 -7.2077 -0.0778
2 24 10 7.9695 -0.1056
2 24 11 6.2057 -0.0695
2 24 12 15.4391 -0.1916
2 24 13 -5.6984 -0.1071
2 24 14 8.9663 -0.0041
2 24 15 -21.4036 -0.1970
2 24 16 0.9927 -0.0175
2 26 0 -12.5953 0.3166
2 26 1 2.3069 -0.1786
2 26 2 -8.7907 0.1217
2 26 3 -10.6336 -0.3710
2 26 4 1.3836 -0.1111
2 26 5 -11.1111 -0.4466
2 26 6 7.4503 -0.1478
2 26 7 -11.5250 -0.0448
2 26 8 1.8573 -0.3367
2 26 9 0.0245 -0.1469
2 26 10 -3.9100 -0.4676
2 26 11 4.0562 0.0434
2 26 12 7.4101 0.1210
2 26 13 5.7011 0.0847
2 26 14 3.8144 0.0832
2 28 0 -2.1639 0.1951
2 28 1 8.3204 -0.0805
2 28 2 1.3231 0.3348
2 28 3 1.4453 -0.2836
2 28 4 1.6530 -0.0549
2 28 5 1.8551 -0.3389
2 28 6 5.1251 -0.1327
2 28 7 -3.5886 0.2455
2 28 8 -1.2511 0.4264
2 28 9 14.5317 0.4422
2 28 10 -2.1310 0.3793
2 28 11 -2.8799 0.4680
2 28 12 1.5981 0.5196
2 30 0 -5.8850 -0.3699
2 30 1 3.4641 0.3586
2 30 2 9.1273 -0.2184
2 30 3 -4.4018 0.5064
2 30 4 -0.0516 0.1353
2 30 5 6.4257 0.9507
2 30 6 3.2472 0.7251
2 30 7 0.0957 0.7063
2 30 8 4.3236 0.5752
2 32 0 8.3676 -0.7353
3 1 0 -48.3253 1.7127
3 1 1 -53.4942 -0.0465
3 1 2 3.5762 3.2483
3 1 3 16.8864 0.1304
3 1 4 5.0703 3.6078
3 1 5 16.7217 0.8513
3 1 6 33.5423 2.9920
3 1 7 25.3644 1.5596
3 1 8 16.6027 1.8085
3 1 9 -19.1904 1.7978
3 1 10 -0.7546 0.5565
3 1 11 -0.8299 1.4934
3 1 12 -0.3327 -0.2269
3 1 13 11.5576 0.8210
3 1 14 -11.8408 -0.7338
3 1 15 -37.5196 0.0103
3 1 16 7.3500 -1.1321
3 1 17 1.2850 -0.8527
3 1 18 -9.1808 -1.1458
3 1 19 -1.3400 -1.2639
3 1 20 22.3890 -1.0241
3 1 21 6.3119 -1.2979
3 1 22 -9.4363 -0.9241
3 1 23 7.5423 -1.0524
3 1 24 5.5517 -0.4101
3 3 0 -7.5827 0.4674
3 3 1 -2.6844 0.6529
3 3 2 -2.5786 -1.1781
3 3 3 11.0189 0.7453
3 3 4 -6.1318 -0.9576
3 3 5 -22.6567 0.4526
3 3 6 11.8243 -0.5699
3 3 7 17.8197 0.0999
3 3 8 -22.9466 -0.1579
3 3 9 -23.4445 -0.1760
3 3 10 -9.2612 0.0827
3 3 11 -19.6821 -0.4719
3 3 12 15.9162 0.1935
3 3 13 2.3705 -0.3654
3 3 14 2.8897 0.2641
3 3 15 9.2793 -0.0941
3 3 16 -2.5173 0.2047
3 3 17 6.9370 -0.0532
3 3 18 -5.0398 0.1287
3 3 19 -9.7487 0.1763
3 3 20 4.0547 0.0672
3 3 21 2.5617 0.3312
3 3 22 6.9073 0.3485
3 3 23 -9.1825 -0.1721
3 3 24 4.1072 -0.0975
3 5 0 -55.8258 -0.4216
3 5 1 -6.0729 0.1529
3 5 2 -4.6210 -0.7151
3 5 3 -0.5858 -0.2002
3 5 4 19.2502 -1.0818
3 5 5 -12.2746 -0.5818
3 5 6 40.7117 -1.1515
3 5 7 4.1846 -0.5862
3 5 8 6.4556 -0.7769
3 5 9 -10.1446 -0.6286
3 5 10 -12.2345 -0.4329
3 5 11 17.3551 -0.4655
3 5 12 0.8942 -0.0036
3 5 13 -4.0333 -0.2434
3 5 14 10.6208 0.2172
3 5 15 -9.2524 0.0405
3 5 16 3.2954 0.3992
3 5 17 -4.2243 0.2556
3 5 18 12.1417 0.5069
3 5 19 1.9202 0.5414
3 5 20 0.6571 0.5299
3 5 21 16.9984 0.5414
3 5 22 12.6413 0.3610
3 5 23 7.2581 -0.1189
3 5 24 -3.3597 -0.1157
3 7 0 23.3481 -0.3021
3 7 1 1.3978 -0.1087
3 7 2 25.4234 -0.2729
3 7 3 26.2344 0.0862
3 7 4 -11.3901 -0.1971
3 7 5 37.1369 -0.1247
3 7 6 -6.5835 -0.3811
3 7 7 -4.3843 -0.4486
3 7 8 10.8654 -0.3790
3 7 9 -24.8921 -0.3163
3 7 10 12.2318 -0.1419
3 7 11 -9.7136 -0.1791
3 7 12 -9.8993 0.1340
3 7 13 -5.5659 -0.0760
3 7 14 -4.7937 0.1755
3 7 15 -4.4715 -0.0884
3 7 16 -3.7082 0.1255
3 7 17 -5.7908 0.1168
3 7 18 -10.6142 0.1481
3 7 19 -15.0786 0.2403
3 7 20 -1.9404 0.1909
3 7 21 5.6766 0.2597
3 7 22 16.7602 -0.3406
3 7 23 0.6848 -0.3729
3 9 0 7.6803 0.1240
3 9 1 36.5689 0.0408
3 9 2 24.5368 0.3479
3 9 3 -0.0111 -0.0324
3 9 4 17.3040 0.6521
3 9 5 -17.8227 -0.0378
3 9 6 13.8705 0.5514
3 9 7 -17.0374 0.2043
3 9 8 -2.0431 0.2156
3 9 9 -2.2010 0.2846
3 9 10 -2.5290 0.1410
3 9 11 -0.4869 0.2883
3 9 12 0.4465 -0.0348
3 9 13 6.6105 0.2090
3 9 14 4.3492 -0.1939
3 9 15 -17.3798 0.0226
3 9 16 3.1150 -0.1888
3 9 17 0.0775 -0.1205
3 9 18 -3.3741 -0.2664
3 9 19 5.4101 -0.1460
3 9 20 -2.5646 -0.2749
3 9 21 6.1052 -0.2151
3 9 22 3.2386 -0.3462
3 9 23 -4.2957 -0.3628
3 11 0 -5.5659 0.2825
3 11 1 -1.3801 0.0829
3 11 2 -18.2333 0.4496
3 11 3 -16.3270 0.0208
3 11 4 1.8071 0.4898
3 11 5 -5.9403 0.1821
3 11 6 21.4562 0.4552
3 11 7 1.4113 0.2654
3 11 8 -7.2358 0.4117
3 11 9 16.2560 0.2713
3 11 10 2.0511 0.1565
3 11 11 -4.1791 0.4488
3 11 12 -6.0109 -0.0432
3 11 13 -5.4788 0.1963
3 11 14 3.3541 -0.2502
3 11 15 7.8603 0.0229
3 11 16 4.3020 -0.3192
3 11 17 5.4886 -0.2001
3 11 18 3.5892 -0.2523
3 11 19 -5.0445 -0.2131
3 11 20 7.6184 -0.1229
3 11 21 -2.5143 -0.5307
3 11 22 -2.1041 -0.2393
3 13 0 38.9719 -0.0519
3 13 1 10.5611 -0.0269
3 13 2 4.8161 0.0521
3 13 3 15.4474 0.0154
3 13 4 -26.4331 -0.0344
3 13 5 -8.7936 0.1339
3 13 6 0.7508 -0.1052
3 13 7 -22.5572 -0.0222
3 13 8 7.9680 -0.0133
3 13 9 -15.8214 -0.0895
3 13 10 22.2607 0.0879
3 13 11 -4.8806 0.0043
3 13 12 -1.5034 0.1135
3 13 13 -1.4040 -0.0961
3 13 14 -10.8515 -0.0321
3 13 15 -6.7596 -0.1206
3 13 16 -19.2142 -0.1041
3 13 17 -1.8067 -0.0766
3 13 18 -12.3997 -0.0086
3 13 19 9.5726 0.0748
3 13 20 5.9935 -0.1839
3 13 21 2.2010 0.0078
3 13 22 6.2576 -0.0631
3 15 0 3.8631 -0.2274
3 15 1 -1.9580 -0.0977
3 15 2 -2.2793 -0.3428
3 15 3 -5.8853 -0.0588
3 15 4 8.5825 -0.4502
3 15 5 -5.9861 -0.1836
3 15 6 45.0885 -0.4269
3 15 7 0.8484 -0.2328
3 15 8 9.5730 -0.2417
3 15 9 4.6434 -0.2248
3 15 10 0.8216 -0.0499
3 15 11 18.8420 -0.2456
3 15 12 -7.6324 -0.1195
3 15 13 -4.0697 -0.1680
3 15 14 4.7267 0.0813
3 15 15 -6.3641 -0.1307
3 15 16 5.6169 0.1103
3 15 17 5.8614 0.0995
3 15 18 -12.0728 0.2942
3 15 19 6.3740 0.0116
3 15 20 5.2981 0.2545
3 15 21 -11.9995 -0.0676
3 17 0 24.3632 -0.1809
3 17 1 -14.8875 -0.1076
3 17 2 8.7043 -0.3091
3 17 3 -6.1714 0.0020
3 17 4 -17.1873 -0.3586
3 17 5 -1.1490 -0.0485
3 17 6 -17.0169 -0.4259
3 17 7 -1.0317 -0.1021
3 17 8 -18.5693 -0.1879
3 17 9 -16.0322 -0.1731
3 17 10 -5.4740 -0.1106
3 17 11 -4.6848 -0.2153
3 17 12 -9.0590 0.0074
3 17 13 1.1549 -0.1598
3 17 14 11.2621 0.1685
3 17 15 6.5426 -0.0773
3 17 16 6.3581 0.2091
3 17 17 7.0019 0.3359
3 17 18 -4.7563 0.1330
3 17 19 7.8400 0.1725
3 17 20 9.0718 -0.0829
3 19 0 -14.8121 0.0260
3 19 1 -11.7554 0.0431
3 19 2 -10.7196 0.0884
3 19 3 -10.5479 -0.0895
3 19 4 -3.2160 0.2409
3 19 5 -9.7816 -0.0072
3 19 6 6.5771 0.2111
3 19 7 -5.3555 -0.0240
3 19 8 6.3943 0.0344
3 19 9 -11.1245 0.1335
3 19 10 21.0417 -0.1170
3 19 11 3.3898 0.1610
3 19 12 -1.1476 -0.0595
3 19 13 -12.4930 0.1092
3 19 14 -3.6295 -0.0124
3 19 15 -13.5531 0.2930
3 19 16 -11.9677 0.1760
3 19 17 -1.5690 0.0866
3 19 18 0.1155 -0.0854
3 19 19 -9.8480 -0.4532
3 21 0 3.3896 0.3131
3 21 1 -7.1109 0.1143
3 21 2 11.4642 0.3348
3 21 3 7.4598 -0.0240
3 21 4 14.1961 0.3172
3 21 5 3.0178 0.1224
3 21 6 1.2046 0.3134
3 21 7 -2.9521 0.2016
3 21 8 -13.0044 0.2027
3 21 9 -0.0176 0.1782
3 21 10 1.2400 0.0671
3 21 11 -0.6160 0.2177
3 21 12 -9.9373 0.0011
3 21 13 -7.5699 0.2262
3 21 14 11.9301 0.0221
3 21 15 -1.1404 0.0223
3 21 16 -1.0591 -0.2732
3 21 17 1.8892 -0.2381
3 21 18 -5.2995 -0.6814
3 23 0 0.4182 0.1081
3 23 1 8.8519 0.0160
3 23 2 -10.3030 0.1767
3 23 3 -3.1894 0.0119
3 23 4 4.7505 0.1515
3 23 5 -0.8980 0.0114
3 23 6 7.2168 0.1860
3 23 7 -4.7531 0.0147
3 23 8 7.2075 -0.0560
3 23 9 -0.8820 -0.1425
3 23 10 11.4064 0.1211
3 23 11 -14.2687 0.1184
3 23 12 4.4616 0.1267
3 23 13 -4.1968 -0.0847
3 23 14 11.5186 -0.1801
3 23 15 -6.2210 -0.1538
3 23 16 4.3640 -0.4211
3 25 0 -10.9058 -0.1185
3 25 1 -10.2249 0.0147
3 25 2 -2.3857 -0.2142
3 25 3 -10.5823 -0.0620
3 25 4 16.2273 -0.4279
3 25 5 5.8957 -0.1416
3 25 6 -1.9216 -0.3281
3 25 7 1.3904 -0.0986
3 25 8 -8.1914 -0.1663
3 25 9 12.8759 -0.2191
3 25 10 -7.1900 -0.0941
3 25 11 -3.2342 -0.2106
3 25 12 -13.4565 0.0164
3 25 13 -9.3351 -0.1040
3 25 14 -9.1853 -0.0705
3 27 0 11.1352 -0.2422
3 27 1 4.2148 -0.1200
3 27 2 2.7542 -0.3714
3 27 3 0.2264 0.0687
3 27 4 11.0610 -0.4534
3 27 5 1.0136 -0.1516
3 27 6 -5.4534 -0.4639
3 27 7 -2.5799 -0.2673
3 27 8 6.1294 0.2537
3 27 9 -2.8695 0.1756
3 27 10 8.5235 0.0792
3 27 11 -6.3634 -0.0287
3 27 12 13.2413 0.1724
3 29 0 4.3071 -0.1768
3 29 1 6.3509 -0.0662
3 29 2 -2.4585 -0.0783
3 29 3 -4.1828 0.0350
3 29 4 2.3091 0.6231
3 29 5 -0.1342 0.3557
3 29 6 0.0401 0.5056
3 29 7 -2.1343 0.5363
3 29 8 0.0238 0.5907
3 29 9 1.6678 0.4990
3 31 0 11.4341 0.5521
3 31 1 9.1529 0.1396
3 31 2 -0.0468 1.0924
3 31 3 -0.5166 0.2772
3 31 4 -5.6219 1.0254
4 0 0 5.1626 1.3452
4 0 1 36.0356 3.9119
4 0 2 -29.1825 2.1046
4 0 3 21.3589 5.3215
4 0 4 20.4330 2.1253
4 0 5 -11.5919 4.5898
4 0 6 10.7146 2.0126
4 0 7 -24.4941 2.9938
4 0 8 21.3398 1.3974
4 0 9 19.6686 0.8568
4 0 10 -16.6761 0.5650
4 0 11 -2.7731 -0.9021
4 0 12 -21.7439 -0.4672
4 0 13 -6.3498 -2.0150
4 0 14 16.7900 -1.3307
4 0 15 -6.0373 -2.5151
4 0 16 1.6138 -1.9542
4 0 17 0.6331 -2.4464
4 0 18 -20.1251 -2.1714
4 0 19 -16.4360 -1.9765
4 0 20 -6.5218 -1.8661
4 0 21 6.6450 -1.3637
4 0 22 3.6187 -1.2081
4 0 23 1.6128 -0.6647
4 2 0 30.3763 1.1015
4 2 1 20.9813 1.7302
4 2 2 -20.0356 -0.4575
4 2 3 9.4824 1.4672
4 2 4 4.2829 -0.2606
4 2 5 2.9475 1.4633
4 2 6 -30.5698 -0.0332
4 2 7 -15.3118 0.8153
4 2 8 9.7735 0.1978
4 2 9 15.5275 0.1548
4 2 10 13.7519 0.2676
4 2 11 3.4464 -0.4031
4 2 12 12.3577 0.0951
4 2 13 10.7410 -0.6633
4 2 14 7.6848 -0.0311
4 2 15 -1.3253 -0.6961
4 2 16 -6.5786 -0.3576
4 2 17 0.1147 -0.6237
4 2 18 -3.2440 -0.4049
4 2 19 -6.8290 -0.3766
4 2 20 3.6338 -0.3105
4 2 21 -0.1275 -0.1393
4 2 22 -8.4131 -0.3407
4 2 23 2.3112 0.0801
4 4 0 -8.9004 -0.2693
4 4 1 12.9334 -0.5227
4 4 2 -20.3679 0.1416
4 4 3 -24.3140 -1.1498
4 4 4 6.9343 -0.7278
4 4 5 -9.2559 -0.9265
4 4 6 -5.1836 -0.6153
4 4 7 -7.3190 -0.5726
4 4 8 19.2699 -0.2808
4 4 9 13.3475 -0.1562
4 4 10 -13.2507 -0.0821
4 4 11 -12.0668 0.1776
4 4 12 -4.5588 0.0817
4 4 13 6.4627 0.3597
4 4 14 4.8622 0.3061
4 4 15 7.9773 0.4322
4 4 16 -2.0132 0.3445
4 4 17 -6.3275 0.4453
4 4 18 -3.0061 0.4159
4 4 19 -6.7337 0.3895
4 4 20 5.2125 0.5033
4 4 21 -4.3181 0.2897
4 4 22 5.9709 0.0664
4 4 23 -6.6005 0.1330
4 6 0 3.5682 -0.6018
4 6 1 43.8519 -1.1105
4 6 2 -22.9115 -0.0444
4 6 3 29.2926 -1.2063
4 6 4 0.0263 -0.1427
4 6 5 0.7737 -1.1277
4 6 6 13.4105 -0.0458
4 6 7 -21.0887 -0.6985
4 6 8 18.3916 -0.2369
4 6 9 17.3942 -0.0618
4 6 10 -13.5199 -0.2012
4 6 11 -0.9525 0.3039
4 6 12 -10.4469 -0.1722
4 6 13 -8.4339 0.4583
4 6 14 12.5774 0.0396
4 6 15 -2.5781 0.5647
4 6 16 -3.8188 0.3678
4 6 17 -0.7052 0.5442
4 6 18 3.8808 0.4586
4 6 19 4.2640 0.3244
4 6 20 4.4973 0.3491
4 6 21 -5.8870 0.0848
4 6 22 -11.3784 -0.1608
4 6 23 -11.1319 -0.0303
4 8 0 19.9474 -0.1753
4 8 1 -1.6414 -0.2681
4 8 2 -13.9678 -0.0415
4 8 3 -12.9815 -0.0080
4 8 4 -25.4416 0.0289
4 8 5 -12.2142 0.1113
4 8 6 -9.0812 -0.0342
4 8 7 -4.9889 0.1264
4 8 8 12.6050 0.0780
4 8 9 4.1202 0.0166
4 8 10 -4.6524 -0.0066
4 8 11 4.7380 -0.0273
4 8 12 -20.1377 -0.0849
4 8 13 3.8444 0.0043
4 8 14 13.7160 -0.0674
4 8 15 2.7885 0.0108
4 8 16 -0.0785 -0.0194
4 8 17 0.2142 0.0876
4 8 18 -12.0211 -0.0072
4 8 19 3.2811 0.0342
4 8 20 0.3434 -0.1395
4 8 21 11.1179 -0.2770
4 8 22 -3.0499 -0.2433
4 8 23 9.3966 -0.0926
4 10 0 -16.3781 0.2266
4 10 1 10.0536 0.6347
4 10 2 -7.5576 0.2042
4 10 3 5.6880 0.6782
4 10 4 12.6214 0.1622
4 10 5 11.4132 0.5149
4 10 6 17.2256 0.2123
4 10 7 6.0035 0.2011
4 10 8 3.2471 0.2537
4 10 9 -2.6890 0.1425
4 10 10 -1.4441 0.0808
4 10 11 -4.7205 -0.0831
4 10 12 1.6154 -0.0323
4 10 13 -4.4259 -0.3088
4 10 14 12.3637 -0.1206
4 10 15 9.0964 -0.3199
4 10 16 10.3962 -0.2330
4 10 17 -3.3167 -0.2785
4 10 18 -0.1036 -0.2534
4 10 19 -5.1638 -0.2125
4 10 20 9.4143 -0.3234
4 10 21 -5.1132 -0.2210
4 10 22 2.1823 -0.0174
4 12 0 6.6716 0.3161
4 12 1 6.9554 0.4248
4 12 2 -1.9888 0.1534
4 12 3 8.7636 0.5376
4 12 4 6.0159 -0.0557
4 12 5 2.4342 0.4243
4 12 6 -1.4201 0.0092
4 12 7 -7.8383 0.2742
4 12 8 11.3710 0.1187
4 12 9 6.1903 0.0731
4 12 10 6.1715 0.1389
4 12 11 2.2617 -0.2869
4 12 12 2.0977 0.0511
4 12 13 4.9001 -0.3438
4 12 14 -0.6288 -0.0717
4 12 15 17.4432 -0.2957
4 12 16 4.8434 -0.0407
4 12 17 4.1092 -0.0808
4 12 18 -23.6750 -0.0928
4 12 19 -2.1426 -0.0943
4 12 20 -7.8762 -0.2534
4 12 21 9.5000 -0.0546
4 14 0 -22.3423 -0.0986
4 14 1 -3.2104 -0.0713
4 14 2 5.8490 -0.0227
4 14 3 -6.8395 -0.1497
4 14 4 18.0585 0.0119
4 14 5 -4.4923 -0.2119
4 14 6 9.9442 0.0180
4 14 7 0.9232 -0.0661
4 14 8 0.4785 -0.0341
4 14 9 6.1357 -0.0129
4 14 10 -18.2960 -0.1340
4 14 11 3.6275 -0.0356
4 14 12 -15.7907 -0.1282
4 14 13 -3.2511 -0.0161
4 14 14 -12.1842 0.0349
4 14 15 -12.3392 0.0784
4 14 16 -0.9059 0.1445
4 14 17 -0.1694 0.2210
4 14 18 -1.9642 0.1139
4 14 19 -7.7227 -0.0262
4 14 20 8.1861 0.1084
4 14 21 7.0416 -0.0491
4 16 0 7.1963 -0.1684
4 16 1 5.2487 -0.3974
4 16 2 -0.5989 -0.0378
4 16 3 11.1383 -0.4035
4 16 4 -7.8575 0.0547
4 16 5 -0.0800 -0.3482
4 16 6 -20.9184 -0.1241
4 16 7 -15.8458 -0.1908
4 16 8 -5.2658 -0.1750
4 16 9 -13.0958 -0.0699
4 16 10 4.6002 -0.2067
4 16 11 -1.7040 0.0787
4 16 12 1.0661 -0.0295
4 16 13 2.4018 0.1972
4 16 14 16.5054 0.0504
4 16 15 2.2367 0.3780
4 16 16 2.4927 0.2998
4 16 17 11.3688 0.1243
4 16 18 -10.7588 0.1280
4 16 19 2.4546 0.0623
4 16 20 -11.3592 -0.1311
4 18 0 0.0767 0.0313
4 18 1 -8.8089 -0.0743
4 18 2 -7.4439 -0.0498
4 18 3 -2.1702 -0.1808
4 18 4 1.8669 0.0601
4 18 5 3.8637 -0.0741
4 18 6 8.7150 0.1409
4 18 7 8.2154 -0.1132
4 18 8 30.2284 -0.0983
4 18 9 -6.5984 -0.0915
4 18 10 5.8925 -0.0348
4 18 11 3.6015 0.0469
4 18 12 0.4244 0.0533
4 18 13 8.1654 0.1833
4 18 14 7.5865 -0.0031
4 18 15 -4.7503 0.3218
4 18 16 3.1014 0.1318
4 18 17 -11.6801 -0.0150
4 18 18 3.2586 -0.0252
4 18 19 -1.3165 -0.3051
4 20 0 8.9925 0.2325
4 20 1 11.8522 0.2499
4 20 2 13.0079 0.0837
4 20 3 16.5792 0.3059
4 20 4 21.6279 0.0869
4 20 5 3.9914 0.3605
4 20 6 -4.2068 0.0925
4 20 7 -4.0024 0.0922
4 20 8 -0.6760 0.0684
4 20 9 7.4225 0.0011
4 20 10 -0.4632 0.1178
4 20 11 4.3876 0.0379
4 20 12 3.8944 -0.0182
4 20 13 -2.3413 0.1549
4 20 14 -10.7936 0.1201
4 20 15 9.6134 -0.1278
4 20 16 1.1184 -0.3708
4 20 17 -10.3794 -0.1696
4 20 18 -2.2394 -0.8570
4 22 0 -3.4736 0.1689
4 22 1 3.8088 0.2923
4 22 2 -14.9349 0.0786
4 22 3 -11.7097 0.4157
4 22 4 -7.9921 0.0127
4 22 5 -8.5706 0.3132
4 22 6 -4.6341 -0.0026
4 22 7 6.3525 0.2011
4 22 8 8.2132 0.0249
4 22 9 -2.1548 0.0583
4 22 10 -4.2318 0.0469
4 22 11 -14.9736 0.0631
4 22 12 11.3444 0.2286
4 22 13 -3.0666 -0.1772
4 22 14 -5.8782 -0.1854
4 22 15 6.0386 -0.3514
4 22 16 -8.0150 -0.4466
4 24 0 -4.1657 -0.1063
4 24 1 -6.2195 -0.1054
4 24 2 14.4929 -0.1210
4 24 3 4.0887 -0.1153
4 24 4 18.3058 -0.0235
4 24 5 5.3160 -0.1085
4 24 6 -8.1509 -0.0483
4 24 7 -1.0582 -0.1078
4 24 8 -5.7676 -0.0248
4 24 9 -3.8585 0.0561
4 24 10 -5.2748 -0.0078
4 24 11 3.7568 -0.0241
4 24 12 2.0090 -0.1481
4 24 13 -4.0067 -0.1236
4 24 14 13.6805 -0.2431
4 26 0 -2.4299 -0.4391
4 26 1 -2.2013 -0.5077
4 26 2 3.2803 -0.1615
4 26 3 4.1891 -0.2991
4 26 4 -8.3153 0.0700
4 26 5 1.4630 -0.4070
4 26 6 -8.6402 -0.1040
4 26 7 2.8070 -0.2268
4 26 8 14.7306 -0.1782
4 26 9 -6.5828 -0.0350
4 26 10 7.4235 -0.1413
4 26 11 1.2872 0.0552
4 26 12 -0.2803 -0.0350
4 28 0 -4.7051 -0.1558
4 28 1 -4.3434 -0.2026
4 28 2 3.2094 -0.1048
4 28 3 -2.4561 -0.1975
4 28 4 -4.0711 0.3354
4 28 5 -6.8683 0.1058
4 28 6 -11.9332 0.3090
4 28 7 0.4725 -0.0742
4 28 8 -9.2656 0.1712
4 28 9 -1.7051 0.1766
4 30 0 -0.5477 0.6042
4 30 1 0.3069 0.8692
4 30 2 0.2836 0.5533
4 30 3 5.9304 0.9424
4 30 4 2.0407 0.2391
4 30 5 7.3091 0.6934
5 1 0 -38.8385 2.6498
5 1 1 6.5681 1.9377
5 1 2 -10.0754 2.4103
5 1 3 -2.5089 0.6248
5 1 4 1.2892 2.1714
5 1 5 -33.3568 0.0053
5 1 6 -3.0472 1.3760
5 1 7 10.2485 -0.3853
5 1 8 -6.3353 0.2062
5 1 9 -11.5046 -0.7793
5 1 10 -3.6597 -0.8521
5 1 11 -0.9880 -0.9919
5 1 12 -5.5595 -1.4694
5 1 13 -6.1519 -1.0724
5 1 14 9.8818 -1.6823
5 1 15 4.7254 -1.0547
5 1 16 -2.9680 -1.5441
5 1 17 11.8107 -1.0020
5 1 18 -6.9052 -1.0301
5 1 19 13.2297 -0.6442
5 1 20 -8.0875 -0.5276
5 1 21 -5.9202 -0.2063
5 1 22 -0.3897 0.0831
5 3 0 -19.7891 0.4851
5 3 1 -0.2547 -0.2855
5 3 2 -14.2102 -0.4730
5 3 3 1.8651 0.3519
5 3 4 -26.2197 -0.4093
5 3 5 -9.7558 0.4692
5 3 6 15.0054 -0.3163
5 3 7 -7.9514 0.3206
5 3 8 34.0475 -0.1789
5 3 9 -7.2404 0.1104
5 3 10 0.8247 -0.0753
5 3 11 4.4860 -0.0721
5 3 12 -17.3442 0.1236
5 3 13 6.7667 0.0598
5 3 14 -17.6086 0.2356
5 3 15 11.1160 0.1137
5 3 16 0.5856 0.2613
5 3 17 9.5435 0.1015
5 3 18 11.4326 0.1544
5 3 19 -4.8737 0.0643
5 3 20 3.3403 -0.0300
5 3 21 -0.5950 -0.0142
5 3 22 -2.9574 0.2012
5 5 0 -24.6951 -0.5554
5 5 1 6.0135 -0.4840
5 5 2 21.6411 -0.6944
5 5 3 -16.4872 -0.5112
5 5 4 16.4647 -0.6525
5 5 5 2.4396 -0.1850
5 5 6 -1.7705 -0.3069
5 5 7 -3.3890 0.2183
5 5 8 -10.7831 -0.0101
5 5 9 5.0766 0.3288
5 5 10 -13.5370 0.3140
5 5 11 10.6660 0.3795
5 5 12 10.5542 0.4295
5 5 13 16.5368 0.4833
5 5 14 5.8809 0.6269
5 5 15 9.7401 0.5555
5 5 16 -3.2986 0.6786
5 5 17 -4.6503 0.4154
5 5 18 -2.2082 0.4211
5 5 19 -12.7052 0.1730
5 5 20 -3.8497 0.1181
5 5 21 7.8640 -0.0390
5 5 22 -5.8584 0.1159
5 7 0 -40.6589 -0.2340
5 7 1 15.1764 -0.3199
5 7 2 -23.6133 -0.1239
5 7 3 -14.3297 -0.1763
5 7 4 -21.1183 -0.3196
5 7 5 -10.6770 -0.1680
5 7 6 -7.4872 -0.2662
5 7 7 -1.5776 0.1898
5 7 8 13.3713 0.1453
5 7 9 0.5401 0.2236
5 7 10 -1.0496 0.2161
5 7 11 12.2130 0.1627
5 7 12 5.5523 0.2484
5 7 13 -7.9287 0.1840
5 7 14 7.1665 0.2518
5 7 15 1.6584 0.2305
5 7 16 -7.8410 0.2181
5 7 17 1.9806 0.1347
5 7 18 -4.5649 0.1032
5 7 19 -14.4272 -0.0313
5 7 20 2.5365 -0.0654
5 7 21 4.1585 0.0007
5 7 22 0.6013 0.0021
5 9 0 3.2108 -0.0269
5 9 1 0.3250 0.3390
5 9 2 0.3860 0.1411
5 9 3 -7.8034 0.1770
5 9 4 -5.7358 0.4095
5 9 5 2.7165 -0.1018
5 9 6 10.9793 0.3240
5 9 7 14.4910 -0.0041
5 9 8 7.2065 0.1067
5 9 9 -18.6606 -0.0631
5 9 10 -0.2307 -0.0615
5 9 11 8.4169 -0.1925
5 9 12 -1.2993 -0.1735
5 9 13 -6.4528 -0.1695
5 9 14 -6.3655 -0.2208
5 9 15 0.4458 -0.0689
5 9 16 -11.3853 -0.1608
5 9 17 -0.4123 -0.1631
5 9 18 -6.4888 -0.2295
5 9 19 -4.0443 -0.2319
5 9 20 -7.0650 -0.1897
5 9 21 3.7311 0.0390
5 11 0 -4.3533 0.4068
5 11 1 17.3337 0.4100
5 11 2 6.8225 0.3382
5 11 3 -14.2202 0.2977
5 11 4 -7.6534 0.3558
5 11 5 -15.9436 0.1013
5 11 6 -17.8928 0.2912
5 11 7 1.6636 -0.0086
5 11 8 -21.8757 0.1285
5 11 9 -3.8337 -0.2141
5 11 10 3.6338 -0.1101
5 11 11 18.7080 -0.2553
5 11 12 -2.5268 -0.3088
5 11 13 7.4081 -0.1959
5 11 14 -10.6544 -0.3009
5 11 15 3.9781 -0.1385
5 11 16 0.1913 -0.2214
5 11 17 -9.3981 -0.2611
5 11 18 6.4177 -0.1722
5 11 19 -2.7646 -0.1713
5 11 20 -2.6224 0.0215
5 11 21 15.6317 0.1765
5 13 0 -33.0496 0.1763
5 13 1 -10.6973 0.0533
5 13 2 -5.8830 0.1197
5 13 3 -14.4484 0.0835
5 13 4 -12.5539 0.0600
5 13 5 -3.6022 0.1559
5 13 6 6.0438 -0.0413
5 13 7 3.0234 0.0464
5 13 8 2.1358 -0.0749
5 13 9 -11.5645 0.0229
5 13 10 -3.8975 0.0125
5 13 11 -4.9171 0.0108
5 13 12 -3.7743 0.0022
5 13 13 -11.5443 -0.1245
5 13 14 -3.8831 0.0114
5 13 15 4.9362 -0.0272
5 13 16 -5.4515 -0.0461
5 13 17 10.9277 0.0571
5 13 18 -0.6711 -0.0837
5 13 19 -1.6692 0.1240
5 13 20 5.6457 0.1518
5 15 0 -0.6166 -0.2401
5 15 1 3.9473 -0.2874
5 15 2 3.8185 -0.1721
5 15 3 -9.1065 -0.1142
5 15 4 -2.2597 -0.1954
5 15 5 8.7494 -0.0243
5 15 6 -3.2501 -0.1217
5 15 7 4.3389 0.0110
5 15 8 -2.6721 -0.0973
5 15 9 2.9357 0.0853
5 15 10 18.8603 0.0476
5 15 11 6.4332 0.1350
5 15 12 11.2266 0.2035
5 15 13 0.1462 0.2375
5 15 14 8.0281 0.2468
5 15 15 3.5983 0.1121
5 15 16 7.5688 0.2740
5 15 17 4.8806 0.1539
5 15 18 -11.3133 0.2496
5 15 19 -17.6561 0.0151
5 17 0 -17.6065 -0.1592
5 17 1 4.4855 -0.2998
5 17 2 -13.8930 -0.1898
5 17 3 4.2656 -0.1475
5 17 4 3.5324 -0.2343
5 17 5 -7.4180 -0.0553
5 17 6 20.2684 -0.1230
5 17 7 -12.4509 -0.0291
5 17 8 4.2996 -0.1412
5 17 9 6.1554 0.0449
5 17 10 -9.6805 0.0279
5 17 11 3.9397 0.1279
5 17 12 -8.9308 0.2412
5 17 13 0.3828 0.1735
5 17 14 -6.9614 0.3822
5 17 15 -0.8288 0.0684
5 17 16 -4.8251 0.2309
5 17 17 7.2701 0.1965
5 17 18 -14.9239 -0.1449
5 19 0 -4.6119 -0.1320
5 19 1 3.5760 0.0826
5 19 2 9.2973 -0.0678
5 19 3 6.8326 0.0189
5 19 4 -2.9237 0.1222
5 19 5 0.0648 -0.0426
5 19 6 -9.8552 0.0087
5 19 7 -2.4792 -0.1717
5 19 8 -3.3929 0.0526
5 19 9 -2.1691 0.0158
5 19 10 -2.0535 0.0219
5 19 11 -10.7863 0.0980
5 19 12 4.3734 -0.0606
5 19 13 -7.9351 0.0969
5 19 14 2.9934 0.0293
5 19 15 1.6256 0.0515
5 19 16 15.5082 -0.2154
5 19 17 4.9693 -0.3186
5 21 0 -14.0826 0.1149
5 21 1 5.7706 0.1102
5 21 2 -16.4556 0.1800
5 21 3 -11.5913 0.0919
5 21 4 -2.5567 0.1914
5 21 5 -14.5795 0.0795
5 21 6 2.0905 0.2221
5 21 7 3.1294 0.0059
5 21 8 21.7356 0.1237
5 21 9 -0.3701 0.0065
5 21 10 4.2601 -0.0961
5 21 11 8.4916 0.0928
5 21 12 -5.9589 -0.0406
5 21 13 16.5078 -0.2270
5 21 14 -7.7613 -0.4543
5 21 15 4.0470 -0.1591
5 21 16 11.3602 -0.9470
5 23 0 -11.7874 -0.0280
5 23 1 1.2129 -0.0550
5 23 2 0.0767 0.0253
5 23 3 0.4590 0.0057
5 23 4 3.8602 0.1561
5 23 5 -0.7093 0.1276
5 23 6 -3.9457 0.1105
5 23 7 8.4578 0.0348
5 23 8 2.2747 0.0772
5 23 9 -11.1894 -0.0855
5 23 10 -4.2938 0.2381
5 23 11 -6.6065 -0.3104
5 23 12 10.8118 -0.3529
5 23 13 0.4795 -0.0519
5 23 14 -1.7404 -0.5668
5 25 0 5.2485 -0.1885
5 25 1 9.6025 -0.2407
5 25 2 1.1734 -0.1560
5 25 3 2.7899 -0.0535
5 25 4 0.1368 -0.1755
5 25 5 -4.4339 0.1294
5 25 6 1.4958 -0.0830
5 25 7 -1.7116 0.1163
5 25 8 -0.0413 -0.1992
5 25 9 4.4805 -0.2392
5 25 10 -6.2829 -0.2568
5 25 11 3.6419 -0.1309
5 25 12 -4.3600 -0.1787
5 27 0 -12.4077 -0.0343
5 27 1 5.5023 -0.0847
5 27 2 -4.6765 -0.0662
5 27 3 -2.7628 -0.0159
5 27 4 -8.1663 -0.2114
5 27 5 10.4891 0.1095
5 27 6 8.2213 -0.1679
5 27 7 21.4731 -0.0178
5 27 8 1.0317 -0.1569
5 27 9 3.3701 -0.2065
5 29 0 4.8769 0.6924
5 29 1 -6.5685 0.7557
5 29 2 1.1425 0.6341
5 29 3 -6.1621 0.2747
5 29 4 4.2631 0.3815
5 29 5 8.0726 0.0039
6 0 0 -6.5930 2.3848
6 0 1 17.5016 1.9053
6 0 2 42.9462 1.2842
6 0 3 11.3194 1.6359
6 0 4 41.4764 -0.2712
6 0 5 -32.1783 0.4106
6 0 6 -9.2043 -1.6610
6 0 8 21.9201 -2.5200
6 0 9 -59.0781 -2.1170
6 0 10 0.7451 -2.6797
6 0 11 -19.4178 -2.6512
6 0 12 4.7827 -2.3918
6 0 13 -5.8759 -2.4475
6 0 14 -8.3907 -1.7939
6 0 15 -0.1701 -1.8583
6 0 16 -53.6794 -1.1642
6 0 17 20.1849 -1.0628
6 0 18 -41.4979 -0.4532
6 0 19 7.7968 -0.1597
6 0 20 25.4777 0.1987
6 0 21 1.0422 0.3856
6 0 22 26.3326 0.5399
6 2 0 -19.7943 1.8810
6 2 1 52.8693 0.7093
6 2 2 -0.4130 -0.2239
6 2 3 16.2924 0.3601
6 2 4 23.0168 -0.5258
6 2 5 -8.2044 0.4019
6 2 6 19.3393 -0.6263
6 2 7 23.4100 0.0525
6 2 8 21.1633 -0.6314
6 2 9 10.8660 -0.3349
6 2 10 -7.3809 -0.6101
6 2 11 15.2358 -0.5460
6 2 12 -7.1599 -0.4147
6 2 13 8.9011 -0.5936
6 2 14 -2.1050 -0.3646
6 2 15 10.0234 -0.4939
6 2 16 8.7585 -0.2048
6 2 17 11.2435 -0.1984
6 2 18 4.4161 -0.0995
6 2 19 -10.2242 0.0250
6 2 20 3.0283 0.2417
6 2 21 11.9347 0.4663
6 4 0 -17.3019 -0.3246
6 4 1 16.2506 0.1217
6 4 2 -8.5680 0.0455
6 4 3 5.9239 -0.5944
6 4 4 8.8995 -0.1912
6 4 5 -24.2386 -0.1640
6 4 6 10.8498 0.2562
6 4 7 -15.8425 0.3274
6 4 8 -9.2426 0.5427
6 4 9 2.0269 0.5138
6 4 10 -16.9226 0.4842
6 4 11 -6.3199 0.4530
6 4 12 9.0759 0.4536
6 4 13 -9.2373 0.3860
6 4 14 5.9632 0.3778
6 4 15 -12.0086 0.3773
6 4 16 -3.2912 0.1612
6 4 17 13.4895 0.2164
6 4 18 2.7200 -0.0184
6 4 19 12.5624 -0.1199
6 4 20 -1.5336 0.2341
6 4 21 17.0113 0.2974
6 6 0 -2.2309 -0.8108
6 6 1 6.6544 -0.4576
6 6 2 31.0804 -0.0273
6 6 3 2.1863 -0.4706
6 6 4 2.5926 0.2291
6 6 5 -14.0733 -0.2389
6 6 6 -3.6388 0.5828
6 6 7 -32.0581 0.0161
6 6 8 -0.5328 0.4696
6 6 9 -4.3241 0.3495
6 6 10 -7.9854 0.4105
6 6 11 -12.9278 0.4602
6 6 12 -0.7842 0.3099
6 6 13 5.4964 0.5072
6 6 14 -16.0505 0.3795
6 6 15 7.1513 0.4964
6 6 16 -2.8475 0.1679
6 6 17 13.3013 0.0638
6 6 18 14.9015 -0.1433
6 6 19 -7.7318 -0.2035
6 6 20 0.6887 0.1069
6 6 21 11.7159 0.0806
6 8 0 -21.4147 -0.3062
6 8 1 24.9988 0.0037
6 8 2 15.2899 0.0273
6 8 3 18.6202 0.0027
6 8 4 13.9479 0.0493
6 8 5 20.4940 -0.0974
6 8 6 28.0903 0.0096
6 8 7 -0.0524 0.0109
6 8 8 15.9812 -0.0190
6 8 9 5.5240 -0.0467
6 8 10 -5.2977 -0.1229
6 8 11 -16.1779 -0.0515
6 8 12 8.4156 -0.0726
6 8 13 0.3424 -0.0046
6 8 14 -10.5835 0.0173
6 8 15 5.1553 0.0146
6 8 16 -0.3712 -0.0906
6 8 17 15.6465 -0.1378
6 8 18 4.8209 -0.1780
6 8 19 2.0823 -0.1145
6 8 20 -3.1897 0.0807
6 8 21 5.8610 0.1348
6 10 0 -11.9652 0.3800
6 10 1 7.4475 0.3840
6 10 2 10.9010 0.0740
6 10 3 3.2099 0.3961
6 10 4 5.4176 -0.0801
6 10 5 -0.0122 0.0555
6 10 6 -0.6517 -0.3067
6 10 7 -7.4092 -0.2588
6 10 8 -11.9031 -0.1394
6 10 9 7.8426 -0.2582
6 10 10 -6.5450 -0.2805
6 10 11 -9.6684 -0.3607
6 10 12 4.2855 -0.3615
6 10 13 1.1650 -0.3666
6 10 14 2.4957 -0.2477
6 10 15 -2.2429 -0.3111
6 10 16 11.8096 -0.2076
6 10 17 5.7337 -0.2002
6 10 18 -20.4420 -0.0499
6 10 19 -1.5032 -0.0562
6 10 20 -3.4363 0.2140
6 12 0 -3.9169 0.4888
6 12 1 8.3354 0.0844
6 12 2 15.2793 0.1294
6 12 3 0.1045 0.1476
6 12 4 -4.7602 -0.1126
6 12 5 -17.3997 0.1916
6 12 6 12.7027 -0.2157
6 12 7 -8.4491 0.0120
6 12 8 4.0901 -0.1986
6 12 9 3.1907 -0.1146
6 12 10 -2.2547 -0.2387
6 12 11 -16.7734 -0.2911
6 12 12 -1.6433 -0.1297
6 12 13 6.7021 -0.2307
6 12 14 1.9083 -0.0509
6 12 15 10.9632 -0.2748
6 12 16 26.8544 -0.0710
6 12 17 13.5014 -0.0525
6 12 18 -0.7827 0.0017
6 12 19 16.1937 0.2304
6 14 0 0.5920 -0.2532
6 14 1 28.9869 -0.0557
6 14 2 17.5608 -0.1303
6 14 3 12.4118 -0.1351
6 14 4 -9.2271 -0.0876
6 14 5 15.6372 -0.0314
6 14 6 14.6023 0.0306
6 14 7 -0.4986 0.0571
6 14 8 4.4547 0.0946
6 14 9 -3.4757 0.1130
6 14 10 -0.0075 0.0804
6 14 11 -11.6684 0.0843
6 14 12 3.3100 0.0496
6 14 13 -4.2897 0.1307
6 14 14 -7.3644 0.1169
6 14 15 -4.1391 0.0984
6 14 16 2.9993 0.1473
6 14 17 -3.7226 0.0520
6 14 18 -16.2653 0.0995
6 14 19 8.1107 0.1042
6 16 0 -23.3554 -0.4158
6 16 1 13.9408 -0.3133
6 16 2 8.2528 -0.0956
6 16 3 -7.5431 -0.2513
6 16 4 12.3248 0.0129
6 16 5 -1.8926 -0.2063
6 16 6 9.7981 0.0904
6 16 7 -6.9999 0.0279
6 16 8 0.7653 0.0709
6 16 9 14.5361 0.1246
6 16 10 -3.2225 0.2699
6 16 11 -4.1240 0.3234
6 16 12 0.6048 0.2509
6 16 13 3.8772 0.1739
6 16 14 1.3138 0.0931
6 16 15 0.2127 0.2712
6 16 16 10.0391 0.1258
6 16 17 13.8088 -0.0509
6 16 18 -0.2688 0.0636
6 18 0 2.5941 -0.2597
6 18 1 13.8829 -0.1907
6 18 2 -10.1735 -0.1383
6 18 3 -2.8420 -0.0769
6 18 4 -19.1934 0.1412
6 18 5 -4.6147 -0.0971
6 18 6 7.6461 0.0142
6 18 7 -20.7891 -0.0342
6 18 8 0.9229 0.0963
6 18 9 -3.2573 -0.0166
6 18 10 7.1778 0.1693
6 18 11 -17.7767 0.1170
6 18 12 4.8837 0.1239
6 18 13 10.6577 0.1342
6 18 14 -4.6541 -0.0596
6 18 15 -5.8028 0.0028
6 18 16 5.5306 -0.1765
6 18 17 -0.1257 -0.2614
6 20 0 -6.0008 0.1724
6 20 1 1.4699 -0.0073
6 20 2 1.4511 -0.0373
6 20 3 0.4302 0.1143
6 20 4 -2.7600 0.0365
6 20 5 -1.2236 0.1350
6 20 6 8.4075 0.0380
6 20 7 -25.2208 0.1111
6 20 8 0.7100 0.0408
6 20 9 11.2864 -0.0024
6 20 10 2.1218 -0.0152
6 20 11 -7.6496 -0.1154
6 20 12 1.2192 -0.0413
6 20 13 -4.0819 -0.1902
6 20 14 3.5876 -0.3625
6 20 15 -13.4464 -0.2235
6 22 0 3.7433 0.1919
6 22 1 4.1084 0.0572
6 22 2 2.3493 0.0384
6 22 3 -1.6757 0.1877
6 22 4 8.0852 0.1189
6 22 5 15.3354 0.2501
6 22 6 19.2948 0.0158
6 22 7 -7.3939 0.1214
6 22 8 -3.8856 -0.1614
6 22 9 1.5606 -0.0261
6 22 10 -11.8707 0.0471
6 22 11 6.0868 -0.3126
6 22 12 -18.6802 -0.3002
6 22 13 5.9076 -0.3517
6 22 14 -5.4443 -0.6205
6 24 0 -0.5633 -0.0871
6 24 1 20.8358 0.0675
6 24 2 -1.8477 -0.0797
6 24 3 3.9863 0.0845
6 24 4 -7.1162 0.0473
6 24 5 -9.5680 0.0919
6 24 6 -6.6118 0.0984
6 24 7 -3.7088 -0.0710
6 24 8 -2.8797 -0.2852
6 24 9 -1.6029 -0.3239
6 24 10 13.6250 -0.4125
6 24 11 -2.5367 -0.2223
6 24 12 -5.4843 -0.5060
6 26 0 1.0858 -0.0403
6 26 1 -0.8373 -0.0492
6 26 2 -5.2061 -0.0332
6 26 3 -11.6522 -0.1426
6 26 4 -4.0364 -0.1111
6 26 5 -7.7833 -0.2749
6 26 6 4.6155 -0.1875
6 26 7 -0.9493 -0.2352
6 26 8 -10.9164 -0.4684
6 26 9 -8.1382 -0.1543
6 28 0 7.2778 0.5232
6 28 1 3.2228 0.3003
6 28 2 5.6424 0.0909
6 28 3 0.6823 0.0075
6 28 4 -8.7276 -0.1516
6 28 5 0.4972 -0.1564
7 1 0 3.9406 0.2178
7 1 1 -2.4370 0.4680
7 1 2 -2.5952 -0.4246
7 1 3 3.5714 -0.7231
7 1 4 -18.1580 -0.6031
7 1 5 -2.3979 -1.4864
7 1 6 7.2252 -0.8986
7 1 7 -10.6086 -1.7301
7 1 8 13.4816 -1.1730
7 1 9 -8.0277 -1.6312
7 1 10 3.9153 -1.1856
7 1 11 11.2569 -1.2981
7 1 12 -20.2882 -1.0664
7 1 13 4.6589 -0.7223
7 1 14 9.4301 -0.6660
7 1 15 -21.0702 -0.2207
7 1 16 -17.4015 -0.1754
7 1 17 20.2645 0.2132
7 1 18 4.8704 0.3857
7 1 19 -15.6766 0.6224
7 1 20 -4.8356 0.6927
7 3 0 -11.4206 -0.0492
7 3 1 -15.8070 -0.4904
7 3 2 -17.4966 0.1509
7 3 3 -22.0594 0.1766
7 3 4 13.6041 -0.0351
7 3 5 -10.7928 0.3159
7 3 6 25.4269 0.0411
7 3 7 2.2789 0.2536
7 3 8 11.1769 0.0431
7 3 9 -6.6733 0.1475
7 3 10 16.5469 0.0169
7 3 11 4.9230 0.1339
7 3 12 4.5770 0.0818
7 3 13 4.6391 0.2083
7 3 14 6.5510 0.1551
7 3 15 5.3296 0.0866
7 3 16 6.5778 0.0882
7 3 17 9.1576 -0.0836
7 3 18 -6.5861 -0.2642
7 3 19 -6.5855 0.2682
7 3 20 -20.8195 0.2086
7 5 0 2.4849 0.0033
7 5 1 8.3592 -0.2355
7 5 2 -11.2287 -0.0902
7 5 3 10.0456 0.0630
7 5 4 3.5763 0.2655
7 5 5 -7.7871 0.5221
7 5 6 -5.2796 0.5518
7 5 7 17.3182 0.6513
7 5 8 9.2920 0.5446
7 5 9 3.0622 0.6055
7 5 10 14.4067 0.4563
7 5 11 -8.8793 0.5056
7 5 12 15.6740 0.3706
7 5 13 -5.4555 0.4093
7 5 14 -11.4293 0.3847
7 5 15 9.2560 0.0645
7 5 16 -14.6077 -0.0376
7 5 17 -20.9653 -0.2108
7 5 18 -23.6000 -0.2347
7 5 19 -3.7930 0.2449
7 5 20 -13.9418 0.0740
7 7 0 21.1696 0.1610
7 7 1 -5.6679 -0.0846
7 7 2 -20.6535 0.0136
7 7 3 -2.1195 -0.0814
7 7 4 -7.1279 -0.0468
7 7 5 -16.3198 0.0709
7 7 6 12.0523 0.1151
7 7 7 -14.1463 0.3840
7 7 8 2.4285 0.2242
7 7 9 -1.2985 0.2091
7 7 10 -15.5839 0.1562
7 7 11 10.5630 0.1395
7 7 12 -14.0750 0.1427
7 7 13 -10.7976 0.1621
7 7 14 -17.8535 0.1363
7 7 15 -4.5097 -0.0300
7 7 16 17.1532 -0.0999
7 7 17 -8.0305 -0.2129
7 7 18 -3.6240 0.0130
7 7 19 17.4521 0.2143
7 7 20 -5.9432 0.2007
7 9 0 23.6671 -0.0849
7 9 1 -11.4742 0.1304
7 9 2 -5.9653 -0.1579
7 9 3 -14.9167 0.0081
7 9 4 -3.2020 -0.1469
7 9 5 1.6295 -0.2241
7 9 6 6.6419 -0.1249
7 9 7 -2.0098 -0.2933
7 9 8 9.4242 -0.2407
7 9 9 -5.6571 -0.3402
7 9 10 19.7790 -0.2443
7 9 11 0.7560 -0.2575
7 9 12 7.1347 -0.0892
7 9 13 3.7999 -0.1144
7 9 14 -6.6172 -0.0682
7 9 15 -3.4066 -0.0084
7 9 16 1.5644 -0.0471
7 9 17 -9.6621 -0.1342
7 9 18 -8.2577 -0.0988
7 9 19 16.8468 0.1301
7 11 0 -6.4404 0.0058
7 11 1 -5.5018 0.0946
7 11 2 0.8756 -0.0319
7 11 3 -9.5071 -0.0423
7 11 4 7.9311 -0.1315
7 11 5 11.0808 -0.2784
7 11 6 -5.6845 -0.2092
7 11 7 16.6190 -0.2666
7 11 8 2.3362 -0.2331
7 11 9 5.2813 -0.4084
7 11 10 12.7351 -0.2781
7 11 11 9.3204 -0.3442
7 11 12 -1.5615 -0.1606
7 11 13 -3.9038 -0.0396
7 11 14 0.3630 -0.1075
7 11 15 -15.0161 -0.0011
7 11 16 2.2349 -0.0054
7 11 17 7.5183 -0.0879
7 11 18 -5.7986 0.2274
7 11 19 8.0356 0.3506
7 13 0 -6.4025 0.0315
7 13 1 0.1588 -0.0711
7 13 2 -27.4716 -0.0037
7 13 3 -18.6114 -0.0388
7 13 4 -11.1215 -0.1063
7 13 5 -13.1638 -0.0397
7 13 6 10.0204 -0.1402
7 13 7 -17.7661 -0.0548
7 13 8 11.3156 -0.0409
7 13 9 -13.5763 0.0222
7 13 10 -3.0213 -0.0506
7 13 11 12.1579 0.0429
7 13 12 -1.7759 -0.0289
7 13 13 -2.6752 0.0724
7 13 14 6.9864 0.0025
7 13 15 -15.8312 0.0898
7 13 16 -13.7530 0.0182
7 13 17 0.1028 0.0599
7 13 18 -16.0419 0.3220
7 15 0 16.6485 -0.0893
7 15 1 2.7010 -0.0937
7 15 2 8.8844 0.0258
7 15 3 1.3765 -0.1238
7 15 4 -3.7738 0.0330
7 15 5 3.1735 0.0782
7 15 6 -0.3419 0.0577
7 15 7 -9.9591 0.1438
7 15 8 10.7612 0.0387
7 15 9 2.7377 0.2176
7 15 10 3.1206 0.2001
7 15 11 10.6107 0.2569
7 15 12 2.1484 0.1650
7 15 13 -9.0182 0.2188
7 15 14 4.1071 0.0806
7 15 15 -9.8640 0.0896
7 15 16 4.9171 -0.0762
7 15 17 -6.1428 0.2038
7 17 0 -14.1050 0.0022
7 17 1 3.5422 -0.0650
7 17 2 -3.9015 0.0180
7 17 3 0.2088 -0.0313
7 17 4 0.8757 0.0791
7 17 5 4.2444 0.0917
7 17 6 -1.7330 0.1636
7 17 7 3.7011 0.1316
7 17 8 4.5200 0.1447
7 17 9 -7.5631 0.1513
7 17 10 -2.1085 0.1557
7 17 11 -12.0058 0.2205
7 17 12 0.4226 0.1181
7 17 13 -2.5632 0.0776
7 17 14 6.3863 0.1111
7 17 15 -12.6282 -0.2963
7 17 16 3.4937 0.1000
7 19 0 7.5713 -0.0480
7 19 1 5.1024 0.1242
7 19 2 -3.8742 -0.0675
7 19 3 -8.3778 0.1820
7 19 4 -0.7727 0.0399
7 19 5 -8.3149 0.1472
7 19 6 7.0029 0.0623
7 19 7 7.2036 0.0094
7 19 8 16.5601 0.1663
7 19 9 2.5293 -0.0055
7 19 10 8.9774 0.0022
7 19 11 0.9174 0.0281
7 19 12 -6.5488 0.0684
7 19 13 7.3513 -0.2637
7 19 14 2.5067 -0.2674
7 19 15 -4.1196 -0.3453
7 21 0 7.2227 0.0458
7 21 1 -4.2593 0.1855
7 21 2 -8.3312 0.1286
7 21 3 5.0678 0.1216
7 21 4 8.6758 0.1278
7 21 5 2.6749 0.0669
7 21 6 -8.2276 -0.0509
7 21 7 1.0628 -0.1657
7 21 8 1.2967 -0.0755
7 21 9 -5.7428 0.0529
7 21 10 0.2678 -0.1672
7 21 11 -8.0971 -0.1861
7 21 12 -5.0155 -0.3947
7 21 13 6.1336 -0.4419
7 23 0 2.7210 0.1338
7 23 1 6.0402 0.0011
7 23 2 -8.0546 0.1716
7 23 3 -3.6290 -0.0222
7 23 4 9.3736 -0.0489
7 23 5 -9.3302 0.0783
7 23 6 -8.2051 -0.1222
7 23 7 -3.8859 -0.3358
7 23 8 4.7933 -0.3423
7 23 9 -4.3446 -0.4329
7 23 10 3.0660 -0.2451
7 23 11 -7.0239 -0.6386
7 25 0 3.0206 0.0018
7 25 1 -0.9995 -0.0844
7 25 2 -3.8367 0.0824
7 25 3 -0.4836 -0.2578
7 25 4 18.6953 -0.2660
7 25 5 1.0117 -0.4404
7 25 6 -4.4415 -0.3589
7 25 7 8.9433 -0.5994
7 25 8 1.7443 -0.3032
7 27 0 0.5010 -0.0386
7 27 1 -0.5006 -0.0827
7 27 2 -0.6448 -0.2695
7 27 3 5.7104 -0.3322
7 27 4 4.8903 -0.2297
8 0 0 1.4041 -0.0660
8 0 1 15.2146 -1.3905
8 0 2 -20.9773 -1.6905
8 0 3 2.8066 -2.2755
8 0 4 -48.3285 -2.6147
8 0 5 -22.2502 -2.4457
8 0 6 -7.0703 -2.9676
8 0 7 -14.7138 -2.3620
8 0 8 -0.6585 -2.5754
8 0 9 3.4725 -1.7287
8 0 10 0.1688 -1.6292
8 0 11 -25.6450 -0.9269
8 0 12 2.0544 -0.5260
8 0 13 -0.2454 -0.1271
8 0 14 12.4549 0.3091
8 0 15 31.7486 0.5585
8 0 16 4.6217 0.9540
8 0 17 11.9331 1.0016
8 0 18 21.9469 1.1106
8 0 19 -2.1218 1.0152
8 2 0 5.7437 0.2361
8 2 1 5.3435 -0.8546
8 2 2 8.9207 -0.2416
8 2 3 8.5980 -0.3818
8 2 4 16.6825 -0.5443
8 2 5 9.6867 -0.2900
8 2 6 -1.2677 -0.6950
8 2 7 12.8294 -0.3544
8 2 8 -19.6792 -0.6017
8 2 9 14.9830 -0.4843
8 2 10 7.8015 -0.5083
8 2 11 -6.6178 -0.1864
8 2 12 -9.1328 -0.0868
8 2 13 0.6484 0.0631
8 2 14 9.6553 0.0698
8 2 15 1.0109 0.0982
8 2 16 -5.2918 0.1040
8 2 17 -6.3412 0.2016
8 2 18 -6.8857 0.5132
8 2 19 5.5293 0.6134
8 4 0 -26.6170 -0.1802
8 4 1 4.3106 0.2928
8 4 2 -13.0380 0.1248
8 4 3 2.0720 0.3074
8 4 4 -8.5313 0.7173
8 4 5 5.8804 0.6313
8 4 6 -21.4196 0.6859
8 4 7 21.1032 0.4803
8 4 8 -8.7724 0.2481
8 4 9 -0.4121 0.1910
8 4 10 8.5954 0.1860
8 4 11 -14.4555 0.1453
8 4 12 -25.1950 0.2285
8 4 13 2.7404 0.0401
8 4 14 -0.6399 -0.1233
8 4 15 -4.0783 -0.0746
8 4 16 -3.3230 -0.2043
8 4 17 -0.9025 -0.2024
8 4 18 6.7009 0.1465
8 4 19 -7.2749 0.2135
8 6 0 -1.5260 -0.0558
8 6 1 2.6314 0.4401
8 6 2 21.2586 0.3969
8 6 3 -6.4290 0.3719
8 6 4 5.0587 0.5812
8 6 5 -9.5360 0.4463
8 6 6 1.1142 0.5673
8 6 7 14.5358 0.2551
8 6 8 3.6285 0.4144
8 6 9 21.4636 0.1537
8 6 10 -4.9014 0.2188
8 6 11 13.9552 0.2058
8 6 12 -15.3592 0.2346
8 6 13 15.1871 0.1690
8 6 14 13.6578 -0.0619
8 6 15 10.6444 -0.3415
8 6 16 -1.2638 -0.4196
8 6 17 -16.3085 -0.1147
8 6 18 -0.6743 0.1845
8 6 19 -23.3061 0.3816
8 8 0 -42.6625 -0.0044
8 8 1 11.0374 0.2966
8 8 2 -2.7538 0.0959
8 8 3 3.0949 0.0979
8 8 4 18.0605 0.0886
8 8 5 -6.2488 -0.1465
8 8 6 -4.0290 0.0210
8 8 7 9.8964 -0.0979
8 8 8 -23.6544 -0.0784
8 8 9 10.8760 -0.0131
8 8 10 -1.5222 0.0762
8 8 11 -1.9352 0.0443
8 8 12 -3.0718 0.0789
8 8 13 -6.2332 0.0141
8 8 14 11.0345 -0.1125
8 8 15 17.7932 -0.0960
8 8 16 2.7998 -0.3129
8 8 17 23.4466 0.0101
8 8 18 -8.1416 0.2536
8 10 0 14.9202 0.1093
8 10 1 -7.7286 -0.1538
8 10 2 9.4569 -0.1812
8 10 3 6.6843 -0.0833
8 10 4 -20.6145 -0.3117
8 10 5 -11.1084 -0.1431
8 10 6 -25.5062 -0.3235
8 10 7 -5.6088 -0.2954
8 10 8 5.6706 -0.1740
8 10 9 -7.2903 -0.2145
8 10 10 9.3494 -0.0746
8 10 11 1.1439 -0.0460
8 10 12 -23.2995 -0.0447
8 10 13 12.7637 -0.0103
8 10 14 14.3599 -0.0048
8 10 15 10.5847 -0.0499
8 10 16 8.2215 -0.0583
8 10 17 -18.8634 0.4291
8 10 18 -29.4498 0.4078
8 12 0 11.0111 0.0765
8 12 1 -4.6415 -0.3131
8 12 2 13.1109 -0.1164
8 12 3 10.0759 -0.2193
8 12 4 24.5848 -0.1751
8 12 5 2.9796 0.0583
8 12 6 3.7515 -0.2447
8 12 7 13.0506 -0.0383
8 12 8 -18.9754 -0.2033
8 12 9 -0.5182 -0.0388
8 12 10 -17.3850 -0.0772
8 12 11 1.6694 0.0762
8 12 12 -10.0548 0.0988
8 12 13 -6.5003 -0.0445
8 12 14 6.5644 0.0098
8 12 15 -3.1650 -0.0791
8 12 16 7.4753 0.0684
8 12 17 -10.1872 0.5236
8 14 0 -11.0131 -0.0364
8 14 1 -1.9852 -0.0699
8 14 2 -16.2850 0.0058
8 14 3 1.0829 0.0074
8 14 4 14.9514 0.0754
8 14 5 -17.8394 0.1196
8 14 6 -11.8083 0.0302
8 14 7 -0.5728 0.1234
8 14 8 -21.5689 0.0447
8 14 9 18.7055 0.2653
8 14 10 -2.2487 0.1188
8 14 11 3.5183 0.1422
8 14 12 -9.2364 0.0504
8 14 13 -4.9471 -0.0313
8 14 14 7.3423 -0.1341
8 14 15 12.5619 -0.0257
8 14 16 0.7617 0.3768
8 16 0 -18.1293 -0.0531
8 16 1 0.4303 0.1470
8 16 2 -12.8036 0.2249
8 16 3 9.6894 0.1497
8 16 4 -0.9114 0.2521
8 16 5 1.6162 0.0570
8 16 6 5.2819 0.2882
8 16 7 4.2609 0.1557
8 16 8 -7.9568 0.1937
8 16 9 -7.0732 0.2584
8 16 10 0.1375 0.1488
8 16 11 -4.2685 0.1394
8 16 12 -4.7965 -0.0878
8 16 13 -11.3729 0.0024
8 16 14 9.5910 -0.1348
8 16 15 -16.1680 0.2193
8 18 0 -7.3352 0.0708
8 18 1 -8.3080 0.1942
8 18 2 11.1594 0.1518
8 18 3 7.6524 0.2935
8 18 4 7.1892 0.1274
8 18 5 8.0067 -0.0216
8 18 6 1.5210 0.2354
8 18 7 2.0642 0.1319
8 18 8 -9.4299 0.1351
8 18 9 1.7144 -0.0415
8 18 10 15.5029 0.0494
8 18 11 3.7283 0.0092
8 18 12 2.8718 -0.0887
8 18 13 2.1118 -0.2044
8 20 0 4.2654 0.1172
8 20 1 4.1291 0.1396
8 20 2 -1.5623 0.1049
8 20 3 0.4910 0.1390
8 20 4 -7.6316 -0.0173
8 20 5 -1.1933 -0.2221
8 20 6 9.8751 -0.1004
8 20 7 -0.6943 -0.1185
8 20 8 -11.8661 0.0212
8 20 9 5.5550 -0.1386
8 20 10 3.5438 -0.1489
8 20 11 4.6395 -0.4960
8 20 12 3.1132 -0.2145
8 22 0 3.2550 0.1892
8 22 1 0.1523 -0.1497
8 22 2 6.8490 -0.2498
8 22 3 5.0496 -0.2809
8 22 4 4.4701 -0.2004
8 22 5 5.4882 -0.0170
8 22 6 4.3637 -0.3153
8 22 7 5.9087 -0.5302
8 22 8 -10.7065 -0.5040
8 22 9 4.9341 -0.3769
8 22 10 6.1764 -0.7292
8 24 0 10.3797 -0.1225
8 24 1 4.4874 -0.1900
8 24 2 -6.7833 -0.4175
8 24 3 -15.5799 -0.5114
8 24 4 -13.8965 -0.5345
8 24 5 -3.4851 -0.4762
8 24 6 0.7469 -0.7821
8 24 7 9.0600 -0.2585
8 26 0 2.5755 -0.3133
8 26 1 -11.6467 -0.6867
8 26 2 1.7528 -0.4372
9 1 0 -2.9060 -2.0929
9 1 1 2.0116 -1.3239
9 1 2 -0.3134 -1.7129
9 1 3 0.9849 -1.2841
9 1 4 -16.2128 -1.3131
9 1 5 1.3007 -1.2826
9 1 6 -4.6299 -1.0309
9 1 7 -0.4016 -1.0134
9 1 8 -5.5565 -0.6345
9 1 9 -4.2598 -0.4798
9 1 10 2.8865 -0.0196
9 1 11 17.9110 0.1144
9 1 12 -6.5359 0.3855
9 1 13 -0.4914 0.6071
9 1 14 3.1103 0.5060
9 1 15 7.5829 0.8601
9 1 16 -6.4425 0.8987
9 1 17 -0.5311 0.8704
9 1 18 -12.2350 0.8105
9 3 0 -9.5704 -0.3277
9 3 1 11.9729 -0.0195
9 3 2 2.0385 0.3046
9 3 3 8.7015 0.0455
9 3 4 -13.3129 0.0273
9 3 5 17.7705 -0.0020
9 3 6 -21.7305 -0.0533
9 3 7 15.4090 0.0002
9 3 8 -6.7414 -0.0406
9 3 9 19.2460 0.0612
9 3 10 -1.7029 0.1974
9 3 11 33.1128 0.2094
9 3 12 -18.1614 -0.0089
9 3 13 -11.6026 -0.0140
9 3 14 11.3853 -0.1635
9 3 15 3.1575 -0.2286
9 3 16 -13.1212 -0.2251
9 3 17 4.7645 0.2062
9 5 0 2.2050 0.6167
9 5 1 39.1132 0.2640
9 5 2 -0.6820 0.4283
9 5 3 4.0068 0.5412
9 5 4 -9.8446 0.5258
9 5 5 -17.0179 0.4085
9 5 6 4.7497 0.3075
9 5 7 -15.7712 0.1198
9 5 8 -34.7896 0.2013
9 5 9 5.5367 0.2131
9 5 10 -22.8974 0.1949
9 5 11 -0.2081 0.1331
9 5 12 9.8327 -0.1019
9 5 13 -5.6531 -0.4229
9 5 14 25.5735 -0.3258
9 5 15 8.2055 -0.5882
9 5 16 -8.0268 -0.0438
9 5 17 -5.6513 0.3527
9 7 0 -10.1582 0.4755
9 7 1 -0.0704 0.1773
9 7 2 9.7890 0.2158
9 7 3 -10.6874 0.1289
9 7 4 -11.7260 0.1743
9 7 5 3.0708 0.1644
9 7 6 0.8545 0.1143
9 7 7 11.3714 0.0736
9 7 8 -48.2820 0.0131
9 7 9 36.7513 0.1033
9 7 10 -31.7022 -0.0207
9 7 11 -0.5979 0.0388
9 7 12 -15.2104 0.0011
9 7 13 -5.6173 -0.2207
9 7 14 -14.4349 -0.2859
9 7 15 7.5463 -0.1027
9 7 16 -7.0652 0.2647
9 7 17 -7.6631 0.4126
9 9 0 -4.8409 -0.1438
9 9 1 -6.0067 -0.0461
9 9 2 2.4518 -0.1450
9 9 3 3.8090 -0.1031
9 9 4 -6.2454 -0.2108
9 9 5 3.6234 -0.1682
9 9 6 14.9342 -0.2030
9 9 7 3.8507 -0.1917
9 9 8 11.6649 -0.1064
9 9 9 24.4477 -0.0129
9 9 10 -8.7278 0.0033
9 9 11 27.2219 0.0013
9 9 12 -8.8104 -0.1341
9 9 13 18.8807 0.0112
9 9 14 0.5173 -0.0029
9 9 15 11.0293 0.1986
9 9 16 -5.4179 0.5500
9 11 0 -6.5140 -0.3260
9 11 1 2.5047 -0.2586
9 11 2 -11.3185 -0.2038
9 11 3 -2.3336 -0.1925
9 11 4 -1.4530 -0.2693
9 11 5 -4.6600 -0.3113
9 11 6 6.6199 -0.1659
9 11 7 8.6052 -0.1320
9 11 8 -5.2726 -0.0944
9 11 9 10.3327 -0.0376
9 11 10 -32.8010 0.0169
9 11 11 27.8278 -0.1367
9 11 12 -8.4822 -0.0395
9 11 13 -14.1509 -0.1891
9 11 14 -2.5993 0.0261
9 11 15 -1.1472 0.5241
9 13 0 -4.1293 -0.1964
9 13 1 5.3987 -0.0255
9 13 2 2.3695 -0.0073
9 13 3 6.2386 -0.0712
9 13 4 -11.9120 -0.1084
9 13 5 6.7022 -0.1284
9 13 6 -7.8478 -0.0542
9 13 7 17.3165 0.1152
9 13 8 20.1390 0.1172
9 13 9 17.0479 -0.0300
9 13 10 -3.2106 -0.0380
9 13 11 32.1731 -0.1390
9 13 12 10.0521 -0.1955
9 13 13 -6.4238 -0.0882
9 13 14 -0.4238 0.4761
9 13 15 -1.5127 0.5853
9 15 0 9.1998 0.1815
9 15 1 4.8581 0.1534
9 15 2 9.4024 0.1311
9 15 3 2.4917 0.2037
9 15 4 -6.7909 0.2604
9 15 5 -1.7439 0.1511
9 15 6 -7.0520 0.0804
9 15 7 -2.1664 0.1764
9 15 8 2.7377 0.0980
9 15 9 10.5066 0.0765
9 15 10 -22.3628 -0.0641
9 15 11 5.7456 -0.0765
9 15 12 3.4742 0.0061
9 15 13 -15.0697 0.0770
9 17 0 5.6574 0.3090
9 17 1 11.6108 0.2221
9 17 2 2.1008 0.1833
9 17 3 -5.8309 0.1725
9 17 4 -8.0777 0.3006
9 17 5 0.6560 0.2744
9 17 6 2.5102 0.1860
9 17 7 -2.3423 0.0601
9 17 8 -10.4161 0.0659
9 17 9 14.9160 0.0560
9 17 10 -23.8963 -0.0479
9 17 11 19.8461 -0.1009
9 17 12 3.4295 -0.0362
9 19 0 -6.0404 0.0729
9 19 1 -2.5006 0.1954
9 19 2 -16.6679 0.1914
9 19 3 -1.2344 -0.0597
9 19 4 -10.2951 -0.0426
9 19 5 6.9420 0.0355
9 19 6 -1.4464 0.0516
9 19 7 -5.3467 -0.0961
9 19 8 1.6900 -0.0483
9 19 9 6.0520 -0.2317
9 19 10 4.3535 -0.2415
9 21 0 18.6271 -0.0828
9 21 1 0.6894 -0.1183
9 21 2 5.5618 -0.0952
9 21 3 -1.4193 -0.2426
9 21 4 -2.8102 -0.3138
9 21 5 1.2885 -0.4368
9 21 6 -4.3645 -0.3884
9 21 7 4.3002 -0.3329
9 21 8 -20.6333 -0.4954
9 23 0 -14.5594 -0.4373
9 23 1 -13.0994 -0.4333
9 23 2 -12.4033 -0.8041
9 23 3 3.6220 -0.6922
9 23 4 0.1410 -0.5595
9 23 5 -5.9358 -0.5862
10 0 0 24.4417 -1.4983
10 0 1 15.1394 -2.0003
10 0 2 -3.4885 -1.8411
10 0 3 11.1027 -1.9607
10 0 4 9.0047 -1.4600
10 0 5 -1.4230 -1.1186
10 0 6 18.9153 -0.6916
10 0 7 4.2793 -0.1225
10 0 8 25.6145 0.2103
10 0 9 -2.6275 0.7924
10 0 10 -18.8435 0.9528
10 0 11 -0.9317 1.3090
10 0 12 -23.0051 1.3508
10 0 13 10.9811 1.4047
10 0 14 3.8319 1.2895
10 0 15 0.2082 1.2253
10 0 16 13.6678 1.1754
10 2 0 -10.4687 -0.8895
10 2 1 -8.4179 -1.0551
10 2 2 30.9899 0.0108
10 2 3 2.9065 -0.0843
10 2 4 5.9341 -0.1322
10 2 5 15.9467 -0.2175
10 2 6 -6.6500 -0.2129
10 2 7 1.0323 -0.0058
10 2 8 14.6797 0.0936
10 2 9 -11.1627 0.2480
10 2 10 -23.2084 0.2628
10 2 11 5.7590 0.4113
10 2 12 -5.8060 0.3523
10 2 13 11.1606 0.4254
10 2 14 3.1699 0.1796
10 2 15 10.0847 0.6242
10 2 16 -17.3577 0.4243
10 4 0 -61.1977 0.0110
10 4 1 -2.9456 0.1590
10 4 2 5.5123 0.0439
10 4 3 -21.0225 0.4386
10 4 4 -7.6025 0.5366
10 4 5 7.3248 0.3385
10 4 6 2.5426 0.1830
10 4 7 11.5642 0.0771
10 4 8 27.9365 0.1063
10 4 9 -7.4208 0.0019
10 4 10 -14.3914 0.0307
10 4 11 10.1083 -0.3115
10 4 12 -13.1123 -0.2866
10 4 13 -14.0728 -0.3780
10 4 14 -7.8502 -0.2595
10 4 15 -6.8645 0.3523
10 6 0 -11.4823 0.4121
10 6 1 11.6884 0.5250
10 6 2 8.7889 0.2600
10 6 3 2.8921 0.2389
10 6 4 2.2543 0.1622
10 6 5 8.3876 0.1274
10 6 6 -1.6771 0.1487
10 6 7 28.6808 0.2599
10 6 8 -11.0036 0.2056
10 6 9 -1.8828 -0.0154
10 6 10 -11.2803 -0.1514
10 6 11 27.2893 -0.4565
10 6 12 0.2199 -0.3964
10 6 13 14.8446 -0.2408
10 6 14 -2.2548 0.1483
10 6 15 -6.4152 0.2182
10 8 0 -16.8569 0.0597
10 8 1 4.2879 0.1353
10 8 2 3.0329 -0.1332
10 8 3 14.6427 -0.0642
10 8 4 -4.2392 -0.1549
10 8 5 -9.1648 0.0352
10 8 6 -4.7668 0.1406
10 8 7 4.3466 0.0299
10 8 8 1.5935 0.0494
10 8 9 -3.3205 0.0101
10 8 10 -15.6149 -0.1715
10 8 11 26.8684 -0.0928
10 8 12 -10.2645 -0.2888
10 8 13 7.9763 0.0672
10 8 14 -3.5415 0.6212
10 10 0 -0.6335 -0.3032
10 10 1 0.8888 -0.3466
10 10 2 3.3103 -0.3574
10 10 3 -2.9316 -0.3301
10 10 4 13.5112 -0.1898
10 10 5 -6.9020 -0.0154
10 10 6 1.2323 0.0634
10 10 7 1.2083 0.1494
10 10 8 7.2156 0.0417
10 10 9 -13.6658 -0.1511
10 10 10 -34.4663 -0.1522
10 10 11 9.8104 -0.1851
10 10 12 -9.8052 0.2343
10 10 13 3.7846 0.5220
10 10 14 6.0791 0.7260
10 12 0 2.7446 -0.1814
10 12 1 -7.5272 -0.3411
10 12 2 -5.6123 -0.1231
10 12 3 1.7263 -0.2109
10 12 4 -2.0147 -0.0692
10 12 5 7.8659 0.0348
10 12 6 -18.7781 0.0287
10 12 7 1.6779 -0.0351
10 12 8 -7.1233 -0.0085
10 12 9 -8.5288 -0.1233
10 12 10 -15.2566 -0.0823
10 12 11 18.4539 0.0724
10 12 12 -8.8994 0.2557
10 12 13 9.9217 0.6085
10 14 0 5.3081 0.0348
10 14 1 -0.0404 0.1195
10 14 2 -4.9853 0.1218
10 14 3 5.9301 0.0676
10 14 4 0.5047 0.1126
10 14 5 -14.3990 -0.0418
10 14 6 4.9147 -0.0081
10 14 7 0.7615 -0.0291
10 14 8 4.9741 -0.1992
10 14 9 -11.5967 0.1024
10 14 10 -24.6606 0.0322
10 14 11 -1.9115 0.0481
10 14 12 -15.8298 0.5473
10 16 0 7.4116 0.2237
10 16 1 -8.9670 0.1869
10 16 2 4.9205 0.2177
10 16 3 3.0729 0.1607
10 16 4 -4.6161 0.0640
10 16 5 11.8147 -0.0042
10 16 6 -9.7752 -0.0034
10 16 7 18.4517 -0.0159
10 16 8 -2.0396 0.1254
10 16 9 -5.1796 -0.1166
10 16 10 3.3857 0.0417
10 18 0 -15.8521 0.1277
10 18 1 -3.7911 0.1443
10 18 2 2.8950 -0.1131
10 18 3 4.5544 0.0924
10 18 4 -4.2426 -0.0584
10 18 5 -1.4790 -0.0226
10 18 6 2.3727 0.1087
10 18 7 10.3097 -0.1730
10 18 8 10.1838 -0.0025
10 18 9 -2.1252 0.1157
10 20 0 13.7069 -0.2441
10 20 1 1.4454 -0.1956
10 20 2 5.9999 -0.3290
10 20 3 12.3306 -0.1691
10 20 4 -13.3177 -0.2451
10 20 5 -11.5212 -0.1592
10 20 6 -6.6532 -0.3138
10 22 0 13.2340 -0.7368
10 22 1 -11.6553 -0.8818
10 22 2 5.6284 -0.3860
11 1 0 0.6637 -1.5744
11 1 1 -61.1659 -0.8121
11 1 2 13.2306 -0.5137
11 1 3 -40.5095 -0.2328
11 1 4 7.4932 -0.0060
11 1 5 -13.9741 0.1270
11 1 6 -4.5707 0.4129
11 1 7 -5.0846 0.5858
11 1 8 -9.1693 0.6981
11 1 9 -19.3366 0.5510
11 1 10 20.2031 0.8451
11 1 11 1.6907 0.7621
11 1 12 -2.6955 0.7463
11 1 13 20.7821 0.8728
11 3 0 16.2341 -0.1096
11 3 1 9.1552 0.3367
11 3 2 -3.2827 0.0679
11 3 3 14.4667 0.0008
11 3 4 -7.4258 0.0344
11 3 5 3.3620 -0.0811
11 3 6 22.7651 0.0193
11 3 7 -11.1694 0.1081
11 3 8 8.8369 -0.0293
11 3 9 -3.8443 -0.1662
11 3 10 -4.6185 -0.2492
11 3 11 0.3074 -0.4418
11 3 12 -1.5760 0.0821
11 3 13 12.8223 0.3418
11 5 0 -12.3130 0.3964
11 5 1 -10.0153 0.3056
11 5 2 -2.6639 0.2506
11 5 3 -15.5463 0.2222
11 5 4 18.8413 0.0163
11 5 5 -15.0350 0.0290
11 5 6 -1.1460 -0.1042
11 5 7 -5.3693 -0.2517
11 5 8 -0.3526 -0.4635
11 5 9 -7.5342 -0.5094
11 5 10 -0.0904 -0.6677
11 5 11 -11.8080 -0.2302
11 5 12 0.2515 0.1761
11 5 13 -2.9422 0.1672
11 7 0 -0.0046 0.2521
11 7 1 19.9081 0.1301
11 7 2 -25.8374 0.1349
11 7 3 5.3691 0.1443
11 7 4 13.7575 0.1412
11 7 5 -18.2949 0.1142
11 7 6 4.4822 0.0191
11 7 7 9.0329 -0.3097
11 7 8 5.7265 -0.4201
11 7 9 -0.6237 -0.4484
11 7 10 1.9674 -0.3540
11 7 11 0.2375 -0.0144
11 7 12 6.3742 0.2776
11 9 0 7.7105 0.0000
11 9 1 -9.5322 0.0150
11 9 2 -4.2674 0.0125
11 9 3 -10.2046 0.0239
11 9 4 -6.7379 0.0225
11 9 5 -21.3210 0.1637
11 9 6 -6.7152 -0.1725
11 9 7 10.3196 -0.1830
11 9 8 -1.2906 -0.0893
11 9 9 4.2233 -0.1136
11 9 10 -5.2771 0.4034
11 9 11 -6.1218 0.4509
11 9 12 5.5232 0.4592
11 11 0 -5.8212 -0.0744
11 11 1 -0.6670 -0.1411
11 11 2 17.8240 -0.0571
11 11 3 8.3032 -0.0947
11 11 4 12.0293 -0.0555
11 11 5 5.5301 -0.1305
11 11 6 7.5439 0.0087
11 11 7 -3.1994 0.1194
11 11 8 6.4043 0.0846
11 11 9 -6.1603 0.3838
11 11 10 0.9065 0.3662
11 11 11 -11.6092 0.6657
11 13 0 -0.8561 0.0227
11 13 1 10.9039 -0.1675
11 13 2 1.9626 -0.0539
11 13 3 -23.4072 -0.1413
11 13 4 -9.9614 0.0116
11 13 5 -4.0214 0.0154
11 13 6 1.3687 0.0711
11 13 7 11.8104 0.2408
11 13 8 12.4461 0.2654
11 13 9 5.0653 0.1712
11 13 10 12.6732 0.5966
11 15 0 -16.7626 -0.0470
11 15 1 4.8705 0.0420
11 15 2 -0.0723 -0.0128
11 15 3 -17.3665 0.1193
11 15 4 -7.5925 0.0635
11 15 5 -2.9135 0.1127
11 15 6 -9.3566 0.0725
11 15 7 -3.9225 0.0404
11 15 8 1.3894 0.0733
11 17 0 15.0764 0.0184
11 17 1 18.6584 0.0384
11 17 2 24.3970 -0.0620
11 17 3 12.6365 0.0575
11 17 4 8.2842 -0.0038
11 17 5 21.9031 0.0195
11 17 6 -3.2893 -0.0854
11 19 0 -9.3848 -0.3411
11 19 1 -23.9465 -0.2228
11 19 2 -3.7803 -0.2061
11 19 3 -24.3503 -0.2276
12 0 0 -22.7252 -0.4151
12 0 1 14.8727 -0.1761
12 0 2 -9.3100 0.3088
12 0 3 25.5694 0.4034
12 0 4 3.2254 0.8295
12 0 5 18.6196 1.0831
12 0 6 3.4665 1.3752
12 0 7 24.9441 1.4603
12 0 8 46.5113 1.4812
12 0 9 3.0603 1.4047
12 0 10 3.1338 1.1944
12 0 11 14.6078 1.0397
12 2 0 16.1538 -0.3068
12 2 1 -15.6729 -0.2222
12 2 2 11.2701 0.1070
12 2 3 -29.8592 0.0003
12 2 4 15.8065 0.0856
12 2 5 -17.4744 -0.0316
12 2 6 3.6049 0.3769
12 2 7 -6.5392 0.1801
12 2 8 5.7976 0.3402
12 2 9 -12.0246 0.6550
12 2 10 -9.0785 0.5087
12 2 11 3.0241 0.3721
12 4 0 -1.8548 0.0403
12 4 1 11.6177 -0.2044
12 4 2 16.5208 -0.2921
12 4 3 -12.3248 -0.1512
12 4 4 12.4636 -0.3562
12 4 5 -4.8503 -0.3688
12 4 6 8.5076 -0.5701
12 4 7 -3.2106 -0.3371
12 4 8 -4.5583 -0.2218
12 4 9 9.6539 0.0694
12 4 10 -12.4353 0.1622
12 6 0 -7.2687 0.1678
12 6 1 18.6524 -0.0660
12 6 2 1.9064 -0.2771
12 6 3 -7.7640 -0.5135
12 6 4 -3.3157 -0.5342
12 6 5 8.3951 -0.4552
12 6 6 13.7286 -0.4605
12 6 7 -8.1879 -0.1577
12 6 8 8.7847 0.0408
12 6 9 1.1800 0.1635
12 6 10 2.3578 0.2081
12 8 0 4.1414 -0.0622
12 8 1 20.0313 -0.2442
12 8 2 -10.8563 -0.2512
12 8 3 -13.9873 -0.2706
12 8 4 -18.0325 -0.1319
12 8 5 -6.3408 -0.0439
12 8 6 14.9964 0.0167
12 8 7 5.5477 0.1766
12 8 8 -3.8437 0.1728
12 8 9 10.9408 0.3816
12 10 0 3.2127 -0.2670
12 10 1 20.3852 -0.1026
12 10 2 8.9893 -0.0283
12 10 3 21.0802 0.1560
12 10 4 -6.4260 0.1395
12 10 5 4.1110 0.2207
12 10 6 28.9694 0.3565
12 10 7 -5.4214 0.2422
12 10 8 8.2216 0.3527
12 12 0 9.3451 -0.0571
12 12 1 13.0467 0.0568
12 12 2 10.6898 0.1446
12 12 3 -18.8186 0.0520
12 12 4 -4.4676 0.3960
12 12 5 -4.7138 0.1936
12 12 6 7.1276 0.1892
12 12 7 6.5470 0.5403
12 14 0 -28.6451 0.1244
12 14 1 16.1288 0.0573
12 14 2 -2.3476 0.3052
12 14 3 -8.6435 0.1724
12 14 4 11.8372 0.1963
12 14 5 9.0752 0.1339
12 16 0 -4.0397 0.0172
12 16 1 8.9460 0.0735
12 16 2 5.3069 0.0982
13 1 0 4.5292 0.6439
13 1 1 23.4933 0.8652
13 1 2 19.5023 1.2070
13 1 3 -10.3495 1.0917
13 1 4 6.6154 1.2003
13 1 5 -4.7332 1.0471
13 1 6 1.4306 0.9012
13 1 7 -2.3231 0.5891
13 3 0 8.7252 0.2538
13 3 1 10.4842 0.2482
13 3 2 -19.2123 0.3734
13 3 3 3.5321 0.3663
13 3 4 -10.9312 0.3626
13 3 5 -5.1423 0.3692
13 3 6 -11.2764 0.3524
13 3 7 4.6899 0.2755
13 5 0 26.2809 -0.0279
13 5 1 -5.9652 -0.0181
13 5 2 -12.1358 -0.0190
13 5 3 4.4775 0.1205
13 5 4 -19.7381 0.1538
13 5 5 -6.4336 0.0873
13 5 6 -8.0429 0.2309
13 7 0 3.0484 -0.0035
13 7 1 1.4900 0.0647
13 7 2 -13.2027 0.0439
13 7 3 -0.3126 0.1776
13 7 4 1.8833 0.0723
13 7 5 7.6884 0.3423
13 9 0 2.2514 -0.0188
13 9 1 12.4389 0.1952
13 9 2 -9.6438 0.2441
13 9 3 -3.1216 0.1775
13 9 4 -5.7591 0.6143
13 11 0 -9.0817 0.2670
13 11 1 1.6163 0.2668
13 11 2 -16.4446 0.3432
14 0 0 10.3095 0.7102
14 2 0 7.9078 0.8848
0 0 0 0.0 0.0
;
_shelx_fab_checksum              95932
_olex2_submission_special_instructions 'No special instructions were received'
loop_
_space_group_symop_operation_xyz
'x, y, z'
'-x, y, -z'
'x+1/2, y+1/2, z'
'-x+1/2, y+1/2, -z'
'-x, -y, -z'
'x, -y, z'
'-x+1/2, -y+1/2, -z'
'x+1/2, -y+1/2, z'
loop_
_atom_site_label
_atom_site_type_symbol
_atom_site_fract_x
_atom_site_fract_y
_atom_site_fract_z
_atom_site_U_iso_or_equiv
_atom_site_adp_type
_atom_site_occupancy
_atom_site_site_symmetry_order
_atom_site_calc_flag
_atom_site_refinement_flags_posn
_atom_site_refinement_flags_adp
_atom_site_refinement_flags_occupancy
_atom_site_disorder_assembly
_atom_site_disorder_group
Cu1 Cu 0.60024(11) 0.500000 1.03357(7) 0.0278(5) Uani 1 2 d DS T P . .
Cu2 Cu 0.5502(3) 0.000000 0.44980(11) 0.0991(11) Uani 1 2 d DS T P . .
O1 O 0.4614(5) 0.4495(2) 0.9167(3) 0.0406(15) Uani 1 1 d . . . . .
O2 O 0.6297(6) 0.4494(3) 0.9708(4) 0.058(2) Uani 1 1 d . . . . .
O3 O 1.1223(9) 0.3261(3) 0.7750(4) 0.087(3) Uani 1 1 d . . . . .
O4 O 0.6494(10) 0.0497(3) 0.4929(4) 0.112(4) Uani 1 1 d . . . . .
O5 O 0.5591(9) 0.0494(3) 0.5780(4) 0.093(3) Uani 1 1 d . . . . .
O6 O 0.7702(11) 0.500000 1.0807(8) 0.123(6) Uani 1 2 d DS T P . .
H6A H 0.794(4) 0.500000 1.1192(13) 0.185 Uiso 1 2 d DRS T P . .
H6B H 0.835(2) 0.500000 1.066(2) 0.185 Uiso 1 2 d DRS T P . .
O7 O 0.6390(15) 0.000000 0.3698(7) 0.137(6) Uani 1 2 d DS T P . .
H7A H 0.710(2) 0.000000 0.367(2) 0.205 Uiso 1 2 d DRS T P . .
H7B H 0.611(4) 0.000000 0.3313(12) 0.205 Uiso 1 2 d DRS T P . .
N1 N 1.0445(10) 0.2658(3) 0.7174(5) 0.071(3) Uani 1 1 d . . . . .
N2 N 0.8434(8) 0.2520(3) 0.7091(4) 0.062(3) Uani 1 1 d . . . . .
N3 N 0.9322(10) 0.3186(3) 0.7731(4) 0.073(3) Uani 1 1 d . . . . .
N4 N 0.9626(10) 0.2064(3) 0.6565(4) 0.076(3) Uani 1 1 d . . . . .
H4 H 1.030856 0.202994 0.647280 0.091 Uiso 1 1 calc R . . . .
N5 N 0.7370(9) 0.3022(3) 0.7644(5) 0.081(3) Uani 1 1 d . . . . .
H5 H 0.704604 0.274850 0.772103 0.097 Uiso 1 1 d R . . . .
C1 C 0.5627(10) 0.4358(3) 0.9256(4) 0.043(2) Uani 1 1 d . . . . .
C2 C 0.7040(11) 0.3365(4) 0.8045(5) 0.057(3) Uani 1 1 d . . . . .
C3 C 0.9452(12) 0.2432(4) 0.6959(6) 0.075(4) Uani 1 1 d . . . . .
C4 C 0.8459(12) 0.2908(4) 0.7495(6) 0.075(4) Uani 1 1 d . . . . .
C5 C 0.7716(10) 0.3556(4) 0.8512(5) 0.062(3) Uani 1 1 d . . . . .
H5A H 0.848683 0.347803 0.856002 0.074 Uiso 1 1 calc R . . . .
C6 C 0.6125(8) 0.4021(3) 0.8835(4) 0.043(2) Uani 1 1 d . . . . .
C7 C 1.0321(15) 0.3035(5) 0.7563(6) 0.082(4) Uani 1 1 d . . . . .
C8 C 0.7275(11) 0.3884(4) 0.8947(5) 0.065(3) Uani 1 1 d . . . . .
H8 H 0.773873 0.400038 0.929071 0.078 Uiso 1 1 calc R . . . .
C9 C 0.8760(12) 0.1711(4) 0.6271(5) 0.072(4) Uani 1 1 d . . . . .
C10 C 0.8943(9) 0.1543(4) 0.5752(5) 0.053(3) Uani 1 1 d . . . . .
H10 H 0.958897 0.163283 0.557442 0.064 Uiso 1 1 calc R . . . .
C11 C 0.5900(14) 0.3512(5) 0.7923(6) 0.089(5) Uani 1 1 d . . . . .
H11 H 0.547075 0.339187 0.757036 0.107 Uiso 1 1 calc R . . . .
C12 C 0.5361(11) 0.3840(4) 0.8316(6) 0.077(4) Uani 1 1 d . . . . .
H12 H 0.459643 0.392690 0.824439 0.093 Uiso 1 1 calc R . . . .
C13 C 0.8109(14) 0.1204(6) 0.5442(6) 0.101(5) Uani 1 1 d . . . . .
H13 H 0.818447 0.110606 0.504009 0.122 Uiso 1 1 calc R . . . .
C14 C 0.7159(11) 0.1013(4) 0.5740(6) 0.076(4) Uani 1 1 d . . . . .
C15 C 0.7883(13) 0.1564(5) 0.6580(6) 0.089(5) Uani 1 1 d . . . . .
H15 H 0.784140 0.168635 0.697499 0.107 Uiso 1 1 calc R . . . .
C16 C 0.6253(11) 0.0636(5) 0.5468(6) 0.074(4) Uani 1 1 d . . . . .
C17 C 0.7043(12) 0.1236(4) 0.6325(6) 0.085(5) Uani 1 1 d . . . . .
H17 H 0.641963 0.116291 0.653212 0.102 Uiso 1 1 calc R . . . .
C18 C 1.1145(13) 0.3687(5) 0.8155(8) 0.113(6) Uani 1 1 d . . . . .
H18A H 1.082895 0.396130 0.791631 0.170 Uiso 1 1 calc GR . . . .
H18B H 1.189094 0.377054 0.834978 0.170 Uiso 1 1 calc GR . . . .
H18C H 1.066347 0.360671 0.846573 0.170 Uiso 1 1 calc GR . . . .
loop_
_atom_site_aniso_label
_atom_site_aniso_U_11
_atom_site_aniso_U_22
_atom_site_aniso_U_33
_atom_site_aniso_U_23
_atom_site_aniso_U_13
_atom_site_aniso_U_12
Cu1 0.0299(8) 0.0249(8) 0.0298(9) 0.000 0.0091(6) 0.000
Cu2 0.193(3) 0.0434(13) 0.0814(17) 0.000 0.1031(19) 0.000
O1 0.045(4) 0.046(4) 0.032(4) -0.015(3) 0.008(3) -0.004(3)
O2 0.059(4) 0.052(5) 0.074(6) 0.013(4) 0.047(4) 0.020(4)
O3 0.139(8) 0.057(6) 0.082(6) -0.013(5) 0.081(6) -0.009(5)
O4 0.218(11) 0.049(5) 0.089(7) -0.032(5) 0.098(7) -0.005(6)
O5 0.166(9) 0.050(5) 0.085(6) -0.001(5) 0.100(7) -0.006(5)
O6 0.077(9) 0.097(11) 0.186(16) 0.000 -0.029(9) 0.000
O7 0.212(17) 0.131(14) 0.087(10) 0.000 0.101(12) 0.000
N1 0.123(9) 0.037(5) 0.071(7) 0.004(5) 0.082(7) 0.027(6)
N2 0.088(7) 0.028(5) 0.082(7) 0.004(5) 0.061(6) 0.014(4)
N3 0.139(10) 0.026(5) 0.067(7) -0.002(4) 0.068(7) 0.004(6)
N4 0.146(9) 0.033(5) 0.063(6) 0.007(5) 0.074(7) 0.027(6)
N5 0.135(9) 0.039(6) 0.084(7) 0.004(5) 0.079(7) 0.012(6)
C1 0.078(8) 0.028(5) 0.023(5) 0.002(4) 0.005(5) -0.006(5)
C2 0.096(9) 0.047(7) 0.039(7) -0.012(5) 0.046(6) 0.006(6)
C3 0.112(11) 0.043(7) 0.087(10) 0.018(7) 0.077(9) 0.015(7)
C4 0.124(11) 0.034(6) 0.086(9) 0.017(7) 0.088(9) 0.023(7)
C5 0.084(8) 0.055(7) 0.053(7) 0.000(6) 0.033(6) 0.051(6)
C6 0.065(6) 0.031(5) 0.038(6) 0.008(4) 0.023(5) -0.002(5)
C7 0.155(14) 0.041(7) 0.064(9) 0.017(6) 0.068(10) 0.004(8)
C8 0.102(9) 0.042(7) 0.059(7) 0.012(6) 0.043(7) 0.013(6)
C9 0.142(11) 0.036(6) 0.049(7) 0.014(6) 0.057(8) 0.030(7)
C10 0.056(6) 0.039(6) 0.069(8) 0.012(6) 0.027(6) 0.014(5)
C11 0.176(15) 0.056(8) 0.051(8) -0.016(6) 0.073(9) -0.014(9)
C12 0.100(9) 0.069(9) 0.072(8) -0.034(7) 0.046(7) 0.015(7)
C13 0.156(14) 0.098(12) 0.067(9) -0.001(9) 0.085(10) 0.039(10)
C14 0.121(10) 0.045(7) 0.077(9) 0.004(6) 0.067(8) 0.008(7)
C15 0.167(14) 0.045(7) 0.074(9) -0.005(7) 0.086(10) -0.001(8)
C16 0.096(9) 0.069(9) 0.061(9) -0.016(7) 0.023(7) 0.029(7)
C17 0.136(12) 0.034(7) 0.104(10) -0.002(7) 0.095(9) 0.006(7)
C18 0.153(14) 0.051(9) 0.156(15) -0.028(9) 0.099(12) 0.008(8)
loop_
_atom_type_symbol
_atom_type_description
_atom_type_scat_dispersion_real
_atom_type_scat_dispersion_imag
_atom_type_scat_source
C C 0.0033 0.0016 'International Tables Vol C Tables 4.2.6.8 and 6.1.1.4'
H H 0.0000 0.0000 'International Tables Vol C Tables 4.2.6.8 and 6.1.1.4'
Cu Cu 0.3201 1.2651 'International Tables Vol C Tables 4.2.6.8 and 6.1.1.4'
N N 0.0061 0.0033 'International Tables Vol C Tables 4.2.6.8 and 6.1.1.4'
O O 0.0106 0.0060 'International Tables Vol C Tables 4.2.6.8 and 6.1.1.4'
loop_
_geom_angle_atom_site_label_1
_geom_angle_atom_site_label_2
_geom_angle_atom_site_label_3
_geom_angle
_geom_angle_site_symmetry_1
_geom_angle_site_symmetry_3
_geom_angle_publ_flag
O1 Cu1 O1 89.6(4) 5_667 2_657 ?
O1 Cu1 O2 90.3(3) 5_667 6_565 ?
O1 Cu1 O2 167.1(3) 2_657 6_565 ?
O1 Cu1 O2 167.1(3) 5_667 . ?
O1 Cu1 O2 90.3(3) 2_657 . ?
O1 Cu1 O6 97.1(4) 5_667 . ?
O1 Cu1 O6 97.1(4) 2_657 . ?
O2 Cu1 O2 86.8(4) . 6_565 ?
O2 Cu1 O6 95.6(4) . . ?
O2 Cu1 O6 95.6(4) 6_565 . ?
O4 Cu2 O4 87.3(7) 6 . ?
O4 Cu2 O7 93.9(4) 6 . ?
O4 Cu2 O7 93.9(4) . . ?
O5 Cu2 O4 90.8(4) 2_656 . ?
O5 Cu2 O4 169.2(4) 5_656 . ?
O5 Cu2 O4 169.2(4) 2_656 6 ?
O5 Cu2 O4 90.8(4) 5_656 6 ?
O5 Cu2 O5 89.1(6) 5_656 2_656 ?
O5 Cu2 O7 96.9(4) 2_656 . ?
O5 Cu2 O7 96.9(4) 5_656 . ?
Cu1 O1 Cu1 0.00(9) 5_667 2_657 ?
C1 O1 Cu1 122.8(6) . 2_657 ?
C1 O1 Cu1 122.8(6) . 5_667 ?
C1 O2 Cu1 126.8(6) . . ?
C7 O3 C18 117.9(11) . . ?
C16 O4 Cu2 116.9(9) . . ?
Cu2 O5 Cu2 0.0(3) 5_656 2_656 ?
C16 O5 Cu2 121.5(9) . 2_656 ?
C16 O5 Cu2 121.5(9) . 5_656 ?
Cu1 O6 H6A 131(3) . . ?
Cu1 O6 H6B 129(3) . . ?
H6A O6 H6B 100(5) . . ?
Cu2 O7 H7A 130(3) . . ?
Cu2 O7 H7B 129(3) . . ?
H7A O7 H7B 101(5) . . ?
C7 N1 C3 113.9(11) . . ?
C3 N2 C4 109.5(11) . . ?
C4 N3 C7 112.5(11) . . ?
C3 N4 H4 116.6 . . ?
C3 N4 C9 126.9(11) . . ?
C9 N4 H4 116.6 . . ?
C2 N5 H5 107.1 . . ?
C2 N5 C4 129.8(12) . . ?
C4 N5 H5 107.4 . . ?
O1 C1 C6 122.6(9) . . ?
O2 C1 O1 122.9(9) . . ?
O2 C1 C6 114.5(10) . . ?
N5 C2 C11 114.6(12) . . ?
C5 C2 N5 124.6(12) . . ?
C5 C2 C11 120.8(10) . . ?
N2 C3 N1 129.1(12) . . ?
N2 C3 N4 119.6(14) . . ?
N4 C3 N1 111.2(10) . . ?
N2 C4 N5 111.6(13) . . ?
N3 C4 N2 130.2(10) . . ?
N3 C4 N5 118.1(11) . . ?
C2 C5 H5A 119.5 . . ?
C2 C5 C8 121.1(11) . . ?
C8 C5 H5A 119.5 . . ?
C8 C6 C1 120.6(10) . . ?
C8 C6 C12 123.2(10) . . ?
C12 C6 C1 116.1(9) . . ?
O3 C7 N1 114.9(13) . . ?
O3 C7 N3 120.3(12) . . ?
N3 C7 N1 124.7(15) . . ?
C5 C8 H8 121.1 . . ?
C6 C8 C5 117.8(12) . . ?
C6 C8 H8 121.1 . . ?
C10 C9 N4 115.8(11) . . ?
C10 C9 C15 124.0(14) . . ?
C15 C9 N4 120.1(11) . . ?
C9 C10 H10 121.1 . . ?
C9 C10 C13 117.8(11) . . ?
C13 C10 H10 121.1 . . ?
C2 C11 H11 118.3 . . ?
C2 C11 C12 123.4(13) . . ?
C12 C11 H11 118.3 . . ?
C6 C12 H12 123.3 . . ?
C11 C12 C6 113.4(12) . . ?
C11 C12 H12 123.3 . . ?
C10 C13 H13 118.9 . . ?
C10 C13 C14 122.1(11) . . ?
C14 C13 H13 118.9 . . ?
C13 C14 C16 126.7(12) . . ?
C17 C14 C13 114.1(12) . . ?
C17 C14 C16 119.0(11) . . ?
C9 C15 H15 118.8 . . ?
C9 C15 C17 122.5(12) . . ?
C17 C15 H15 118.8 . . ?
O4 C16 C14 108.9(12) . . ?
O5 C16 O4 132.0(14) . . ?
O5 C16 C14 118.5(11) . . ?
C14 C17 H17 120.6 . . ?
C15 C17 C14 118.9(11) . . ?
C15 C17 H17 120.6 . . ?
O3 C18 H18A 109.5 . . ?
O3 C18 H18B 109.5 . . ?
O3 C18 H18C 109.5 . . ?
H18A C18 H18B 109.5 . . ?
H18A C18 H18C 109.5 . . ?
H18B C18 H18C 109.5 . . ?
loop_
_geom_bond_atom_site_label_1
_geom_bond_atom_site_label_2
_geom_bond_distance
_geom_bond_site_symmetry_2
_geom_bond_publ_flag
Cu1 O1 1.943(6) 5_667 ?
Cu1 O1 1.943(6) 2_657 ?
Cu1 O2 2.000(7) . ?
Cu1 O2 2.000(7) 6_565 ?
Cu1 O6 2.146(12) . ?
Cu2 O4 1.953(10) 6 ?
Cu2 O4 1.953(10) . ?
Cu2 O5 1.912(10) 2_656 ?
Cu2 O5 1.912(10) 5_656 ?
Cu2 O7 2.141(12) . ?
O1 C1 1.248(12) . ?
O2 C1 1.247(11) . ?
O3 C7 1.255(17) . ?
O3 C18 1.465(14) . ?
O4 C16 1.300(14) . ?
O5 C16 1.164(14) . ?
O6 H6A 0.85(2) . ?
O6 H6B 0.87(2) . ?
O7 H7A 0.85(2) . ?
O7 H7B 0.87(2) . ?
N1 C3 1.359(17) . ?
N1 C7 1.349(15) . ?
N2 C3 1.293(14) . ?
N2 C4 1.371(15) . ?
N3 C4 1.324(16) . ?
N3 C7 1.342(16) . ?
N4 H4 0.8600 . ?
N4 C3 1.351(14) . ?
N4 C9 1.490(16) . ?
N5 H5 0.8601 . ?
N5 C2 1.366(12) . ?
N5 C4 1.401(14) . ?
C1 C6 1.468(13) . ?
C2 C5 1.324(16) . ?
C2 C11 1.401(18) . ?
C5 H5A 0.9300 . ?
C5 C8 1.443(14) . ?
C6 C8 1.404(15) . ?
C6 C12 1.448(16) . ?
C8 H8 0.9300 . ?
C9 C10 1.264(15) . ?
C9 C15 1.362(16) . ?
C10 H10 0.9300 . ?
C10 C13 1.455(18) . ?
C11 H11 0.9300 . ?
C11 C12 1.436(15) . ?
C12 H12 0.9300 . ?
C13 H13 0.9300 . ?
C13 C14 1.460(17) . ?
C14 C16 1.547(18) . ?
C14 C17 1.434(16) . ?
C15 H15 0.9300 . ?
C15 C17 1.401(18) . ?
C17 H17 0.9300 . ?
C18 H18A 0.9600 . ?
C18 H18B 0.9600 . ?
C18 H18C 0.9600 . ?
loop_
_smtbx_masks_void_nr
_smtbx_masks_void_average_x
_smtbx_masks_void_average_y
_smtbx_masks_void_average_z
_smtbx_masks_void_volume
_smtbx_masks_void_count_electrons
_smtbx_masks_void_content
1 -0.137 -0.396 -0.663 3894.5 1069.8 ?
