#------------------------------------------------------------------------------
#$Date: 2019-12-28 00:15:54 +0200 (Sat, 28 Dec 2019) $
#$Revision: 246257 $
#$URL: file:///home/coder/svn-repositories/cod/cif/4/51/72/4517269.cif $
#------------------------------------------------------------------------------
#
# This file is available in the Crystallography Open Database (COD),
# http://www.crystallography.net/
#
# All data on this site have been placed in the public domain by the
# contributors.
#
data_4517269
loop_
_publ_author_name
'Chen, Mao-Long'
'Feng, Yan-Ying'
'Wang, Si-Yuan'
'Cheng, Yuihui'
'Zhou, Zhao-Hui'
_publ_section_title
;
 Metal-organic frameworks with double channels for rapid and reversible
 adsorption of 1,2-ethylenediamine and gases.
;
_journal_name_full               'ACS applied materials &amp; interfaces'
_journal_paper_doi               10.1021/acsami.9b20184
_journal_year                    2019
_chemical_formula_moiety
'0.25(C88 H128 Ce8 N16 O72), 2(C0.6 H3 N), 0.8(C), 4(H2 O), O'
_chemical_formula_sum            'C24 H46 Ce2 N6 O23'
_chemical_formula_weight         1066.91
_space_group_crystal_system      tetragonal
_space_group_IT_number           85
_space_group_name_Hall           '-P 4a'
_space_group_name_H-M_alt        'P 4/n :2'
_atom_sites_solution_hydrogens   mixed
_audit_creation_date             2018-09-11
_audit_creation_method
;
  Olex2 1.1
  (compiled 2011.11.01 svn.r2039, GUI svn.r3906)
;
_cell_angle_alpha                90
_cell_angle_beta                 90
_cell_angle_gamma                90
_cell_formula_units_Z            4
_cell_length_a                   19.4161(2)
_cell_length_b                   19.4161(2)
_cell_length_c                   9.9444(4)
_cell_measurement_reflns_used    5370
_cell_measurement_temperature    173(2)
_cell_measurement_theta_max      28.8527
_cell_measurement_theta_min      2.9264
_cell_volume                     3748.89(16)
_computing_molecular_graphics
;
O. V. Dolomanov, L. J. Bourhis, R. J. Gildea, J. A. K. Howard and H. Puschmann,
OLEX2: a complete structure solution, refinement and analysis program.
J. Appl. Cryst. (2009). 42, 339-341.
;
_computing_publication_material
;
O. V. Dolomanov, L. J. Bourhis, R. J. Gildea, J. A. K. Howard and H. Puschmann,
OLEX2: a complete structure solution, refinement and analysis program.
J. Appl. Cryst. (2009). 42, 339-341.
;
_computing_structure_refinement
;
XL, G.M. Sheldrick, Acta Cryst.
(2008). A64, 112-122
;
_diffrn_ambient_temperature      173(2)
_diffrn_measured_fraction_theta_full 0.996
_diffrn_measured_fraction_theta_max 0.997
_diffrn_measurement_device_type  'Xcalibur, Sapphire3, Gemini ultra'
_diffrn_radiation_type           MoK\a
_diffrn_radiation_wavelength     0.71073
_diffrn_reflns_av_R_equivalents  0.0880
_diffrn_reflns_av_unetI/netI     0.0612
_diffrn_reflns_Laue_measured_fraction_full 0.996
_diffrn_reflns_Laue_measured_fraction_max 0.997
_diffrn_reflns_limit_h_max       24
_diffrn_reflns_limit_h_min       -23
_diffrn_reflns_limit_k_max       24
_diffrn_reflns_limit_k_min       -17
_diffrn_reflns_limit_l_max       12
_diffrn_reflns_limit_l_min       -11
_diffrn_reflns_number            25573
_diffrn_reflns_point_group_measured_fraction_full 0.996
_diffrn_reflns_point_group_measured_fraction_max 0.997
_diffrn_reflns_theta_full        25.242
_diffrn_reflns_theta_max         26.498
_diffrn_reflns_theta_min         2.932
_exptl_absorpt_coefficient_mu    2.494
_exptl_absorpt_correction_T_max  1.00000
_exptl_absorpt_correction_T_min  0.91873
_exptl_absorpt_correction_type   multi-scan
_exptl_absorpt_process_details
;
CrysAlisPro, Agilent Technologies,
Version 1.171.35.15 (release 03-08-2011 CrysAlis171 .NET)
(compiled Aug  3 2011,13:03:54)
Empirical absorption correction using spherical harmonics,
 implemented in SCALE3 ABSPACK scaling algorithm.
;
_exptl_crystal_colour            COLORLESS
_exptl_crystal_density_diffrn    1.890
_exptl_crystal_description       TETRAGONAL
_exptl_crystal_F_000             2128
_exptl_crystal_size_max          0.150
_exptl_crystal_size_mid          0.100
_exptl_crystal_size_min          0.080
_refine_diff_density_max         1.697
_refine_diff_density_min         -0.897
_refine_diff_density_rms         0.143
_refine_ls_extinction_method     none
_refine_ls_goodness_of_fit_ref   1.175
_refine_ls_hydrogen_treatment    constr
_refine_ls_matrix_type           full
_refine_ls_number_parameters     263
_refine_ls_number_reflns         3888
_refine_ls_number_restraints     18
_refine_ls_restrained_S_all      1.177
_refine_ls_R_factor_all          0.0776
_refine_ls_R_factor_gt           0.0564
_refine_ls_shift/su_max          0.000
_refine_ls_shift/su_mean         0.000
_refine_ls_structure_factor_coef Fsqd
_refine_ls_weighting_details
'w=1/[\s^2^(Fo^2^)+(0.0216P)^2^+18.9934P] where P=(Fo^2^+2Fc^2^)/3'
_refine_ls_weighting_scheme      calc
_refine_ls_wR_factor_gt          0.1020
_refine_ls_wR_factor_ref         0.1102
_reflns_Friedel_coverage         0.000
_reflns_number_gt                3029
_reflns_number_total             3888
_reflns_threshold_expression     'I > 2\s(I)'
_cod_data_source_file            am9b20184_si_004.cif
_cod_data_source_block           SAD
_cod_original_cell_volume        3748.89(17)
_cod_original_sg_symbol_H-M      'P 4/n'
_cod_database_code               4517269
_shelx_estimated_absorpt_t_max   0.825
_shelx_estimated_absorpt_t_min   0.706
_shelx_hkl_checksum              87709
_shelx_hkl_file
;
   0   0  -2  574.91   13.69
   0   0   2  569.73   16.25
   0   0   3 1031.67   22.69
   0   0   3 1043.49   27.47
   0   0  -3 1062.79   23.03
   0   0   4  244.05   14.85
   0   0   5  142.93   12.90
   0   0   6   45.88    8.04
   0   0   7    4.84    3.36
   0   0   8    8.90    3.50
   0   0  10   21.64    7.70
   0   0  11   91.97   16.13
   0   0  12   65.96   14.64
  -1   0   2   -0.92    0.56
   0   1   2    0.41    1.02
  -1   0  -2    1.01    1.30
   1   0  -2    1.28    0.83
   1   0   2    0.71    1.37
  -1   0   2    1.23    0.84
   0   1   3    1.79    1.61
  -1   0   3    1.83    1.87
   1   0   3    2.04    1.18
   0  -1   3    1.61    1.83
   1   0   3   -1.61    1.19
  -1   0   3    1.03    0.80
   1   0  -3    1.83    1.42
   0  -1  -3    1.50    1.53
  -1   0   4  163.53   12.21
   1   0   4  149.07   11.49
  -1   0   4  162.67    8.95
   0  -1   4  179.42   12.82
   1   0   4  165.55   10.57
   1   0   5   36.82    6.58
   0   1   5   41.37    6.97
   1   0   6   35.09    5.98
  -1   0   6   30.08    6.79
   0   1   6   51.81    8.64
   0  -1   6   49.27    8.24
   0  -1   7   15.94    3.95
  -1   0   7    9.23    4.33
   0   1   7   18.97    5.64
   1   0   7    6.22    2.91
   0   1   7   25.95    5.41
   1   0   7    7.71    3.93
   0  -1   8    3.03    2.01
   0   1   8   -1.82    2.20
  -1   0   8    0.50    2.12
   0   1   8    0.92    1.92
  -1   0   9    2.80    4.18
   0   1   9   10.04    4.30
  -1   0   9    0.29    1.66
   0  -1   9    8.55    3.44
   1   0   9    5.88    4.07
   0   1   9    8.67    4.99
   0  -1   9    8.79    4.16
   0  -1  10    9.64    5.36
  -1   0  10    3.77    4.60
   0  -1  11    6.51    4.84
   1   0  11    3.39    4.29
  -1   0  11    3.22    4.74
   1   0  12    4.02    4.92
   0   1  12    7.93    4.73
   0  -1  12   -1.94    2.51
  -1   0  12   12.70    7.64
   1   1   2   56.19    4.99
  -1   1   2   48.33    4.68
  -1   1   2   45.26    3.52
  -1  -1   3   73.97    4.97
   1  -1   3   60.25    5.64
   1  -1  -3   64.20    5.09
  -1  -1  -3   86.45    6.86
   1  -1   3   65.06    6.45
  -1   1   3   65.50    6.73
  -1  -1   3   71.98    6.95
  -1   1   3   67.74    5.19
   1   1   3   76.92    7.25
  -1   1   4   33.70    5.70
   1  -1  -4   31.18    4.15
  -1  -1   4   41.84    4.45
   1   1   4   42.53    5.46
   1   1   4   46.94    6.51
   1  -1   4   38.09    5.79
   1  -1   5   56.71    8.07
   1   1   5   91.99   10.09
  -1  -1   5   99.26   10.66
  -1   1   5   49.07    7.65
  -1   1   6    6.99    3.07
   1   1   6   16.75    4.86
   1  -1   6    9.27    3.25
   1   1   7   15.12    5.13
  -1   1  -7   18.38    3.46
   1   1   7   13.91    4.20
  -1  -1   7   17.30    5.54
  -1   1   7   19.07    4.67
   1  -1   8    7.41    4.61
  -1   1   8    5.70    4.14
   1   1  -8    3.79    2.29
   1   1   8   10.45    4.16
   1   1   8    4.70    3.33
   1  -1   8    0.91    2.53
  -1   1  -8    5.56    2.29
  -1   1   8    9.67    3.56
   1  -1   9   -0.25    1.97
   1   1   9    2.50    3.09
  -1  -1   9    1.41    1.96
   1   1   9    4.82    3.06
  -1   1   9    2.30    2.17
  -1  -1   9    1.39    1.59
   1  -1  10   -2.18    1.70
   1   1  10    7.71    4.36
   1   1  10   11.63    5.72
   1  -1  10    7.41    3.98
  -1  -1  10    2.11    3.41
  -1  -1  11   14.45    6.43
   1  -1  11    3.37    3.38
  -1   1  11    6.65    5.38
  -1  -1  12   12.09    7.13
   1   1  12   12.06    6.70
  -1   1  12    0.21    1.49
   1  -1  12    3.73    4.62
   2  -1   1  229.07    7.12
  -2   1  -1  226.00    7.99
   1   2  -1  230.21    8.22
   1   2   1  234.79    8.83
  -2   1   1  234.59    7.69
  -1  -2  -1  222.81    7.64
  -1  -2   1  215.26    8.50
  -1  -2  -1  225.26    9.01
   1   2   1  230.60    8.79
  -2   1   1  219.28    8.69
  -1  -2  -2    7.70    1.36
   1   2  -2    7.09    1.82
  -1  -2   2   10.09    1.99
   1   2   2    7.54    2.25
  -1  -2   2    7.07    1.92
  -2   1   2    4.64    1.72
   2  -1  -2   10.41    1.72
   2  -1   2    9.49    2.05
   2  -1   3  454.28   17.02
   1   2   3  442.09   17.89
   1   2   3  423.42   16.37
   2  -1  -3  471.15   12.71
   1   2  -3  427.19   13.79
  -1  -2   3  410.91   17.40
   2  -1   3  426.55   16.94
  -2   1   3  444.32   17.77
  -2   1   4  381.63   19.01
  -1  -2   4  419.00   19.81
  -1  -2   4  406.02   14.39
   1   2   4  391.17   19.14
   2  -1   4  393.80   18.72
   2  -1  -4  398.99   13.69
  -2   1   4  395.77   13.92
   1   2  -4  412.05   14.76
   2  -1   5  546.65   25.10
  -2   1   5  583.89   26.34
  -1  -2   5  625.92   20.27
   1   2   5  624.38   27.20
   1   2  -5  630.89   19.93
  -1  -2   5  594.91   26.74
  -2   1   5  567.07   19.18
  -1  -2   6  416.16   24.49
   1   2   6  406.60   23.94
   1   2   6  435.37   21.70
   1   2  -6  419.73   17.45
  -2   1   6  391.90   23.68
   2  -1   7  326.96   23.18
   1   2   7  352.14   24.16
  -2   1  -7  347.36   13.01
   1   2  -7  327.06   16.51
  -1  -2   7  339.78   23.80
  -1  -2   8  193.72   19.54
   1   2   8  212.78   17.44
   2  -1   8  204.42   19.80
   2  -1   8  240.44   18.31
   1   2  -8  215.93   13.95
   1   2   8  188.92   19.07
  -2   1   8  226.23   15.58
  -2   1   8  195.51   19.59
  -1  -2   8  221.50   15.38
   2  -1   9   82.51   13.73
   1   2   9  100.89   12.77
   1   2   9   85.65   13.86
  -1  -2   9   96.27   14.80
   2  -1  10   48.96   11.10
  -1  -2  10   44.41   10.65
   1   2  10   48.30    9.30
   1   2  10   38.56   10.25
  -2   1  10   37.14    9.73
  -1  -2  11    4.25    3.31
   2  -1  11    6.99    4.68
  -2   1  11    6.21    4.68
   1   2  11   11.86    5.35
  -1  -2  12   -0.28    3.14
   2  -1  12    2.80    4.27
  -2   1  12    0.69    3.34
  -2   0   1  589.78   12.58
   0   2  -1  572.21   12.00
   2   0   1  577.54   11.68
   0   2   1  557.64   14.05
   0   2   1  581.00   11.35
   0  -2  -1  557.25   13.96
   0  -2  -1  562.89   13.64
   0  -2   1  564.74   13.92
   2   0   2  101.87    6.67
   0   2   2  110.50    7.47
   0  -2  -2  113.22    5.91
   0  -2   2  105.51    7.22
   0  -2  -2  115.24    6.90
   0  -2   2  117.35    5.38
  -2   0   2  110.76    7.25
   0   2  -2  113.46    5.29
  -2   0   3  108.42    8.52
   2   0   3   94.05    7.74
   0  -2  -3   98.69    7.19
  -2   0   3  119.00    5.59
   2   0   3   94.98    7.69
   0   2   3   84.68    6.86
   0   2  -3   97.52    5.54
   0   2   3   95.53    8.22
   0  -2   3  106.53    8.65
   2   0  -3  107.01    5.35
   0  -2   4   26.21    4.86
   2   0   4   28.67    5.14
   0  -2   4   24.85    3.86
   0   2   4   31.26    5.40
   0   2   4   24.57    4.07
   0   2  -4   31.82    3.57
  -2   0   4   35.74    3.95
  -2   0   4   33.16    5.70
  -2   0   5   10.17    3.62
   2   0   5    4.21    2.43
   0   2   5    5.23    2.72
   0   2  -5    3.59    1.53
   0  -2   5    1.65    2.71
  -2   0   5   13.99    2.96
   0   2   6    2.46    2.74
   0  -2   6    3.07    1.60
   0   2   6   -0.63    1.82
  -2   0   6    0.15    1.70
   0   2  -6    0.50    0.86
   0  -2   7   55.12    7.49
   0   2  -7   53.39    6.07
   0   2   7   54.27    7.92
   2   0   7   38.10    8.08
   0   2   7   49.07    9.13
   0  -2   7   49.08    8.87
   0   2  -8   30.38    4.89
   0   2   8    3.91    3.52
  -2   0   8   32.71    5.73
  -2   0   8   32.76    8.25
   2   0   8   31.63    8.00
   0  -2   8   15.46    4.34
   0  -2   8   27.38    7.54
   0   2   8   31.22    8.19
   0   2   9   14.86    5.51
   0   2   9    7.20    4.04
   0  -2   9   10.88    4.93
  -2   0   9    6.54    3.90
   0   2  10    5.50    3.79
   2   0  10   14.31    4.94
   0  -2  10   16.11    6.71
  -2   0  10   18.22    7.14
   0  -2  11   22.32    8.73
   2   0  11   43.09   11.29
  -2   0  11   39.24   11.03
  -2   0  12   20.45    8.77
   0  -2  12   32.70   10.54
   2   0  12   16.28    8.30
   2   1   1   15.82    1.99
  -1   2  -1   14.70    2.33
   1  -2  -1   12.19    1.99
   1  -2   1   16.94    2.33
  -2  -1   1   14.82    2.06
  -1   2  -1   15.88    1.72
   2   1   1   15.49    2.06
  -1   2   1   15.61    2.18
   2   1  -1   14.87    2.16
  -1   2   1   15.81    2.20
  -2  -1  -2   34.23    3.11
   1  -2  -2   33.91    3.62
   2   1   2   34.23    3.92
  -1   2   2   27.39    3.20
   1  -2   2   26.76    3.75
  -1   2   2   30.63    3.96
  -2  -1   2   37.46    4.21
  -1   2   3  206.33   12.01
  -1   2   3  201.47    9.98
  -1   2  -3  211.24    6.82
   1  -2   3  202.99   11.85
   2   1   3  198.72   11.44
  -2  -1   3  220.77    7.35
  -2  -1  -3  214.73    8.75
  -2  -1   3  211.03   11.99
  -1   2   4   53.94    5.79
  -1   2  -4   53.08    3.96
  -1   2   4   56.23    7.39
   2   1   4   62.03    7.31
   1  -2   4   53.52    6.86
   1  -2   5  124.38   11.99
   2   1   5  128.81   11.98
  -2  -1   5  122.43    8.05
  -1   2  -5  133.98    7.20
  -1   2   5  132.66   12.53
   1  -2   6  118.76   10.67
  -2  -1   6   84.22    7.55
  -2  -1   6   74.97   10.37
   2   1   6   72.96    8.88
  -1   2  -6  108.15    7.07
  -1   2   6  106.39   12.47
   1  -2   6  106.12   12.00
   2   1   6   79.98   10.51
  -1   2   7   86.52   12.07
  -1   2  -7   87.76    6.95
   1  -2   7   95.67   10.33
   2   1   7   60.62    9.89
  -1   2   7   92.99    9.96
   1  -2   7   75.32   11.18
   2   1   8   61.14    9.66
   2   1   8   49.41    9.89
   2   1  -8   74.15    8.91
   1  -2   8   82.93   12.32
  -2  -1   8   56.46   10.70
  -1   2   8   88.53   12.98
  -1   2   8   67.34    9.05
  -1   2  -8   96.33    7.72
   2   1  -9   15.45    4.50
  -2  -1   9   14.66    5.88
   1  -2   9   30.65    6.79
   2   1   9   11.47    5.03
   1  -2   9   24.68    8.65
   2   1   9    8.99    4.36
  -1   2   9   25.44    7.75
  -1   2  10   10.78    5.35
   2   1  10    0.68    2.34
   1  -2  10   15.45    5.94
   2   1  10    8.07    4.51
  -2  -1  10    0.79    2.28
  -2  -1  11   -1.06    2.32
   1  -2  11    5.13    3.93
  -2  -1  12    3.96    3.69
  -1   2  12    3.38    5.70
   1  -2  12    7.16    4.87
   2   1  12    2.08    4.71
   2   2   0   16.34    2.34
  -2   2   0   16.58    2.42
  -2  -2   0   14.65    2.02
   2   2  -1    5.09    1.48
   2  -2   1    5.91    1.39
   2   2   1    4.90    1.60
  -2   2   1    8.16    1.89
  -2  -2   1    6.84    1.57
   2  -2  -1    8.16    1.89
   2   2   1    4.35    1.42
  -2   2  -1    6.84    1.79
  -2   2   1    9.09    1.70
   2   2   1    6.17    1.14
   2   2  -2  124.27    7.28
   2   2   2  130.32    7.27
  -2   2   2  138.83    8.33
   2  -2  -2  137.10    6.90
  -2  -2   2  130.03    8.21
   2   2   2  120.19    7.77
   2  -2   2  148.84    8.32
  -2  -2  -2  114.73    6.85
   2  -2   3    2.02    1.48
  -2  -2   3    5.48    2.75
   2   2   3   -0.78    1.52
   2   2  -3    3.86    1.65
  -2  -2  -3    2.28    1.51
  -2   2   3    2.61    1.88
  -2  -2   4   -0.67    1.38
  -2   2   4    1.10    1.41
  -2  -2  -4    1.80    1.02
  -2  -2   4    0.26    0.92
   2   2  -4   -0.93    1.01
  -2   2   4   -0.82    1.92
   2   2   4   -0.23    1.16
  -2   2  -4    0.15    0.38
   2  -2  -4    1.65    1.00
   2  -2   4    2.20    2.59
  -2  -2   5    3.97    2.27
  -2   2  -5   13.13    1.84
   2  -2   5   15.10    4.25
  -2  -2   5    4.23    2.04
   2   2   5    2.59    2.48
   2   2  -5    5.16    2.00
   2  -2   6    5.37    3.28
  -2  -2   6    5.45    2.94
  -2   2   6    3.46    2.93
   2  -2   6    1.02    1.87
   2   2  -6    2.28    1.73
   2   2   6    3.35    3.04
  -2   2  -6    1.80    0.62
   2   2  -7   16.06    3.83
  -2   2   7   17.90    5.32
  -2  -2   7   15.30    5.85
  -2   2  -7   21.72    2.95
   2   2   7    8.75    4.31
   2   2   7   17.18    4.75
   2  -2   7   21.78    6.58
  -2   2   8   19.53    6.70
   2   2   8    7.68    4.14
  -2  -2   8   12.16    5.04
   2  -2   8   12.89    5.31
   2   2  -8    9.51    3.16
  -2  -2   9    0.64    2.33
   2   2   9    1.15    3.34
   2  -2   9    3.25    3.14
  -2   2   9    0.25    3.26
  -2   2   9    2.19    2.34
   2  -2   9    0.53    2.94
   2  -2  10    2.31    3.00
   2   2  10    1.31    1.96
   2   2  10    0.79    1.63
  -2  -2  10    2.38    2.78
   2   2  11    6.51    5.35
  -2  -2  11    6.58    4.59
   2  -2  11    3.66    4.03
   2  -2  12    6.64    5.29
  -2  -2  12    9.02    6.26
  -2   2  12    2.81    3.20
  -3   2   0    1.90    1.13
  -2  -3   0    1.65    1.43
   2   3   0    0.80    1.11
   3  -2   0    0.52    0.96
   3  -2   1   20.00    2.28
  -3   2   1   21.40    2.62
  -2  -3   1   11.20    2.56
   2   3   1   12.97    2.71
  -3   2  -1   20.60    2.45
  -2  -3  -1   10.94    1.91
  -3   2  -1   15.63    2.61
  -2  -3  -1   13.39    2.88
   2   3   1   15.12    3.00
   2   3  -1   13.79    2.79
   3  -2  -1   19.17    2.95
  -3   2   1   17.91    3.00
   3  -2  -1   18.96    2.51
  -2  -3   1   13.45    1.94
  -3   2   2    1.05    1.27
   3  -2  -2    3.10    1.58
   2   3   2    1.43    1.71
  -3   2  -2    1.53    1.34
   3  -2   2    0.49    0.90
   2   3  -2   -0.06    1.07
  -2  -3   2    1.10    1.06
   2   3   2    0.92    0.98
  -2  -3  -2    0.03    1.45
  -3   2  -2   -0.36    1.22
  -2  -3   2    1.28    1.89
   2   3  -3   12.55    2.71
  -2  -3  -3   14.00    1.93
  -2  -3   3   14.54    3.70
  -3   2   3   13.61    3.10
  -2  -3  -3   17.32    3.25
   2   3   3   18.86    3.72
   3  -2   3   15.65    3.46
   3  -2  -3   16.48    2.59
  -2  -3   4   10.23    3.41
  -3   2   4   19.38    4.33
   2   3   4   12.48    3.70
   3  -2   4   17.21    4.17
   2   3  -4   11.94    2.78
  -2  -3  -4   12.71    2.91
   3  -2  -5    2.96    1.68
  -2  -3   5    2.24    1.22
   2   3  -5    4.31    1.97
  -3   2   5    1.58    1.33
   2   3   5   -1.12    1.31
  -2  -3   5   -0.74    1.42
   2   3   6    0.23    2.52
  -3   2   6    2.12    2.49
  -3   2   6    3.13    2.37
  -2  -3   6    0.05    1.78
   2   3  -6    1.76    2.27
   3  -2   6    4.49    2.77
   3  -2   6    0.61    0.94
  -2  -3   6    0.84    1.15
  -3   2  -7    4.87    1.11
   3  -2   7    6.25    3.09
   3  -2   7    7.17    3.03
   2   3   7    4.49    3.86
  -3   2   7    7.18    4.05
   2   3  -7    5.65    2.75
  -3   2  -7    4.23    1.04
  -2  -3   7    4.46    3.61
   2   3   8    4.95    3.97
   2   3  -8    4.63    2.76
   2   3   8   10.54    4.73
  -3   2   8   13.01    3.76
   3  -2   8    9.47    4.77
  -2  -3   8    2.09    3.55
   3  -2   9    2.70    1.76
  -2  -3   9    2.36    3.31
   2   3   9    4.01    2.87
  -3   2   9    2.97    2.92
   2   3   9    3.41    3.84
  -3   2  10    0.44    1.99
  -2  -3  10    8.18    5.16
   3  -2  10    0.06    2.42
   3  -2  10    9.96    5.59
   2   3  10    4.50    3.06
   3  -2  11   -1.14    2.31
   2   3  11    6.27    4.85
  -3   2  11    5.05    2.98
  -2  -3  11    5.17    3.49
  -2  -3  12    3.94    4.88
   2   3  12    1.06    2.81
   3  -2  12    2.61    3.86
  -3   2  12    3.40    5.04
   3  -1   0  288.67   10.32
   1   3   0  263.24   10.52
  -3   1   0  290.24    9.90
   1   3   1   35.14    4.02
  -3   1   1   30.15    2.75
  -3   1   1   26.98    3.40
   3  -1   1   29.25    2.38
  -3   1  -1   29.03    3.05
   1   3   1   33.24    2.55
   1   3  -1   35.11    3.75
  -1  -3  -1   33.73    3.39
  -1  -3   1   29.95    3.73
  -1  -3  -1   28.14    3.72
   3  -1  -1   31.83    2.85
   1   3   1   28.28    3.45
  -1  -3  -1   34.62    2.69
  -3   1  -1   27.22    2.37
  -3   1  -2   85.49    5.94
  -1  -3   2   87.17    7.05
  -1  -3  -2   94.86    7.30
   3  -1   2   86.08    6.02
  -1  -3   2   95.35    6.27
   3  -1  -2   88.79    6.34
   1   3   2   88.81    4.51
   1   3   2   86.00    7.01
  -3   1   2   84.56    6.34
  -3   1  -2   91.98    6.22
  -1  -3  -2   90.74    4.70
   1   3  -2   83.42    5.88
   1   3   3   22.26    4.10
  -1  -3  -3   21.28    2.71
  -3   1   3   19.86    3.88
   1   3  -3   16.25    2.87
   3  -1   3   22.50    3.92
  -1  -3   3   20.80    4.22
   1   3   3   19.94    3.85
   1   3  -4    4.12    1.59
   3  -1   4    5.19    2.90
   1   3   4    3.25    1.92
  -3   1   4    3.62    2.26
  -1  -3  -4    3.69    1.55
  -1  -3   4    2.51    1.20
  -3   1   4    2.45    1.17
  -1  -3   5  133.98    9.42
  -3   1  -5  113.38    5.05
  -3   1   5  132.21    8.47
   1   3  -5  127.09    8.84
   3  -1  -5  140.39    8.37
  -3   1  -5  124.29    4.86
  -3   1   5  121.16   11.92
   3  -1   5  133.46   12.09
   1   3   5  127.04   12.05
  -1  -3   5  124.71   12.24
  -3   1  -6    1.58    0.72
   1   3  -6    2.94    2.52
  -3   1   6    2.22    2.85
  -1  -3   6    0.48    1.41
  -3   1  -6    1.83    0.96
   1   3   6    0.38    2.03
   1   3   6    6.46    3.45
   3  -1   7   12.48    4.81
  -3   1  -7    8.43    1.83
  -3   1   7    4.73    3.46
  -3   1  -7   10.87    1.89
   1   3  -7    9.11    3.11
  -1  -3   7   12.01    4.66
   1   3   7   10.66    4.17
   1   3   7    0.39    2.53
   3  -1   7   11.97    4.49
  -1  -3   8    2.53    2.47
   1   3  -8    5.98    2.20
   3  -1   8    0.51    2.78
  -3   1   8    4.72    4.61
   1   3   8    2.07    2.78
   1   3   8   -3.61    3.36
   3  -1   9    3.10    2.54
   3  -1   9    1.53    2.31
  -1  -3   9    8.48    4.75
  -1  -3   9   -1.29    1.69
   1   3   9    4.86    3.02
   1   3   9    6.99    4.56
  -3   1   9   14.41    6.15
  -1  -3  10    0.17    2.87
   1   3  10    2.81    4.82
  -3   1  10    4.79    4.75
   1   3  10    3.96    2.75
   3  -1  10    0.99    2.35
   3  -1  11    1.21    1.43
   1   3  11    8.67    6.81
  -1  -3  11    2.08    3.46
  -3   1  11    0.89    2.72
  -1  -3  12    1.02    3.59
   3  -1  12    0.37    2.14
  -3   1  12    2.50    4.18
  -3   0   0    1.27    0.81
   0   3   0    0.79    1.15
   3   0   0    0.56    0.66
   0   3   0   -0.10    0.54
  -3   0  -1    2.15    0.93
   0  -3  -1   -0.23    0.62
   3   0   1    0.34    0.57
  -3   0  -1    0.89    0.56
   0  -3   1   -0.14    0.83
   0   3   1   -0.50    0.78
  -3   0  -1    0.50    0.67
   3   0   1    0.96    0.70
   0   3  -1    3.15    1.37
   3   0   1    0.44    0.46
   0   3   1   -0.82    0.72
  -3   0   2    8.99    2.30
  -3   0  -2    5.93    1.36
  -3   0  -2    6.29    1.51
   0   3  -2    9.51    1.82
   0  -3  -2    8.59    2.37
   0   3   2    9.35    1.99
   0  -3  -2    7.32    1.83
   3   0   2    6.66    1.90
   0  -3   2    7.81    2.54
   0   3   2    5.81    2.31
   0  -3   2   10.04    2.03
   0   3  -3    9.55    2.03
   3   0   3    9.35    2.84
   0   3   3   11.28    2.68
  -3   0  -3    8.48    1.23
  -3   0   3    8.06    1.29
   0  -3  -3    8.48    2.19
   0  -3   3    8.90    1.89
   0   3   3    6.23    2.15
  -3   0   3    8.70    2.28
   0  -3   3    5.92    2.04
   3   0  -3    7.79    1.34
  -3   0   4  177.47   12.82
   0  -3  -4  177.98   10.32
   0  -3   4  172.43   12.73
   0   3   4  190.72   13.52
   0   3  -4  174.99    8.75
   3   0   4  197.23   13.03
  -3   0  -4  186.62    7.01
  -3   0   4  194.30    8.02
  -3   0   5   16.25    2.88
  -3   0  -5   15.02    2.47
   0   3   5   16.79    4.34
   0  -3   5   14.21    3.89
   0   3  -5   16.06    2.74
   3   0   5    8.31    3.79
   3   0   5   11.78    3.61
  -3   0   5   16.29    4.69
   0   3   6   11.90    3.88
  -3   0   6    3.86    3.13
   0   3   6   17.61    5.46
   0   3  -6   14.27    2.98
  -3   0   6    7.36    2.79
  -3   0  -6    3.25    1.21
   0  -3   6   14.54    4.76
   0   3  -7   34.03    4.71
   0  -3   7   30.54    7.32
  -3   0   7   10.30    4.91
   0   3   7   38.01    6.83
   3   0   7    6.46    2.89
  -3   0  -7   11.89    2.56
   0  -3   7   32.90    5.90
   0   3   7   35.75    7.99
   3   0   7    9.14    3.82
   0  -3   8   13.39    4.15
   0   3  -8   17.60    3.68
   0   3   8   16.13    5.11
   0   3   8   18.95    5.66
   0  -3   8   13.71    5.73
   3   0   8    1.46    1.99
   3   0   8   -0.96    2.58
   0  -3   9    2.70    2.59
   0  -3   9    2.80    4.42
   0   3   9    6.82    3.78
  -3   0  10   -4.49    5.32
   3   0  10    2.24    2.91
   0  -3  10    2.05    3.20
   0  -3  11    3.99    3.43
  -3   0  11   -0.24    2.18
   0   3  11    0.15    3.25
   3   0  11    7.09    5.72
  -3   0  12    2.72    3.64
   0  -3  12    6.18    5.09
   0   3  12    9.09    5.62
   3   0  12   10.96    6.04
   3   1   0 1133.87   22.13
   3   1   0 1119.81   21.17
  -1   3   0 1146.20   22.47
  -3  -1   0 1119.85   19.84
   1  -3  -1  663.80   17.74
  -3  -1  -1  707.67   14.67
   3   1  -1  677.89   17.55
   1  -3   1  685.93   17.06
  -1   3   1  690.68   16.34
   3   1   1  694.09   14.99
  -1   3  -1  650.25   15.28
  -3  -1   1  705.85   15.32
   1  -3   1  663.55   15.41
  -1   3  -1  673.24   18.49
  -3  -1  -1  708.21   18.00
  -1   3   1  683.83   17.38
   3   1   1  682.43   14.24
  -3  -1  -2  735.68   19.00
   3   1   2  700.39   15.38
  -3  -1  -2  696.89   15.09
   1  -3  -2  760.44   18.67
  -1   3   2  705.79   20.61
  -1   3   2  739.79   18.44
  -1   3  -2  740.55   15.27
   1  -3   2  742.62   14.96
   3   1   2  683.61   18.30
  -3  -1   2  721.71   19.51
  -3  -1  -2  722.09   21.00
   1  -3  -2  744.47   19.57
   1  -3  -2  730.99   21.07
  -3  -1  -2  668.58   12.56
   1  -3   2  719.11   20.17
  -1   3  -3  499.71   12.39
   1  -3  -3  514.07   17.34
  -1   3   3  494.71   19.62
  -1   3   3  480.73   17.23
   1  -3  -3  491.01   16.65
  -3  -1  -3  461.67   12.77
  -3  -1   3  454.62   18.18
   1  -3   3  486.04   19.06
   1  -3   3  506.28   12.15
   3   1   3  474.02   18.00
  -1   3   4  194.48   13.75
  -3  -1   4  190.90   13.43
  -3  -1  -4  198.20    8.97
   3   1   4  187.11   12.76
   1  -3   4  197.14   13.46
  -1   3   4  188.12   11.64
  -1   3  -4  197.78    8.15
   3   1   5   78.15    9.29
  -3  -1  -5   70.34    5.83
  -3  -1   5   72.69    5.55
   1  -3   5   81.41    9.88
  -3  -1   5   60.76    8.56
  -1   3  -5   83.61    5.67
  -1   3   5   79.61    9.77
   3   1   6    4.35    3.12
  -1   3   6   -0.54    2.09
   1  -3   6    1.05    1.81
  -1   3  -6    2.01    1.25
  -3  -1  -6    3.97    1.75
  -3  -1   6    0.98    1.21
   1  -3   6    2.60    1.92
  -1   3  -7   35.24    4.34
  -3  -1   7   42.10    8.42
   1  -3   7   42.92    6.81
  -3  -1  -7   28.62    4.25
   3   1   7   42.18    8.17
  -3  -1   7   40.27    5.32
  -1   3   7   42.87    7.18
   1  -3   7   47.17    9.22
  -1   3   7   31.31    7.58
   3   1   8   28.61    6.96
  -1   3   8   29.86    8.16
   1  -3   8   26.81    6.93
  -3  -1   8   17.68    5.44
   1  -3   8   20.06    6.54
   3   1  -8   33.44    6.67
  -1   3   9   48.83   10.16
  -3  -1   9   35.23    8.94
   3   1   9   48.92    9.41
  -1   3   9   57.50    9.36
   1  -3   9   50.04   10.71
   3   1   9   46.83    9.89
   3   1  -9   44.53    7.62
   3   1  10   64.30   12.69
   1  -3  10   47.91   10.94
  -3  -1  10   74.80   13.78
  -1   3  10   72.51   13.64
  -3  -1  11   89.83   16.11
   3   1  11   95.53   16.46
   1  -3  11   62.54   13.34
  -3  -1  12   42.25   11.93
  -1   3  12   39.04   11.39
   1  -3  12   43.80   12.11
   3   1  12   47.88   12.36
  -2   3   0    2.67    1.21
  -3  -2   0    1.93    1.20
   3   2   0    1.09    1.19
   3   2   0   -0.60    0.81
   3   2   1  159.15    7.94
  -3  -2   1  143.43    7.38
  -3  -2   1  146.65    5.76
  -2   3   1  136.92    7.29
   2  -3   1  132.75    6.96
  -2   3   1  138.54    7.75
   3   2  -1  162.24    8.62
  -2   3  -1  137.74    8.29
   3   2   1  152.09    7.36
  -2   3  -2   81.33    7.28
   3   2  -2   95.29    7.16
  -2   3   2   90.98    6.81
   3   2   2   96.55    6.96
   3   2   2  100.07    6.46
  -3  -2  -2  103.47    6.52
   2  -3   2   87.13    6.78
  -3  -2   2  105.40    7.57
   2  -3   2   91.63    4.62
  -2   3   2   93.64    7.30
  -2   3   3  202.05   12.38
  -3  -2   3  210.70   12.39
   3   2   3  210.60   12.17
  -3  -2  -3  198.77    9.54
   2  -3   3  196.53   11.89
   2  -3  -3  197.62   10.31
   3   2  -3  186.10   10.84
  -2   3  -3  188.92    6.34
   2  -3   3  193.68    6.04
  -2   3   4  110.53   10.36
  -3  -2   4  102.70    9.96
   2  -3   4  118.07   10.37
  -3  -2  -4  116.46    7.88
   3   2   4  119.02   10.31
  -2   3  -4  111.90    5.04
   3   2  -4  115.85    9.21
   3   2  -5  130.82   10.39
  -2   3   5  111.87   11.80
  -2   3  -5  121.43    5.75
  -3  -2   5  116.38   11.76
  -3  -2  -5  117.67    8.62
   3   2   5  117.05   11.44
   2  -3   5  123.88   11.93
   3   2   5  119.95   11.22
  -2   3  -6   60.48    4.43
   2  -3   6   58.94    7.90
   2  -3   6   56.35    8.91
   3   2  -6   64.76    7.73
  -2   3   6   51.15    8.74
  -3  -2   6   64.71    9.77
  -3  -2  -6   59.10    6.45
  -2   3  -7   91.47    5.89
   2  -3   7   81.92   11.70
   3   2  -7  107.20   10.50
   3   2   7   87.70   11.94
  -2   3   7   86.06   12.10
   3   2   7  101.69   11.79
  -3  -2   7   84.99   11.91
   3   2   8   59.05   10.83
  -3  -2   8   63.09   11.24
  -2   3   8   81.21    9.96
  -2   3   8   83.07   12.94
   2  -3   8   85.29   12.79
   3   2  -8   66.65    8.80
   3   2   8   64.16   10.21
  -3  -2   9    4.84    2.31
   3   2  -9    3.54    2.43
  -2   3   9    2.96    3.79
   2  -3   9    6.86    4.93
  -2   3   9    2.70    1.81
   3   2  10   16.06    5.13
  -2   3  10    9.39    5.44
   3   2  10   16.31    6.25
  -3  -2  10   23.66    8.25
   2  -3  10   15.95    6.67
   3   2  11    3.68    3.85
   2  -3  11    2.97    2.94
  -3  -2  11    7.52    5.51
   2  -3  12    3.08    3.76
  -2   3  12   -2.79    3.65
  -3  -2  12    2.59    4.65
   3   3   0  674.40   19.07
  -3   3   0  698.74   19.33
   3   3   0  707.85   16.97
  -3  -3   0  691.67   17.98
   3  -3   0  677.97   16.77
  -3   3  -1  602.02   18.50
  -3   3   1  616.10   15.82
  -3  -3  -1  590.98   12.92
  -3  -3   1  579.33   15.50
   3   3   1  563.82   17.69
  -3   3  -1  616.31   15.30
  -3  -3   1  594.31   17.33
  -3   3   1  594.79   18.24
   3   3  -1  630.06   16.08
   3  -3  -1  631.93   16.27
   3  -3   1  595.36   15.74
   3   3   1  570.08   16.66
   3  -3   1  603.64   15.10
   3   3  -1  598.52   18.18
  -3   3  -2  132.99    8.22
  -3   3  -2  130.87    9.27
  -3  -3   2  145.85    9.38
  -3   3   2  127.58    8.39
   3   3   2  127.13    8.40
   3  -3   2  124.99    7.87
   3   3   2  135.43    8.79
   3  -3  -2  141.60    8.88
  -3   3   2  133.44    9.17
   3   3  -2  135.03    8.94
  -3  -3  -2  139.12    8.69
   3  -3   2  127.12    5.66
   3  -3   3   15.40    3.27
  -3  -3   3   21.39    4.15
   3  -3  -3   23.44    3.39
   3   3   3   16.93    3.80
   3   3  -3   17.73    3.51
  -3   3   3   25.48    4.66
  -3  -3  -3   19.54    1.86
  -3   3  -3   26.78    4.77
  -3  -3  -3   22.93    3.69
  -3   3   4  159.03   12.35
  -3  -3  -4  129.37    9.32
   3   3  -4  121.84    9.60
   3   3   4  121.93   10.80
   3  -3   4  127.64   10.71
  -3  -3   4  122.69   11.09
   3   3   5   75.37    9.46
   3  -3   5   87.13    9.89
  -3  -3   5   82.58    6.06
  -3   3   5   87.71   10.30
  -3  -3   5   86.93   10.37
   3   3  -5   85.63    8.44
   3   3   5   85.43    9.92
  -3  -3   6    1.41    1.31
   3   3  -6    5.95    2.79
   3   3   6    4.66    3.28
   3  -3   6    3.66    2.90
   3   3   6   -1.25    1.88
   3   3  -7   22.59    5.02
  -3  -3   7   24.42    4.30
  -3  -3   7    8.21    3.34
   3  -3   7   10.14    3.62
   3  -3   7   12.90    5.05
  -3   3   7   13.53    5.19
  -3  -3   8   11.48    5.12
   3   3   8   16.05    5.30
   3  -3   8   27.20    7.27
   3   3  -8   26.30    5.73
   3   3   8   17.39    5.65
  -3   3   8   18.67    6.37
   3  -3   9   30.80    7.86
   3   3  -9   25.19    5.40
   3   3   9   30.76    8.63
  -3  -3   9   24.18    7.75
   3   3   9   28.34    7.28
   3  -3   9   24.02    6.27
  -3   3  10   48.16   11.20
  -3  -3  10   48.23   11.30
   3   3  10   43.15   10.01
   3  -3  10   59.92   10.55
   3  -3  10   40.44   10.01
  -3   3  11   68.12   14.62
   3   3  11   31.90    8.48
   3  -3  11   41.03   11.05
  -3  -3  11   38.34   10.34
   3   3  11   37.90   10.56
  -3  -3  12   19.01    8.47
  -3   3  12   39.29   11.89
   3   3  12   20.83    8.36
   3  -3  12   24.20    8.98
   3   4   0    0.27    1.15
   3   4   0   -0.90    1.17
  -4   3   0    1.75    2.01
   4  -3  -1    0.94    1.47
  -3  -4   1    1.34    1.72
   4  -3   1    0.33    1.01
  -3  -4   1    4.02    1.31
   3   4   1    1.77    1.65
  -4   3  -1    4.45    2.17
   3   4  -1    1.86    1.35
   3   4  -1   -1.96    1.66
  -4   3   1    2.44    1.94
  -4   3  -1    0.65    0.72
  -4   3   1    1.98    1.07
   3   4   1   -1.62    1.72
   4  -3  -1    0.57    0.72
  -4   3   2  253.66   11.91
  -3  -4  -2  277.63   11.38
   4  -3   2  257.52   11.25
  -4   3  -2  269.10   11.50
   3   4   2  257.94   13.34
   3   4   2  264.85   13.39
  -4   3  -2  274.79   13.69
   3   4  -2  260.82   13.05
   4  -3  -2  265.76   12.17
  -3  -4   2  261.08   13.61
  -4   3   2  268.14   13.85
  -3  -4   3   90.53    8.65
   4  -3   3   89.92    7.78
   3   4   3   91.79    7.55
  -4   3   3   93.14    8.42
   3   4  -3   90.69    7.95
   3   4   3   98.00    8.98
  -4   3  -3   88.85    8.38
   4  -3   4  373.02   18.41
   3   4   4  378.10   17.64
   3   4   4  398.35   20.37
  -3  -4   4  387.07   20.22
  -4   3   4  367.36   19.04
  -4   3  -4  380.14   18.85
   4  -3  -4  389.97   14.82
   3   4   4  371.91   19.57
   3   4  -4  394.12   17.79
  -3  -4  -4  390.19   11.27
   3   4   5  155.23   13.68
  -3  -4   5  161.98   14.37
  -3  -4  -5  162.16    8.59
   3   4  -5  171.01   12.09
  -4   3   5  138.24   13.04
   4  -3   5  128.15   12.13
   3   4   5  165.76   14.26
   3   4   6   71.45    9.82
  -3  -4   6   88.62   11.49
   3   4   6   93.85   11.74
   3   4  -6   70.63    8.29
  -4   3   6   88.32   11.26
  -3  -4   6   86.63    7.29
   4  -3   6   76.22   10.21
   3   4   7   71.18   10.38
   3   4   7   60.92   10.44
  -4   3   7   51.15    9.63
   3   4  -7   83.92    9.38
  -3  -4   7   77.82   11.83
   4  -3   7   48.54    9.12
   4  -3   7   67.91   10.24
   3   4   8   57.35   10.09
   4  -3   8   35.86    8.45
  -3  -4   8   45.98    9.69
  -4   3   8   55.22   10.75
   4  -3   8   39.26    7.92
   3   4  -8   52.80    7.81
  -3  -4   9   51.64   10.66
   4  -3   9   13.16    5.32
   3   4   9   41.77   10.16
   4  -3   9   30.93    7.65
   3   4   9   56.14   10.68
  -4   3   9   22.51    7.61
  -3  -4  10   16.88    7.19
   4  -3  10    3.62    4.29
   3   4  10   12.22    4.88
   3   4  10    4.97    4.01
  -4   3  10    9.44    5.16
  -4   3  11    4.38    4.77
  -4   3  11   -3.42    2.34
  -3  -4  11    0.05    3.44
   3   4  11    6.55    4.56
   4  -3  11    3.27    2.91
  -4   3  12    4.87    4.29
   3   4  12   12.49    7.88
  -3  -4  12    7.33    5.88
   4  -3  12    2.35    3.97
  -4   2   0   38.91    4.34
   2   4   0   31.17    4.34
   4  -2   0   42.47    4.68
  -4   2   1   69.65    6.29
   2   4  -1   59.47    5.82
   2   4   1   54.87    5.36
  -4   2   1   57.41    4.08
   2   4   1   65.56    4.09
  -4   2  -1   53.10    5.05
  -4   2  -1   66.50    3.94
   2   4   1   69.80    6.61
  -2  -4  -1   61.14    6.11
   4  -2   1   61.36    5.64
  -2  -4   1   68.65    6.13
   4  -2  -1   60.81    4.27
  -4   2   2  217.64   12.03
  -4   2  -2  217.56    9.74
  -4   2  -2  199.47   10.72
  -2  -4  -2  224.41    7.11
  -2  -4   2  220.86   11.21
   4  -2   2  224.24   11.32
   2   4  -2  216.19   11.15
   4  -2  -2  206.12   10.19
  -4   2   2  197.40   10.11
   4  -2   2  200.23    9.30
  -2  -4  -2  199.49   11.56
  -2  -4   2  218.25   12.22
   2   4   2  224.28   12.17
   2   4   2  207.81   10.20
   2   4   2  212.79    6.67
  -2  -4   3   52.08    6.62
  -4   2  -3   55.15    6.23
  -4   2   3   48.45    5.86
   4  -2   3   51.48    5.85
   2   4  -3   50.37    5.64
   2   4   3   55.26    6.87
   2   4   3   48.50    5.72
   4  -2  -3   56.15    4.57
  -2  -4  -3   50.25    3.69
  -2  -4  -4   44.88    4.26
   4  -2  -4   56.74    4.85
   4  -2   4   56.69    7.23
   2   4  -4   47.91    5.84
  -4   2  -4   50.14    6.65
   2   4   4   46.73    6.46
  -2  -4   4   38.22    6.58
   2   4   4   43.83    6.86
  -2  -4   5   92.01   10.68
   2   4   5   75.66    9.67
  -2  -4  -5   94.39    7.15
   2   4   5   85.91    9.77
   2   4  -5   87.30    8.13
  -4   2   5   83.40   10.10
   2   4  -6    1.20    1.72
  -2  -4   6   -2.58    3.13
  -4   2   6   -1.36    1.42
   4  -2   6    0.61    1.65
   2   4   6    0.60    1.64
   2   4   6    1.45    1.55
   4  -2   6   -0.14    2.39
  -2  -4   7   35.36    7.80
   4  -2   7   40.64    7.85
  -4   2   7   30.45    7.41
   2   4   7   36.38    7.12
   4  -2   7   47.49    8.57
   2   4  -7   33.94    5.56
   2   4   7   51.93    9.69
  -2  -4   8   48.38    6.97
   4  -2   8   42.42    8.95
   2   4  -8   49.99    7.19
   2   4   8   55.75   10.64
   2   4   8   45.51    8.64
  -2  -4   8   37.32    8.87
   4  -2   8   52.14    9.47
  -4   2   8   33.67    7.97
   2   4   9   55.63   10.19
   2   4   9   43.81   10.39
  -2  -4   9   29.37    8.57
  -4   2   9   39.92    9.61
   4  -2   9   39.64    9.33
  -2  -4  10   57.25   12.45
   2   4  10   37.05   10.26
   4  -2  10   51.46   11.51
  -4   2  10   53.44   11.90
  -2  -4  11   58.53   12.92
   4  -2  11   52.04   12.08
   2   4  11   41.98   11.05
   2   4  12   12.12    5.93
   2   4  12   39.97   11.14
   4  -2  12   31.37   10.43
  -4   2  12   42.31   11.95
  -2  -4  12   17.48    7.21
   4  -1   0    0.59    0.85
   4  -1   0    0.36    0.61
   1   4   0   -0.55    1.40
   1   4   0    0.23    1.00
  -4   1   0    1.71    1.51
  -1  -4  -1   32.39    4.44
   1   4   1   27.81    2.94
   4  -1   1   33.16    2.50
   1   4   1   33.06    4.34
  -4   1  -1   33.73    2.52
   1   4  -1   26.95    4.03
  -4   1   1   30.96    4.07
   4  -1   1   35.13    3.75
  -1  -4  -1   28.01    3.03
  -4   1  -1   32.59    3.63
   4  -1  -1   34.72    3.00
   1   4   1   29.78    4.29
  -1  -4   1   28.65    4.06
   1   4   2  424.56   16.82
  -4   1  -2  394.94   13.55
   4  -1  -2  410.04   14.19
   1   4   2  417.56   11.33
  -1  -4   2  431.47   14.83
   1   4  -2  436.48   15.04
  -1  -4  -2  437.13   11.91
   4  -1   2  398.29    9.22
   1   4   2  411.03   15.30
  -1  -4   2  415.61   16.72
   4  -1   2  402.10   13.80
   4  -1   2  380.17   12.82
  -4   1   2  399.28   14.16
  -4   1  -2  411.06   13.26
   1   4   3  472.46   20.04
  -1  -4   3  493.57   20.40
  -4   1  -3  462.48   16.52
   1   4   3  460.67   18.36
   4  -1   3  478.56   17.70
   4  -1  -3  511.34   11.57
  -4   1   3  481.19   18.72
  -1  -4  -3  501.85   14.13
   1   4  -3  483.65   16.41
  -1  -4   3  504.78   16.56
   1   4  -4  925.60   24.25
   4  -1  -4  897.48   18.16
   1   4   4  888.15   30.83
  -1  -4  -4  941.51   22.73
  -4   1   4  875.77   29.32
   4  -1   4  885.99   28.56
  -1  -4   4  885.64   30.68
   1   4   4  870.01   28.63
  -1  -4   5  329.69   20.44
  -4   1   5  312.26   19.28
   1   4  -5  311.67   14.42
   4  -1   5  317.58   18.76
   1   4   5  327.74   20.23
   4  -1   5  334.06   19.23
   4  -1  -5  324.07   11.79
   1   4   5  364.51   19.81
  -1  -4   6  328.53   22.15
   1   4   6  326.30   21.68
   1   4   6  312.58   19.37
  -4   1   6  324.46   21.49
   1   4  -6  326.40   15.47
   1   4  -7  331.48   16.63
   4  -1   7  322.69   21.58
  -1  -4   7  324.53   17.87
  -1  -4   7  312.43   23.33
   1   4   7  339.80   21.65
   4  -1   7  319.31   22.74
   1   4   7  277.19   21.95
  -4   1   7  351.93   24.46
  -1  -4   8  180.83   19.11
   1   4   8  222.64   21.12
   4  -1   8  244.53   21.62
   1   4  -8  235.91   14.61
   1   4   8  207.61   18.00
   1   4   9   67.02   12.10
   4  -1   9   73.19   12.52
  -1  -4   9   66.21   12.50
   4  -1  10    9.76    4.77
  -1  -4  10   14.25    6.94
   1   4  10    9.49    6.19
   4  -1  10   13.04    5.34
  -4   1  11    1.65    4.25
  -1  -4  11    8.80    5.17
   1   4  11    2.49    2.54
   4  -1  11   23.17    6.51
   4  -1  11   17.80    7.50
   4  -1  12    3.83    4.51
   1   4  12    8.37    5.72
  -4   1  12   -1.70    3.37
   1   4  12    4.37    5.09
  -1  -4  12   -3.83    4.68
  -4   0   0   35.65    3.62
   4   0   0   36.65    2.56
   0   4   0   42.03    4.86
   0   4   0   28.20    3.66
  -4   0   1    3.56    1.12
   0   4  -1    2.54    2.00
   0   4   1    4.05    1.94
   0   4   1    3.17    1.63
   0  -4  -1    3.64    1.36
  -4   0  -1    1.88    0.58
  -4   0  -1    1.56    1.13
   4   0   1    1.94    1.06
   4   0   1    2.09    0.96
   0  -4   1    3.59    1.70
   4   0  -1    0.99    0.55
   4   0   2   20.12    2.74
   0  -4   2   12.71    2.47
   0   4   2   10.50    2.92
   4   0   2   14.53    2.03
  -4   0  -2   12.93    1.85
   0  -4  -2   10.69    2.15
   0   4   2   12.95    2.40
  -4   0  -2   18.31    2.83
   4   0   2   14.82    2.48
   0   4  -2   11.36    2.48
  -4   0  -2   16.38    2.29
   0  -4   3   52.91    4.76
   0   4   3   62.54    6.86
   0   4  -3   49.54    4.80
   0  -4   3   50.92    6.36
   0   4   3   56.74    6.89
  -4   0  -3   33.82    3.89
  -4   0   3   34.44    4.97
  -4   0  -3   33.60    2.59
   4   0   3   32.32    4.53
   0  -4  -3   56.18    5.13
   4   0   3   35.35    2.88
  -4   0   4   50.53    7.11
   4   0   4   56.29    7.11
   0   4  -4   87.22    6.54
   0   4   4   80.92    9.18
  -4   0  -4   53.53    3.34
   0  -4   4   91.99    9.67
   0   4   4   89.51    9.09
   0   4   5    3.21    2.36
   4   0   5    1.65    2.09
  -4   0   5    0.12    0.84
  -4   0   5   -0.27    1.44
   0  -4   5    3.87    3.22
   0   4   5    4.14    3.38
  -4   0  -5    0.45    0.61
   0   4  -5    1.72    1.66
   4   0   6    3.43    2.40
  -4   0   6    1.40    1.43
   0   4  -6    2.30    1.55
   0  -4   6   -2.27    2.88
   0   4   6    0.01    1.82
  -4   0  -6    0.64    0.53
   0   4   6    4.94    3.11
   0  -4   7    5.09    3.00
   4   0   7    3.67    3.44
  -4   0   7    1.90    1.83
   0   4   7    9.04    3.91
   0  -4   7    2.72    3.00
   0   4   7    0.73    1.97
   0   4  -7    8.47    2.53
   0  -4   8    0.45    1.60
   0   4   8    1.42    2.28
   0  -4   8   -0.38    1.50
  -4   0   8   -0.29    2.15
   0   4  -8    2.34    1.86
   4   0   8    3.76    2.58
   4   0   9   11.50    4.50
  -4   0   9    7.43    3.63
   0  -4   9    2.24    2.56
   0   4  10    7.28    4.47
   0  -4  10   17.27    6.99
   0   4  10    9.00    4.37
   0   4  10    6.55    3.91
  -4   0  10    6.92    4.75
   0   4  11    9.15    6.07
   4   0  11    3.02    2.33
   4   0  11    1.72    2.51
  -4   0  11    2.66    3.14
   0  -4  11   11.85    6.42
  -4   0  12    5.79    4.68
   0  -4  12    8.63    6.85
   4   0  12    4.63    3.08
   0   4  12   15.84    7.55
  -1   4   0    0.95    1.50
   4   1   0    2.42    1.28
   4   1   0    2.73    1.84
   4   1   0   -0.09    0.39
   1  -4   1   19.04    3.01
  -4  -1  -1   21.17    2.19
  -1   4  -1   23.76    3.78
  -4  -1  -1   25.39    3.83
  -1   4   1   18.44    2.88
   4   1  -1   17.43    3.09
  -1   4  -1   16.89    2.81
   4   1   1   20.87    2.91
   4   1   1   23.35    2.46
  -4  -1   1   23.32    2.89
   1  -4   1   18.99    3.06
   4   1   1   22.61    2.30
   4   1  -1   20.75    2.75
  -4  -1  -1   23.91    2.55
   4   1  -1   21.06    3.56
  -4  -1  -1   22.19    3.02
  -1   4   1   20.11    3.33
  -1   4   2   32.16    4.63
  -4  -1  -2   49.06    4.01
  -4  -1  -2   44.22    3.10
   4   1   2   49.21    4.59
  -4  -1  -2   51.31    4.76
  -4  -1   2   47.79    5.02
  -1   4  -2   37.82    4.22
   4   1   2   46.83    3.23
   1  -4   2   34.73    3.63
   1  -4  -2   31.84    4.45
   1  -4  -2   33.44    4.08
   4   1  -2   44.60    4.73
  -1   4   2   34.73    4.02
   4   1   2   42.93    3.83
   4   1   3   24.47    4.25
   1  -4   3   39.28    5.70
   4   1   3   30.00    3.48
  -4  -1   3   24.50    4.27
  -4  -1  -3   30.24    3.15
  -1   4   3   33.72    5.45
   1  -4   3   38.93    3.75
   1  -4  -3   33.68    4.38
  -1   4  -3   31.78    3.53
  -4  -1  -3   24.77    2.96
  -4  -1   4   18.65    4.34
   4   1   4   21.60    4.97
  -1   4   4   14.70    3.99
   4   1   4   15.84    3.99
   1  -4   4   10.70    3.29
  -1   4   4   18.04    4.31
  -1   4  -4   14.35    2.48
  -4  -1  -4   15.57    2.40
  -1   4   5    0.11    1.85
   1  -4   5    3.36    2.71
  -1   4  -5    1.45    1.28
   4   1   5   -0.86    1.51
  -4  -1  -5    0.20    0.50
  -4  -1   5    0.68    0.93
  -4  -1  -6   16.28    2.88
  -1   4  -6   12.58    2.45
  -1   4   6   14.72    5.24
   1  -4   6   10.64    3.71
  -4  -1   6   14.92    4.68
   4   1   6   24.51    5.97
   4   1   6    3.04    1.91
   1  -4   6   12.88    3.91
  -4  -1   6   12.03    2.42
   1  -4   7   35.78    6.59
  -4  -1   7   42.24    5.06
   4   1   7   41.96    8.46
  -4  -1   7   31.17    6.86
  -1   4   7   33.82    6.67
   1  -4   7   37.28    8.28
  -1   4   7   34.60    8.35
   4   1   7   44.48    8.28
  -1   4  -7   35.75    4.46
  -1   4   8   31.74    8.35
   4   1  -8   26.98    6.08
   4   1   8   19.70    6.31
   4   1   8   25.27    6.67
  -4  -1   8   22.66    7.30
   1  -4   8   22.26    6.81
   1  -4   8   22.75    5.60
  -1   4   9    4.48    3.28
   1  -4   9   13.04    4.60
  -1   4   9   12.18    5.87
   1  -4   9    6.45    3.98
   4   1   9    5.38    3.77
   4   1  -9   20.13    5.52
  -4  -1   9    9.27    4.37
   4   1  10   -2.17    2.76
   1  -4  10    1.25    3.56
  -1   4  10    1.20    3.55
  -4  -1  10    1.79    2.94
   4   1  10   -1.39    2.71
  -1   4  10    1.91    3.81
   1  -4  11    1.73    3.28
   4   1  11    2.15    2.48
   4   1  11    1.76    4.12
  -1   4  11   -2.60    2.54
  -1   4  11    5.32    4.78
  -4  -1  11    2.91    4.51
   1  -4  12    1.27    2.81
  -4  -1  12    2.86    3.35
   4   1  12    0.41    2.45
  -1   4  12    5.24    5.48
  -2   4   0    3.93    1.20
  -2   4   0    2.53    1.08
   4   2   0    0.95    1.42
   4   2   0    4.67    2.17
  -2   4  -1   42.50    5.05
  -4  -2  -1   32.36    3.80
   4   2  -1   34.75    4.29
  -4  -2   1   35.55    3.04
   2  -4   1   44.13    4.51
   2  -4   1   37.75    4.28
  -2   4   1   40.15    4.77
   4   2  -1   32.09    4.42
   4   2  -1   31.93    2.90
   4   2   1   32.61    2.51
   4   2   1   33.37    3.45
  -4  -2  -1   33.64    3.50
   4   2   1   33.15    3.75
  -4  -2   1   34.31    3.77
   4   2  -1   34.84    3.70
  -2   4   1   37.97    4.39
   4   2  -2   35.39    4.73
  -4  -2  -2   42.40    4.72
   4   2  -2   42.03    4.89
   2  -4  -2   39.71    4.77
   4   2   2   38.63    4.17
  -2   4   2   34.38    4.71
  -4  -2  -2   38.09    4.15
  -2   4  -2   35.51    5.33
  -2   4   2   37.95    4.73
   2  -4   2   42.60    3.96
  -4  -2   2   38.64    4.78
   4   2   2   40.03    4.49
  -4  -2  -3    7.71    1.29
  -4  -2  -3    9.93    2.16
   2  -4   3    3.97    2.28
   4   2  -3    8.24    2.73
  -4  -2   3   10.45    2.93
   2  -4   3    4.46    1.20
   4   2   3    6.76    2.39
  -2   4   3    9.11    3.10
  -2   4   3    5.73    2.11
   4   2   3   12.69    3.25
  -2   4  -3    5.90    1.50
  -2   4   4    8.99    2.75
  -4  -2   4    3.69    2.71
  -4  -2   4    1.45    0.59
  -2   4  -4   10.01    1.80
  -4  -2  -4    2.68    1.41
   4   2   4    4.19    2.72
   4   2  -4    4.69    2.71
   2  -4   4   10.11    3.51
   2  -4   5    1.12    1.38
   4   2   5    1.55    2.28
   4   2   5   -0.27    1.20
  -4  -2  -5    1.66    1.26
   4   2  -5    3.81    2.29
  -2   4   5    2.02    2.17
  -2   4  -5    1.19    0.83
  -4  -2   5   -0.20    1.10
  -2   4   5    0.69    1.93
  -2   4  -6   23.20    2.92
  -4  -2   6   19.19    2.92
   4   2  -6   25.65    5.40
   2  -4   6   26.03    5.28
   2  -4   6   26.41    6.34
  -2   4   6   40.62    8.01
  -4  -2   6   16.50    5.05
  -2   4   6   28.66    7.20
  -4  -2  -6   19.34    3.69
  -2   4   7   25.52    5.61
   2  -4   7    2.18    1.79
  -2   4  -7   25.17    3.15
  -4  -2   7   19.26    3.21
  -4  -2   7   31.83    7.70
   4   2   7   18.13    5.66
   4   2  -7   20.21    4.66
   2  -4   7   19.89    5.65
  -2   4   7   27.08    7.16
   4   2   8    5.12    3.94
  -2   4   8   -1.05    2.54
  -4  -2   8    1.27    3.03
   4   2  -8    2.55    1.25
   4   2   8    1.78    1.63
   2  -4   8   -1.53    2.29
   4   2  -9    4.18    1.81
  -4  -2   9    9.11    4.89
   2  -4   9   11.57    5.80
  -2   4   9   14.12    5.56
   2  -4   9   22.81    6.63
   4   2   9    6.38    4.76
  -2   4   9   12.95    6.13
  -4  -2  10    7.88    3.80
   4   2  10   19.22    6.43
   4   2  10   13.63    6.19
   2  -4  10   -1.04    3.60
  -2   4  11    9.20    5.57
  -2   4  11    4.94    4.07
   4   2  11    0.37    2.17
   4   2  11    4.43    3.98
   2  -4  11   11.40    6.09
  -4  -2  11    1.11    3.41
  -2   4  12   10.72    6.17
  -2   4  12   16.56    7.49
   2  -4  12    6.09    5.82
  -4  -2  12    7.30    5.78
   4   3   0   -0.10    1.13
  -3   4   0    2.52    1.22
   4   3   0    2.27    2.14
   4   3   0    2.08    1.67
  -3   4   0    0.49    0.91
   3  -4   0    0.53    1.01
  -4  -3  -1  404.29    9.43
  -4  -3   1  403.54   14.28
   4   3   1  404.35   15.30
  -3   4   1  398.72   14.09
  -4  -3   1  393.09   14.09
   4   3   1  411.43   14.10
   3  -4  -1  418.47   14.61
  -4  -3   1  413.61   12.43
  -3   4   1  394.56   15.52
   4   3  -1  397.80   15.87
  -3   4  -1  379.69   13.39
   3  -4   1  404.65   12.64
   3  -4   1  395.93   13.73
   4   3  -1  413.21   12.67
  -3   4  -1  402.69   16.35
   4   3   2  117.32    8.42
  -4  -3  -2  137.28    9.08
   4   3   2  125.75    6.47
  -3   4  -2  122.67    9.70
   3  -4   2  136.31    7.14
  -4  -3   2  134.05    6.00
   4   3   2  132.57    8.91
  -3   4  -2  131.80    8.67
  -4  -3   2  126.92    8.99
  -3   4   2  128.36    9.09
   4   3  -2  118.11    9.06
  -3   4   2  137.99    9.24
  -4  -3  -2  126.47    8.40
   3  -4   2  120.60    8.29
   3  -4   3  189.97    7.05
  -3   4  -3  193.41   13.03
   4   3   3  181.90    9.81
   3  -4  -3  190.24   11.01
  -3   4   3  194.40   12.11
  -4  -3   3  167.72   11.75
   3  -4   3  208.81   12.57
   4   3   3  182.28   11.87
  -3   4   3  187.79   12.30
   4   3  -3  206.08   12.49
   4   3   3  185.07   10.83
  -4  -3  -3  187.56   10.55
  -4  -3   4  248.85   15.99
   4   3  -4  245.59   14.37
  -4  -3  -4  236.21   12.45
  -3   4   4  216.18   14.75
   3  -4   4  216.45   14.36
   4   3   4  262.14   15.94
   3  -4   5  103.50   11.10
   4   3   5   85.95    9.97
   4   3  -5  111.39   10.19
  -3   4   5  100.19   11.18
  -4  -3   5  102.96    5.81
  -4  -3   5  113.77   11.73
   3  -4   6  128.38   13.44
   4   3   6  159.89   14.87
   4   3   6  149.21   14.35
   4   3  -6  155.40   12.72
  -3   4   6  128.73   13.75
  -4  -3   6  160.40   15.39
   3  -4   7   29.33    7.28
   3  -4   7   33.99    6.81
  -4  -3   7   41.21    4.83
   4   3  -7   34.75    6.34
  -3   4   7   34.50    7.95
   4   3   7   37.41    8.23
  -4  -3   7   35.72    7.94
   3  -4   8   26.54    6.42
   4   3  -8   31.05    6.26
  -4  -3   8   26.45    7.46
   4   3   8   18.16    6.40
  -3   4   8   19.89    6.69
  -3   4   8   32.02    8.25
   3  -4   8   21.91    6.75
   4   3  -9   40.77    7.78
   4   3   9   35.86    8.48
   4   3   9   42.19    9.85
   3  -4   9   38.14    9.01
  -4  -3   9   35.74    9.32
  -3   4   9   29.23    8.84
   4   3  10   19.13    6.34
   3  -4  10   10.69    6.41
  -4  -3  10   18.16    7.95
   4   3  11    6.08    4.00
   3  -4  11    3.07    3.48
  -4  -3  11   12.27    6.51
  -3   4  11    8.77    6.51
  -3   4  11   12.04    6.28
   4   3  11   11.21    5.10
   3  -4  12    1.33    1.96
  -4  -3  12    9.81    6.83
  -3   4  12   -0.76    2.39
   4   3  12    9.36    6.08
  -3   4  12   -0.61    2.15
   4   3  13    7.67    5.95
   4   4   0  215.87   10.39
  -4  -4   0  226.32   11.47
  -4   4   0  191.56    9.88
   4  -4   0  221.36   10.54
  -4   4   0  205.64   11.78
   4   4   0  228.41   12.36
   4   4   0  208.24   11.02
   4  -4  -1   40.71    4.59
   4  -4   1   39.22    4.45
   4   4  -1   47.08    4.70
   4  -4   1   37.53    4.02
   4   4  -1   47.14    5.86
  -4   4   1   40.44    4.39
   4   4   1   50.09    5.37
  -4  -4   1   46.69    5.31
  -4  -4   1   42.55    4.48
  -4   4   1   32.86    4.78
   4   4   1   46.94    5.83
  -4   4  -1   44.35    4.28
  -4   4  -1   36.09    5.40
  -4   4   2  263.68   14.14
   4   4  -2  261.43   14.08
   4   4   2  238.64   12.95
  -4  -4   2  260.46   13.67
  -4   4  -2  269.55   14.52
  -4  -4   2  255.84   12.23
  -4   4  -2  299.02   12.81
   4   4   2  266.57   13.75
   4  -4   2  286.95   12.69
  -4   4   2  282.05   13.32
   4   4  -3   16.32    4.01
  -4   4   3   14.77    3.78
   4  -4   3   17.51    3.83
   4   4   3   10.29    2.96
  -4   4   3   11.24    3.18
  -4  -4   3   11.89    3.93
   4   4   3   12.35    3.01
  -4   4  -3   16.30    3.99
   4  -4   3   17.79    2.33
  -4   4   4    8.71    3.46
   4   4   4   10.72    4.00
   4   4  -4    7.93    2.69
   4   4   4   10.81    3.24
  -4  -4  -4    9.77    1.41
  -4   4  -4   15.76    4.16
   4  -4   4   11.68    3.58
   4   4   5   25.84    5.87
  -4   4   5   38.36    6.79
   4  -4   5   33.60    6.14
   4   4  -5   25.63    4.99
  -4  -4  -5   23.31    2.88
  -4  -4   5   15.94    4.84
  -4   4  -5   35.51    6.56
  -4  -4  -6   10.84    2.51
   4   4   6    7.61    3.00
  -4  -4   6   14.25    2.79
  -4   4   6    5.20    3.27
   4  -4   6    5.77    2.38
  -4  -4   6    9.21    4.37
  -4   4   6   10.24    4.51
   4   4  -6   12.14    3.23
   4  -4   6   11.58    4.18
   4   4  -7    0.78    2.52
  -4   4   7    3.36    3.83
   4   4   7    4.77    3.43
  -4  -4   7   -1.84    3.27
   4  -4   7   -0.10    1.88
   4   4   7   -0.41    2.61
   4  -4   7    0.88    3.35
   4   4   8   10.09    5.35
   4  -4   8    6.88    3.93
  -4  -4   8   11.41    5.19
  -4   4   8   21.59    6.57
   4   4  -8   15.62    4.67
   4  -4   8   15.60    4.98
  -4  -4   9    9.98    5.42
   4   4   9   15.53    6.47
  -4   4   9    5.76    2.69
   4   4  -9   11.38    4.20
   4  -4   9   11.82    5.15
   4   4   9    6.32    4.49
   4   4  10   15.28    6.12
  -4  -4  10   30.17    9.44
  -4   4  10   19.50    7.66
   4   4  10   16.19    6.38
  -4   4  10   10.34    5.45
   4  -4  10   13.41    6.57
   4  -4  11   16.47    7.00
  -4   4  11   25.64    8.50
   4   4  11    6.17    4.27
   4   4  11   12.85    5.24
  -4  -4  11   18.85    7.72
  -4   4  11   15.44    5.89
   4   4  12   10.95    7.53
   4   4  12    5.87    3.33
  -4   4  12   19.85    8.60
   4  -4  12    4.52    5.33
  -4  -4  12    5.78    5.51
   4   4  13   16.14    7.59
  -5   4   0   -0.29    1.13
   4   5   0    0.94    1.12
  -5   4   0   -1.29    2.22
   4   5   1    1.27    2.23
  -5   4   1    2.10    1.59
   5  -4  -1    2.17    1.32
   4   5   1    0.35    1.38
  -4  -5   1    1.71    2.03
  -5   4  -1    1.29    1.34
  -5   4  -1    2.00    1.37
   4   5  -1   -1.57    2.02
  -5   4   1    1.57    1.44
  -4  -5   2  372.22   17.37
   4   5   2  360.49   17.49
  -5   4  -2  318.83   16.49
  -5   4   2  332.77   14.38
   4   5   2  356.09   16.82
  -4  -5  -2  362.16   13.49
  -5   4   2  334.53   17.04
  -5   4  -2  352.00   13.86
   5  -4   2  348.84   13.82
   4   5   2  366.22    8.38
   4   5  -2  374.64   17.85
  -5   4   3  953.09   30.98
   4   5   3  848.94   28.34
   4   5   3  832.84   28.46
  -4  -5   3  861.90   29.53
   4   5   3  842.58   24.06
   5  -4   3  944.23   26.69
   5  -4   3  925.63   18.40
  -5   4   3  958.48   28.34
   4   5  -3  854.87   28.21
  -5   4  -3  893.87   29.59
  -4  -5   4  488.92   23.80
   5  -4   4  457.20   20.76
   4   5   4  494.33   24.53
   4   5   4  515.65   23.94
  -5   4   4  450.28   21.69
   4   5  -4  492.45   21.87
  -5   4  -4  452.10   22.14
   4   5  -5  341.82   18.72
  -4  -5  -5  336.91   10.66
  -5   4  -5  342.43   20.29
  -4  -5   5  326.72   21.02
   4   5   5  335.23   20.88
  -5   4   5  341.83   20.84
   4   5   5  332.38   21.32
   5  -4   5  331.28   19.61
  -5   4   6  338.45   22.67
   4   5  -6  321.97   18.90
   5  -4   6  323.80   21.38
  -5   4   6  317.17   22.77
   4   5   6  307.17   21.66
  -4  -5  -6  291.26   11.85
  -5   4  -6  295.65   20.23
   4   5   6  292.07   21.01
   4   5   6  310.29   19.67
  -4  -5   6  311.08   22.27
   5  -4   6  322.43   21.15
  -5   4   7  170.70   17.77
   4   5  -7  187.47   15.00
  -5   4   7  196.01   18.60
   4   5   7  167.45   16.96
   4   5   7  193.34   16.77
   5  -4   7  176.53   17.01
   4   5   7  184.07   17.70
  -5   4  -7  170.36   16.28
  -4  -5   7  162.72   17.20
   5  -4   7  191.40   17.28
   4   5   8  103.05   13.85
   4   5   8   94.93   14.36
   4   5  -8  108.53   11.82
  -5   4   8  108.74   15.30
   5  -4   8  100.83   13.31
  -5   4  -8  108.32   13.82
   4   5   8  108.51   13.73
  -4  -5   8   96.15   14.46
   5  -4   8   99.41   14.09
  -5   4   8  104.13   14.86
   4   5   9   56.86   11.08
   4   5   9   47.48    9.60
   4   5   9   43.98   10.27
  -5   4  -9   48.30    9.72
   4   5  -9   63.22    9.17
  -5   4   9   42.14    9.97
   5  -4   9   49.38   10.57
   5  -4   9   43.29    9.18
  -5   4   9   52.51   11.45
  -4  -5   9   47.88   10.91
   4   5  10   19.88    7.65
  -5   4 -10   22.76    7.03
  -4  -5  10   16.22    6.43
   5  -4  10   21.20    6.89
  -5   4  10   17.18    7.03
   4   5  10   28.85    8.10
   4   5  10   27.98    8.16
   5  -4  10   18.37    6.93
  -5   4  10   16.56    7.37
   4   5  11   16.75    6.91
  -5   4  11    2.93    5.72
   4   5  11    8.37    5.27
   5  -4  11    9.77    5.49
  -4  -5  11   -3.58    3.68
   4   5  11    5.39    4.41
   5  -4  11    2.44    2.02
   5  -4  12    8.31    6.09
  -5   4  12    1.45    4.60
   4   5  12    2.49    2.02
  -4  -5  12    4.20    3.89
  -5   3   0  123.52    9.11
  -5   3   0  131.18    5.77
   3   5   0   97.98    8.47
   3   5   1   41.95    5.70
   3   5  -1   36.32    3.69
   3   5   1   35.14    3.66
   5  -3   1   57.33    4.06
   3   5  -1   35.15    4.86
   5  -3  -1   58.52    4.66
  -5   3   1   54.25    4.45
  -5   3   1   59.98    6.59
  -5   3  -1   58.34    6.17
   3   5   1   35.32    5.08
  -5   3  -1   55.24    4.04
  -3  -5   1   35.09    3.41
  -5   3  -2   10.27    2.21
   3   5   2   11.45    3.51
   5  -3   2   12.48    2.31
  -5   3   2   13.88    2.90
  -5   3   2   14.55    3.22
   3   5   2   11.12    2.93
  -3  -5   2    9.00    2.19
  -5   3  -2   16.03    3.63
  -3  -5   2    8.29    2.64
   3   5  -2    5.59    2.66
  -3  -5  -2    8.60    2.22
   3   5   2   12.19    1.69
   5  -3  -2   13.24    2.94
   3   5  -3    9.27    3.02
  -5   3   3    3.39    2.07
  -5   3  -3    4.13    2.41
   5  -3   3    1.14    1.17
  -3  -5  -3    3.92    1.05
   3   5   3    3.15    1.84
  -3  -5   4   37.71    6.58
   3   5   4   36.24    6.63
  -3  -5  -4   34.56    3.21
   3   5  -4   34.22    5.42
  -5   3   4   72.42    8.35
   5  -3   4   65.60    7.70
   3   5   4   40.20    6.71
  -5   3  -4   65.86    7.72
   3   5   4   32.64    5.31
  -5   3  -5   60.86    8.09
  -3  -5  -5   50.21    4.61
   3   5   5   39.46    7.23
   5  -3  -5   54.23    5.49
   3   5  -5   41.20    6.22
   5  -3   5   58.75    8.07
  -3  -5   6    8.26    3.92
   3   5  -6    8.90    2.96
   3   5   6    8.81    3.74
   3   5   6    6.38    2.89
   5  -3   6   23.54    6.20
  -3  -5  -6    6.66    2.12
  -5   3   6   16.56    5.16
  -5   3  -6   16.11    4.86
   3   5   6    5.78    3.48
   3   5   7    4.68    3.88
  -3  -5   7    0.91    2.64
   5  -3   7    6.18    3.73
   3   5   7   -0.42    1.43
   5  -3   7   -1.08    2.49
   3   5   7    1.99    2.75
   3   5  -7    8.92    3.14
  -5   3   7    8.48    4.46
  -5   3  -7    6.67    4.21
   5  -3   8    1.49    2.67
   3   5  -8    0.57    2.28
  -5   3  -8   -0.69    2.28
  -3  -5   8   -0.98    3.08
   5  -3   8    1.42    2.78
  -5   3   8    5.38    4.83
   3   5   8    1.86    1.62
   3   5   8   -0.08    1.92
   3   5   8    0.11    1.88
   3   5   9    7.35    4.67
  -5   3   9    3.08    3.75
  -5   3  -9    2.19    2.32
   3   5   9    3.67    2.52
  -3  -5   9   12.55    6.14
   5  -3   9    4.13    3.22
   5  -3   9    0.54    2.87
   3   5   9    7.36    4.90
  -3  -5  10    0.61    2.54
  -5   3 -10    1.78    2.78
   3   5  10   -1.87    3.54
   5  -3  10    0.85    3.93
   3   5  10   -1.70    1.99
  -3  -5  11    2.83    4.21
   5  -3  11   11.03    6.13
   3   5  11    3.36    4.67
   3   5  11    8.94    5.48
  -3  -5  12    2.12    2.25
   3   5  12    8.67    5.67
   5  -3  12    4.80    3.39
  -5   3  12    9.22    5.16
  -5   2   0    1.18    1.42
   5  -2   0   -0.90    1.37
   2   5   0   -1.63    1.76
  -2  -5   1   17.35    3.41
  -5   2   1   21.39    3.31
   2   5   1   17.89    2.57
  -5   2  -1   20.75    3.48
   2   5   1   17.31    3.59
  -5   2   1   21.57    2.63
   5  -2   1   20.62    2.10
   2   5   1   15.63    3.47
  -2  -5   1   19.25    2.04
   5  -2   1   27.13    3.85
   5  -2  -1   20.21    2.46
   2   5  -1   22.35    4.26
  -5   2   1   20.81    3.68
   2   5   2   23.79    2.54
   5  -2   2   24.34    3.12
  -5   2  -2   25.92    3.24
  -5   2  -2   25.38    3.88
  -2  -5  -2   22.96    3.72
  -5   2   2   24.55    4.37
   2   5  -2   17.05    3.57
   2   5   2   23.59    4.28
  -2  -5  -2   20.44    2.50
  -2  -5   2   17.93    3.84
   5  -2   2   30.56    4.38
  -5   2   2   23.33    3.45
   5  -2  -2   24.08    3.48
   2   5   3   22.78    2.71
  -5   2  -3   13.69    3.29
   5  -2   3   10.68    2.72
  -2  -5   3   20.61    4.75
  -2  -5  -3   23.24    2.81
  -5   2   3   11.39    2.94
   2   5   3   21.47    4.63
   2   5  -3   14.47    3.42
   5  -2   4   42.28    6.68
   5  -2   4   43.44    6.19
   2   5   4   33.88    6.16
  -2  -5   4   40.79    6.77
   2   5   4   36.76    5.81
  -5   2   4   40.12    6.38
  -5   2  -4   49.67    6.36
  -2  -5  -4   39.70    4.06
   2   5  -4   41.02    5.61
   5  -2  -4   53.51    4.47
   2   5  -5    2.41    2.08
   5  -2   5    4.31    1.96
   2   5   5    1.40    1.93
  -5   2  -5    3.51    2.01
   2   5   5    2.36    2.38
  -2  -5  -5    4.02    1.84
  -5   2   5    5.42    2.19
  -2  -5   5   -0.33    1.35
   2   5   6    5.11    2.77
  -5   2  -6    6.15    3.07
  -5   2   6    8.80    3.16
   5  -2   6    9.72    3.52
   5  -2  -6    9.71    2.18
  -2  -5   6    9.03    3.81
   2   5  -6   15.66    3.81
   2   5   6    7.58    4.33
   2   5   6    7.70    3.74
   5  -2   6    4.02    2.00
   2   5  -7    1.20    2.16
   2   5   7   -1.45    2.38
   5  -2   7    1.73    2.41
   2   5   7    8.25    4.63
   2   5   7    4.85    3.92
   5  -2   7    1.79    1.48
  -2  -5   7    4.99    2.95
  -2  -5   8   12.86    4.03
   2   5   8    7.76    4.33
   5  -2   8   21.83    6.48
   5  -2   8   22.60    6.84
   2   5  -8   10.44    3.62
  -2  -5   8    8.41    4.60
  -5   2   8   26.28    7.47
   2   5   8    4.60    3.05
   2   5   8   10.82    5.04
   2   5   9   -0.79    2.49
   2   5   9    1.04    3.68
   5  -2   9    2.41    2.82
   2   5   9    4.01    2.35
  -2  -5   9    0.86    3.04
   2   5  10    0.55    2.31
  -2  -5  10    3.33    4.90
   5  -2  10    1.43    2.46
   2   5  10   -2.68    3.82
   5  -2  10    3.82    3.19
   2   5  11   -0.46    2.07
   2   5  11   -1.78    2.94
  -5   2  11    0.61    2.95
  -2  -5  11   -1.03    2.11
   5  -2  11    3.78    2.41
  -2  -5  12   -2.79    2.84
  -5   2  12   -0.05    2.42
  -5   2  12   -5.04    4.04
   2   5  12    1.22    4.14
   5  -2  12    1.67    2.13
   1   5   0    4.53    2.10
   5  -1   0   14.38    3.15
   1   5   0    4.03    1.44
  -5   1   0   11.55    2.53
  -5   1  -1   52.10    2.95
   5  -1   1   48.17    2.83
  -1  -5   1   51.62    5.87
   1   5   1   43.80    4.38
   1   5   1   39.09    5.46
  -5   1   1   53.29    3.70
   1   5  -1   46.34    5.50
  -5   1  -1   50.36    4.87
  -5   1   1   43.13    4.51
   5  -1  -1   51.60    3.62
   5  -1   1   54.98    5.13
  -5   1   1   50.57    5.40
   1   5   1   38.10    5.11
  -1  -5  -1   43.05    4.30
  -5   1  -2  565.55   15.51
   5  -1   2  567.90   13.46
   1   5   2  600.17   15.42
   1   5   2  611.04   21.60
  -1  -5  -2  628.74   16.07
  -1  -5   2  593.09   21.42
   5  -1   2  564.88   17.40
   1   5  -2  591.71   19.46
  -5   1  -2  536.03   16.93
   5  -1   2  555.10   15.43
   5  -1  -2  584.02   17.23
  -1  -5   2  620.20   19.48
  -5   1   2  526.04   16.60
   1   5   3  238.18   14.52
  -5   1   3  205.82   12.17
  -1  -5  -3  227.85    9.91
   5  -1   3  201.43   11.31
  -1  -5   3  221.13   14.11
   1   5   3  221.59    9.70
   5  -1   3  196.00    6.36
   1   5  -3  221.46   11.78
   5  -1  -3  199.70    6.96
  -5   1  -3  190.97   10.59
  -5   1   4    4.45    2.78
   5  -1  -4    2.36    0.74
  -5   1  -4    0.96    0.85
   1   5   4   -2.15    2.49
   1   5   4    1.42    2.90
  -1  -5  -4   -0.76    0.92
  -1  -5   4   -3.05    2.63
   1   5  -4   -1.06    1.18
   5  -1   4    1.81    2.13
   5  -1   4    4.16    2.31
   5  -1   5    2.43    1.59
   5  -1  -5    4.69    1.45
  -1  -5   5   -0.01    2.43
   5  -1   5    5.64    3.32
   1   5  -5    4.24    1.91
   1   5   5    0.01    2.04
  -5   1  -5    8.28    3.07
   1   5   6    3.69    2.90
   5  -1   6    2.89    3.02
   1   5   6    0.95    1.48
  -1  -5   6    1.84    2.39
  -5   1   6    3.77    3.07
   1   5   6    6.02    3.91
   1   5  -6    5.16    2.61
   1   5   7   38.32    8.18
  -1  -5   7   25.35    5.10
   5  -1   7   18.86    5.92
  -1  -5   7   15.82    4.69
   1   5  -7   24.38    4.67
   5  -1   7   11.42    4.92
  -5   1   7   17.53    5.60
   1   5   7   20.04    5.68
  -5   1   8   -9.94    4.54
  -1  -5   8   -0.89    3.28
   1   5   8    1.77    3.43
   5  -1   8    2.42    2.77
   1   5   8    3.65    3.72
   1   5  -8    1.28    2.37
   5  -1   9    4.25    2.83
   1   5   9    4.43    4.29
   1   5   9   -1.50    2.68
  -5   1   9    2.84    3.57
  -1  -5   9    5.94    4.22
   1   5   9    5.82    3.76
   5  -1   9    1.67    2.25
   5  -1  10   -1.45    2.47
   1   5  10   13.54    6.47
  -1  -5  10    6.57    3.96
   1   5  10   12.81    6.04
   5  -1  10    7.97    4.90
  -5   1  10    2.67    3.78
   1   5  11   23.14    7.98
  -1  -5  11   21.93    7.76
   1   5  11   27.99    9.10
   5  -1  11    9.11    5.74
  -5   1  11   19.28    8.01
  -5   1  12   14.22    7.92
   5  -1  12    3.93    4.86
   1   5  12   19.99    7.72
  -1  -5  12   14.78    7.09
   5   0   0   -1.95    1.72
   5   0   0   -0.19    1.31
   0   5   0    1.89    1.87
  -5   0   0    1.07    1.27
   0   5   0    2.50    2.21
   5   0  -1    1.36    0.93
   0  -5   1    2.76    2.02
  -5   0  -1    3.38    0.90
   0   5  -1    0.00    1.83
   0   5   1    1.22    1.42
   5   0   1    3.36    1.64
  -5   0  -1    2.16    1.19
   0   5   1    0.49    1.30
   0  -5   1    5.94    2.16
  -5   0   1    2.49    1.05
   5   0   1    1.49    0.75
   5   0   1    1.75    0.86
   0  -5  -1    1.40    1.14
   0   5  -1    4.39    1.98
   5   0   2  114.00    6.75
   0   5   2  146.69   10.40
  -5   0  -2  115.93    6.63
   0   5  -2  144.25    9.12
   5   0   2  113.68    6.13
   0   5   2  140.89    7.98
   0  -5   2  148.88   10.59
   5   0   2  113.44    6.85
  -5   0  -2  127.68    7.29
   0  -5  -2  144.13    8.17
   0  -5   2  148.86    8.94
   0   5   3  144.31   11.49
   5   0   3  141.18    9.48
   0   5  -3  127.85    8.52
   0  -5   3  135.07   10.88
  -5   0   3  148.89   10.32
  -5   0  -3  144.78    8.17
   0   5   3  148.78    8.75
   0  -5  -3  147.47    8.76
   0  -5   3  142.24    8.65
  -5   0  -3  141.44    6.15
   5   0   3  139.64    6.38
  -5   0  -4  101.97    4.73
   0   5   4  114.10   10.69
   0  -5   4  117.72    8.06
   5   0   4  104.84   10.40
   0  -5   4   96.17   10.19
  -5   0  -4  103.10    7.84
   0   5   4  112.98   11.19
   5   0   4  111.20    9.88
   0   5  -4  114.73    8.25
   5   0   5  112.16   11.12
   0  -5   5  110.70   11.88
   0   5   5  115.26   12.22
   0   5  -5  133.48    9.01
   0   5   5  106.54   10.69
  -5   0  -5   92.08    4.26
  -5   0   5  103.49   11.02
  -5   0  -5  100.53    8.58
   5   0   6  164.71   15.07
   0  -5   6  134.71   14.31
   0   5   6  126.37   13.48
  -5   0  -6  136.71    5.22
   0   5  -6  146.58   10.03
   0   5   6  137.79   14.42
   0   5   6  153.17   13.75
   5   0   7   65.89   10.13
   0   5  -7   60.45    6.65
   0   5   7   62.17   10.23
   0   5   7   69.20   11.01
   0   5   7   55.61    8.97
   0  -5   7   58.10   10.31
  -5   0   7   77.76   11.58
   0  -5   7   55.04    7.80
   0   5   8   34.39    7.91
   5   0   8   51.35    9.85
   0   5   8   52.41   10.55
   0  -5   8   42.29    9.12
   5   0   8   59.78   10.38
   0   5   9   32.04    8.38
   0  -5   9   47.60   10.55
   0   5   9   28.06    8.47
  -5   0   9   46.34   10.55
   5   0   9   45.03    9.21
   0   5   9   42.43    8.75
   0   5  10   13.49    6.66
   0  -5  10    9.53    4.89
   0   5  10   27.90    7.99
   0   5  10   13.11    6.02
  -5   0  10   16.74    6.66
   0  -5  11   13.29    6.50
   5   0  11    2.43    2.09
   0   5  11    6.76    4.64
   0   5  11    4.84    3.74
  -5   0  11    8.48    5.71
   5   0  11    9.92    4.88
   5   0  12    2.72    3.04
   0  -5  12    1.93    3.61
   0   5  12    4.04    5.29
  -5   0  12    2.33    4.60
  -5  -1   0  458.25   14.63
   5   1   0  409.39   13.71
  -5  -1   0  424.91    8.99
   5   1   0  427.60   15.48
   5   1   0  442.97   10.18
   5   1   0  441.77   14.22
   5   1   0  442.88   16.57
  -1   5   0  389.65   15.53
   5   1   1  409.38   10.96
  -5  -1  -1  446.82   14.60
   1  -5  -1  445.78   15.90
  -5  -1  -1  434.63   11.35
  -1   5   1  419.81   16.34
   5   1   1  423.37   12.15
   5   1  -1  430.40   16.49
  -5  -1   1  405.69   11.93
  -1   5   1  412.70   15.11
   5   1   1  409.02   13.98
  -5  -1  -1  429.28   11.90
   1  -5   1  408.11   15.98
  -1   5  -1  410.58   15.72
  -1   5  -1  410.67   17.22
   5   1  -1  429.22   12.27
   1  -5   1  430.00   15.94
   5   1  -1  407.42   11.37
  -5  -1  -2  880.99   21.01
   1  -5   2  829.11   21.35
  -5  -1  -2  883.50   19.91
  -1   5  -2  800.70   21.66
   5   1   2  823.85   16.86
  -1   5   2  807.96   21.94
  -5  -1  -2  876.18   16.62
   1  -5   2  807.40   24.79
   5   1   2  853.00   19.90
   5   1  -2  903.21   22.68
   5   1   2  865.13   20.59
  -1   5   2  825.49   25.13
  -5  -1   2  832.30   21.81
   1  -5  -2  844.12   22.65
   1  -5   3  509.19   15.71
   5   1   3  483.54   14.35
  -5  -1   3  483.75   19.12
  -5  -1  -3  487.78   13.17
   1  -5   3  474.61   20.52
  -1   5   3  500.56   21.29
   5   1   3  474.25   17.96
  -1   5   3  484.36   17.58
  -1   5  -3  494.37   16.14
  -5  -1  -3  506.78   14.04
  -5  -1  -4  179.86    8.07
  -5  -1  -4  163.92    8.77
   5   1   4  168.28   12.16
  -1   5  -4  188.00    9.72
   5   1   4  171.93   13.54
  -5  -1   4  176.25   13.07
   1  -5   4  204.99    9.64
   1  -5   4  185.13   13.83
  -1   5   4  185.12   14.01
  -5  -1  -5   70.95    6.86
  -5  -1  -5   71.19    5.14
   1  -5   5   87.69   10.58
  -5  -1   5   63.56    8.74
  -1   5   5   67.24    9.44
   5   1   5   75.86    9.24
  -1   5  -5   70.44    6.10
   5   1   6    1.71    2.30
  -1   5   6   -1.82    2.29
  -1   5   6    1.79    3.22
  -1   5  -6   -0.08    1.18
  -5  -1   6   -0.81    2.29
  -1   5   6   -1.16    1.55
   1  -5   6    4.86    3.01
  -5  -1  -6    0.30    0.71
  -1   5   7    0.03    2.52
   1  -5   7   -0.11    1.19
   5   1   7    1.39    1.99
  -1   5   7    5.31    3.76
  -1   5   7   -0.45    1.37
  -5  -1   7   -0.28    1.40
   1  -5   7    0.74    2.01
  -1   5  -7    3.93    2.08
  -5  -1   8   59.14   10.76
   5   1  -8   45.33    8.04
   5   1   8   62.36   10.66
  -1   5   8   45.26    9.22
   1  -5   8   51.08   10.07
  -1   5   8   45.28    9.74
  -1   5   8   51.37    8.95
   1  -5   9   96.64   12.10
   5   1  -9   88.25   11.58
  -1   5   9   88.36   14.30
   5   1   9   88.81   14.05
   1  -5   9   86.14   14.01
  -1   5   9   91.17   14.70
  -5  -1   9   95.77   15.17
  -5  -1  10   61.89   12.88
   5   1  10   50.46   11.12
   5   1  10   57.69   11.53
  -1   5  10   58.95   12.29
  -1   5  10   66.84   13.30
   1  -5  10   78.47   14.43
  -5  -1  11   45.75   11.98
   1  -5  11   79.59   15.43
  -1   5  11   75.62   14.84
  -1   5  12   46.87   12.75
   5   1  12   46.04   12.21
  -5  -1  12   32.67   10.17
   1  -5  12   54.09   13.57
  -2   5   0    1.55    0.97
   5   2   0    3.17    2.04
  -2   5   0    0.75    1.94
   5   2   0    1.73    2.17
  -5  -2   0    0.57    0.88
   5   2   0   -2.30    1.80
   5   2   0    0.14    0.81
  -5  -2  -1   30.70    4.00
  -5  -2   1   35.59    3.43
   5   2   1   34.96    3.66
   2  -5   1   29.17    2.69
  -5  -2   1   29.13    3.48
  -2   5   1   27.32    3.98
   2  -5   1   29.57    4.20
   5   2   1   30.63    4.08
  -2   5   1   27.85    4.23
   5   2  -1   24.67    4.07
   5   2  -1   31.99    3.18
   5   2  -1   28.76    3.49
   5   2   1   30.51    2.91
  -2   5  -1   32.85    5.03
  -2   5   2   18.82    3.83
  -5  -2  -2   25.04    2.09
   5   2   2   25.45    3.58
   5   2   2   22.63    3.59
  -2   5   2   17.94    3.38
  -5  -2   2   24.39    3.81
  -5  -2  -2   22.09    3.46
   2  -5   2   18.87    3.74
  -5  -2   2   22.79    2.02
   2  -5   2   15.12    2.86
   5   2   2   27.03    2.23
   5   2  -2   23.31    4.20
  -5  -2  -2   27.08    3.84
  -5  -2   2   27.44    4.62
  -2   5  -2   18.11    3.80
  -5  -2   3  166.36   11.29
   5   2   3  149.98   10.23
   2  -5   3  164.47   11.82
  -2   5   3  156.17   11.85
  -5  -2  -3  154.03    5.65
   5   2   3  166.88    9.43
  -2   5  -3  170.45    8.80
  -2   5   3  176.69   11.15
   5   2  -3  172.05   12.03
   2  -5   3  179.24    8.59
  -5  -2  -3  155.92    8.78
   5   2  -4  106.65    9.95
   5   2   4  103.27   10.57
  -5  -2  -4  103.46    7.14
  -5  -2   4  100.54   10.10
  -5  -2  -4  102.39    5.97
  -2   5   4   95.82   10.33
   5   2   4  108.86    9.92
  -2   5  -4  112.56    6.85
   2  -5   4  111.44   10.68
   2  -5   4  110.54    6.37
  -2   5   4  125.98   11.63
   5   2   5  133.54   12.39
   5   2  -5  118.59   11.28
   2  -5   5  142.00   13.21
  -2   5  -5  134.18    7.49
  -5  -2   5  130.45   12.61
  -5  -2  -5  117.54    7.93
  -2   5   5  147.60   13.65
  -2   5   6   60.99    9.76
  -5  -2  -6   46.32    5.18
  -5  -2   6   46.44    3.61
   5   2  -6   44.50    7.36
   5   2   6   44.01    8.00
  -5  -2   6   46.85    8.74
   2  -5   6   61.52    9.55
  -2   5  -6   65.70    5.31
  -5  -2   7   16.45    5.29
  -2   5   7   25.81    7.10
  -2   5   7   24.81    6.70
   5   2  -7   21.18    5.07
  -2   5  -7   27.04    3.47
   2  -5   7   27.82    6.28
   5   2   7   21.91    6.05
   5   2   7   19.19    5.86
   2  -5   7   16.33    5.19
   5   2   8   38.54    8.90
   2  -5   8   43.84    7.91
   5   2  -8   37.11    7.08
   2  -5   8   37.22    8.98
  -5  -2   8   39.21    9.11
  -2   5   8   47.94    9.90
  -2   5   9   27.97    8.28
   2  -5   9   32.38    8.72
   5   2  -9   27.13    6.44
  -2   5   9   28.22    8.24
  -5  -2   9   21.25    7.12
   5   2   9   17.84    5.82
   2  -5   9   39.86    8.30
  -2   5  10    4.32    5.18
  -2   5  10   10.46    5.53
   2  -5  10   11.03    5.34
   2  -5  10    7.98    3.78
   5   2  10   -0.09    1.48
  -5  -2  10    1.14    2.88
   2  -5  11   -1.63    4.80
   5   2  11    4.85    5.64
  -5  -2  11    3.55    4.08
   5   2  11    3.35    3.85
   2  -5  12    4.39    3.89
  -2   5  12    2.58    2.26
  -5  -2  12    1.27    3.72
   5   3   0  967.00   24.12
  -5  -3   0 1021.21   24.53
  -3   5   0 1036.39   27.97
   5   3   0  978.13   26.31
   5   3   0 1026.93   25.90
  -3   5   0 1016.76   21.56
   5   3   1  355.78   15.10
  -3   5  -1  360.83   14.34
   5   3  -1  375.76   16.58
   5   3   1  360.77   13.54
   5   3  -1  391.94   14.26
  -3   5   1  342.30   14.29
   5   3  -1  389.43   15.55
   5   3  -1  356.84   12.36
  -3   5   1  356.14   15.66
  -5  -3   1  356.56   13.86
   3  -5   1  340.17   11.45
  -3   5  -1  338.94   16.19
   3  -5   2  106.94    7.30
   3  -5   2  104.49    8.43
  -5  -3   2   97.83    5.22
  -5  -3  -2  100.30    7.76
  -3   5   2  106.55    8.65
  -3   5   2  109.23    8.92
   5   3   2  105.04    8.14
  -5  -3   2  100.77    8.16
   5   3  -2  109.48    9.12
  -3   5  -2   98.96    9.25
   5   3   2  101.93    7.84
   5   3  -3  157.30   11.55
   5   3   3  149.95    9.94
   5   3   3  159.71   11.04
  -5  -3   3  154.22   11.37
  -3   5   3  152.78   11.66
  -3   5  -3  157.21   12.53
   3  -5   3  146.48    7.56
  -5  -3  -3  160.03    9.95
  -3   5   3  146.53   10.76
   3  -5   3  164.73   11.47
   5   3  -4  182.24   13.29
  -5  -3  -4  175.86    6.18
   3  -5   4  154.54   12.43
  -5  -3   4  192.89   14.10
   5   3   4  179.26   14.10
  -3   5   4  157.44   12.95
   3  -5   4  160.08    7.03
   5   3   4  181.36   13.06
  -5  -3  -4  198.31   11.26
  -3   5  -4  170.70   14.18
   5   3  -5    9.16    3.14
  -5  -3   5   16.56    4.67
   3  -5   5   10.58    3.84
  -5  -3   5   10.09    1.43
   5   3   5   10.16    3.57
  -3   5   5   10.30    3.44
  -5  -3   6    6.17    1.36
   5   3   6    2.42    2.39
  -5  -3   6    8.34    4.31
   5   3  -6   11.69    4.09
  -3   5   6   10.29    4.00
   3  -5   6   11.37    3.80
  -3   5  -6    7.38    1.33
   5   3   7    0.94    2.85
   5   3  -7    3.40    2.48
  -3   5   7   11.45    5.43
  -5  -3   7    4.22    1.26
  -5  -3   7    1.91    2.02
   3  -5   7   13.51    4.84
   3  -5   7    5.68    4.03
  -3   5   7    9.85    3.77
   5   3  -8   45.09    8.09
   3  -5   8   46.69    8.68
   5   3   8   51.85    9.90
  -3   5   8   54.48   10.71
  -5  -3   8   44.37    9.80
   5   3   8   41.60    8.79
  -3   5   8   37.55    9.38
   3  -5   8   47.33    9.86
   3  -5   9   73.11   11.26
   3  -5   9   76.49   13.06
   5   3  -9   87.85   11.45
  -3   5   9   89.62   14.82
  -5  -3   9   74.75   13.21
   5   3   9   74.17   12.95
  -3   5   9   75.80   13.18
  -3   5  10   52.66   12.04
   3  -5  10   41.98   10.38
  -3   5  10   36.02    9.76
  -5  -3  10   38.91   10.13
   3  -5  10   42.92    8.90
   5   3  10   47.92   10.36
   5   3  11   42.26   10.95
  -3   5  11   29.83    8.94
  -5  -3  11   38.35   10.26
   3  -5  11   45.59   11.31
   5   3  11   46.05   10.71
   5   3  12   34.55   10.69
   3  -5  12   23.86    8.68
  -3   5  12   39.37   11.58
  -5  -3  12   37.51   11.28
   5   3  13   14.49    7.23
   5   4   0    1.47    2.60
  -4   5   0    0.26    2.13
  -4   5   0    1.09    1.02
   5   4   0    1.89    1.50
   5   4  -1   78.04    8.00
  -4   5  -1   85.74    8.54
  -5  -4   1   84.22    7.15
  -4   5  -1   98.67    7.25
   5   4   1   81.15    7.88
  -4   5   1   89.67    7.20
  -5  -4   1   77.03    6.98
  -4   5   1   89.59    8.24
   5   4   1   75.03    6.68
   5   4  -1   82.99    7.20
  -4   5   2   15.80    3.33
   4  -5   2   13.07    2.33
   4  -5   2   14.36    3.19
  -5  -4   2   23.30    3.03
   5   4   2   27.48    5.37
  -4   5  -2   13.03    3.81
  -5  -4   2   18.89    3.87
   5   4  -2   18.81    4.12
  -4   5   2   18.35    3.88
  -5  -4   2   14.04    3.24
   5   4   2   18.87    3.72
   4  -5   3    4.58    1.84
   5   4   3   -0.98    1.51
  -4   5   3    0.66    2.52
  -5  -4   3    1.35    1.40
   4  -5   3   -1.20    2.17
   5   4   3    2.72    1.96
   5   4  -3    1.10    1.83
  -4   5   3    0.25    1.34
  -5  -4   3    0.72    1.04
  -4   5  -3    0.43    1.88
   4  -5   4    3.60    0.97
   5   4   4   -1.29    2.19
  -5  -4   4    8.12    3.72
   5   4   4    2.26    1.84
  -4   5  -4    5.41    2.40
   5   4   4    4.38    2.18
   5   4  -4    0.02    1.54
   4  -5   4    2.47    2.29
  -4   5   4    4.52    2.93
   4  -5   5    3.72    2.16
  -4   5   5    1.48    2.36
  -4   5  -5   10.65    4.31
   5   4   5   10.15    3.84
  -5  -4   5    8.11    1.52
   5   4   5   10.73    3.26
  -4   5   5    4.80    2.98
  -5  -4   5    8.36    3.58
   5   4   5   12.27    4.44
  -5  -4  -5   11.36    1.74
   5   4  -5    7.90    3.32
  -4   5  -6    3.21    2.48
  -5  -4   6   15.32    2.35
   5   4   6   12.73    4.78
  -4   5   6    4.43    2.47
   5   4   6   14.95    5.32
  -5  -4  -6   11.05    2.14
  -5  -4   6   18.19    5.89
   5   4  -6   15.14    4.57
   4  -5   6    6.85    3.06
   5   4   7    5.24    3.61
  -4   5   7    0.44    1.52
   4  -5   7    0.94    2.52
  -5  -4   7    4.10    2.97
   5   4  -7    5.07    3.15
   4  -5   7    1.67    1.69
   5   4   8    3.69    3.63
  -5  -4   8    7.39    4.89
   4  -5   8    7.74    3.90
  -4   5   8   18.02    5.92
   5   4  -8    3.70    2.57
   4  -5   8   10.01    5.34
  -4   5   9    7.41    5.27
   5   4  -9    3.19    2.73
   5   4   9    5.35    4.10
   4  -5   9    0.33    3.45
   5   4   9    1.49    3.09
  -5  -4   9    3.85    4.13
  -4   5  10    5.79    4.90
   4  -5  10    5.66    3.58
   5   4  10   14.65    6.17
   5   4  10   14.35    6.90
  -5  -4  10   16.92    6.67
   4  -5  10   -0.48    2.77
   5   4  11    4.88    4.95
   4  -5  11   10.24    6.06
  -4   5 -11    6.56    5.16
   5   4  11    4.61    4.91
  -5  -4  11    5.37    6.63
   5   4  12    1.81    2.08
   5   4  12    3.75    4.86
  -5  -4  12   -4.11    4.58
   5   5   0   64.33    7.41
  -5   5   0   59.08    6.85
   5   5   0   65.89    6.39
  -5  -5   1    8.75    2.27
   5   5   1    8.94    2.82
  -5   5   1   13.09    3.25
  -5   5   1   11.96    2.81
  -5   5   1    6.67    2.27
  -5   5  -1    5.35    2.65
   5   5   1    8.68    3.28
  -5   5  -1    7.63    1.96
  -5  -5   1    9.81    2.51
   5   5  -1    6.45    2.84
   5   5   2   18.32    4.02
   5   5  -2   18.24    4.39
  -5   5  -2   15.41    4.13
  -5   5   2   18.81    3.71
  -5  -5   2   23.48    4.03
  -5  -5   2   16.34    3.88
   5   5   2   22.05    4.50
   5  -5   2   19.61    3.62
  -5   5   2   22.27    4.66
   5  -5   3   39.52    5.65
   5  -5   3   39.53    3.97
   5   5   3   36.41    4.58
   5   5   3   47.68    6.70
   5   5  -3   43.59    6.75
  -5   5  -3   38.94    6.59
   5   5   3   33.31    5.57
  -5   5   3   38.76    6.21
  -5  -5   3   36.64    6.02
  -5   5   4    1.04    2.72
   5   5   4   -0.68    1.16
   5  -5   4    0.47    0.37
   5   5   4    1.35    1.33
   5   5  -4    0.04    2.09
  -5   5  -4    4.15    3.43
   5   5   4    0.68    1.71
  -5   5   4   -2.88    1.88
  -5  -5   4    1.79    2.03
   5  -5   4    1.61    1.89
   5   5   4    2.77    2.00
   5   5  -5    2.77    2.35
   5  -5   5   11.35    3.94
  -5   5   5    6.19    2.96
  -5   5   5    8.63    3.65
  -5  -5   5    6.12    3.92
   5   5   5    2.93    2.96
  -5   5  -5    8.80    3.92
   5   5   5    3.83    3.06
   5   5   6    2.69    3.18
  -5  -5   6    3.74    1.32
   5   5   6    3.27    3.47
  -5  -5  -6    1.55    1.23
  -5   5   6    7.51    3.84
   5   5  -6    8.61    3.97
   5  -5   6    0.97    3.08
  -5   5  -6    1.80    2.46
   5   5  -7   -0.66    1.50
  -5   5   7    4.65    3.41
  -5  -5   7    1.29    1.32
   5  -5   7    1.27    3.11
   5   5   7   -0.33    1.55
  -5   5  -7    0.64    3.86
   5   5   7    1.26    2.39
   5   5   7    4.96    3.90
   5  -5   7    0.77    2.49
  -5  -5   7    2.15    3.56
  -5   5   8   -0.48    2.91
   5   5   8   -2.84    2.84
   5  -5   8   -2.76    2.36
   5   5   8    3.91    3.12
   5   5  -8    3.71    3.11
  -5  -5   8   -1.73    2.75
  -5   5  -8    4.66    4.48
   5  -5   8    0.56    3.54
   5   5   8    5.06    5.19
   5   5   9   -0.91    1.70
   5   5  -9    0.50    1.19
   5  -5   9   -0.11    2.56
  -5  -5   9    3.06    2.05
   5   5   9    7.18    4.24
  -5   5   9    1.67    2.39
   5   5   9   -1.42    2.80
  -5   5  -9    0.44    2.71
   5   5  10    6.15    4.35
  -5  -5  10    3.09    3.11
   5   5  10    0.25    2.33
   5   5  10    8.10    5.43
  -5   5 -10    7.45    4.98
   5  -5  10    5.67    4.02
   5  -5  11   -2.89    3.64
  -5  -5  11    2.18    3.14
   5   5  11   11.43    6.00
   5   5  11    2.73    4.02
  -5   5  11    1.41    1.84
   5   5  12   13.90    7.50
   5  -5  12   -1.81    3.78
  -6   5   0   -0.59    1.10
  -6   5   0    4.27    2.43
   5   6   0    3.24    3.37
  -6   5  -1   50.76    4.93
  -6   5   1   47.40    6.33
  -6   5   1   47.55    5.01
  -6   5   1   43.26    6.37
  -6   5  -1   45.11    6.56
   5   6   1   52.60    7.49
   5   6   1   46.89    6.24
   5   6  -1   54.71    7.40
  -6   5   2   14.75    4.43
   5   6  -2   14.46    3.93
  -6   5  -2   26.66    5.20
  -6   5  -2   23.40    3.77
  -5  -6   2   19.55    3.84
   5   6   2   19.88    2.29
   6  -5   2   22.00    3.62
  -6   5   2   25.67    4.15
  -5  -6   2   21.86    5.06
   5   6   2   29.84    5.37
   5   6   2   28.56    5.36
  -6   5   3   13.84    3.33
   5   6   3   25.16    5.14
  -6   5  -3   25.79    5.47
  -5  -6   3   19.62    4.94
   5   6  -3   25.18    5.15
  -6   5   3   13.04    4.11
  -6   5   3   20.95    4.81
   5   6   3   26.80    5.30
   5   6   4    2.93    3.32
  -5  -6   4    1.14    1.39
  -6   5  -4    0.17    2.25
   6  -5   4    1.98    2.01
   5   6   4   -1.19    1.72
   6  -5   4    0.61    0.54
   5   6   4    1.47    1.52
   5   6   4    0.90    1.53
   5   6  -4   -1.47    1.26
   6  -5   5   42.18    6.79
   5   6  -5   39.76    7.13
  -5  -6   5   31.59    6.91
  -6   5   5   44.98    7.73
  -6   5   5   42.31    8.04
  -6   5  -5   38.51    7.64
   5   6   5   41.30    8.38
   5   6   6   32.65    7.48
   5   6   6   33.71    6.64
   6  -5   6   34.41    7.25
  -5  -6  -6   31.39    2.93
  -5  -6   6   30.68    7.38
  -6   5   6   42.53    8.39
  -6   5  -6   43.39    8.02
   5   6  -6   27.44    6.14
   5   6   6   30.53    7.18
  -6   5   7   27.28    7.19
   5   6   7   17.96    5.81
   6  -5   7   36.37    7.89
  -6   5  -7   36.48    7.96
   6  -5   7   43.88    8.68
   5   6  -7   25.34    5.69
  -5  -6   7   21.25    6.07
   5   6   7   23.84    6.41
  -6   5   8   28.95    7.94
  -5  -6   8   13.51    5.82
   5   6   8   24.12    7.53
  -6   5  -8   41.63    9.18
   6  -5   8   35.82    8.30
   5   6   8    8.94    4.59
   5   6  -8   16.73    4.88
   6  -5   8   36.78    8.37
   5   6   9    4.77    4.43
   6  -5   9    2.73    2.16
  -6   5   9    9.68    5.95
   5   6  -9    6.10    4.07
   5   6   9   -2.94    3.35
  -5  -6   9   -0.46    1.53
  -6   5  -9   11.45    4.99
  -6   5  10    5.98    4.73
   6  -5  10    2.48    1.85
  -5  -6  10    5.64    3.00
  -6   5 -10    8.88    4.74
   5   6  10    2.90    3.66
   5   6  11   10.22    6.42
  -5  -6  11    2.87    5.03
  -6   5  11    3.99    5.20
   6  -5  11   -0.93    1.83
   5   6  12    2.03    4.40
   6  -5  12    2.58    2.20
  -6   4   0  854.68   18.35
  -6   4   0  841.62   25.54
   4   6   0  840.99   21.72
   4   6   0  821.02   28.17
  -6   4   0  866.87   27.61
   6  -4  -1  504.58   15.44
  -6   4  -1  496.41   14.10
   4   6  -1  515.98   21.99
  -6   4   1  481.55   20.74
   4   6   1  477.35   21.30
  -6   4  -1  503.31   20.76
  -6   4   1  480.20   15.17
  -6   4  -2  600.72   17.95
  -4  -6   2  577.97   23.39
  -6   4   2  566.83   18.92
   6  -4   2  566.69   17.70
   4   6   2  601.68   13.77
  -4  -6   2  593.29   18.30
  -6   4   2  574.82   23.52
   4   6   2  565.31   23.87
   4   6  -2  593.63   23.70
   4   6   2  603.45   23.45
  -4  -6  -2  596.73   19.04
  -6   4  -2  527.46   21.85
   4   6   3  255.59   16.25
  -4  -6   3  246.19   16.24
  -6   4   3  243.66   14.06
  -6   4   3  238.23   15.88
  -6   4  -3  258.15   15.70
  -6   4   3  246.54   16.13
   4   6  -3  277.35   16.28
   4   6   3  267.55   16.50
   4   6   3  252.05    6.78
   6  -4   3  263.28   13.67
   4   6  -4  136.13   11.69
  -6   4   4   98.82    9.93
  -6   4  -4   98.78   10.14
   4   6   4  109.00   11.34
  -4  -6  -4  116.74    4.85
   6  -4   4  114.48   10.16
  -4  -6   4  122.53   12.29
   4   6   5   98.42   10.32
   6  -4   5  102.11   10.74
  -6   4  -5   97.54   10.85
  -4  -6  -5  103.90    5.65
  -4  -6   5  103.54   12.17
   4   6  -5  112.04   11.06
   4   6   5  104.27   12.40
  -6   4   5  109.76   11.88
  -4  -6  -6    0.70    0.88
   4   6   6    0.64    2.26
   4   6   6    1.00    1.86
  -4  -6   6    5.98    4.32
  -6   4  -6    0.00    1.65
   6  -4   6   -2.03    2.05
   4   6  -6    2.92    2.56
  -6   4   6    2.59    2.71
  -6   4   6   -2.71    2.32
   4   6   6    1.33    2.89
   6  -4   6    1.66    2.60
  -4  -6   7    2.08    3.16
  -6   4   7    1.05    2.26
  -6   4  -7    2.78    2.59
   4   6   7    2.12    2.21
   4   6   7    2.61    3.77
  -6   4   7    1.74    4.31
   6  -4   7    0.08    1.95
   6  -4   7   -0.66    2.76
   4   6  -7    4.07    3.52
   6  -4   8   27.88    7.44
   4   6   8   18.20    5.89
   4   6   8   23.28    6.83
  -4  -6   8   19.65    6.54
   6  -4   8   11.66    4.62
   4   6  -8   14.86    4.57
  -6   4  -8   19.10    6.32
  -6   4   8   12.03    5.11
  -6   4   8   25.90    7.67
   4   6   9   64.74   12.37
  -6   4  -9   37.51    8.81
  -6   4   9   43.65   10.69
   6  -4   9   37.62    8.80
   6  -4   9   39.33    9.25
  -6   4  10   16.32    6.47
  -6   4  10   34.54   10.02
   4   6  10   51.02   11.41
   6  -4  10   25.42    7.73
   4   6  10   62.47   12.22
   6  -4  10   25.24    7.64
   4   6  11   57.67   13.36
  -6   4  11   29.81    9.62
  -4  -6  11   41.37   11.38
   6  -4  11   28.11    8.82
  -6   4  11   30.06    9.79
   6  -4  12   37.61   10.94
   4   6  12   23.63    8.05
   3   6   0    1.25    1.90
  -6   3   0    0.94    1.29
  -6   3   0    0.57    0.51
  -6   3   1   96.52    8.87
  -6   3  -1   93.03    8.19
  -6   3   1   86.56    5.52
   6  -3  -1   93.97    5.81
   3   6   1  100.53    6.83
   3   6  -1   83.55    8.57
  -6   3  -1   94.12    5.00
   3   6   1   94.45    9.18
   3   6  -1   95.87    5.78
   6  -3   2   74.82    5.77
  -6   3  -2   70.57    7.53
  -6   3  -2   79.98    5.95
   3   6   2   68.18    4.67
  -3  -6   2   67.21    7.78
   3   6  -2   58.60    7.38
  -6   3   2   79.86    8.34
   3   6   2   67.49    7.80
  -6   3   2   74.77    6.41
   6  -3  -2   82.43    6.65
   3   6   2   72.90    8.24
  -6   3  -3   17.03    3.80
   3   6  -3   20.30    4.51
  -6   3   3   19.31    4.01
   6  -3   3   20.01    3.75
  -3  -6   3   22.00    5.09
  -6   3   3   20.04    4.68
   3   6   3   17.64    4.35
  -3  -6  -3   15.48    2.25
   3   6   3   19.21    2.28
   3   6  -4   23.56    4.69
   3   6   4   18.24    5.37
   6  -3  -4   17.91    3.07
   3   6   4   16.88    5.06
   6  -3   4   12.31    3.24
  -3  -6  -4   17.87    2.55
  -6   3   4   20.62    5.04
  -6   3  -4   21.97    4.91
  -6   3   4   -0.51    1.68
  -3  -6   4   22.43    5.03
  -3  -6   5   35.97    7.47
   3   6  -5   26.64    5.30
   6  -3   5   35.69    6.28
  -6   3  -5   31.35    5.90
  -6   3   5   37.52    7.20
   3   6   5   33.16    6.54
  -3  -6  -5   33.37    3.85
  -6   3   5   27.45    6.04
   6  -3   5   32.27    6.75
  -6   3   6   75.44   11.29
   3   6  -6   77.71    9.12
  -6   3  -6   86.58   10.35
  -3  -6  -6   72.66    6.38
  -6   3   6   79.78   10.84
   6  -3   6   80.74   10.20
   3   6   6   71.94   10.35
   3   6   6   80.03   10.42
   3   6   6   59.52    9.92
  -3  -6   6   72.46   10.83
   3   6   7   27.04    7.35
   6  -3   7   39.08    8.13
  -6   3  -7   35.78    7.32
  -3  -6   7   21.04    6.44
   6  -3   7   33.53    7.49
  -6   3   7   39.44    8.26
   3   6  -7   33.30    6.37
  -6   3  -8    6.60    4.01
   6  -3   8   11.39    5.31
  -6   3   8    7.99    4.47
   6  -3   8   12.12    5.12
   3   6   8    7.95    4.99
   3   6  -8    8.41    3.28
   3   6   9   -1.46    3.17
  -6   3   9    7.31    4.63
  -6   3   9    0.33    3.11
   6  -3   9    0.20    2.48
  -6   3  -9    3.25    3.15
   6  -3   9    7.35    4.59
   3   6  10    3.62    2.03
   6  -3  10    5.74    4.68
  -6   3  10    0.81    1.80
  -6   3  11    1.96    4.09
   6  -3  11    0.45    3.75
  -6   3  11   16.36    7.20
   3   6  11    9.53    6.33
   6  -3  12    1.43    3.87
  -6   3  12    1.09    3.61
  -6   2   0  384.59   16.23
   2   6   0  334.05   16.87
   6  -2   0  377.53   13.38
   2   6   0  336.04   14.61
   2   6   1 1436.07   34.94
   2   6   1 1435.08   28.91
   6  -2  -1 1480.28   31.23
   6  -2   1 1444.40   20.23
  -6   2   1 1383.00   30.69
   6  -2  -1 1473.44   23.63
   2   6   1 1431.03   36.96
  -6   2  -1 1421.54   20.09
  -6   2  -1 1435.40   32.04
   2   6  -1 1454.28   35.71
  -6   2   1 1451.80   34.95
  -6   2   1 1445.13   23.27
   6  -2  -2  688.86   19.27
   2   6   2  658.07   16.65
  -6   2   2  637.40   23.86
  -6   2  -2  638.77   21.05
  -2  -6   2  671.11   24.70
   2   6   2  641.71   24.81
   2   6   2  627.56   23.85
   6  -2   2  655.83   16.79
   2   6  -2  639.63   22.96
  -2  -6  -2  663.14   17.48
  -6   2  -2  668.30   17.10
  -6   2   2  641.15   18.62
  -6   2   3  539.14   20.21
   2   6  -3  556.73   21.41
   6  -2   3  523.29   18.52
  -6   2  -3  526.11   19.83
  -2  -6  -3  573.72   15.87
   2   6   3  544.12   23.65
  -2  -6   3  567.38   24.23
   2   6   3  557.58   15.03
   6  -2   3  556.09   12.59
   6  -2   4  178.07   14.55
  -6   2   4  264.76   16.16
   2   6   4  292.22   18.43
   2   6   4  269.39   17.67
   2   6  -4  280.23   15.37
  -2  -6  -4  302.87   11.76
   6  -2   4  293.56   15.83
   6  -2  -4  280.10   10.29
  -2  -6   4  279.37   18.27
  -6   2  -4  286.80   15.49
   2   6  -5   28.77    5.45
  -6   2  -5   31.48    5.52
   6  -2   5   27.88    5.61
  -6   2   5   36.03    6.52
  -2  -6  -5   28.89    3.95
  -2  -6   5   27.13    6.37
   2   6   5   37.33    7.29
  -6   2   6    3.80    3.03
  -2  -6   6    2.83    2.88
   2   6  -6    2.71    2.27
   6  -2   6    5.61    3.69
   2   6   6    5.50    3.23
  -6   2  -6    2.10    2.46
   2   6   6    3.56    3.15
   6  -2  -6    1.20    0.83
   2   6   7   25.05    7.11
   6  -2   7   27.99    6.67
  -6   2  -7   30.82    6.58
  -6   2   7   24.85    6.97
   2   6  -7   23.14    5.00
   6  -2   7   26.46    6.90
  -2  -6   8   20.52    6.49
   2   6  -8   19.71    4.90
   6  -2   8   21.45    6.69
  -6   2  -8   12.66    4.41
  -6   2   8    8.42    4.11
  -2  -6   8   11.77    3.77
   6  -2   8   13.33    4.64
   2   6   8   17.61    6.32
   2   6   9  123.89   15.70
  -6   2   9   82.78   13.94
   2   6   9   88.27   14.54
  -2  -6   9  109.18   16.30
   6  -2   9  102.96   14.79
  -6   2  -9   77.73   11.43
  -2  -6  10   79.06   14.67
   2   6  10   79.31   14.66
  -6   2  10   77.26   14.21
   6  -2  10   80.94   13.36
   6  -2  10   85.62   14.73
   6  -2  11   69.83   12.94
   2   6  11   71.38   14.63
  -6   2  11   84.69   15.46
   6  -2  11   66.83   13.95
   6  -2  12   50.19   12.83
  -6   2  12   62.94   14.71
  -2  -6  12   55.96   14.11
   1   6   0    1.07    1.58
   1   6   0    1.56    2.94
  -6   1   0    1.72    1.73
  -6   1   1   38.74    5.35
  -6   1  -1   29.93    4.09
   6  -1  -1   32.31    2.88
   1   6   1   15.88    3.14
   6  -1   1   30.86    4.14
   1   6   1   18.51    4.30
   1   6  -1    9.85    2.83
   1   6   1   15.39    3.56
  -6   1   1   32.31    2.93
  -1  -6  -1   19.52    3.48
  -6   1   2   34.35    4.11
   6  -1   2   32.83    3.76
  -6   1  -2   29.73    4.14
   6  -1  -2   38.12    4.39
  -6   1  -2   45.73    4.18
   6  -1   2   43.56    4.96
   1   6  -2   20.43    4.22
  -1  -6   2   20.98    4.59
   1   6   2   21.81    4.45
  -6   1   2   34.02    4.84
   1   6   2   22.21    3.44
  -1  -6  -2   20.13    3.23
   1   6  -3  292.75   14.77
   6  -1   3  234.68   12.05
  -6   1  -3  249.13   12.25
   1   6   3  308.11   17.26
   6  -1   3  253.91    8.75
  -1  -6   3  278.33   16.68
   6  -1   3  265.12   12.94
  -1  -6  -3  289.36   12.16
   1   6   3  271.99   11.52
   6  -1   4    1.80    1.66
   1   6   4   -0.84    1.54
  -1  -6   4    0.96    1.99
  -1  -6  -4    1.67    1.12
   1   6   4    2.95    2.69
   6  -1   4    2.48    2.67
  -6   1   4    3.74    2.77
   1   6   4    1.70    2.66
   1   6  -4    0.75    1.01
  -6   1  -4    6.13    1.86
   6  -1   5    8.09    3.86
  -6   1   5    4.53    3.01
   6  -1   5    5.35    2.28
   1   6   5    2.01    2.39
   1   6   5    4.09    3.04
  -6   1  -5    8.36    2.66
   1   6  -5    5.69    2.88
  -1  -6   5    4.42    2.15
   6  -1  -5    9.87    1.61
  -1  -6   6    0.66    1.89
   1   6  -6    0.37    0.98
   1   6   6    2.90    3.13
  -6   1  -6    5.25    2.65
   6  -1   6    4.20    3.06
  -6   1   6    3.83    2.69
   1   6   6    0.68    2.87
   6  -1   7    8.37    3.70
   1   6   7    9.59    5.17
   1   6  -7    2.41    2.06
   1   6   7    1.81    3.14
  -6   1  -7    2.12    1.58
  -6   1  -8   14.10    4.72
   1   6   8    1.26    3.10
   1   6  -8    2.59    2.05
  -1  -6   8    3.62    2.49
  -1  -6   8    2.13    3.32
   6  -1   8   16.61    5.45
   6  -1   9   15.31    6.01
   1   6   9    3.13    2.46
  -1  -6   9    6.33    4.21
  -6   1  -9   22.64    6.50
   1   6   9   11.09    5.84
   6  -1   9   16.98    5.99
   1   6  10   -2.51    3.74
   6  -1  10    8.99    5.18
   1   6  10    4.93    4.30
   6  -1  10   11.07    5.83
  -1  -6  10    1.20    2.10
  -6   1  10    7.53    4.31
  -6   1  11   -0.08    4.64
   6  -1  11   -1.34    3.20
   1   6  11    2.63    3.38
   6  -1  12    5.77    5.42
  -6   1  12    3.43    3.73
   6   0   0  643.62   19.47
   0   6   0  799.44   25.31
   0   6   0  768.41   23.12
  -6   0   0  659.75   19.73
   6   0   0  672.84   20.95
   6   0   0  688.05   20.22
  -6   0  -1  515.81   15.84
   0  -6  -1  460.24   16.94
  -6   0   1  520.75   12.61
   0   6   1  416.85   17.92
  -6   0   1  483.79   15.15
   0   6  -1  446.76   18.45
  -6   0  -1  496.69   10.55
   6   0   1  494.26   10.23
   0   6  -1  435.48   18.90
   6   0   1  498.22   16.42
   6   0  -1  505.39   12.56
   6   0   1  517.20   16.03
   0   6   1  431.32   16.05
   0   6   2   91.35    8.84
   6   0   2  103.63    6.71
   6   0  -2   97.07    7.06
   0   6   2  101.20    7.38
   0  -6  -2  102.50    7.57
  -6   0  -2  108.58    6.62
  -6   0   2   93.57    6.88
   0   6  -2  100.43    8.38
   6   0   2  108.13    7.02
   6   0   2  100.75    6.28
  -6   0  -2  102.94    6.77
   0  -6   2   97.92    8.86
   6   0   3    2.10    1.28
   0   6   3    7.80    2.23
   0   6  -3    5.91    2.56
  -6   0  -3    2.10    1.42
   0   6   3    2.07    1.71
   0   6   3    1.26    1.53
   6   0   3    2.25    1.66
   0  -6   3    4.53    2.46
   0  -6  -3    5.05    1.88
   0   6   4   42.43    7.10
  -6   0  -4   34.89    3.13
   0  -6   4   35.87    6.32
   0   6  -4   33.20    4.97
   6   0   4   38.30    3.50
  -6   0   4   36.54    5.89
   6   0   4   32.17    5.31
  -6   0  -4   31.44    4.27
   0   6   4   33.52    5.99
   6   0   5    4.86    2.46
   0  -6   5    5.77    3.04
  -6   0  -5    5.21    1.71
   0   6   5   11.97    4.20
   0   6  -5    6.99    2.80
   6   0   5    7.29    2.91
  -6   0   5    6.02    3.31
  -6   0  -5    3.46    0.84
   0  -6   6   -0.66    1.92
   6   0   6    2.80    2.31
   0   6   6    1.98    3.80
  -6   0   6   -3.63    2.28
  -6   0  -6    1.81    1.69
   0   6  -6    2.46    1.90
   0   6   6   -0.10    2.00
   0   6   6    3.48    3.48
   6   0   7    6.82    4.08
  -6   0  -7    5.08    2.63
   0   6   7    1.24    2.50
   0   6   7    2.36    3.80
   0  -6   7    1.98    2.09
   0   6  -7    5.71    2.52
   0  -6   8    3.93    2.79
  -6   0   8   10.18    4.86
  -6   0  -8   11.91    4.40
   6   0   8    8.65    4.34
   0   6   8   12.00    5.05
   0   6   8    4.13    3.64
  -6   0   9    2.97    2.24
   0  -6   9    0.36    2.02
   0   6   9    5.06    4.37
   6   0   9   -0.29    2.73
  -6   0  10   12.44    6.04
   0   6  10    1.17    3.65
   6   0 -10    5.11    4.14
   0   6  11   19.86    8.06
  -6   0  11   11.84    5.47
   6   0  11    6.24    4.22
   6   0  11    8.86    5.43
   0  -6  11   19.35    7.31
   0   6  12   12.00    7.43
  -6   0  12    3.85    4.00
   6   0  12    9.18    5.17
   6   1   0    2.79    1.51
  -6  -1   0    2.01    0.89
  -1   6   0    0.77    1.76
   6   1   0    1.49    1.73
   6   1   0    0.53    0.76
   6   1   0    1.31    1.22
  -1   6  -1   13.17    3.15
   6   1   1   12.23    1.86
  -6  -1   1   10.98    2.06
  -6  -1  -1   11.11    2.19
   6   1   1   11.71    2.36
   6   1   1   12.37    2.38
   6   1  -1    7.95    2.38
  -1   6   1   17.80    3.77
  -6  -1  -1   12.25    2.77
  -1   6   1   12.02    3.02
   6   1  -1   11.84    2.09
   1  -6   2   75.07    7.87
  -1   6  -2   73.23    8.43
   6   1   2  117.37    7.68
  -1   6  -2   75.22    7.19
  -6  -1  -2  117.03    7.57
   1  -6   2   86.27    7.50
   6   1   2  125.10    6.72
  -6  -1  -2  117.82    7.29
   6   1  -2  114.85    5.04
  -1   6   2   75.05    6.82
  -6  -1  -2  122.13    6.53
   6   1   2  118.09    7.19
  -1   6   2   74.93    7.79
   6   1  -2  133.71    8.43
  -6  -1   2  107.63    7.64
  -6  -1  -3   30.76    3.70
  -1   6  -3   35.56    4.84
   6   1   3   27.30    3.53
  -1   6   3   39.79    6.02
   1  -6   3   40.66    6.27
  -1   6   3   35.29    4.91
  -6  -1   3   25.29    4.20
  -6  -1  -3   25.55    3.05
   6   1   3   26.87    4.18
   1  -6   3   41.13    4.78
   1  -6   4   52.96    5.48
   6   1   4   60.71    7.17
   6   1   4   71.62    5.82
  -6  -1   4   69.36    8.15
  -1   6   4   54.56    8.34
  -1   6   4   59.44    8.38
   1  -6   4   54.81    7.65
  -1   6  -4   58.70    6.03
  -6  -1  -4   65.69    5.05
  -6  -1  -4   70.41    5.74
   1  -6   5   -0.34    1.54
   1  -6   5    2.32    1.38
  -1   6  -5    3.13    1.95
  -1   6   5    3.26    2.40
   6   1   5    1.10    1.56
  -6  -1  -5   -0.21    0.86
  -6  -1  -5    1.08    0.71
  -6  -1   5   -2.81    2.46
  -6  -1   6    1.44    3.15
  -6  -1  -6    2.38    1.14
  -1   6  -6    6.62    2.26
  -1   6   6    6.70    4.12
  -6  -1  -6    1.84    1.72
   6   1   6    1.52    1.58
  -1   6   6    9.60    4.79
   6   1   7    7.38    4.37
  -6  -1   7   11.12    5.42
   1  -6   7   18.28    6.11
  -1   6  -7   19.66    3.72
  -1   6   7   17.90    6.01
   6   1   7    3.62    2.91
  -6  -1  -7    9.22    3.26
   6   1  -8    1.39    3.28
   1  -6   8   10.19    3.65
   1  -6   8    9.65    3.98
  -1   6   8   16.00    6.15
   6   1   8   -0.26    1.57
   6   1   8    0.47    2.83
  -6  -1  -8    1.35    1.44
  -6  -1   8    4.19    3.43
   6   1   9    8.91    4.77
   1  -6   9    4.26    3.06
  -6  -1   9   10.11    4.77
   6   1  -9   11.69    4.58
   1  -6   9    1.36    2.04
   1  -6  10    2.91    2.63
  -1   6  10   -0.60    3.02
  -6  -1  10    5.51    7.39
   6   1  10    9.95    6.64
   6   1  10    3.93    4.13
   6   1 -10    1.39    2.21
  -1   6  11    9.64    5.28
  -6  -1  11   -1.79    4.52
   1  -6  11    0.42    1.92
   6   1  11    6.02    4.47
   6   1  12    1.54    3.60
  -1   6  12    1.55    4.16
  -6  -1  12    2.87    3.96
  -2   6   0  240.91    8.68
   6   2   0  223.99   12.51
   6   2   0  226.89    8.93
  -6  -2   0  241.15   11.58
  -2   6   0  250.26   13.64
   6   2   0  208.72   10.77
   6   2   0  223.79   10.74
  -2   6  -1  190.08   12.80
  -2   6   1  187.39   11.53
   2  -6   1  197.48    6.93
   6   2  -1  220.85   12.90
  -2   6   1  195.49   11.65
   6   2  -1  209.36    9.52
   6   2   1  212.51    9.01
  -6  -2   1  225.78    9.95
   6   2   1  218.11   11.63
   6   2   1  212.96    8.88
  -6  -2   1  223.70    9.66
  -6  -2  -2  168.78    9.55
  -2   6  -2  169.19   12.89
  -6  -2   2  155.05    9.69
  -2   6   2  190.59   12.36
   2  -6   2  166.07   11.48
   6   2   2  161.93    9.74
   6   2  -2  157.08    6.40
   6   2  -2  159.80   11.59
   6   2   2  167.50    6.82
   2  -6   2  187.25   10.67
  -6  -2  -2  157.39    9.49
  -6  -2  -2  161.08    6.56
   6   2   2  157.81    9.05
  -2   6   2  188.85   11.58
   6   2   3  163.35   10.59
  -2   6   3  145.65   10.58
  -6  -2  -3  156.68    6.10
  -6  -2   3  158.82   11.18
   6   2   3  146.71    9.27
  -2   6  -3  139.64   12.59
  -2   6   3  143.63   11.63
   6   2  -3  151.41   11.96
   2  -6   3  148.90   11.70
  -2   6  -3  154.44    9.50
  -6  -2  -3  172.49    9.64
   2  -6   3  153.90    9.09
   2  -6   4   37.76    4.30
   6   2  -4   43.72    6.63
  -2   6   4   30.69    5.97
   6   2   4   46.17    6.41
  -2   6  -4   30.97    4.16
  -2   6   4   35.15    5.67
   2  -6   4   41.91    6.70
  -6  -2   4   46.51    6.99
  -2   6   4   40.19    7.03
  -6  -2  -4   46.19    3.80
   6   2   4   44.54    5.32
  -6  -2  -4   45.29    4.86
   6   2  -5   21.20    5.13
   2  -6   5   13.77    2.66
  -6  -2   5   22.72    5.60
   6   2   5   29.77    5.99
  -2   6   5   14.59    4.88
  -2   6  -5   16.43    3.15
   6   2   5   21.41    5.31
  -6  -2  -5   24.39    3.37
   2  -6   5   13.19    4.35
  -6  -2  -5   24.78    3.54
   6   2   6    5.89    3.73
  -2   6   6    4.70    3.23
  -6  -2   6   -0.40    1.93
  -6  -2  -6    0.54    1.29
  -2   6  -6    2.92    1.69
   6   2  -6   -1.19    2.80
  -6  -2  -6   -0.35    0.68
  -2   6   6    5.49    3.73
   6   2  -7    3.28    3.07
   2  -6   7    2.52    3.08
  -6  -2  -7    2.37    2.21
  -2   6   7    5.10    3.28
  -6  -2   7   -0.21    3.11
  -2   6  -7    1.21    1.02
   6   2   7    0.07    1.39
   2  -6   8   -2.02    2.10
   6   2  -8    1.24    1.68
   6   2   8    0.88    2.39
   2  -6   8    1.56    1.47
  -2   6   8    0.55    1.62
  -6  -2   8   -1.09    2.83
   2  -6   9   11.76    4.78
   6   2  -9   16.91    5.64
   2  -6   9   10.95    6.02
  -6  -2   9   11.43    5.52
  -2   6   9    9.36    5.01
   6   2   9   15.71    5.84
   2  -6  10    0.78    3.23
   6   2  10   18.78    6.57
   6   2  10   22.10    7.29
  -6  -2  10   30.49    9.12
  -2   6  10   11.27    5.69
   6   2  11    2.51    3.79
  -2   6  11    5.10    4.27
  -6  -2  11   11.91    6.96
   6   2  11    9.63    5.82
   2  -6  11   10.23    5.73
  -6  -2  12    4.51    3.70
  -2   6  12   -2.60    4.57
  -2   6  12    6.79    4.95
   6   3   0    0.06    1.20
  -3   6   0   -0.91    0.85
  -3   6   0    1.33    2.05
   6   3   0    0.16    1.98
   6   3   0    2.63    1.62
  -3   6   1  166.44   11.37
  -3   6   1  179.61   11.15
  -6  -3   1  192.74    9.47
   6   3   1  187.33    8.15
   3  -6   1  181.35    8.10
   6   3  -1  178.80    9.21
   6   3   1  172.94    9.23
   6   3  -1  190.01   10.02
  -3   6  -1  181.01   12.50
  -6  -3   1  175.26    9.78
   6   3   1  176.23   11.35
   6   3  -1  177.27   12.11
  -3   6   2   68.05    7.33
   3  -6   2   78.39    7.00
   6   3   2   53.63    3.29
   6   3  -2   58.57    7.30
  -6  -3   2   55.65    4.23
  -6  -3   2   53.31    6.22
  -3   6  -2   56.41    7.71
   6   3   2   53.55    5.69
   3  -6   2   78.65    7.89
  -3   6   2   68.08    7.43
   6   3   2   55.60    6.36
   3  -6   3  546.33   17.25
   3  -6   3  520.60   22.01
  -3   6  -3  518.43   24.32
  -6  -3   3  558.56   22.16
   6   3  -3  575.58   24.02
   6   3   3  573.92   16.16
   6   3   3  566.67   20.29
  -3   6   3  521.60   21.44
  -3   6   3  522.28   22.58
   6   3   3  575.28   21.28
   3  -6   4  119.36    7.11
  -3   6  -4  124.95   12.78
   6   3  -4   98.00   10.38
  -6  -3   4  115.20   11.21
  -3   6   4  113.51   11.58
   6   3   4  111.21   10.47
  -3   6   4  114.37   10.48
   6   3   4  112.84    9.03
   3  -6   4  131.85   11.82
   3  -6   5  190.19   15.70
   6   3  -5  222.06   16.08
   6   3   5  239.72   18.15
   6   3   5  234.96   16.69
   3  -6   5  204.52    8.75
  -6  -3  -5  228.98    8.68
  -3   6   5  217.48   17.15
  -6  -3   5  223.21   16.85
  -3   6   5  223.32   17.59
   6   3   6  112.70   12.72
  -6  -3   6  127.15   13.94
  -3   6   6  111.95   13.63
  -3   6   6  143.17   15.27
   6   3  -6  128.65   12.83
  -6  -3  -6  126.38    7.98
   6   3  -7   37.89    7.54
   3  -6   7   53.35   10.04
  -6  -3  -7   47.33    5.87
  -3   6   7   50.56    9.64
  -6  -3   7   40.94    8.88
  -3   6   8   55.23   10.74
   6   3  -8   50.64    8.63
  -6  -3   8   35.85    8.70
   6   3   8   42.44    9.42
   6   3   8   47.96    9.65
   3  -6   8   76.21   10.95
   3  -6   8   65.62   11.84
   3  -6   9   18.77    6.11
   6   3   9    9.24    4.67
   6   3   9    8.22    4.67
   6   3  -9    9.78    4.22
   3  -6   9   10.67    5.00
  -3   6   9   20.37    7.75
  -6  -3   9    8.01    4.47
   3  -6  10   31.91    9.12
   3  -6  10   35.33    8.06
   6   3  10   34.21    9.66
  -6  -3  10   32.33    9.00
  -3   6  10   29.54    9.19
   3  -6  11   13.30    7.07
  -3   6  11    8.07    4.95
   6   3  11    7.44    4.02
  -6  -3  11   10.00    6.04
   6   3  11    7.09    5.05
  -3   6  12    4.17    4.18
   6   3  12    0.55    2.22
  -6  -3  12    4.97    4.75
   6   4   0    1.57    1.75
   6   4   0    1.54    2.04
   6   4   0    3.21    1.44
  -4   6   0    5.94    2.77
   6   4   1  122.66    9.80
   6   4  -1  113.35    9.96
   6   4   1  124.93    8.70
  -6  -4   1  125.86    9.46
   6   4  -1  128.77    8.49
  -4   6  -1  117.47   10.50
  -4   6   1  121.20    9.13
  -4   6   1  121.59   10.05
   6   4   2  368.88   17.40
  -4   6   2  406.17   19.18
  -6  -4   2  400.56   17.58
   4  -6   2  427.13   16.71
   6   4   2  381.80   16.42
   6   4   2  374.98    8.48
  -6  -4   2  384.36   13.00
   6   4  -2  375.42   18.86
  -4   6   2  423.58   18.51
  -4   6  -2  410.83   20.66
   4  -6   2  399.58   17.48
  -6  -4   3   65.53    7.72
   4  -6   3   74.12    8.17
  -4   6  -3   75.75    9.20
   4  -6   3   79.32    6.47
   6   4   3   66.78    7.62
   6   4   3   68.41    7.63
  -4   6   3   79.04    8.75
  -4   6   3   68.94    8.09
   6   4   3   66.48    5.56
   6   4  -3   68.79    8.32
  -4   6   4    8.83    3.35
   6   4  -4    9.28    3.89
   6   4   4   -1.49    1.12
   6   4   4    2.35    1.82
  -4   6   4    5.76    3.25
  -6  -4   4    3.18    2.41
   4  -6   4    5.37    2.38
  -4   6  -4    5.13    3.64
   6   4   4    9.14    3.16
  -6  -4   4    7.24    1.27
   4  -6   4    4.18    1.40
  -6  -4   5   14.63    4.44
  -4   6   5   14.27    5.57
   6   4  -5    6.66    3.53
   4  -6   5   13.83    4.67
  -4   6   5   10.35    4.03
   6   4   5   -1.80    3.26
   4  -6   5    7.02    1.45
  -4   6  -5   12.12    4.25
   6   4   5    8.67    3.53
  -4   6  -6   -0.91    1.86
  -4   6   6   -0.95    1.91
   4  -6   6    4.83    3.60
  -6  -4   6    0.55    3.16
  -6  -4  -6    1.43    0.82
  -6  -4  -6    2.84    1.28
  -4   6   6    4.96    3.83
   6   4  -6    1.93    1.99
   6   4   6   10.17    5.12
   6   4   6    3.38    3.03
   6   4   7    6.37    3.23
   4  -6   7    3.52    2.85
   6   4  -7    2.53    2.77
  -4   6  -7    5.66    4.24
  -4   6   7    0.45    1.95
  -4   6   7    3.66    3.62
   6   4   7    0.20    1.82
  -6  -4   7    3.96    1.93
   4  -6   8   13.92    5.26
  -4   6  -8    2.69    3.32
  -4   6   8    2.29    2.53
   6   4  -8    3.08    2.72
   4  -6   8    5.47    2.62
  -6  -4   8    1.62    3.62
   4  -6   9    9.84    5.27
   6   4   9    6.68    4.03
   6   4   9    8.63    4.22
  -6  -4   9    7.48    5.14
  -4   6  -9   15.56    6.75
   6   4  -9    7.26    3.31
  -4   6   9   12.88    5.73
   6   4  10   26.95    7.74
  -4   6  10   45.25   11.37
  -6  -4  10   33.25    9.62
   6   4  10   26.76    8.54
  -4   6 -10   31.10    9.15
   4  -6  10   26.50    8.27
   4  -6  10   28.29    8.04
   6   4  10   26.58    8.48
   6   4  11   22.71    8.82
  -6  -4  11   16.88    7.96
   6   4  11   16.42    6.89
   6   4  11   25.45    8.55
  -4   6 -11   16.44    6.64
  -4   6  11   21.86    7.96
   4  -6  11   12.60    7.01
   6   4  12   21.78    8.83
   6   4  12   13.53    6.84
   6   4  12   11.84    6.08
  -5   6   0   -0.29    1.44
   6   5   0    3.30    1.97
  -5   6   0   -1.05    1.44
   6   5  -1  268.61   15.99
   6   5   1  249.72   13.44
  -6  -5   1  256.53   13.67
   6   5   1  261.79   15.51
  -5   6   1  283.73   16.49
  -5   6  -1  284.15   16.59
  -5   6   1  272.07   14.20
   6   5   1  254.12   15.19
  -5   6   1  285.20   13.79
   6   5   2  449.27   20.44
   5  -6   2  443.77   18.24
  -5   6   2  431.28   20.84
  -6  -5   2  441.31   15.59
  -6  -5  -2  429.40   13.08
   6   5   2  403.73    9.49
  -5   6   2  427.51   18.50
  -5   6  -2  435.11   21.37
  -6  -5   2  447.62   19.76
   6   5  -2  430.59   21.07
   6   5   2  419.75   18.61
  -5   6  -3  516.99   24.73
   5  -6   3  535.56   21.97
  -5   6   3  512.96   22.43
  -5   6   3  504.76   23.43
  -6  -5   3  552.46   23.90
  -6  -5   3  552.29   16.01
   6   5   3  542.90   23.00
   6   5   3  545.83   22.90
   6   5  -3  573.97   25.01
   5  -6   3  524.59   17.41
  -6  -5   4  363.19   20.87
   6   5  -4  381.34   20.86
   6   5   4  396.98   19.98
  -6  -5   4  365.99   11.86
   5  -6   4  360.78   19.49
  -5   6  -4  402.13   22.76
   5  -6   4  375.89   12.26
   6   5   4  395.76   16.84
  -5   6   4  396.05   21.41
   6   5   4  359.73   20.10
  -5   6   4  368.99   21.04
   6   5  -5  513.34   25.42
  -5   6   5  503.56   26.41
   6   5   5  547.66   26.86
  -6  -5   5  542.16   27.88
  -5   6  -5  500.08   26.92
   5  -6   5  537.64   26.34
   6   5   5  542.19   22.49
  -6  -5   6  284.87   21.41
  -5   6  -6  271.94   21.07
  -5   6   6  276.72   20.97
   6   5   6  288.45   22.07
   6   5   6  282.68   20.94
   5  -6   6  253.12   19.54
   6   5  -6  282.10   19.32
  -5   6   6  283.87   22.03
   6   5   7  166.28   17.16
  -5   6   7  195.20   18.98
   6   5  -7  174.04   15.86
  -5   6   7  178.75   18.64
   6   5   7  179.51   18.36
   6   5   7  163.86   15.00
  -5   6  -7  177.45   18.11
   5  -6   7  182.39   17.73
  -5   6  -8   86.71   12.94
   6   5   8  103.43   12.94
  -6  -5   8   94.07   14.38
   5  -6   8   99.52   13.32
   6   5   8   90.28   13.36
   6   5   8   97.91   14.14
  -5   6   8   88.68   13.92
   6   5  -8  106.83   12.71
   5  -6   8   79.80   12.53
   6   5   9   66.29   11.15
   6   5   9   62.24   11.89
   6   5  -9   54.13    9.77
  -5   6  -9   59.77   11.75
   5  -6   9   47.36   10.43
   6   5   9   63.45   12.24
  -6  -5   9   66.95   12.77
  -5   6   9   57.35   11.68
  -5   6  10   33.85    9.98
   6   5  10   43.73    9.86
  -5   6 -10   34.12    9.39
   5  -6  10   34.10    9.54
  -5   6  10   31.40    9.70
   6   5  10   43.90   10.74
   6   5  10   36.28    9.65
   5  -6  10   55.36   11.83
  -6  -5  10   36.77    9.69
  -5   6  11    9.33    8.06
  -5   6  11    3.91    4.54
   5  -6  11   11.44    5.95
   6   5  11    4.98    4.73
   6   5  11    6.43    4.95
   6   5  12   10.77    6.51
   6   6   0    5.48    3.28
  -6   6   0    6.45    2.53
   6   6   0    1.13    1.75
  -6   6   0    4.67    2.48
   6   6   1    3.87    2.25
   6   6  -1    2.27    1.92
  -6   6  -1    3.53    2.67
   6   6   1    4.51    2.84
  -6   6   1    3.84    2.15
   6   6   1    1.63    1.66
  -6   6  -1    1.28    1.58
  -6   6   1    3.18    2.40
  -6   6   1    2.04    1.48
  -6  -6  -2   70.75    5.77
   6   6  -2   76.52    9.07
  -6   6   2   79.88    9.46
   6  -6   2   83.87    7.73
   6   6   2   64.93    7.72
   6   6   2   69.76    4.46
   6   6   2   71.19    8.83
  -6  -6   2   64.11    7.83
  -6   6   2   77.86    7.77
  -6   6  -2   75.35    9.15
  -6   6  -3    1.44    2.23
   6   6  -3    3.04    2.91
  -6  -6   3    1.74    1.76
   6   6   3    1.72    2.05
  -6  -6   3   -0.24    0.68
   6   6   3    0.75    2.18
  -6   6   3    2.36    2.56
   6   6   3   -0.64    1.56
  -6   6   3   -0.77    1.28
   6  -6   3    1.79    1.77
  -6   6   4   10.20    3.65
   6  -6   4   11.58    3.96
  -6  -6   4   16.63    2.85
   6  -6   4    9.51    2.10
   6   6   4   24.70    4.25
   6   6  -4   21.36    4.81
  -6  -6   4   17.66    4.69
   6   6   4   20.75    4.91
  -6   6   4   16.85    4.98
   6   6   4   25.84    5.73
   6   6   4    5.57    3.43
  -6   6  -4   14.20    5.07
  -6   6  -5    6.55    4.65
   6   6   5   -0.54    1.15
   6  -6   5    0.69    1.12
   6   6   5    1.53    3.28
   6   6  -5    0.76    2.08
  -6   6   5    3.78    3.18
  -6   6   5    0.51    2.12
  -6  -6   5    1.39    1.76
   6   6   6   25.87    7.19
   6  -6   6    7.27    2.85
   6   6   6   20.44    4.86
   6   6   6   18.50    5.58
  -6   6  -6   15.50    5.47
  -6   6   6    7.72    3.62
  -6  -6   6   19.66    6.75
   6   6  -6   28.45    6.49
  -6   6   7    1.67    2.18
  -6   6  -7    4.52    4.07
   6   6   7    1.11    1.68
  -6  -6   7    2.33    3.34
   6   6   7    1.05    2.69
  -6   6   7    9.11    5.34
   6   6  -7    4.62    3.32
   6   6   7    6.27    4.61
   6  -6   8    3.15    2.93
  -6   6   8    6.58    5.11
   6   6   8    6.54    5.40
  -6   6   8    4.64    3.95
  -6   6  -8    2.43    2.94
   6   6  -8    2.23    3.49
   6  -6   8   -2.23    2.23
   6   6   8    1.89    3.26
  -6  -6   8    7.37    4.03
   6   6   9    5.90    4.87
  -6  -6   9    0.09    1.73
   6  -6   9    2.44    2.30
  -6   6  -9    0.64    3.22
   6   6   9   -0.14    2.17
   6   6  -9    1.38    1.28
  -6   6   9    1.33    1.95
  -6   6   9   -0.73    2.88
   6  -6  10   -1.04    3.74
  -6   6  10    4.13    4.51
  -6   6  10    4.98    5.08
  -6   6 -10    1.55    1.56
  -6  -6  10    1.93    2.61
   6   6  10    6.77    4.83
   6   6  10    1.43    3.52
   6  -6  10    0.60    4.19
  -6   6  11    5.82    3.95
   6  -6  11    3.57    2.92
  -6  -6  11   -1.84    2.84
   6   6  11    0.71    1.62
  -6   6  11   10.56    5.63
   6   6  11   -1.03    2.05
   6  -6  12   -0.53    2.01
  -7   6   0    1.29    2.06
  -7   6   0    1.31    1.53
   6   7   0    0.18    1.67
  -7   6   0   -1.13    2.24
  -7   6  -1   64.13    6.05
  -7   6   1   60.70    6.10
   6   7  -1   76.81    9.45
   6   7   1   70.64    8.86
   6   7   1   83.88    9.95
  -7   6   1   57.62    8.31
  -7   6  -1   50.28    7.62
  -7   6   1   63.65    7.78
   6   7  -2   79.19    9.61
   6   7   2   76.68    9.05
  -7   6   2   90.42    8.40
  -7   6   2   91.56   10.11
   6   7   2   72.25    9.43
  -7   6   2  102.20   11.14
   6   7   2   91.28    5.76
   7  -6   2  100.83    8.24
  -7   6  -2   83.56    9.87
  -6  -7   2   86.24    9.73
   6   7  -3   48.20    7.87
  -7   6   3   38.89    7.07
   6   7   3   56.40    8.46
  -7   6   3   47.03    6.62
  -7   6  -3   35.67    7.27
   6   7   3   43.14    6.95
   7  -6   3   40.70    5.81
  -6  -7   3   36.83    6.60
   7  -6   4   29.98    3.73
   6   7   4   31.69    6.55
  -7   6   4   36.73    7.53
  -7   6   4   24.12    5.33
   6   7   4   23.36    5.68
   6   7   4   21.59    6.03
  -7   6   4   27.86    6.38
  -6  -7   4   23.01    4.66
  -7   6  -4   32.43    6.58
   6   7  -4   32.54    6.63
  -6  -7   4   29.16    6.28
   6   7   5   30.22    6.69
  -7   6  -5   18.42    5.56
   6   7   5   26.05    5.08
   7  -6   5   20.42    5.15
  -7   6   5   26.33    6.18
  -6  -7   5   22.67    5.64
   6   7   5   22.32    6.80
   6   7  -5   20.14    5.41
  -7   6   5   20.67    6.04
   6   7   6   21.14    6.57
  -7   6  -6   20.10    5.96
  -6  -7   6   10.59    4.43
  -7   6   6   19.80    6.60
   6   7   6   13.13    5.00
   7  -6   6   15.71    4.67
   6   7  -6   10.34    4.14
  -7   6   6   29.55    7.13
   6   7  -7    3.90    3.06
  -7   6  -7    3.17    3.62
  -7   6   7    5.99    3.45
  -7   6   7    6.92    4.77
   7  -6   7    9.65    4.93
   6   7   7    4.58    1.56
  -6  -7   7   10.75    5.01
   6   7   7    9.57    5.42
   6   7  -8    9.18    4.58
  -6  -7   8    0.66    3.49
   7  -6   8   -0.87    3.77
   6   7   8    2.14    1.33
  -7   6  -8    4.41    5.04
   6   7   8    5.75    2.70
  -7   6   8    3.06    2.53
  -7   6   8   -0.47    3.13
   6   7   8    1.75    3.22
  -7   6   9    1.23    2.60
  -7   6  -9    4.75    3.80
   6   7   9   10.43    4.67
   6   7   9    1.66    2.15
  -6  -7   9    5.93    4.94
  -7   6   9   13.10    6.35
   7  -6   9   -1.45    2.17
   6   7  -9    1.50    3.39
  -7   6 -10    2.33    4.05
   6   7  10   -2.52    3.36
   7  -6  10    0.53    2.36
  -6  -7  10   -2.34    3.36
  -7   6  10   -2.41    3.19
  -7   6  11   -2.69    4.14
  -6  -7  11    5.18    3.89
   7  -6  11    0.67    2.43
   6   7  11   -0.38    1.93
   7  -6  12    0.53    3.53
   6   7  12   -2.65    5.05
  -7   5   0  247.98   14.84
  -7   5   0  268.08   11.00
   5   7   0  288.25   17.89
  -7   5   0  277.16   16.61
  -7   5  -1  328.17   12.27
   5   7   1  272.51   17.41
   5   7  -1  264.81   17.08
  -7   5   1  314.57   17.26
  -7   5  -1  304.20   17.51
  -7   5   1  309.06   17.92
  -7   5   1  304.17   12.66
   5   7   1  281.98   17.22
  -5  -7   2  254.14   12.59
   5   7   2  250.78   15.94
  -7   5  -2  226.84   11.43
  -7   5   2  226.87   15.99
  -7   5   2  228.63   12.49
  -7   5  -2  212.59   14.92
   5   7  -2  255.43   16.73
  -5  -7   2  240.44   15.94
   5   7   2  268.94   17.44
   7  -5   2  225.66   11.49
  -7   5   2  213.49   15.27
   5   7   2  242.25    9.59
   7  -5   3  291.99   14.83
  -7   5   3  224.95   16.19
  -7   5   3  284.74   15.72
  -5  -7   3  290.01   18.47
   5   7  -3  279.05   17.75
   5   7   3  281.60   18.51
   5   7   3  280.04   17.69
  -7   5  -3  280.74   17.66
  -7   5   3  288.30   18.76
   5   7   3  271.14    7.20
   5   7   4   98.36   11.44
  -7   5   4   98.25   11.47
   7  -5   4   95.15    9.50
   5   7  -4  105.30   11.21
  -7   5   4  106.50   10.80
  -7   5  -4   88.68   10.48
  -5  -7   4   95.75   11.36
   7  -5   4   93.70    5.73
   5   7  -5   18.51    5.01
   5   7   5   18.60    6.25
  -7   5   5   25.03    5.36
   5   7   5   23.70    5.06
   5   7   5   25.93    6.43
  -7   5  -5   21.64    5.23
  -7   5   6   28.70    7.40
  -7   5   6   29.06    7.05
  -5  -7   6   27.65    7.36
   5   7   6   23.56    6.49
  -7   5  -6   27.55    6.81
   5   7   6   20.25    5.75
   7  -5   6   23.15    5.66
   5   7   6   30.46    6.43
   5   7  -6   31.44    6.77
   5   7   7    0.86    2.08
  -7   5  -7    2.22    2.83
   5   7   7    8.45    5.28
   7  -5   7    0.46    4.16
   5   7  -7    0.94    1.71
  -5  -7   7   -0.31    1.57
   5   7   7    2.84    2.95
   7  -5   7    1.71    2.44
  -7   5   7   -2.48    1.96
  -7   5   8   46.91   10.32
   7  -5   8   48.67   10.01
   5   7  -8   49.90    8.77
   5   7   8   44.81    9.84
  -7   5  -8   38.77    8.25
  -5  -7   8   61.15   12.10
   7  -5   8   44.02    9.24
  -7   5   9   43.08   10.00
  -7   5  -9   56.37   10.76
   5   7   9   54.20   11.48
   7  -5   9   51.40   10.50
   5   7   9   48.32    9.85
   5   7   9   58.03   11.62
  -5  -7   9   56.44   12.39
   5   7  10   39.98    9.89
  -5  -7  10   45.97   11.34
   7  -5  10   27.95    8.12
  -7   5  10   26.14    8.46
  -5  -7  11   22.11    8.95
   5   7  11   30.48    9.77
   5   7  11   26.67    8.83
   7  -5  11   28.54    8.92
   5   7  11   21.03    7.14
   7  -5  12   17.94    7.55
  -7   4   0    0.32    1.64
  -7   4   0    0.93    0.60
   4   7   0    1.07    2.39
  -7   4   1   12.29    3.65
   4   7  -1    9.01    3.27
   4   7   1    8.24    3.40
   4   7   1    6.08    2.19
  -7   4   1    8.62    1.92
  -7   4   1   13.20    3.81
  -7   4  -1    8.80    3.26
  -4  -7   2   40.02    4.58
  -7   4  -2   24.64    4.81
  -4  -7   2   33.25    5.78
  -7   4   2   29.62    5.82
  -7   4   2   25.57    3.90
   4   7   2   34.83    5.90
   7  -4   2   30.77    3.90
  -7   4   2   24.93    5.03
   4   7   2   38.55    6.91
   4   7   2   34.24    3.71
   4   7  -2   28.07    5.60
   7  -4   3  165.46   10.51
  -7   4   3  172.73   14.22
  -7   4   3  172.76   13.63
  -4  -7   3  149.39   13.01
   4   7   3  149.89   13.00
  -4  -7   3  166.79   10.35
  -7   4   3  170.51   11.72
   4   7  -3  149.81   12.52
   4   7   3  152.60    6.42
  -7   4  -3  157.04   12.59
   4   7   3  151.46   12.92
  -7   4   4   84.93    9.35
  -4  -7  -4   69.88    4.36
  -4  -7   4   69.50    9.58
   4   7  -4   72.33    8.88
   7  -4   4   71.90    3.95
   7  -4   4   73.90    8.15
   4   7   4   71.03    9.74
  -7   4  -4   72.05    8.98
  -7   4   4   74.75    9.89
   4   7   5    4.79    3.58
  -7   4  -5   10.58    4.16
  -7   4   5   12.08    4.62
  -4  -7  -5    4.69    1.34
  -4  -7   5    3.06    2.61
   4   7   5    7.86    3.53
   7  -4   5   11.78    3.84
   4   7  -5    4.46    3.67
  -4  -7   6    7.80    4.94
   7  -4   6   14.78    4.29
   4   7   6    2.67    3.83
  -7   4  -6   18.37    5.23
   7  -4   6   10.51    3.71
   4   7   6    8.45    3.92
   4   7   6    3.19    2.64
   4   7  -6    9.48    3.30
  -7   4   6   13.42    4.70
   7  -4   7   32.89    7.52
  -7   4   7   43.60    8.86
  -4  -7   7   27.84    7.80
   7  -4   7   38.76    8.40
  -7   4  -7   42.25    8.72
   4   7   7   20.58    6.29
  -7   4   7   31.20    8.03
   4   7   7   24.06    7.46
   4   7  -7   19.48    5.20
   4   7  -8    4.91    2.64
  -7   4   8   12.63    5.72
   4   7   8    2.63    2.98
  -4  -7   8    0.66    2.16
   7  -4   8   21.95    7.12
  -7   4  -8   13.86    5.25
  -7   4   8   17.98    6.60
   4   7   8    1.90    1.79
   7  -4   8   23.04    6.98
   7  -4   9    3.18    2.46
  -4  -7   9    3.46    3.83
  -7   4   9    4.39    3.46
   4   7   9    0.23    2.83
  -7   4  -9   11.94    4.77
   4   7   9    3.03    3.76
  -7   4   9   12.82    6.27
   7  -4   9    3.43    2.39
   7  -4  10    1.94    3.42
  -7   4  10    2.36    4.05
   4   7  10    4.69    3.52
   7  -4  10    9.01    4.93
   4   7  10    0.92    2.54
  -4  -7  10    2.34    2.26
   7  -4  11    7.58    5.43
  -4  -7  11    0.68    3.44
   4   7  11    0.59    2.16
   4   7  11    5.70    4.75
   7  -4  12    1.51    2.74
  -7   3   0   16.70    1.80
  -7   3   0   16.05    1.75
  -7   3   0   19.67    4.15
   3   7   0   29.44    6.24
   3   7   1    9.56    2.74
   7  -3  -1    7.33    1.55
   3   7   1    7.28    2.80
  -7   3   1    6.87    3.04
  -7   3  -1    5.30    1.23
  -7   3   1    5.23    1.36
   3   7  -1    7.72    3.56
   3   7  -1    9.19    1.93
  -7   3  -1    4.75    2.34
  -7   3   2   15.17    4.15
   7  -3   2   16.66    2.68
   7  -3  -2   15.76    2.94
  -7   3  -2   15.74    2.66
   3   7   2   12.96    4.13
   3   7   2   15.26    4.11
   3   7   2   13.97    2.38
  -7   3  -2   15.67    3.95
  -7   3   2   12.98    2.61
   3   7  -2   14.66    3.74
  -3  -7   2   12.57    3.96
   3   7   3    1.34    1.41
   7  -3   3    1.69    1.38
  -7   3   3    2.72    2.02
  -3  -7   3    2.64    1.68
  -7   3  -3    2.13    2.03
   3   7  -3    2.81    2.61
  -3  -7  -3    2.21    1.30
  -7   3   3    1.76    1.49
   3   7   3    0.77    0.86
   3   7   3    2.20    2.72
   3   7   4    0.47    2.89
   3   7  -4    3.03    2.40
  -7   3  -4    1.48    1.33
  -7   3   4    1.34    2.21
  -3  -7  -4    0.63    0.88
   7  -3   4    3.90    1.93
  -3  -7   4    0.54    2.57
   3   7  -5   11.77    3.63
  -7   3   5   17.79    5.90
  -3  -7   5   11.33    4.53
   7  -3   5   18.47    5.13
   7  -3  -5   15.48    2.97
  -3  -7  -5    6.60    1.80
  -7   3  -5   20.50    4.91
   3   7   5   11.09    4.30
   3   7   5    9.96    4.28
  -7   3   5    8.71    3.09
   7  -3   5   11.88    3.81
   3   7   6    0.92    1.70
   7  -3   6    2.77    4.17
  -3  -7   6    4.26    3.18
  -7   3   6    0.18    2.08
  -7   3  -6    0.91    2.07
  -3  -7  -6    2.04    1.59
   3   7  -6   -0.39    1.13
   7  -3   6    0.95    2.32
  -7   3   6   -0.49    1.97
   7  -3   7   -1.24    1.76
  -7   3  -7    3.18    2.35
  -7   3   7    2.65    3.30
   3   7  -7    5.14    2.71
   3   7   7    4.24    3.55
  -3  -7   7   12.69    5.52
   7  -3   7    7.40    3.78
  -7   3   8    6.32    4.55
   7  -3   8    6.48    4.20
   3   7   8    1.28    2.48
   3   7   8    2.12    3.78
   7  -3   8    4.03    3.28
   3   7  -8    1.72    2.57
  -3  -7   8    0.66    3.29
  -7   3  -8    0.36    2.55
   3   7   8    1.09    2.38
  -3  -7   9    6.77    4.43
   3   7   9    1.51    3.25
  -7   3  -9    2.96    3.08
  -7   3   9    5.37    5.06
   7  -3   9    0.06    1.72
   7  -3   9    1.96    2.58
   3   7   9    3.47    3.38
   3   7   9    3.64    4.38
  -7   3  10   -2.43    3.84
   3   7  10    7.42    4.32
   7  -3  10    2.41    1.52
  -3  -7  10    7.56    5.32
   7  -3  11    8.25    5.47
   7  -3  11   11.14    5.52
  -3  -7  11    5.30    3.39
   3   7  11    7.00    5.48
  -7   3  11   -1.65    2.24
   3   7  11   -2.02    2.04
   3   7  11    8.30    5.91
  -7   3  12    5.22    6.24
   7  -3  12   -1.56    3.55
   3   7  12    6.52    4.99
   2   7   0   -0.06    2.07
   2   7   0   -1.38    2.43
  -7   2   0   -0.67    1.88
   7  -2   0    1.21    1.23
   2   7   1   15.33    3.09
  -7   2   1   24.64    4.84
  -7   2   1   23.54    2.61
   2   7   1   19.73    4.99
   2   7  -1   18.08    4.52
  -7   2  -1   24.01    4.03
   7  -2  -1   24.04    2.61
  -7   2  -2    3.69    1.88
  -2  -7   2    3.73    2.73
   7  -2   2    1.48    0.82
  -7   2  -2    1.35    0.88
   7  -2  -2    1.02    0.70
   2   7   2    2.43    2.74
   2   7   2    6.13    3.43
  -7   2   2   -0.27    0.80
   2   7   2    2.84    1.07
  -7   2   2    3.97    2.14
   2   7  -2    5.45    3.14
  -2  -7  -2    3.53    1.46
  -2  -7  -3   55.45    5.34
  -2  -7   3   48.71    7.26
   2   7  -3   56.96    7.26
  -7   2  -3   69.00    7.22
   2   7   3   53.62    4.95
   7  -2   3   62.73    6.12
  -7   2   3   59.15    6.60
   2   7   3   57.59    7.93
   7  -2   3   61.01    4.71
   2   7   4    5.27    2.87
   7  -2   4    4.07    0.93
   2   7  -4    6.24    2.77
   7  -2   4    5.76    2.53
  -2  -7   4   -1.54    2.48
   7  -2   4    0.12    2.27
   2   7   4    6.08    2.68
  -7   2   4    4.99    2.74
  -2  -7  -4    4.37    1.72
  -7   2  -4    4.39    2.18
   2   7   4    0.71    2.26
   7  -2  -4    7.25    1.82
  -2  -7   5  179.33   16.27
   2   7  -5  195.22   13.82
   7  -2   5  163.92   13.22
  -2  -7  -5  198.19   10.79
  -7   2  -5  165.44   12.75
   2   7   5  195.24   16.52
   2   7   5  191.27   16.66
   7  -2   5  189.23   16.15
  -7   2   5  162.48   14.21
   7  -2  -6   47.44    4.19
   2   7  -6   76.18    8.82
  -7   2  -6   48.06    7.32
  -2  -7   6   64.54   10.36
   7  -2   6   42.41    8.38
  -7   2   6   48.40    8.75
   2   7   6   64.50   10.49
   7  -2   6   42.35    7.64
   7  -2   7   49.31    8.97
   7  -2   7   51.77    9.74
  -7   2  -7   49.53    8.10
  -2  -7   7   77.11   12.23
  -7   2   7   57.45   10.31
   2   7  -7   77.26    9.22
   2   7   7   63.15   11.32
   2   7   7   74.23   11.16
   2   7   8  115.08   15.72
   7  -2   8   96.02   13.40
  -7   2  -8   76.73   10.55
   2   7   8  109.82   14.49
   2   7  -8  117.32   11.63
  -2  -7   8  131.15   16.91
  -2  -7   8  123.24   11.71
   2   7   9    9.65    4.88
  -2  -7   9    8.09    4.54
   2   7   9   14.09    6.24
   7  -2   9    3.00    3.84
   2   7   9   12.35    5.08
   2   7  10   12.71    6.16
   2   7  10    4.25    7.53
   7  -2  10    3.33    3.12
   7  -2  10   11.33    5.46
  -2  -7  10   15.39    6.41
   2   7  10   16.22    6.04
  -7   2  11    5.64    5.00
  -7   2  11    3.05    5.30
   7  -2  11    2.52    3.89
   7  -2  11    1.03    2.33
   2   7  11    4.48    4.18
  -2  -7  11    7.19    4.69
   2   7  11    0.10    2.35
   7  -2  12    3.65    3.67
   2   7  12   -2.17    3.05
  -7   2  12    1.98    3.31
   1   7   0  581.51   23.88
  -7   1   0  643.58   21.73
   1   7   0  604.49   21.80
   7  -1   0  641.57   16.63
   1   7   1    6.43    2.44
  -1  -7  -1    8.93    2.72
  -7   1   1    6.66    1.30
  -7   1  -1    6.96    2.10
   1   7  -1    8.37    2.99
  -7   1   1    6.53    2.70
   7  -1  -1    5.22    1.21
   1   7  -1    6.33    2.76
   1   7   2    4.84    1.46
  -1  -7   2    0.63    2.05
   7  -1   2    1.14    0.95
   7  -1  -2    2.49    1.61
  -7   1   2    3.69    1.88
   1   7  -2    6.82    2.64
  -7   1  -2    5.55    2.17
  -7   1  -2    1.90    1.05
  -1  -7  -2    4.41    2.09
   1   7   2    8.01    2.97
   1   7  -3    4.79    2.52
   1   7   3    2.25    1.78
  -7   1   3    5.28    1.91
  -1  -7  -3    1.71    1.43
  -7   1  -3    1.13    0.96
   7  -1   3    4.56    1.56
   1   7   3    1.79    2.19
  -1  -7   3    3.07    2.98
   7  -1   3    5.55    2.22
   7  -1   4    2.96    2.21
   1   7   4    9.95    3.52
   1   7   4   12.55    4.67
  -7   1   4    0.27    1.43
  -1  -7  -4    7.91    2.25
   1   7   4    5.29    2.10
  -1  -7   4    3.32    2.59
   7  -1  -4    1.85    0.75
   7  -1   4    2.59    0.98
  -7   1  -4    1.62    1.68
   7  -1   4    2.18    1.66
   1   7  -4    5.82    3.10
   1   7   5    2.44    3.59
  -1  -7   5    1.15    2.50
   1   7  -5    3.42    2.12
  -7   1  -5    5.49    2.56
   7  -1   5    7.47    2.87
  -7   1   5    8.24    2.98
   7  -1   5    5.80    2.25
  -7   1   6    7.89    3.75
  -7   1  -6    9.11    3.21
   1   7   6    9.25    4.22
   1   7  -6    6.33    2.76
   7  -1   6    6.11    3.55
   7  -1   6    5.30    2.33
   1   7   6   13.00    5.35
  -1  -7   6    7.54    4.26
   1   7   6    6.10    3.71
   1   7   7    2.13    3.94
   1   7   7   11.25    4.72
   1   7   7    6.55    4.05
  -7   1  -7    1.78    2.00
  -1  -7   7    2.87    2.76
   1   7  -7    3.53    3.03
  -1  -7   8    0.89    1.59
   1   7   8   10.80    4.59
   1   7   8   12.47    5.34
  -7   1  -8    9.48    3.94
   1   7   8   12.06    5.29
  -1  -7   8   11.50    4.94
   7  -1   9    3.47    3.81
   1   7   9   -2.52    3.81
   1   7   9    4.78    3.74
  -1  -7   9    8.18    4.24
   1   7   9    2.55    2.69
  -7   1   9    8.49    5.89
   1   7  10    0.94    3.16
   1   7  10    0.36    1.54
   7  -1  10    1.76    1.64
   7  -1  10   -0.43    3.09
  -1  -7  10   -0.24    2.63
  -7   1  11   12.75    6.29
  -1  -7  11    1.37    3.44
   7  -1  11    7.93    5.89
   1   7  11    5.11    3.54
   7  -1  11   11.74    5.32
   1   7  11    2.06    2.15
   1   7  12    3.31    3.61
  -7   1  12   14.34    7.36
   7  -1  12    2.83    4.89
   0   7   0    1.47    1.35
   0   7   0   -0.79    2.03
  -7   0   0    0.81    1.76
   7   0   0    0.87    1.35
   7   0   0    2.71    1.31
  -7   0  -1    1.15    0.81
   7   0  -1   -0.55    0.77
   7   0   1    0.19    1.10
   7   0   1    2.28    1.73
  -7   0   1    1.06    0.59
   7   0   1    1.03    0.58
   7   0  -1   -1.15    0.88
   0   7   1    0.08    1.72
   0   7  -1    1.25    2.38
   0   7   1    0.26    1.83
   0   7  -1    2.45    2.56
   7   0   1    2.73    1.99
   7   0   2  199.14   10.38
   0   7   2  173.01   10.40
   7   0  -2  204.51   10.23
  -7   0  -2  192.81   10.02
   0   7  -2  174.73   12.12
   0  -7   2  193.23   13.37
  -7   0   2  198.52   10.16
  -7   0  -2  199.11    8.93
   0   7   2  178.80   13.16
   7   0   2  199.25   10.37
   7   0  -2  188.50    8.03
   7   0   2  182.39    8.49
   0   7   3  463.68   22.56
   7   0   3  440.68   14.44
   0  -7   3  480.09   22.95
   0   7  -3  499.82   20.23
  -7   0  -3  422.92   15.45
   7   0  -3  426.39    9.38
   0   7   3  477.26   17.69
   7   0   3  446.82   16.09
  -7   0   3  438.65   18.26
   7   0   3  468.38   17.21
  -7   0  -4  585.08   19.19
  -7   0   4  585.71   24.17
   0   7  -4  610.14   22.51
   0   7   4  580.96   27.07
   0  -7   4  596.12   27.26
   0   7   4  606.09   26.44
   7   0   4  601.38   15.93
   0   7   4  569.03   20.49
   7   0   4  601.20   22.99
   0   7  -5  512.61   20.68
   0  -7   5  470.43   26.06
   0   7   5  487.55   26.71
  -7   0  -5  497.62   19.13
   7   0   5  521.93   24.02
   7   0   5  492.54   26.51
  -7   0   5  491.41   24.57
   0   7   6  412.65   26.03
   0   7   6  387.21   24.44
   7   0   6  389.24   24.93
  -7   0   6  384.15   24.11
  -7   0  -6  394.44   18.63
   0  -7   6  350.27   24.23
   0   7  -6  420.94   18.95
   0   7   7  233.34   21.04
   0  -7   7  232.65   20.88
  -7   0   7  280.37   22.16
   0   7  -7  286.41   15.80
   0   7   7  232.84   20.16
   7   0   7  234.26   19.20
  -7   0  -7  229.59   15.47
  -7   0  -8  280.68   18.36
   0   7   8  257.46   23.60
   0  -7   8  293.15   19.95
   0   7   8  286.39   24.13
  -7   0   8  276.98   23.85
   0  -7   8  292.48   25.07
   0   7   9  124.93   16.91
   0  -7   9  113.53   16.21
   7   0  -9  109.80   14.10
  -7   0   9   94.47   14.90
   0  -7   9  109.57   12.66
   0   7   9   95.77   15.37
   7   0 -10   30.60    7.79
   0   7  10   41.20   10.12
   7   0  10   19.64    6.85
   0   7  10   23.26    7.63
   0  -7  10   30.77    9.23
   7   0  10   26.28    8.54
  -7   0  10   22.53    7.68
   7   0  11    6.76    4.41
   0   7  11    5.53    5.74
  -7   0  11   17.73    7.17
   0  -7  11   16.59    7.05
   0   7  11   14.97    6.65
  -7   0  12    8.25    5.91
   7   0  12    3.77    3.02
   7   0  12    4.83    4.65
   0   7  12   -1.42    1.89
   0  -7  12    0.02    4.03
  -1   7   0   10.67    3.54
   7   1   0    2.97    2.09
   7   1   0    4.56    2.36
   7   1   0    2.79    0.95
  -1   7  -1   26.22    4.98
   7   1   1   28.33    4.91
  -1   7   1   31.43    4.90
   7   1   1   31.51    3.97
  -7  -1   1   34.54    3.61
   7   1  -1   34.32    4.02
  -1   7  -1   33.24    5.61
  -7  -1  -1   26.58    3.73
   7   1  -1   30.41    3.23
   7   1   1   28.90    2.80
  -1   7   1   30.65    5.22
   7   1   1   26.40    4.32
   7   1  -1   34.27    5.40
   7   1  -2    5.28    2.80
  -7  -1   2    0.75    0.95
  -7  -1  -2    2.84    1.77
   7   1   2    1.69    1.23
   7   1   2    1.81    1.49
  -7  -1  -2    3.58    1.52
   1  -7   2    0.39    1.20
  -1   7  -2    2.00    1.95
  -1   7  -2    0.67    1.96
  -7  -1  -2    0.77    0.64
  -1   7   2    0.87    1.71
  -1   7   2    1.36    2.00
   7   1   2    3.03    1.55
  -7  -1  -3   18.02    3.01
  -1   7   3    3.78    1.99
  -1   7   3    6.45    2.72
  -7  -1  -3   18.94    2.87
   7   1   3   16.55    2.67
   7   1   3   17.16    3.17
   1  -7   3   11.47    3.99
  -7  -1   3   21.60    5.00
  -1   7  -3   12.14    3.44
  -7  -1   3   19.44    3.82
   7   1   3   20.69    3.77
  -7  -1   4    2.26    1.80
   7   1   4    0.64    1.69
  -7  -1  -4    1.74    1.18
   1  -7   4    1.33    2.55
  -1   7  -4    2.40    1.56
  -1   7   4    0.54    2.04
  -1   7   4   -1.32    1.77
   7   1   4    0.04    1.27
  -7  -1  -4    0.28    0.86
  -1   7   4    1.64    1.85
   7   1   4    3.35    2.64
  -7  -1  -5    3.56    1.27
   1  -7   5   12.69    4.47
  -7  -1   5    2.74    2.57
   7   1   5    4.90    2.80
   7   1   5    2.68    2.09
  -7  -1  -5    3.65    1.92
  -1   7  -5    8.17    2.96
   7   1   6    0.72    2.27
  -1   7  -6    8.64    2.67
  -7  -1  -6    4.40    1.19
   1  -7   6    7.48    4.29
  -1   7   6   12.87    4.80
  -7  -1  -6    1.69    1.69
  -7  -1   6    6.42    3.78
  -1   7   6   15.14    5.16
   7   1  -7    6.74    3.63
  -7  -1   7    3.96    2.08
   1  -7   7    4.98    3.58
  -1   7   7    3.49    2.58
  -1   7   7    9.51    4.84
  -1   7  -7    5.34    2.48
   7   1   7    6.22    3.94
  -7  -1  -7    5.25    2.68
   7   1   7    7.79    3.19
   1  -7   8   -4.01    3.87
  -1   7   8   -1.80    4.14
   7   1   8    2.20    2.42
   1  -7   8    1.95    1.88
  -7  -1   8    5.65    4.31
   7   1  -8    2.13    2.42
  -1   7   8    7.56    4.94
   7   1   8    2.17    2.55
  -1   7   9    1.68    3.78
   1  -7   9    3.60    2.35
  -7  -1   9   10.10    5.44
   1  -7   9    2.40    3.16
   7   1  -9    4.55    3.51
  -1   7   9    3.43    4.14
   7   1   9    0.35    2.67
   7   1   9   -1.59    3.28
   1  -7  10    2.59    3.22
  -1   7  10    8.49    5.22
   7   1 -10   -0.03    2.53
  -7  -1  10    3.47    3.54
  -1   7  10   -3.00    3.66
  -7  -1  11    5.28    3.91
   7   1  11    2.78    4.07
   1  -7  11    0.85    2.80
  -1   7  11    0.79    2.25
  -1   7  11    4.63    5.47
   7   1  12   -0.97    3.65
  -1   7  12   -0.30    2.84
   1  -7  12   -3.00    4.82
  -7  -1  12   -2.35    2.30
   7   2   0    1.95    1.23
   7   2   0    0.73    1.44
  -2   7   0   -0.19    2.30
  -7  -2   1   25.04    3.43
   7   2   1   23.97    3.10
  -7  -2   1   23.56    3.37
   7   2  -1   25.06    3.57
   7   2  -1   24.65    3.32
   7   2  -1   15.93    3.45
  -2   7  -1   20.73    4.82
   7   2   1   22.42    3.20
  -2   7   1   19.40    3.95
   7   2   1   25.70    4.42
  -2   7   1   24.12    4.46
   7   2  -2   23.91    2.91
   7   2   2   24.99    3.07
   7   2   2   17.60    3.81
  -2   7   2   20.89    4.66
  -7  -2  -2   24.62    3.64
   2  -7   2   24.96    5.09
   7   2  -2   16.29    4.12
   7   2   2   23.12    3.58
  -2   7  -2   22.74    5.15
  -7  -2  -2   20.68    2.67
  -7  -2   2   17.44    3.24
  -2   7   2   28.65    4.86
  -7  -2  -3  212.28   11.37
   7   2   3  217.23   12.38
   7   2   3  207.28    8.32
   2  -7   3  199.47   14.30
  -7  -2   3  205.89   14.67
   7   2   3  205.68   11.55
  -7  -2  -3  210.12    7.89
  -2   7  -3  201.06   12.18
  -2   7   3  202.35   14.62
  -7  -2   3  215.47   13.16
   7   2  -3  203.15   14.57
  -2   7   3  214.04   13.22
  -2   7  -3  213.14   16.34
   2  -7   4  181.60   14.68
  -7  -2  -4  215.02    8.40
  -7  -2  -4  227.52   11.40
  -2   7  -4  197.49   11.60
  -2   7   4  197.95   15.82
  -2   7   4  212.27   16.26
   7   2   4  204.89   11.52
  -7  -2   4  221.32   15.07
   7   2   4  235.31   14.56
  -2   7   4  196.08   13.36
   7   2  -4  220.87   16.10
  -7  -2  -5  313.07   11.72
  -2   7   5  288.09   20.29
   7   2   5  303.36   18.61
   2  -7   5  302.96   13.20
  -2   7  -5  335.66   15.01
  -7  -2  -5  305.54   12.96
   7   2   5  288.64   20.41
   2  -7   5  288.71   20.17
   7   2  -5  273.50   18.67
  -7  -2   5  304.88   19.74
  -2   7  -6  205.62   11.37
  -2   7   6  177.05   17.10
  -7  -2  -6  187.67   10.42
  -7  -2  -6  172.94    9.42
   7   2  -6  190.95   16.47
  -7  -2   6  172.29   16.35
   2  -7   6  192.39   17.52
  -2   7  -7  195.85   10.85
   7   2   7  177.29   17.14
  -2   7   7  178.70   18.49
   7   2   7  173.48   17.76
   7   2  -7  194.01   17.07
  -7  -2   7  171.90   17.46
   2  -7   7  185.45   18.54
  -7  -2  -7  194.15   12.02
  -7  -2   8  137.99   16.96
   7   2   8  152.55   17.40
   2  -7   8  170.56   16.20
  -2   7   8  182.72   19.47
   7   2  -8  149.55   15.80
   2  -7   8  162.19   18.43
   7   2   8  145.39   16.73
  -2   7   8  170.58   19.12
  -7  -2   9   52.03   10.97
   7   2   9   43.63    9.72
   2  -7   9   52.44    9.42
  -2   7   9   39.48    9.94
   7   2  -9   43.54    9.07
  -2   7   9   63.50   12.56
   2  -7   9   36.29    9.43
   2  -7  10   31.27    9.36
  -7  -2  10   18.56    7.43
   7   2  10   14.99    6.07
  -2   7  10   23.47    8.47
   7   2  10   22.38    7.44
  -2   7  10   29.14    9.32
   7   2 -10   23.03    6.88
   2  -7  11   10.53    5.10
   7   2  11   13.88    7.28
  -2   7  11   10.46    6.25
  -7  -2  11   10.80    5.99
  -2   7  11   12.57    6.91
   7   2  12    7.10    3.51
  -7  -2  12    3.29    4.72
   2  -7  12    8.11    6.57
  -2   7  12    1.71    3.67
   7   3   0  186.03   12.62
   7   3   0  189.47    9.52
  -3   7   0  179.12   12.94
  -3   7   0  189.28    8.84
   7   3  -1   81.78    8.63
   7   3   1   76.61    7.77
   3  -7   1   92.79    5.64
  -3   7   1   95.80    9.29
  -7  -3   1   77.05    6.61
  -3   7  -1   80.03    8.88
   7   3   1   78.18    5.81
  -7  -3   1   82.01    6.63
   7   3  -1   77.96    6.57
   7   3  -1   85.36    6.76
   7   3   1   78.45    6.32
  -3   7   1   80.56    8.13
  -7  -3   2   24.70    4.03
   3  -7   2   12.09    3.12
  -3   7   2   13.47    4.09
  -3   7   2   17.36    4.03
   7   3  -2   15.74    3.84
  -7  -3   2   24.28    2.98
   7   3   2   29.59    4.28
  -3   7  -2    8.85    2.80
   7   3   2   26.27    2.75
   7   3  -2   23.61    3.06
   7   3   2   23.59    4.06
  -3   7   3   12.51    4.07
   7   3  -3   22.63    4.82
  -7  -3   3   16.44    3.97
   7   3   3   21.00    4.14
  -3   7  -3   16.40    5.06
  -7  -3   3   18.41    4.18
   7   3   3   24.65    4.49
   3  -7   3   10.34    3.50
  -3   7   3   11.36    3.55
  -3   7   4   25.58    5.28
   7   3  -4   34.47    6.87
  -3   7   4   23.60    5.66
   7   3   4   31.09    4.78
  -3   7   4   18.36    5.08
  -3   7  -4   29.52    6.31
   3  -7   4   19.82    3.29
   3  -7   4   19.05    5.07
   7   3   4   29.92    5.53
   7   3  -5   23.75    6.17
  -3   7   5    6.08    3.17
   7   3   5   16.71    4.56
  -7  -3  -5   21.78    2.35
   3  -7   5    8.63    3.52
   3  -7   5    4.89    1.57
  -3   7  -5   10.63    4.43
  -7  -3   5   19.25    5.44
  -7  -3  -6    7.89    1.82
   7   3  -6    4.78    2.62
   3  -7   6    1.00    2.40
   7   3   6   11.00    4.27
   7   3   6    4.51    3.43
  -7  -3   6    3.45    2.79
  -3   7   6    7.54    4.30
  -7  -3   7   -1.71    2.00
   7   3  -7    3.61    3.43
  -3   7   7    4.99    4.13
   3  -7   7    0.38    1.31
   7   3   8    2.23    1.81
  -3   7   8   -0.22    2.24
   7   3  -8    2.27    2.59
   3  -7   8    5.45    4.07
  -3   7   8    1.01    3.94
   7   3   8    0.27    2.35
   3  -7   8    5.41    4.27
  -7  -3   8    2.53    4.01
   7   3  -9    1.60    2.09
  -3   7   9   -4.38    4.29
   7   3   9    3.73    3.92
  -7  -3   9   -0.43    2.25
   3  -7   9   -0.58    2.15
   7   3   9    4.03    3.15
  -3   7   9   -2.82    4.11
   3  -7   9    4.99    3.34
   3  -7  10   -0.08    2.88
   7   3  10   15.69    6.44
  -7  -3  10    5.64    4.20
  -3   7  10   10.78    7.07
  -3   7  10   -0.35    3.57
   3  -7  11   -2.61    2.92
  -3   7  11    8.44    6.00
   7   3  11   13.33    6.64
  -7  -3  11    8.70    5.39
   7   3  11    0.44    2.88
  -3   7  11    0.67    2.05
   7   3  12   16.66    7.13
   3  -7  12    1.41    3.60
   7   4   0    0.80    2.11
  -4   7   0   -0.29    2.08
   7   4   0    0.21    1.83
  -4   7   1   85.33    8.21
   7   4   1  104.01    6.71
   7   4  -1   99.59    7.83
   7   4  -1   93.17    9.63
  -4   7  -1   76.65    9.03
  -4   7   1   75.00    8.45
   4  -7   1   87.83    6.46
   7   4   1   89.25    7.45
   7   4   1   94.40    9.18
   7   4   1   81.33    8.47
   7   4   2   11.61    3.16
   7   4  -2    4.60    2.76
  -4   7   2    2.35    1.19
   4  -7   2    4.24    1.59
   4  -7   2    3.55    2.71
   7   4   2    5.56    2.68
  -7  -4   2    7.75    2.87
  -4   7  -2    2.26    3.63
   7   4   2    3.01    0.95
  -4   7   2    0.57    1.56
  -4   7  -3    8.31    4.50
   7   4  -3    3.71    1.90
  -7  -4   3    6.19    2.90
   4  -7   3    3.47    1.60
   7   4   3   11.26    4.05
   7   4   3    9.01    3.17
  -4   7   3    3.24    2.38
  -4   7   3    0.11    1.52
   7   4   3    4.35    1.41
  -4   7   4    5.61    2.76
   7   4   4    2.62    2.27
  -4   7   4   -0.98    0.87
   7   4  -4    5.15    2.50
   4  -7   4    5.77    3.34
  -7  -4   4    7.22    3.58
  -4   7   4    4.03    2.99
  -4   7  -4    6.44    3.66
   7   4   4    8.05    2.93
   4  -7   4    4.90    1.85
   4  -7   5   10.30    2.08
   4  -7   5   16.59    5.07
   7   4  -5   20.49    5.41
  -7  -4   5   15.06    4.86
  -4   7   5   11.76    4.77
   7   4   5   14.88    5.05
   7   4   5   22.38    4.27
  -4   7  -5    6.81    4.87
   4  -7   6   17.25    4.85
  -4   7   6   25.18    6.87
   7   4   6   32.74    7.50
  -4   7  -6   25.40    7.03
  -4   7   6   28.39    7.03
  -7  -4  -6   31.93    2.56
   7   4   6   30.91    6.94
  -7  -4   6   29.16    6.76
   7   4  -6   41.71    7.62
   7   4  -7   10.07    3.78
   4  -7   7    4.21    3.13
  -4   7   7   -1.02    2.59
   7   4   7   14.00    6.47
  -4   7  -7    8.07    5.61
  -4   7   7    1.96    3.07
   7   4   7    8.35    4.01
  -7  -4   7    8.10    4.82
   4  -7   8   -4.63    3.45
   4  -7   8   -1.78    3.06
  -4   7  -8    3.38    2.84
   7   4   8    3.98    3.69
  -7  -4   8    3.36    2.01
   7   4   8    0.60    3.02
   7   4  -8    1.35    1.95
  -4   7   8    3.72    3.53
  -4   7   9    0.53    2.59
   7   4   9   12.14    5.29
   7   4  -9    6.59    3.48
  -7  -4   9    6.94    4.35
   4  -7   9    5.18    4.83
  -4   7  -9    5.17    4.38
   4  -7   9    0.94    2.03
   7   4  10    3.60    3.60
   7   4  10   12.38    5.45
   4  -7  10    6.13    4.26
  -4   7  10    1.86    2.87
  -4   7 -10    4.40    4.49
  -7  -4  10    5.23    4.80
  -4   7  10   -0.38    2.71
  -4   7  11    1.37    4.27
   7   4  11    0.40    2.99
  -4   7 -11    0.10    2.57
   7   4  11    3.84    5.13
   4  -7  11    0.76    2.56
  -7  -4  11    2.12    3.02
   7   4  11    9.86    4.68
   4  -7  12   -2.15    3.04
   7   4  12   -1.11    2.90
   7   5   0  566.63   24.25
   7   5   0  573.03   22.21
  -5   7   0  572.34   19.66
  -5   7   0  568.62   24.83
   7   5  -1  158.13   12.88
   7   5   1  150.95   12.40
   7   5   1  164.00   12.48
   7   5  -1  162.84   10.77
  -5   7  -1  163.98   13.21
  -5   7   1  181.62   11.66
  -5   7   1  165.64   12.99
   7   5   1  163.77   10.99
  -5   7   1  176.93   11.71
   7   5   2  152.51   13.01
   7   5   2  152.54   11.08
  -5   7   2  156.76   11.69
  -5   7  -2  157.52   13.68
  -5   7   2  156.86   12.75
  -7  -5   2  157.37   11.75
   7   5   2  154.93    6.38
   7   5   2  149.38   12.30
   7   5  -2  144.26   12.64
   5  -7   2  157.10   11.54
   7   5  -3  133.23   12.49
  -7  -5   3  110.69   10.47
  -7  -5   3  106.45    6.72
   5  -7   3  123.37   10.98
  -5   7   3  110.14   11.12
  -5   7  -3  108.98   11.93
   7   5   3  100.79    9.66
   7   5   3  115.80   10.65
  -5   7   3  109.67   10.63
  -7  -5   3  110.98   10.69
   7   5  -4    7.29    4.25
   7   5   4    7.66    2.90
  -5   7   4   16.91    5.25
  -5   7  -4   18.65    5.06
  -7  -5   4    5.27    2.59
  -7  -5   4    8.83    3.93
   5  -7   4   16.85    4.37
  -5   7   4   28.61    6.14
   5  -7   4   19.85    3.33
  -7  -5   4   10.71    1.88
  -5   7   4   -0.41    1.48
   7   5   4    8.03    3.60
   7   5   5    7.60    2.73
   5  -7   5   13.20    2.16
   7   5   5    8.78    3.66
   7   5  -5    7.24    3.45
   5  -7   5   10.40    3.54
  -5   7  -5    9.83    4.55
  -5   7   5   16.22    4.65
  -7  -5   5    9.77    3.87
   7   5   6    0.02    1.54
   5  -7   6   -1.08    2.54
  -5   7   6    7.88    5.01
  -5   7   6    9.12    4.11
  -5   7  -6    0.48    2.85
   7   5  -6   11.44    4.28
  -7  -5   6    1.29    1.77
  -7  -5   7    9.32    4.44
   7   5  -7   22.10    5.75
   7   5   7   21.37    6.57
  -5   7   7   21.20    6.60
  -5   7   7   17.84    6.28
  -5   7  -7   28.08    7.99
   5  -7   7   13.69    5.17
   5  -7   8   21.61    6.11
   7   5   8   24.85    6.11
   7   5   8   14.31    5.16
   7   5   8   18.87    6.78
  -5   7   8   11.21    4.72
   7   5  -8   18.96    5.76
  -5   7  -8   14.97    5.55
   5  -7   8   15.71    5.74
   5  -7   9   33.09    8.70
   7   5  -9   25.11    7.05
  -5   7  -9   35.67    9.81
   7   5   9   10.55    6.01
  -5   7   9   27.04    8.29
   5  -7   9   17.79    6.09
   7   5   9   22.01    6.64
   7   5   9   13.93    6.38
  -5   7  10   24.33    8.65
  -5   7 -10   29.20    8.60
   5  -7  10   19.98    7.30
  -5   7  10   26.94    9.08
   7   5  10   20.10    7.82
   5  -7  10   21.30    6.95
   7   5  10   13.75    6.23
   5  -7  11    8.23    4.27
  -7  -5  11   19.60    8.34
   7   5  11   12.47    7.04
   7   5  11   19.95    7.55
  -5   7 -11   19.14    7.37
  -5   7  11   25.05    8.84
   7   5  12    1.15    2.96
   7   5  12    5.08    5.07
   5  -7  12    3.81    3.68
   7   6   0    0.08    1.75
   7   6   0    2.17    2.26
  -6   7   0    5.47    3.14
  -6   7   0    2.21    1.91
   7   6   1    2.18    2.34
  -6   7   1    3.96    2.42
   7   6   1    2.43    1.75
  -6   7   1    2.97    2.41
   7   6  -1    4.45    2.82
   7   6   1    2.41    2.26
  -6   7  -1    0.75    1.93
  -6   7   1    3.55    3.33
   7   6   2   41.18    6.77
  -7  -6   2   41.02    6.57
   7   6   2   35.08    6.84
  -6   7   2   47.21    7.58
   7   6   2   45.59    6.49
  -6   7  -2   56.82    8.32
  -6   7   2   46.85    6.40
   7   6  -2   38.25    6.81
   7   6   3   56.49    7.59
   7   6  -3   48.76    7.93
  -7  -6   3   52.36    7.50
   6  -7   3   39.96    6.25
  -6   7   3   43.09    6.86
  -7  -6   3   47.97    5.16
  -6   7  -3   41.08    7.33
   7   6   3   49.45    7.60
  -6   7   3   37.91    7.08
   7   6   4   49.09    7.74
   6  -7   4   61.65    8.33
   7   6   4   37.08    7.82
  -7  -6   4   52.41    4.93
  -6   7   4   61.60    9.58
   6  -7   4   69.97    6.16
  -6   7   4   56.22    8.73
  -6   7  -4   68.82    9.85
  -7  -6   4   52.92    7.63
  -7  -6   4   41.41    7.22
   7   6   4   62.27    8.54
  -6   7   4   65.40    8.88
   7   6  -4   59.64    8.82
   7   6   5   75.63   10.46
  -6   7   5   70.62   10.07
   7   6  -5   79.10   10.75
   6  -7   5   66.52    9.27
  -6   7  -5   60.36    9.81
  -7  -6   5   58.63    4.71
  -7  -6   5   73.02   10.33
   7   6   5   77.21   11.70
   6  -7   5   61.98    4.42
   7   6  -6   80.31   11.24
  -6   7   6   65.77   11.07
  -6   7   6   80.71   11.64
  -6   7  -6   83.98   12.13
   7   6   6   72.50   10.87
   7   6   6   83.59    9.71
   7   6   6   85.98   12.60
   6  -7   6   89.55   11.57
  -7  -6   6   70.28   11.07
   7   6  -7   84.28   11.65
   6  -7   7   51.16    9.70
   7   6   7   73.35   12.17
  -6   7  -7   47.59    9.64
   7   6   7   76.29   11.92
  -6   7   7   62.56   10.72
   7   6   7   72.02    9.95
  -7  -6   7   85.62   13.05
  -6   7  -8   27.11    7.80
   6  -7   8   43.23    9.69
   7   6   8   46.22   10.10
   7   6   8   65.11   10.21
   7   6  -8   49.66    9.71
   7   6   8   42.68    9.66
  -6   7   8   41.21   10.14
   6  -7   8   42.34    9.34
  -6   7   8   45.57   10.02
  -7  -6   8   48.31   10.44
   6  -7   9    7.72    4.94
   6  -7   9   10.93    5.02
   7   6  -9   14.38    5.30
  -7  -6   9   17.31    7.20
   7   6   9   18.65    7.25
   7   6   9   16.52    6.75
  -6   7  -9   13.39    6.61
  -6   7   9   17.33    6.99
  -6   7  10    1.67    3.50
   6  -7  10    6.46    5.09
  -7  -6  10    7.61    4.62
   6  -7  10    2.99    2.91
   7   6  10   11.63    5.85
   7   6  10    4.68    3.95
   7   6  10    2.68    3.09
  -6   7 -10    2.72    3.83
   7   6  11    3.50    3.77
  -7  -6  11   -2.17    3.25
  -6   7  11    7.23    5.14
   6  -7  11   -1.94    3.97
   7   6  11    8.42    5.01
   6  -7  12   18.88    8.77
   7   6  12   -1.25    2.70
  -7   7   0  958.14   26.61
  -7   7   0  970.05   29.90
  -7   7   0 1000.51   35.06
   7   7   0  859.07   30.48
   7   7   0  805.03   32.19
  -7   7   1  808.75   31.78
  -7   7  -1  807.63   32.03
   7   7   1  862.04   29.73
   7   7   1  845.23   32.65
  -7   7   1  788.45   28.34
   7   7  -1  911.73   33.98
  -7   7   1  834.17   25.67
   7   7   1  891.57   32.66
   7   7  -2  685.79   29.80
  -7  -7   2  655.43   27.39
  -7   7   2  670.63   29.51
  -7   7   2  682.23   24.52
  -7   7  -2  651.86   29.36
  -7   7   2  681.46   27.99
   7   7   2  619.29   28.15
   7   7   2  677.02   27.04
   7   7   3  282.70   18.81
   7   7  -3  283.84   19.50
  -7   7   3  296.29   17.43
  -7   7  -3  292.06   19.71
   7  -7   3  317.21   17.09
  -7  -7   3  295.11   19.01
  -7   7   3  324.51   20.65
   7   7   3  256.95   17.42
   7  -7   4  138.09    8.97
  -7   7   4  145.37   13.24
   7   7   4  147.68   13.95
   7   7   4  144.39   15.40
   7   7  -4  138.50   13.79
   7   7   4  141.92   13.47
  -7  -7   4  133.97    9.11
  -7   7  -4  153.48   15.03
  -7  -7   4  143.26   12.62
  -7  -7   4  158.97   14.78
  -7   7   4  144.34   14.22
   7  -7   4  138.98   12.33
   7   7  -5   52.71    9.29
  -7  -7   5   50.10    5.13
  -7   7   5   69.43   10.97
   7   7   5   50.38    8.87
  -7   7  -5   64.59   10.19
   7  -7   5   61.23    4.38
  -7   7   5   75.49   10.31
   7   7   5   54.46   10.21
  -7  -7   5   65.49   10.27
   7   7   6    3.83    2.77
   7   7   6    5.94    4.14
  -7  -7   6    1.40    2.64
  -7   7  -6    5.62    2.67
  -7   7   6    3.96    3.92
   7   7  -6   -0.32    2.24
   7  -7   6   -0.92    1.41
   7   7   7   36.59    8.43
   7   7   7   49.56   10.34
   7  -7   7   29.68    7.37
  -7   7  -7   26.16    7.65
  -7   7   7   25.21    7.41
  -7  -7   7   32.84    8.88
  -7   7   7   24.77    6.63
   7   7  -7   39.15    7.91
   7   7   7   36.29    7.16
  -7  -7   8   49.35   10.44
   7  -7   8   37.68    8.83
   7  -7   8   48.23   10.18
  -7   7  -8   55.88   10.85
   7   7   8   29.30    7.94
   7   7  -8   41.28    8.75
   7   7   8   44.53   10.72
   7   7   9   47.36   10.80
   7  -7   9   41.50    9.81
   7  -7   9   36.63    9.63
  -7  -7   9   43.15   10.76
   7   7   9   40.71    8.81
  -7   7  -9   30.60    8.71
   7   7   9   32.32    8.77
   7   7  -9   48.75    9.57
  -7   7   9   37.74    9.83
  -7   7   9   22.18    7.95
   7  -7  10   70.71   13.56
  -7   7  10   93.54   15.93
  -7  -7  10   70.27   14.08
  -7   7 -10   80.47   14.34
   7  -7  10   66.37   13.18
  -7   7  10   77.46   15.30
   7   7  10   49.85   11.64
   7   7  10   61.20   13.14
  -7   7  11   42.67   11.69
   7   7  11   48.96   12.24
   7   7  11   43.12   11.20
  -7  -7  11   66.09   14.85
  -7   7  11   75.41   15.68
   7  -7  12   27.86    9.74
   7   7  12   28.95   10.11
   7   8   0    4.57    3.70
  -8   7   0    0.89    2.51
  -8   7   0    0.42    1.25
  -8   7   0    0.07    2.46
  -8   7  -1   76.60    9.93
   7   8  -1   67.29    9.67
  -8   7   1   75.06    9.96
   7   8   1   75.08   10.36
  -8   7   1   92.00    8.12
  -8   7   1   80.12    9.22
   7   8   1   87.22   10.56
  -8   7   2    2.75    3.07
  -8   7  -2    3.38    3.30
   7   8   2    2.79    2.89
   7   8   2    0.62    1.25
   7   8  -2    1.26    3.12
   7   8   2    1.15    2.57
  -8   7   2    0.20    1.82
   7   8   2    3.80    3.16
  -8   7   2    1.11    1.33
   7   8   3   -3.49    2.92
  -8   7   3    1.22    2.64
   7   8  -3    1.61    1.87
   8  -7   3    3.87    2.54
   7   8   3    2.46    2.82
  -7  -8   3   -0.81    1.59
  -8   7  -3    1.70    2.05
  -8   7   3    1.12    2.64
   8  -7   4   -0.23    0.95
   8  -7   4    0.33    1.03
  -7  -8   4    4.55    3.86
   7   8  -4   -2.62    2.69
  -8   7   4    2.57    1.71
  -8   7  -4   -0.57    1.89
  -8   7   4   -1.54    1.39
   7   8   4    1.95    3.04
   7   8   4    2.12    2.26
  -8   7   5    3.53    2.48
  -8   7   5    5.72    3.45
   7   8  -5   11.42    4.78
   7   8   5    4.47    2.97
  -7  -8   5    7.95    4.64
   8  -7   5    7.35    3.17
  -7  -8   5    1.84    2.44
  -8   7  -5   12.50    5.39
   7   8   5    2.34    2.74
   7   8   6   18.56    6.17
   7   8   6    5.26    2.30
   8  -7   6   21.84    6.06
  -8   7   6   21.21    5.98
   7   8  -6   19.95    6.20
  -8   7  -6   17.68    6.26
  -7  -8   6   13.49    5.54
   7   8   7   44.58    8.16
  -8   7   7   42.61    9.81
   7   8   7   44.21   10.17
  -8   7   7   54.67   10.54
   7   8  -7   24.93    6.28
   8  -7   7   43.23    9.01
   7   8   7   30.45    7.73
  -8   7  -7   46.86    9.39
   7   8   8   -2.27    3.39
   8  -7   8   27.98    7.81
  -8   7  -8   17.96    6.56
  -8   7   8   36.74    9.82
   7   8  -8   20.21    6.36
  -8   7   8   31.30    8.60
   8  -7   8   24.72    7.98
  -7  -8   8   13.99    6.45
   8  -7   9    5.53    4.37
  -8   7   9    3.42    4.00
   8  -7   9    8.55    3.77
   7   8  -9   -0.51    1.73
  -8   7  -9   12.46    6.29
   7   8   9    1.27    2.29
  -7  -8   9   -2.49    2.57
   7   8   9   -2.08    2.23
  -8   7  10   -4.81    3.68
   7   8  10    3.57    4.18
   8  -7  10    7.26    5.27
  -7  -8  10    0.32    3.18
   8  -7  10   -0.25    3.79
   7   8  11   -1.92    3.00
   7   8  11    5.17    4.50
   8  -7  11    4.37    4.96
  -7  -8  11   15.61    8.06
  -8   7  11    0.91    3.49
   8  -7  12    6.69    5.56
  -8   6   0  228.32   11.18
   6   8   0  248.78   17.94
  -8   6   0  247.45   15.95
  -8   6   0  253.25   17.20
  -8   6   1   16.48    4.04
   6   8  -1   18.82    5.57
  -8   6  -1   15.73    4.67
   6   8   1   25.47    6.24
  -8   6   1   22.99    3.70
  -8   6   1   13.22    3.51
   6   8   2   39.25    7.74
   6   8   2   24.40    5.47
   6   8  -2   27.92    5.98
  -8   6   2   30.96    6.28
   6   8   2   28.18    3.71
   6   8   2   25.77    5.91
  -8   6   2   32.37    5.01
  -6  -8   2   25.86    4.23
  -8   6  -2   34.04    6.46
  -8   6   2   23.62    5.46
  -8   6   3   39.58    7.27
   6   8   3   22.77    5.49
   6   8   3   27.84    6.76
  -8   6   3   33.99    5.62
   6   8  -3   20.24    5.34
  -8   6  -3   25.11    6.02
  -6  -8   3   25.52    5.92
   8  -6   3   41.27    5.88
   6   8   3    4.52    3.97
   6   8   3   22.17    2.22
   8  -6   4   35.67    4.31
  -8   6   4   40.15    8.05
   8  -6   4   37.58    6.04
  -8   6   4   31.38    6.01
   6   8   4   34.21    6.94
   6   8  -4   35.16    7.28
  -8   6  -4   52.50    8.66
  -6  -8   4   42.83    7.98
   6   8   4   34.38    7.04
  -8   6   4   31.49    7.04
   8  -6   5   25.72    5.89
  -8   6  -5   23.67    5.85
  -6  -8   5    9.08    3.70
   6   8  -5   14.25    4.93
   6   8   5    9.82    3.87
   6   8   5   12.26    5.56
  -8   6   5   23.04    5.66
   8  -6   6    3.84    3.56
   6   8   6   -3.07    2.26
  -8   6   6   -0.74    1.41
   6   8  -6    1.68    3.05
  -6  -8   6   -0.02    2.22
   6   8   6    0.80    1.90
  -8   6  -6    4.37    3.92
   8  -6   7    4.06    3.11
  -8   6  -7    6.32    3.39
   8  -6   7    2.38    1.86
   6   8   7    5.02    3.18
   6   8   7    8.85    4.98
   6   8  -7    4.87    4.07
  -8   6   7   -2.86    2.45
  -8   6   7    9.61    4.52
  -6  -8   7    9.32    5.32
   6   8   8   -1.32    3.44
   6   8  -8    1.92    1.91
  -8   6  -8   -0.14    2.86
  -6  -8   8    4.17    4.39
   8  -6   8   -1.07    1.62
   6   8   8    1.01    3.48
  -8   6   8    1.64    2.37
  -8   6   8   -2.91    2.40
   6   8  -9    1.32    1.96
   6   8   9    1.26    2.67
  -6  -8   9   -1.73    3.53
  -8   6   9    2.81    2.83
   6   8   9   -3.39    4.88
  -8   6   9    2.67    2.28
  -8   6  -9    1.06    2.75
  -8   6  10    4.48    3.62
  -6  -8  10   -3.68    4.05
   6   8  10    3.46    5.43
   6   8  10    6.15    4.22
   8  -6  10   10.37    5.12
   6   8  10    0.61    3.04
  -8   6  10   -1.05    2.68
   6   8  11    3.48    4.29
   8  -6  11   11.29    5.47
   8  -6  11    5.28    2.75
  -8   6  11    7.43    5.53
  -8   6  11    7.50    5.57
  -6  -8  11    4.41    4.10
   6   8  11   -2.05    2.43
   8  -6  12    6.72    5.55
   6   8  12    8.16    5.97
  -8   5   0    0.43    1.84
   5   8   0   -1.74    2.42
  -8   5   0    5.20    3.42
  -8   5   0    2.20    1.21
  -8   5   0    1.31    1.26
   5   8   1   13.53    3.49
  -8   5   1   12.99    2.63
  -8   5  -1   13.43    2.43
   5   8  -1   10.55    4.11
  -8   5  -1   11.55    3.84
   5   8   1   12.45    4.22
  -8   5   1   11.29    3.82
   5   8   2  164.63   14.55
  -8   5   2  130.88    9.35
  -8   5  -2  147.16    8.88
  -8   5  -2  125.98   11.83
   5   8  -2  144.83   13.26
  -8   5   2  128.02   12.37
   5   8   2  139.29   12.61
   8  -5   2  135.10    8.75
   5   8   2  172.04    9.00
  -8   5   2  121.26   12.24
  -5  -8   2  154.85    9.74
  -5  -8   3  173.56   14.85
   5   8  -3  174.13   14.71
   8  -5   3  189.66   11.74
   5   8   3  167.09   14.85
  -8   5  -3  175.33   14.37
   5   8   3  174.23    7.19
  -8   5   3  199.57   12.97
  -8   5   3  184.95   15.64
  -5  -8   3  183.87   11.42
   5   8   3  175.74   14.80
   5   8  -4  165.13   14.59
  -5  -8   4  165.57   15.58
  -8   5   4  149.28   12.61
   8  -5   4  152.88   11.92
   5   8   4  158.01   15.85
   5   8   4  159.85   14.97
  -8   5  -4  146.77   13.56
  -5  -8   5  162.05   16.15
   5   8  -5  182.70   15.58
  -8   5   5  173.08   15.05
  -8   5  -5  140.04   14.05
   8  -5   5  153.70   13.30
   5   8   5  147.28   15.22
  -8   5   5  158.36   16.05
   5   8  -6  321.19   21.14
  -5  -8   6  255.41   21.66
  -8   5  -6  297.54   21.06
  -8   5   6  267.89   22.02
   5   8   6  324.29   24.07
   5   8   6  314.51   20.63
  -8   5   6  273.22   20.78
   8  -5   6  279.91   19.58
  -5  -8   7  149.65   17.58
  -8   5   7  149.07   16.46
  -8   5  -7  156.98   16.13
   5   8   7  163.12   18.06
   5   8  -7  163.19   15.61
   8  -5   7  164.33   16.28
   8  -5   7  138.74   16.44
  -8   5   7  157.50   18.28
   8  -5   8   73.87   12.05
   5   8  -8  101.45   12.80
  -8   5  -8   84.24   12.24
   5   8   8   81.40   12.21
  -5  -8   8   82.90   13.90
   8  -5   8   70.00   12.29
   5   8   8   73.68   12.71
  -8   5   8  105.41   15.53
  -5  -8   9   34.47    9.31
   5   8   9   42.59    9.66
   5   8   9   31.69    9.01
  -8   5  -9   40.10    9.28
   5   8   9   48.45   11.04
   8  -5   9   39.54    9.50
   5   8  10   26.74    9.14
   5   8  10   33.93    8.80
  -5  -8  10    9.81    5.66
  -8   5  10   21.11    8.34
   5   8  10   25.78    8.67
   8  -5  10   18.70    7.24
  -5  -8  11   14.85    7.89
  -8   5  11   14.50    6.39
  -8   5  11   10.19    6.43
   5   8  11   26.16    9.46
   8  -5  11   22.68    8.24
   8  -5  11    7.58    4.51
   5   8  11    1.58    3.28
   5   8  11    7.80    6.08
   8  -5  12    3.32    5.75
  -8   4   0    4.41    1.27
  -8   4   0    2.94    1.06
  -8   4   0    3.00    2.66
  -8   4   0    6.41    2.73
   4   8   0    6.40    2.53
   4   8  -1    3.64    2.50
  -8   4  -1    0.07    1.87
  -8   4  -1    1.64    0.85
   4   8   1    3.75    2.23
   4   8   1    5.69    3.23
  -8   4   1    2.62    2.61
  -4  -8   2  109.10   11.19
  -8   4  -2   87.06    9.30
  -4  -8   2  102.08    6.96
   4   8   2  105.43    7.25
  -8   4   2   83.79    7.04
   8  -4   2   89.04    6.39
   4   8   2   97.52   10.43
   4   8  -2  111.05   11.25
   4   8   2   95.71   11.22
  -8   4  -2   92.00    6.51
  -8   4   2   76.38    9.57
  -8   4   2   83.41    9.98
  -8   4   3   12.25    3.63
   4   8  -3   29.18    6.02
   4   8   3   26.84    5.99
  -4  -8   3   23.03    3.87
   8  -4   3   21.72    3.84
   4   8   3   21.29    2.84
  -4  -8   3   23.64    5.27
   4   8   3    2.14    2.75
  -8   4  -3   23.10    4.98
  -8   4   3   16.96    3.66
  -4  -8   4    5.85    2.65
  -4  -8  -4    5.44    1.53
  -8   4   4    4.70    2.90
   4   8   4   10.14    4.17
   4   8   4    7.06    3.46
   8  -4   4    4.79    1.36
   4   8  -4    3.85    2.21
  -8   4  -4    4.29    3.66
  -8   4   4    4.61    2.35
  -4  -8   5   12.70    4.45
  -8   4   5   11.52    5.22
   4   8   5   -0.17    2.74
  -4  -8  -5    6.60    1.66
  -8   4   5    8.71    3.98
   4   8  -5    8.80    3.35
  -8   4  -5    3.41    2.62
   8  -4   5    4.26    2.65
   4   8   5    4.52    4.14
  -8   4  -6    6.75    3.39
   4   8   6    4.02    3.44
   4   8   6    2.15    2.59
   4   8  -6    0.55    2.01
   4   8   6    6.78    3.90
   8  -4   6    2.80    2.19
   8  -4   6    3.04    3.27
  -8   4   6    4.27    2.20
  -8   4   7    6.21    3.97
   4   8   7   -1.55    2.27
   4   8  -7    0.37    1.88
   8  -4   7    6.11    4.20
   4   8   7    9.43    5.90
   8  -4   7    3.61    3.56
  -4  -8   7    1.11    2.19
  -8   4  -7    3.71    3.16
   4   8   8   23.50    7.34
  -4  -8   8   12.56    5.75
   4   8  -8    7.80    3.41
  -8   4  -8   12.29    4.57
   8  -4   8    8.39    5.50
   4   8   8   12.07    5.53
   4   8   8   16.16    6.59
   8  -4   8   10.13    4.36
   4   8   9   12.97    6.57
   8  -4   9    2.05    1.74
  -4  -8   9    4.50    2.77
  -8   4   9    5.28    3.49
   8  -4   9    4.91    4.85
   8  -4  10    3.46    2.37
   8  -4  10    7.78    4.68
  -4  -8  10    6.09    3.40
  -8   4  10    6.05    3.98
   4   8  10    1.78    2.41
   4   8  10    7.30    5.05
   4   8  11   -2.55    4.82
   4   8  11   12.44    6.29
  -4  -8  11    7.24    4.80
  -8   4  11    1.96    4.25
   8  -4  11    1.84    2.19
   4   8  12   -3.10    3.42
   8  -4  12    5.55    5.87
   3   8   0   -0.26    1.61
   3   8   0    3.38    3.39
  -8   3   0   -1.09    1.98
   3   8  -1   16.50    2.43
   3   8   1   16.30    3.47
   3   8   1   21.66    5.72
   3   8  -1   13.83    4.42
  -8   3  -1   15.45    1.75
  -8   3  -1   19.26    4.06
   8  -3  -1   16.07    2.29
  -8   3   1   16.38    2.27
  -8   3   1   14.82    4.11
   3   8   2  230.13   11.27
  -8   3  -2  247.44   14.83
   3   8   2  217.97   16.54
   3   8  -2  235.35   16.19
   8  -3  -2  265.50   11.99
   3   8   2  251.95   16.81
  -3  -8   2  245.72    9.49
   8  -3   2  244.81    9.97
  -3  -8   2  232.43   16.32
  -8   3   2  255.53   16.84
  -8   3   2  277.12   12.24
   3   8   3  404.19   22.25
   8  -3   3  372.90   13.54
  -8   3   3  380.65   17.19
   3   8  -3  401.53   21.22
  -3  -8  -3  398.54   14.58
  -8   3  -3  367.45   18.66
   3   8   3  403.40   13.89
  -3  -8   3  370.99   21.70
   8  -3   3  356.35   14.99
  -3  -8   3  408.08   14.84
  -8   3   3  361.79   19.82
   8  -3   4  465.98   12.16
  -8   3   4  452.52   21.53
  -8   3  -4  423.09   20.81
   3   8  -4  429.74   22.20
   8  -3   4  467.86   20.06
   3   8   4  390.47   23.95
  -3  -8  -4  420.70   14.72
   3   8   4  437.16   24.54
   3   8   4  451.45   14.51
  -3  -8   4  409.48   24.17
   3   8   5  408.48   22.64
  -3  -8   5  424.66   25.80
   3   8  -5  423.76   22.30
   3   8   5  399.38   25.44
   8  -3  -5  375.24   13.78
  -8   3  -5  403.65   21.30
  -3  -8  -5  413.94   14.88
  -8   3   5  407.37   22.75
   3   8   5  396.88   24.82
   8  -3   5  387.29   20.49
   8  -3   5  364.74   24.04
  -8   3  -6  358.50   21.19
   3   8  -6  352.89   20.86
  -8   3   6  343.27   24.64
   3   8   6  332.42   24.31
   3   8   6  361.88   25.11
   8  -3   6  341.30   24.23
  -8   3   6  366.37   23.65
  -3  -8   6  351.90   25.02
   8  -3   6  340.78   21.24
   3   8   7  240.76   21.55
   3   8  -7  269.78   18.67
  -8   3   7  260.68   21.49
   3   8   7  259.93   20.76
  -3  -8   7  234.96   21.78
   3   8   7  228.55   21.28
  -8   3  -7  240.13   18.44
  -8   3   7  252.10   22.41
   8  -3   7  234.22   21.18
   8  -3   7  226.23   19.06
   3   8   8  155.32   18.21
  -8   3  -8  153.20   15.47
   3   8   8  191.33   18.92
   3   8  -8  185.12   15.87
  -8   3   8  190.64   20.82
  -3  -8   8  169.54   19.45
   8  -3   8  164.92   17.46
  -8   3   8  164.85   18.45
   3   8   8  160.31   18.84
   8  -3   8  191.59   19.93
  -3  -8   9   66.64   13.29
  -8   3   9   54.28   11.36
   8  -3   9   57.07   11.16
   3   8   9   55.20   11.71
  -8   3   9   55.77   11.91
   8  -3   9   70.97   12.59
   3   8   9   59.25   12.02
   3   8  10   15.39    5.91
   3   8  10   32.44    8.99
  -8   3  10   15.26    6.04
   8  -3  10   24.64    8.31
   3   8  10   18.49    7.08
  -3  -8  10   35.07   10.34
  -8   3  10   32.19    9.43
   3   8  11    3.55    2.07
  -3  -8  11   13.89    7.01
   8  -3  11    9.91    5.52
  -8   3  11   11.87    5.67
   8  -3  11   24.04    8.28
  -8   3  11   12.90    8.03
   8  -3  12   -2.77    4.56
   8  -3  12    3.49    3.99
   2   8   0  247.98   14.44
   8  -2   0  292.45   12.67
   2   8   0  243.58   16.50
  -8   2   0  291.21   15.85
   2   8   1   80.46    7.63
   2   8  -1   90.60    9.73
   2   8   1   80.30    9.76
  -8   2   1   68.71    4.33
   8  -2  -1   72.41    4.45
  -8   2  -1   73.74    7.69
  -8   2   1   72.28    8.45
   2   8   2  214.00   15.13
   2   8  -2  210.90   15.05
  -2  -8  -2  214.47   11.88
  -8   2  -2  247.39   13.99
   2   8   2  193.00   15.41
  -8   2   2  240.53   11.22
  -8   2  -2  261.62    9.67
  -2  -8   2  215.42    7.51
   2   8   2  217.77   11.58
   8  -2   2  246.70    9.33
   8  -2   2  253.61   12.32
   8  -2  -2  262.67   11.59
  -2  -8   2  211.02   15.43
  -8   2  -3   97.72    7.53
   2   8   3   81.36    6.71
   8  -2   3   94.43    7.42
   2   8   3   83.80   10.09
  -8   2   3   94.55    8.37
  -2  -8   3   84.86   10.11
   8  -2   3  101.56    6.85
  -2  -8  -3   81.55    7.05
   2   8  -3   78.10    8.96
  -8   2  -3   88.84    8.55
   8  -2   4   55.22    4.30
  -2  -8   4   54.01    8.69
   2   8  -4   49.24    7.24
   8  -2   4   61.36    7.18
  -8   2  -4   62.65    7.46
  -2  -8  -4   52.55    5.56
   2   8   4   49.84    5.32
   2   8   4   43.72    7.76
  -8   2  -5   34.63    6.01
  -8   2   5   35.22    6.74
   2   8   5   16.01    4.75
   8  -2  -5   28.39    2.99
   2   8  -5   20.43    5.01
   8  -2   5   32.71    7.28
  -2  -8   5   19.29    5.51
   2   8   5   13.54    4.99
   8  -2   5   34.00    6.35
  -2  -8   6   12.96    5.10
  -8   2   6   11.37    4.54
   8  -2   6    7.58    3.74
   2   8  -6    7.84    3.77
  -8   2  -6    3.93    2.30
   2   8   6    9.24    5.24
   2   8   6    5.31    3.81
   8  -2   6    2.25    3.98
   8  -2   7    2.02    3.62
   2   8  -7    1.93    2.41
   8  -2   7    2.20    2.52
  -8   2  -7   -0.27    1.15
   2   8   7    0.83    3.37
   2   8   7   -0.71    2.81
  -2  -8   7    8.45    5.31
   2   8   7    3.40    4.19
   2   8   8   31.04    7.81
   2   8  -8   38.64    6.90
   2   8   8   32.37    8.20
  -2  -8   8   34.30    8.90
  -8   2  -8   35.07    7.23
   8  -2   8   42.63    8.97
   2   8   9   34.20    8.94
   2   8   9   35.52    9.15
   2   8   9   21.75    7.55
  -2  -8   9   25.96    7.98
   8  -2   9   38.04    8.98
   2   8  10   19.38    6.59
  -8   2  10   44.36   11.14
   8  -2  10   27.46    8.20
  -2  -8  10   22.60    8.09
  -8   2  10   23.50    7.91
   2   8  10   22.52    8.32
   8  -2  11   15.39    7.32
   8  -2  11   11.97    6.31
  -8   2  11   14.08    6.01
   2   8  11   17.58    7.32
   2   8  11   16.95    7.94
  -2  -8  11   10.11    5.87
   8  -2  12   10.28    6.06
   1   8   0   -1.03    1.59
   1   8   0    0.91    1.25
  -8   1   0    1.11    2.19
   8  -1   1   18.11    3.62
  -8   1  -1   17.04    3.32
   1   8   1    7.71    2.41
   8  -1  -1   17.25    2.14
  -8   1   1   15.50    3.97
   1   8  -1   20.80    5.40
  -8   1   1   18.27    2.16
   1   8   1   12.10    4.38
  -8   1   1   20.38    3.67
   1   8  -1   15.64    4.07
   8  -1   2    4.00    1.92
  -8   1   2    6.12    1.89
  -8   1  -2    4.57    1.63
   8  -1   2    4.52    1.43
  -8   1  -2    4.88    1.48
   8  -1  -2    6.70    1.90
   1   8  -2    3.52    2.29
   1   8   2    7.49    2.51
   1   8   2    6.80    2.69
  -1  -8   2    9.20    3.49
   1   8   3    0.34    1.83
   8  -1   3    2.15    1.23
   1   8   3    0.74    1.24
  -1  -8   3   -1.25    2.25
  -8   1   3    3.32    2.23
  -8   1  -3    3.23    1.51
   8  -1   3   -0.63    0.87
  -8   1  -3    1.11    1.30
  -8   1   3    1.12    1.00
   1   8  -3    2.48    2.95
  -8   1   3    3.05    1.72
  -1  -8   4   24.18    5.77
   8  -1  -4   18.65    2.16
   8  -1   4   22.81    3.04
   1   8   4   25.82    5.98
   8  -1   4    1.81    2.89
  -8   1  -4   18.76    3.84
   1   8  -4   38.64    6.69
   1   8   4   32.32    4.55
  -1  -8   5   57.87    9.39
  -8   1  -5   50.59    6.57
   1   8   5   56.58    8.82
   1   8  -5   49.90    7.21
   8  -1   5   55.05    9.17
   1   8   5   62.99    9.70
   1   8  -6   54.24    7.75
   1   8   6   49.78    9.50
   8  -1   6   21.66    5.62
  -8   1  -6   34.74    6.00
  -1  -8   6   52.98    9.72
   8  -1   6   31.52    7.49
  -1  -8   7   87.83   13.32
   1   8  -7   92.97   10.06
   8  -1   7   65.69   10.30
   1   8   7   78.30   12.44
   1   8   7   84.86   12.35
  -8   1  -7   55.99    7.92
  -1  -8   8   57.16   11.39
   8  -1   8   38.06    8.68
  -8   1  -8   30.22    6.45
  -8   1   8   38.66    8.69
   1   8   8   53.46   11.00
   8  -1   8   33.25    8.44
  -1  -8   9   18.49    7.26
  -8   1   9    1.67    1.64
   1   8   9   27.54    8.24
   1   8   9   18.87    6.98
   8  -1   9    2.16    3.34
   8  -1 -10    3.37    1.64
   8  -1  10    7.03    4.81
  -1  -8  10    6.64    5.14
  -8   1  10    4.93    3.49
   1   8  10    0.71    1.99
   1   8  10   10.58    5.32
   8  -1  11   -1.71    2.93
   8  -1  11   -1.27    4.39
  -1  -8  11   -0.53    3.36
  -8   1  11   -0.49    3.71
   1   8  11    4.60    3.75
   1   8  11    7.12    4.95
   8  -1  12    9.09    4.96
  -8   0   0    3.29    1.92
   8   0   0    5.16    2.43
   0   8   0    3.94    2.88
   8   0   0    3.68    1.94
   0   8  -1    9.33    3.84
   8   0   1   11.73    1.39
   0   8  -1   11.14    3.36
  -8   0  -1   16.60    3.26
   8   0  -1   16.11    3.50
   0   8   1    8.55    2.65
   8   0   1   15.72    3.20
  -8   0   1   14.83    2.22
   8   0  -2    9.56    2.35
   8   0   2   12.26    2.99
  -8   0  -2    9.80    2.36
   8   0   2   12.04    2.16
   0   8   2   10.11    3.75
   0   8   2    8.02    2.63
   0   8  -2   12.53    4.40
   0   8  -2   17.80    4.53
  -8   0   2   11.31    2.64
   0  -8   2   14.15    4.02
  -8   0  -2   11.63    2.09
   8   0  -2   13.29    2.40
   0   8   3    1.83    1.83
  -8   0   3   -0.90    1.34
   0   8  -3    4.17    2.79
   8   0   3   -0.41    0.83
   0  -8   3    3.32    4.02
   8   0   3    2.20    1.99
   8   0  -3    0.52    0.68
   0   8   3   -0.29    1.00
  -8   0   3    1.17    1.91
  -8   0  -3    0.02    0.95
   8   0   3    0.19    1.60
   8   0   4   11.41    2.90
   0   8   4    6.27    3.39
  -8   0  -4   10.88    2.83
   0  -8   4    6.49    3.17
  -8   0   4   12.54    3.83
   0   8  -4    6.64    3.07
   0   8   4    1.28    1.17
   8   0   4   11.45    2.43
   8   0   5    8.12    3.55
   0   8  -5    2.23    1.93
   8   0   5    2.22    1.33
   0   8   5   -0.15    1.72
   8   0   5    2.12    1.62
  -8   0   5    4.17    2.67
   0  -8   5    3.56    3.70
  -8   0  -5    4.25    1.86
   0   8   5    2.98    2.96
   8   0   6    2.12    2.99
  -8   0   6    1.81    2.06
   0  -8   6    1.29    1.49
   0   8   6    2.56    3.05
   0   8  -6    2.86    2.26
  -8   0  -6    1.99    1.66
   8   0   6    8.28    4.20
  -8   0  -7   11.66    3.94
   0   8   7   10.18    4.23
  -8   0   7   12.77    4.87
   8   0   7    6.07    2.65
   0  -8   7   10.31    4.75
   0   8  -7   11.64    3.44
   0   8   7   10.08    4.89
  -8   0   8    3.65    3.33
   0  -8   8   -2.35    2.89
   8   0   8    6.74    4.66
   0   8   8    6.80    3.95
   8   0  -9    1.41    2.74
   0   8   9    4.02    3.54
   8   0   9    7.41    4.68
   0  -8   9    6.55    4.79
  -8   0   9   -0.91    2.98
   0   8   9    3.64    3.07
   8   0  10    9.53    5.90
   8   0 -10    4.33    4.33
   0   8  10    0.25    2.53
   0  -8  10    7.41    6.26
  -8   0  10    6.88    4.31
   0   8  10   11.66    6.61
   8   0  11    7.05    4.80
  -8   0  11    4.57    4.77
   0   8  11   -2.52    4.29
   0   8  11    2.17    3.47
   0  -8  11   -2.27    3.97
   8   0  12    4.15    3.78
   8   0  12    3.46    3.72
   8   1   0    0.80    0.58
  -1   8   0    3.09    2.47
   8   1   0   -0.07    1.41
   8   1   0    2.50    2.07
   8   1   1   19.64    2.32
   8   1  -1   19.50    4.24
  -8  -1   1   15.87    2.86
   8   1   1   22.63    4.84
  -1   8   1   16.79    3.96
  -1   8   1   22.27    4.80
  -1   8  -1   16.64    4.07
   8   1  -1   17.02    3.45
  -8  -1  -1   14.20    2.88
  -8  -1   1   20.25    2.72
   8   1   1   17.37    3.57
  -1   8  -1   25.00    5.22
   8   1   2    1.64    0.76
  -8  -1   2    5.22    1.74
   1  -8   2   12.17    3.82
   8   1  -2    4.74    1.73
   8   1   2    4.21    1.56
  -8  -1  -2    4.73    1.63
   8   1   2    4.95    1.67
  -1   8  -2   11.06    3.65
  -8  -1  -2    4.04    1.54
  -1   8   2    9.80    3.16
   8   1  -2    5.22    1.92
  -1   8  -2   15.81    5.10
   8   1  -2    2.92    1.88
  -1   8   2    7.73    2.93
   8   1   3   27.61    3.84
  -8  -1   3   31.41    4.99
   1  -8   3   27.86    5.98
   8   1  -3   28.18    5.82
  -8  -1  -3   32.64    4.38
  -8  -1  -3   27.55    3.66
  -1   8  -3   33.75    5.47
  -1   8   3   27.25    5.75
  -1   8  -3   24.57    5.82
  -8  -1   3   30.46    6.31
   8   1  -3   28.07    2.39
   8   1   3   26.23    4.07
  -1   8   3   27.52    4.88
   8   1   3   24.95    4.05
   1  -8   4    4.19    2.47
  -8  -1  -4    9.82    2.37
  -1   8   4    6.25    3.41
   8   1   4    3.93    1.48
  -1   8  -4   11.01    3.13
  -8  -1   4    5.09    2.79
   8   1   4    8.86    3.23
  -8  -1  -4    7.34    2.02
  -1   8   4    4.69    2.64
   8   1   5   15.41    5.66
  -8  -1   5   21.91    5.31
   8   1   5   21.63    5.01
   1  -8   5    8.82    3.72
  -1   8   5    5.07    2.99
  -8  -1  -5   16.32    2.67
  -1   8  -5   17.98    4.24
  -1   8   5   14.84    5.13
   8   1   5   17.33    3.26
  -8  -1  -5   18.20    3.13
   8   1   6   42.82    7.94
   1  -8   6   23.77    6.62
  -8  -1   6   54.10    9.33
  -1   8   6   38.64    8.37
  -8  -1  -6   49.52    5.90
  -1   8  -6   29.07    5.27
   8   1   7    4.30    2.95
  -1   8   7    2.87    3.51
  -8  -1  -7    6.64    2.65
  -1   8   7    2.83    3.75
   8   1  -7    4.90    3.49
  -8  -1   7    8.97    4.46
  -1   8  -7    4.29    2.35
   1  -8   7    6.53    4.59
   1  -8   8    1.72    2.22
   8   1  -8    4.51    3.83
   8   1   8   10.88    4.76
  -1   8   8    2.61    2.20
  -8  -1   8   13.45    5.59
  -8  -1   9   19.83    6.51
   8   1  -9   19.10    6.67
   1  -8   9    5.97    4.34
   8   1   9   13.15    5.43
  -1   8   9   11.07    5.48
   1  -8   9    7.49    3.30
  -1   8   9    1.96    3.28
  -1   8  10    4.69    3.95
   8   1 -10    6.76    4.00
  -8  -1  10    7.92    4.99
   1  -8  10   -1.31    2.79
   1  -8  11    7.43    4.97
   8   1  11    3.23    3.58
   8   1  11    7.98    5.42
  -8  -1  11    7.33    4.62
  -1   8  11    4.22    5.47
  -1   8  11    7.94    5.39
   8   1  12    8.45    6.70
  -8  -2   0  513.98   11.56
   8   2   0  536.05   14.49
  -2   8   0  455.02   21.26
   8   2   0  525.74   21.73
  -2   8   0  489.90   13.15
   8   2   1  534.46   20.96
   8   2   1  522.28   17.43
  -8  -2   1  524.78   16.35
   8   2  -1  517.05   22.61
   8   2  -1  537.70   16.12
  -2   8  -1  532.56   24.03
   8   2   1  531.46   14.97
  -2   8   1  515.92   22.31
  -2   8   1  517.80   21.86
   8   2  -2  526.88   24.03
  -8  -2   2  569.77   19.45
   8   2   2  540.69   20.53
  -8  -2  -2  596.59   18.44
   8   2  -2  569.87   15.78
   8   2   2  569.74   16.60
  -2   8  -2  536.49   25.85
  -2   8   2  564.20   22.56
   2  -8   2  565.16   13.06
  -2   8   2  554.24   24.16
  -8  -2  -2  577.75   16.42
  -8  -2   2  543.36   24.21
   2  -8   2  533.40   23.46
   8   2   2  565.65   17.52
  -2   8  -3  402.08   23.47
   8   2   3  401.17   17.27
  -2   8   3  375.66   21.02
   8   2   3  406.81   13.06
  -8  -2   3  393.73   18.11
   8   2   3  399.98   16.91
   2  -8   3  406.58   21.62
   8   2  -3  374.35   21.09
  -8  -2   3  398.93   21.86
  -2   8   3  379.48   18.73
  -8  -2  -3  392.22   12.19
   8   2  -4   80.45   10.26
  -8  -2  -4   76.35    5.23
  -2   8  -4   86.61    8.32
  -2   8  -4   85.98   11.35
  -8  -2   4   71.78    8.71
   8   2   4   79.68    7.49
   2  -8   4   88.56   10.76
  -2   8   4   76.97    8.82
  -2   8   4   88.66   10.64
   8   2   4   78.80    8.42
  -2   8   5    4.60    2.72
  -8  -2  -5    5.78    2.06
  -2   8   5    4.42    2.97
  -2   8  -5   10.25    3.13
  -8  -2   5   10.76    4.51
   8   2   5    2.87    2.82
   2  -8   5    8.29    4.23
   8   2   5    5.72    2.70
  -8  -2  -5    4.67    1.48
   8   2  -5    4.18    1.49
   8   2  -6    5.10    2.85
  -2   8  -6    4.71    1.78
  -2   8   6    7.40    4.93
  -8  -2  -6    7.40    2.05
   2  -8   6    2.19    2.90
   8   2   6    7.33    4.39
  -8  -2   6    6.31    4.31
   8   2   6    6.61    2.95
  -2   8   7    5.50    4.29
   8   2  -7    1.94    2.75
  -8  -2   7    2.69    4.45
   8   2   7    1.96    3.66
   2  -8   7    0.48    3.96
  -2   8   7    3.19    2.76
   8   2   7    2.44    3.67
   8   2   8   38.15    8.73
  -8  -2   8   49.11    9.96
  -2   8   8   36.82    8.97
   2  -8   8   35.71    8.97
   8   2   8   46.19    9.42
   8   2  -8   45.76    9.31
   2  -8   9   71.63   13.06
   8   2   9   70.35   12.69
  -2   8   9   82.67   14.20
   8   2  -9   78.89   12.16
   2  -8   9   74.50   11.61
  -8  -2   9   66.53   12.69
  -2   8   9   68.87   13.20
   8   2  10   33.66    9.89
   2  -8  10   47.94   11.49
   8   2  10   46.91   11.18
  -8  -2  10   28.25    8.87
   8   2 -10   60.30   11.01
  -2   8  10   41.06   10.39
   2  -8  11   39.72   11.17
  -2   8  11   56.78   13.00
  -8  -2  11   33.16    9.36
  -2   8  11   29.24    9.53
   8   2  12   25.68    8.56
   8   2  12   26.24    8.85
  -3   8   0    2.43    1.45
  -3   8   0   -0.14    1.59
   8   3   0   -1.03    1.66
   8   3   0    0.13    0.87
   8   3   0   -1.76    2.10
   8   3  -1    3.72    1.68
   8   3  -1    0.41    1.95
   8   3   1    3.48    1.83
   8   3   1    1.44    1.26
   8   3  -1    4.24    2.01
  -3   8  -1    3.07    2.34
   8   3   1    1.49    1.33
  -3   8   1    0.39    2.20
  -3   8   1    1.62    2.35
   8   3   1    4.01    1.65
   8   3   2    2.64    2.03
  -8  -3   2    1.81    1.36
   8   3   2   -0.82    1.42
  -3   8   2   -1.24    1.62
  -3   8  -2    2.30    2.86
   8   3  -2    0.34    1.79
  -8  -3   2    0.75    0.76
   8   3  -2    0.10    0.73
   8   3   2    0.27    0.72
  -3   8   2    1.38    1.20
   8   3  -3   12.54    4.66
  -3   8   3   18.10    4.74
  -3   8  -3   22.51    5.58
   8   3   3    9.43    1.70
  -8  -3   3   11.51    3.29
   3  -8   3   21.41    4.98
   8   3   3   11.16    3.25
   8   3   3    8.89    1.63
  -3   8   3   20.59    4.96
   3  -8   4    2.20    2.01
   8   3   4    0.40    2.05
  -8  -3   4    1.80    1.91
  -8  -3   4    5.72    3.48
   8   3   4    2.22    2.29
  -3   8   4    3.36    2.76
  -3   8  -4    2.07    1.84
   8   3  -4   -1.10    1.59
  -3   8   4    3.73    2.80
   8   3   4    3.75    1.95
  -8  -3  -4    0.46    0.33
   8   3  -5    3.40    4.50
   8   3   5    2.18    2.67
   8   3   5    3.13    2.53
   3  -8   5    4.20    2.97
  -3   8  -5    4.62    4.56
  -3   8   5    5.08    3.51
   8   3   5    5.60    3.38
  -8  -3   5    0.90    2.28
  -8  -3  -5    1.76    0.71
  -3   8   5    5.47    3.66
   8   3  -6    8.13    3.17
  -3   8   6   -0.26    1.67
  -3   8  -6    2.57    3.68
   3  -8   6    1.40    2.43
   8   3   6    0.50    1.61
  -8  -3   6   -0.06    2.16
  -8  -3  -6    0.89    0.83
   8   3  -7    0.01    2.66
  -3   8  -7    3.40    2.53
  -3   8   7   -0.09    1.67
   3  -8   7    5.18    4.50
  -3   8   7   10.86    4.60
  -8  -3   7   -1.33    2.15
   8   3   7   -0.01    2.72
   3  -8   8    9.65    4.64
  -8  -3   8    1.82    3.65
   8   3   8   10.33    5.13
   8   3  -8    0.65    3.08
  -3   8   8    0.51    2.04
   8   3   9    1.91    3.75
   3  -8   9   -1.21    3.01
   8   3   9   -1.23    3.48
   3  -8   9    2.00    3.55
  -8  -3   9   -0.06    2.19
  -3   8   9    3.20    3.24
   8   3  -9    1.77    3.45
   8   3  10    3.35    4.95
   3  -8  10    1.37    3.14
   8   3 -10    1.09    2.48
  -3   8  10    5.26    5.32
  -8  -3  10    3.02    3.68
  -3   8 -10    4.74    5.54
  -3   8  11   -2.97    3.64
   8   3  11    3.22    4.91
   8   3  11   13.63    6.70
  -3   8 -11    3.14    5.62
   3  -8  11    4.13    4.55
  -8  -3  11    3.77    5.05
  -3   8 -12    3.87    4.67
   8   3  12   12.15    6.88
  -4   8   0  805.58   29.99
   8   4   0  795.86   28.88
   8   4  -1  491.27   18.57
   8   4  -1  469.33   22.71
   8   4   1  467.57   21.56
   8   4   1  485.80   17.88
   4  -8   1  545.16   16.31
  -4   8   1  533.98   23.89
  -4   8  -1  510.34   24.54
  -4   8   1  515.72   21.99
   8   4   1  493.17   22.09
   8   4   1  507.83   16.56
   8   4   2  806.49   17.83
   8   4  -2  823.11   31.34
   8   4   2  847.60   28.84
  -8  -4   2  788.32   25.89
  -4   8   2  827.64   29.40
   8   4  -2  789.74   21.64
   4  -8   2  807.97   20.93
  -4   8  -2  755.26   31.62
  -4   8   2  749.18   28.58
  -8  -4   2  829.93   21.46
   8   4   2  802.53   24.80
  -8  -4   3  219.41   14.62
   8   4   3  224.87   14.58
  -4   8  -3  245.21   18.32
   8   4  -3  213.47   16.23
  -4   8   3  244.70   16.81
   4  -8   3  231.82   15.98
  -4   8   3  235.63   16.12
   8   4   3  215.07   13.59
  -8  -4   3  220.76    8.82
   8   4   4   96.45    9.58
   8   4   4   94.91    9.90
   8   4  -4   93.04   11.06
  -4   8   4   95.42   11.04
  -4   8  -4   95.07   12.29
   4  -8   4   92.34   10.57
   8   4   4  108.38    7.75
  -4   8   4  101.61   10.76
  -8  -4   4   88.92   10.28
   4  -8   5   69.81    6.09
  -8  -4   5   67.70    9.63
  -4   8   5   63.70   10.01
  -4   8   5   65.34   10.01
   4  -8   5   61.82    9.68
   8   4   5   72.02    9.46
  -4   8  -5   80.20   11.85
   8   4  -5   82.63   10.82
   8   4   5   62.23    7.64
   8   4   5   68.19    7.35
   4  -8   6   11.16    4.88
  -4   8  -6   11.13    5.80
  -4   8   6    4.87    3.35
   8   4  -6    5.31    3.49
   8   4   6    5.79    2.89
  -8  -4   7   31.14    8.20
   8   4  -7   34.82    7.70
  -4   8   7   37.92    8.72
   8   4   7   39.27    8.68
   4  -8   7   25.72    7.34
  -4   8   7   27.47    6.88
   8   4   7   33.22    7.45
  -4   8  -7   46.61   10.31
   8   4   7   40.71    7.25
  -8  -4   8   81.60   13.46
   8   4   8   69.39   12.50
   8   4   8   87.92   11.50
   8   4   8   69.76   12.02
  -4   8  -8   67.94   12.97
  -4   8   8   81.08   13.40
  -4   8   8   60.04   11.66
   4  -8   8   71.90   12.18
   8   4  -8   85.41   12.11
   8   4  -9   62.76   10.93
  -4   8  -9   72.16   13.76
  -4   8   9   65.31   12.74
   4  -8   9   58.87   11.85
   4  -8   9   75.85   12.35
  -8  -4   9   72.32   13.38
   8   4   9   71.37   12.88
   8   4  10  104.36   16.35
  -8  -4  10  126.98   18.45
   8   4  10  119.38   17.65
   8   4  10  142.33   16.90
  -4   8 -10  117.74   17.74
  -4   8  10  119.33   18.35
   8   4 -10  117.76   15.42
   4  -8  10  126.28   18.37
  -4   8 -11   68.18   13.91
  -4   8  11   68.33   14.43
   4  -8  11   86.63   16.08
  -8  -4  11   54.10   13.05
   8   4  11   69.47   14.14
   8   4  11   97.45   16.84
   8   4  12   36.51   11.79
  -5   8   0    3.02    1.94
   8   5   0    0.05    1.53
   8   5   0    0.48    2.72
  -5   8   0   -0.38    1.99
  -5   8   1   87.66    8.92
   8   5  -1   89.68   10.37
   8   5   1   90.16    9.78
  -5   8   1   80.12    7.85
  -5   8  -1   75.27    9.77
  -5   8   1   82.13    9.84
   8   5   1   82.23    7.89
   8   5   1   80.55    9.31
  -8  -5   2   68.93    8.38
   8   5  -2   82.20   10.05
  -8  -5   2   68.74    7.79
   8   5   2   67.74    8.42
  -5   8   2   73.24    8.54
  -5   8   2   73.58    9.41
   8   5   2   72.07    4.87
   8   5   2   66.95    7.46
  -5   8  -2   73.08    9.74
   8   5   3    0.03    1.01
  -8  -5   3    1.96    2.15
   5  -8   3    1.03    1.92
   8   5   3    2.24    3.35
  -5   8   3   -0.16    1.12
   8   5   3    2.35    2.63
  -8  -5   3   -0.34    1.27
  -5   8  -3   -3.10    2.41
   8   5  -3    0.41    2.66
  -5   8   3    0.35    1.30
   8   5   4   78.13    6.89
   8   5  -4   86.06   10.83
  -8  -5   4   83.64   10.13
  -5   8  -4   87.07   11.30
  -8  -5   4   73.26    4.54
  -5   8   4   68.49    9.45
   8   5   4   77.40   11.00
   5  -8   4   80.33    9.86
  -5   8   4   80.13   10.23
   8   5   4   83.82    9.39
   8   5   4   85.77    9.77
   8   5   5   53.94    8.54
   5  -8   5   35.92    4.26
   8   5  -5   42.65    8.20
   8   5   5   43.73    8.93
  -5   8  -5   24.24    6.90
  -5   8   5   31.27    6.90
   8   5   5   55.65    7.94
   5  -8   5   31.33    6.22
  -8  -5   5   45.09    8.14
  -5   8   5   35.15    7.24
   8   5   5   46.00    6.07
  -5   8   6   84.15   12.19
   8   5  -6  121.46   13.95
   8   5   6  113.14   13.05
   8   5   6  117.61   15.07
  -5   8  -6   83.27   12.31
  -8  -5   6  111.87   13.85
   5  -8   6   85.86   11.87
  -8  -5   7   55.14   10.22
  -5   8   7   41.92    9.76
   5  -8   7   26.82    7.17
   8   5   7   62.08   10.50
  -5   8  -7   38.37    9.02
   8   5  -7   50.60    9.51
   8   5   8   -0.68    4.28
   8   5   8    2.48    2.37
  -5   8   8    9.08    6.39
  -5   8   8    0.47    1.58
   5  -8   8    3.08    3.18
  -5   8  -8    4.02    4.26
   8   5  -8    0.97    1.91
  -8  -5   8    3.44    2.31
  -5   8  -9    8.32    5.47
  -8  -5   9   12.78    5.49
  -5   8   9    9.25    5.20
   8   5  -9   15.73    6.32
   5  -8   9   10.34    5.32
   5  -8   9    1.16    2.08
   8   5   9   17.28    7.56
   8   5   9   12.40    6.26
  -5   8   9    4.16    3.79
   8   5  10   21.31    7.95
  -8  -5  10    7.00    4.39
  -5   8 -10   -0.06    3.55
   5  -8  10   -1.16    2.36
  -5   8  10    4.82    3.90
   8   5  10   22.10    7.62
  -5   8  11    8.44    6.49
   8   5  11    7.46    5.02
  -8  -5  11   12.32    7.02
   8   5  11    9.34    5.68
  -5   8 -11    0.15    2.87
   5  -8  11    6.61    4.91
  -5   8  11    6.15    5.74
   8   5  12    5.38    5.10
   8   5  12   -1.90    1.92
  -6   8   0    7.45    2.67
  -6   8   0    7.44    4.08
   8   6   0    2.45    1.48
   8   6   0    6.54    3.47
  -6   8   1   77.44    9.68
   8   6   1   55.33    7.97
   8   6   1   65.43    8.95
  -6   8   1   76.96    8.11
   8   6  -1   67.11    7.85
  -6   8  -1   77.25   10.14
   8   6  -1   60.84    8.80
   8   6   1   62.62    7.33
  -6   8   1   77.23    8.24
   8   6   2    8.39    1.80
   8   6  -2    7.60    3.86
  -8  -6   2    9.56    3.79
  -6   8  -2   10.11    4.39
  -6   8   2   13.13    4.28
   8   6   2   12.95    4.85
  -6   8   2    9.75    3.33
   8   6   2   13.65    4.12
   8   6   2   15.36    5.15
  -8  -6   2   11.11    3.68
   8   6   3   14.89    4.70
  -6   8  -3   13.90    4.72
   8   6  -3    9.03    3.64
   8   6   3   11.02    4.70
  -6   8   3   19.58    5.38
  -6   8   3   17.84    4.59
   8   6   3   11.17    4.12
  -8  -6   3   10.00    3.51
  -8  -6   3   11.52    3.79
   6  -8   3   10.70    3.19
  -6   8   4   34.87    6.97
   8   6   4   24.36    5.71
  -6   8   4   47.72    7.74
   8   6   4   27.26    7.20
  -6   8  -4   33.79    7.23
   8   6  -4   28.33    6.92
   8   6   4   26.79    5.99
   6  -8   4   32.31    6.18
  -8  -6   4   18.22    5.04
   8   6   5    3.75    4.54
   8   6  -5    1.69    2.27
   8   6   5    2.98    1.79
   6  -8   5    1.69    1.02
   8   6   5    2.82    3.56
  -6   8   5   -2.26    2.47
   6  -8   5    4.40    2.65
  -8  -6   5    0.73    0.42
   8   6   5    2.14    1.43
  -6   8   5    2.63    2.86
  -6   8  -5    4.51    4.62
  -8  -6   5    3.25    3.47
  -6   8  -6    1.71    3.73
   8   6   6    2.78    2.86
  -8  -6   6    3.18    2.64
   8   6   6    2.33    2.41
   8   6  -6    3.39    2.36
  -6   8   6    1.15    2.07
  -6   8   6    0.57    3.38
   8   6   6    4.78    5.49
  -8  -6   7    4.20    3.19
   6  -8   7    4.86    4.53
  -6   8  -7    4.33    2.29
  -6   8   7    8.24    4.33
   8   6   7   10.44    5.20
   8   6   7    7.28    4.68
   8   6  -7   13.21    5.23
   8   6   8    2.49    1.91
  -8  -6   8    4.29    4.02
   8   6  -8    3.86    3.48
  -6   8   8    3.13    1.80
   6  -8   8    3.18    3.48
  -6   8   8    7.49    4.21
   8   6   8    4.31    3.13
   8   6   8    1.76    4.04
  -6   8  -8   -0.74    2.36
   8   6   9    4.94    3.86
   6  -8   9    2.90    3.27
  -8  -6   9    7.65    4.84
  -6   8   9   -3.79    2.74
   8   6  -9    6.27    3.18
   6  -8   9    1.76    2.28
   8   6   9    7.38    4.41
  -6   8  -9    6.95    3.70
   8   6   9    8.43    5.12
  -6   8 -10   27.04    8.80
  -6   8  10   19.50    7.88
   8   6  10    8.95    5.74
  -8  -6  10    7.20    4.40
   6  -8  10   28.79    9.03
   8   6  10   12.35    6.11
  -6   8  10    8.21    4.64
  -6   8  11    1.76    3.25
  -8  -6  11   -0.39    4.75
  -6   8 -11   14.58    7.27
   6  -8  11   12.51    5.55
   8   6  11    8.33    5.90
  -6   8  11   11.49    5.83
   8   6  11    4.99    3.66
   6  -8  11   12.63    7.20
   8   7   0    0.66    2.50
   8   7   0   -0.86    2.45
  -7   8   0    0.63    2.83
  -7   8   0    1.32    2.17
  -7   8   1   12.67    3.33
  -7   8  -1   14.81    4.54
   8   7   1    3.74    3.43
  -7   8   1   21.57    4.79
   8   7  -1    7.32    3.09
   8   7   1   10.15    3.76
  -7   8   1   22.31    5.43
   8   7   1    4.07    2.37
   8   7   2   30.32    5.78
  -7   8   2   30.58    6.06
  -7   8   2   30.95    5.51
  -8  -7   2   33.43    5.82
   8   7   2   25.76    5.97
   8   7   2   31.82    7.19
  -7   8  -2   38.19    7.35
   8   7  -2   46.47    8.26
  -7   8   2   33.29    6.58
  -8  -7  -2   30.35    3.75
   7  -8   3   12.90    3.58
   8   7   3   21.14    5.24
  -8  -7   3   18.87    5.20
   8   7   3   15.44    4.47
   8   7   3   20.97    6.47
  -7   8   3   12.20    4.42
  -7   8  -3   16.20    5.51
   8   7  -3   20.52    6.08
  -7   8   3    7.64    3.21
   8   7   4    2.32    2.24
  -8  -7   4    3.31    1.28
   7  -8   4    2.08    1.96
  -7   8   4   10.17    4.21
  -8  -7   4    1.60    1.88
  -7   8  -4    2.96    3.18
   8   7   4    2.35    2.65
   8   7   4    4.77    4.59
   8   7  -4   -1.61    1.67
   7  -8   5    6.34    3.22
  -7   8  -5    2.22    2.57
   8   7   5    5.40    4.33
  -7   8   5    2.08    2.52
  -7   8   5    4.11    3.96
   8   7   5    0.19    1.48
  -8  -7   5    6.33    4.08
   8   7  -5   11.24    4.77
  -8  -7   5    7.72    3.50
   8   7   6    4.12   10.44
   8   7   6    0.70    2.02
   8   7  -6    3.71    3.35
  -8  -7   6    2.09    2.76
   7  -8   6    0.28    1.61
  -7   8   6    3.68    3.98
  -7   8   6    0.32    1.95
  -7   8  -6    3.28    3.96
   8   7   6    6.62    4.03
  -8  -7   7    3.48    1.91
   8   7   7    3.49    3.65
   8   7   7    3.14    2.10
  -7   8  -7   16.64    5.66
   8   7  -7    2.96    1.92
  -7   8   7    7.46    3.92
   7  -8   7   11.09    4.81
   8   7   8   11.23    4.51
   8   7   8   14.81    7.13
   7  -8   8   20.54    6.67
  -8  -7   8    8.25    4.86
  -7   8  -8   29.05    8.43
   8   7  -8   13.13    5.74
   8   7   8   20.65    7.55
  -7   8   8   26.63    7.71
   8   7   9    6.41    4.59
   7  -8   9    8.05    4.83
   8   7  -9   -1.46    2.58
  -7   8   9   18.21    7.70
   8   7   9    8.74    6.91
  -7   8  -9   10.62    5.94
   7  -8   9    9.34    4.80
  -8  -7   9    0.94    2.36
  -7   8   9   13.34    4.81
  -7   8  10   12.40    6.57
  -8  -7  10   -0.15    2.53
   7  -8  10   10.28    5.39
   8   7  10    3.43    4.28
  -7   8 -10    3.21    2.90
   8   7  10   -0.26    2.89
  -7   8  10    4.44    5.09
   8   7  11    2.21    4.23
   7  -8  11    8.89    6.63
  -7   8  11    4.06    3.85
  -7   8  11   21.49    9.60
  -8  -7  11    1.80    5.81
   7  -8  11    6.22    4.57
   8   8   0   91.27   11.41
  -8   8   0  107.08   10.47
  -8   8   0  105.38    9.10
  -8   8   0  102.23   11.92
   8   8  -1  176.34   15.90
  -8   8   1  193.98   14.57
  -8   8   1  184.64   12.41
   8   8   1  192.36   16.52
  -8   8  -1  171.71   15.62
  -8   8   1  188.62   16.15
   8   8   1  180.54   14.16
   8   8  -2  148.09   14.76
   8   8   2  140.41   14.33
  -8   8   2  134.89   13.90
  -8   8   2  156.69   12.16
  -8   8   2  149.49   13.41
   8   8   2  147.21   13.20
  -8   8  -2  139.72   14.33
   8   8   3   34.63    6.86
  -8   8   3   35.63    6.42
  -8  -8   3   50.65    8.39
   8   8  -3   42.77    8.21
  -8   8   3   37.88    7.91
   8  -8   3   38.31    6.09
   8   8   3   40.15    7.76
  -8   8  -3   31.90    6.93
   8   8   4    9.74    4.22
  -8   8   4    3.92    2.55
  -8  -8   4   11.60    3.86
  -8  -8   4   14.39    5.10
  -8   8  -4   13.61    4.68
   8   8   4   22.88    6.63
   8  -8   4    7.06    3.11
   8   8  -4   14.68    5.47
   8   8   4   17.80    6.26
  -8   8   4    8.92    4.36
  -8  -8   5    2.16    3.55
   8   8   5    3.72    3.88
   8  -8   5    1.16    2.56
  -8   8   5    5.39    3.84
  -8   8  -5    6.71    5.07
   8   8   5   -0.23    1.44
  -8  -8   5    1.86    2.48
   8   8  -5   -0.83    2.25
   8   8   6    0.06    4.20
  -8   8   6    1.77    1.58
   8  -8   6    1.41    2.73
   8   8   6    0.79    3.25
  -8   8  -6    2.66    3.90
  -8  -8   6    1.71    2.16
   8   8  -6    0.03    3.45
  -8  -8   6    4.48    3.38
  -8   8   6    2.67    2.07
   8   8   7    2.10    2.09
   8   8   7   -1.10    2.94
   8  -8   7    0.09    1.74
   8   8   7    4.57    3.87
  -8  -8   7    2.35    3.78
  -8   8  -7    3.30    3.39
  -8   8   7    2.34    3.15
   8   8  -7    4.76    4.08
   8   8   8    1.85    2.70
   8  -8   8    1.73    2.69
  -8   8  -8    2.61    3.63
  -8   8   8    1.99    3.42
   8   8   8    0.79    2.60
   8   8   8    6.59    5.18
   8   8  -8    6.62    4.88
   8  -8   9    6.02    3.49
   8   8  -9    2.27    3.10
   8  -8   9    3.20    4.21
   8   8   9   -0.18    2.55
  -8  -8   9    8.80    6.17
  -8   8  -9   -0.62    2.67
  -8   8   9    4.39    3.60
  -8   8  10    1.92    2.53
  -8  -8  10    8.59    4.62
  -8   8 -10    2.38    2.50
  -8   8  10    5.72    6.54
   8   8  10   10.60    6.66
   8   8  10   13.95    6.52
   8  -8  10    3.30    4.53
   8  -8  11   -2.43    2.50
   8  -8  11   -4.79    4.08
  -8  -8  11    9.11    6.57
   8   8  11   14.87    6.39
   8   8  12   11.66    7.08
  -9   8   0   -0.46    1.85
   8   9   0    3.86    4.23
  -9   8   0    0.15    1.05
  -9   8   1   31.60    4.99
   8   9   1   32.71    7.41
  -9   8  -1   38.42    7.46
   8   9   1   33.24    6.41
   8   9   1   28.51    6.53
  -9   8   1   31.62    6.26
   8   9  -1   33.32    7.19
  -9   8   1   36.83    7.34
   8   9  -2   86.01   11.65
   8   9   2   93.07   11.11
   8   9   2   93.63   11.99
   8   9   2  115.34   13.46
   8   9   2  102.76    7.79
  -9   8   2   80.82    8.75
  -9   8  -2   86.51   11.55
  -9   8   2   73.85   10.50
  -9   8  -3  142.17   15.02
   8   9  -3  153.94   16.01
   8   9   3  159.28   14.98
  -9   8   3  166.26   13.33
  -9   8   3  160.07   15.60
   8   9   3  162.35    6.51
   8   9   3  161.76   16.71
  -8  -9   3  147.01   14.72
  -8  -9   3  166.93   13.14
  -9   8   3  138.90   14.80
   8   9   3  164.83   16.15
   8   9  -4  274.95   21.32
  -8  -9   4  256.56   20.64
  -9   8  -4  244.46   20.21
   8   9   4  264.49   20.86
   9  -8   4  257.12   17.06
   8   9   4  266.34   20.13
  -9   8   4  260.12   21.17
  -9   8   4  261.53   18.23
   8   9  -5  262.36   21.31
   8   9   5  266.97   20.97
   8   9   5  234.85   21.91
  -9   8  -5  241.98   20.95
  -8  -9   5  254.10   21.51
   9  -8   5  274.20   19.10
  -9   8   5  261.51   19.72
   8   9   5  251.13   20.80
   8   9   6  256.19   21.96
   8   9  -6  275.47   22.30
   9  -8   6  306.69   21.83
  -9   8   6  288.32   22.28
  -8  -9   6  287.24   24.15
  -9   8   6  277.72   24.09
  -9   8  -6  280.40   23.25
   8   9   6  280.81   24.92
  -8  -9   7  194.66   18.46
   8   9   7  166.12   18.63
   8   9  -7  195.75   19.55
  -9   8  -7  199.03   20.49
  -9   8   7  194.25   19.73
  -9   8   7  179.76   20.58
   8   9   7  211.14   22.59
  -8  -9   7  200.40   21.12
   9  -8   8  127.46   16.22
   8   9  -8  123.20   15.76
   8   9   8  115.60   16.22
  -8  -9   8  106.37   16.40
   8   9   8  134.12   18.76
   9  -8   8  142.52   18.56
  -9   8   8  122.48   16.67
  -9   8  -8  113.07   15.75
  -9   8   9   59.61   12.13
   8   9   9   67.03   13.30
   8   9  -9   56.85   10.70
  -9   8  -9   45.17   10.51
  -8  -9   9   48.78   11.73
   9  -8   9   52.05   10.70
   8   9  10   30.14    9.63
   8   9  10   15.89    6.97
  -9   8  10   23.22    8.31
   9  -8  10   18.03    7.08
  -8  -9  10   10.78    6.46
   8   9  11    2.92    3.70
  -9   8  11    4.39    5.74
   9  -8  11    6.37    5.30
   9  -8  11   -1.61    4.97
   8   9  11    0.20    1.98
  -9   7   0  429.60   16.63
  -9   7   0  412.70   16.35
   7   9   0  441.39   25.67
  -9   7   0  402.29   23.72
  -9   7  -1  387.20   23.23
   7   9  -1  393.88   24.36
  -9   7   1  432.21   22.94
  -9   7   1  446.18   17.79
  -9   7   1  426.01   24.54
   7   9   1  390.20   24.12
   7   9   2  180.20   16.33
   7   9   2  211.35   16.51
   7   9  -2  192.27   17.09
  -9   7  -2  171.17   15.49
  -9   7   2  176.00   16.00
   7   9   2  203.48   10.85
   7   9   2  186.19   16.64
  -9   7   2  200.72   12.87
   7   9  -3   87.85   11.83
   7   9   3   82.89   10.66
  -9   7   3   81.78   10.82
   9  -7   3   91.36    8.87
  -9   7  -3   89.87   11.43
   7   9   3   85.77    5.01
   7   9   3   84.52   11.78
  -9   7   3   82.65    9.11
  -7  -9   3   85.75   11.01
  -9   7   3   83.93   11.37
   7   9  -4   20.88    6.08
  -7  -9   4   21.31    6.04
   7   9   4   17.91    5.30
   7   9   4   30.86    7.34
  -7  -9   4   23.54    5.40
   7   9   4   20.03    6.86
  -9   7   4   20.29    6.08
  -9   7   4   19.19    5.00
  -9   7  -4   18.98    5.14
   9  -7   4   34.21    6.09
  -7  -9   5    0.88    2.69
  -7  -9   5    2.85    2.79
   7   9  -5    4.93    2.82
  -9   7   5    0.98    1.78
  -9   7   5   -1.89    2.29
   7   9   5   -1.48    1.40
   9  -7   5    0.57    2.04
  -9   7  -5    1.72    2.68
  -7  -9   6    8.20    4.62
  -7  -9   6   10.48    4.31
   7   9  -6    6.07    3.10
  -9   7  -6    1.71    5.10
   9  -7   6    0.19    1.76
   7   9   6    8.44    4.79
  -9   7   6    7.97    4.28
  -7  -9   7   26.68    7.84
   9  -7   7   33.02    7.48
   7   9  -7   31.03    7.46
   7   9   7   18.55    6.17
  -9   7  -7   28.66    7.13
   7   9   8   27.77    7.01
   9  -7   8   18.66    6.00
   7   9  -8   17.85    5.85
   7   9   8   25.85    7.83
  -7  -9   8   20.85    7.47
  -9   7  -8   23.61    7.56
   9  -7   8   22.17    7.58
  -9   7   8   16.08    5.72
  -9   7   8   11.53    5.59
   7   9   9   24.99    8.87
  -9   7   9   38.17   10.26
  -9   7   9   15.68    6.59
   9  -7   9   26.44    7.40
   7   9  -9   21.81    6.39
  -9   7  -9   18.81    6.58
   9  -7   9   37.32    9.58
  -7  -9   9   25.76    8.32
   7   9   9   26.90    7.50
   7   9   9   27.48    8.50
   7   9  10   34.18   10.59
   9  -7  10   41.11   10.26
   7   9  10   46.22   11.91
   9  -7  10   42.78   10.75
   9  -7  11   39.03   10.81
   7   9  11   31.78    9.83
   7   9  11   26.83    9.05
  -9   7  11   29.18    9.75
   9  -7  12    9.54    6.44
   7   9  12   32.06   10.44
  -9   6   0   -0.51    0.79
   6   9   0    2.19    2.39
  -9   6   0    2.07    2.58
  -9   6   0    0.18    1.14
  -9   6  -1    2.57    1.34
  -9   6   1    8.02    3.49
  -9   6   1    4.54    1.89
   6   9   1    1.09    1.83
  -9   6  -1    2.71    3.15
   6   9  -1    6.84    3.83
  -9   6   1    2.47    1.76
   6   9   2   41.78    7.73
   6   9   2   46.18    8.06
   6   9  -2   44.88    7.93
  -9   6  -2   44.84    7.59
   6   9   2   47.18    5.27
  -9   6  -2   54.07    5.72
  -9   6   2   41.59    7.68
  -9   6   3   66.51    9.99
   6   9   3   62.43   10.07
   9  -6   3   75.83    7.73
   6   9  -3   63.47    9.75
   6   9   3   65.40    9.50
  -9   6   3   79.84   10.84
   6   9   3   72.34    4.99
   6   9   3   65.43   10.19
  -9   6  -3   72.40    9.74
  -9   6   3   67.86    7.84
  -6  -9   3   69.03    9.91
  -9   6  -4  107.78   12.44
  -9   6   4  112.30   12.99
   9  -6   4  111.38   10.39
  -9   6   4  109.99   13.31
   6   9  -4   80.34   11.00
  -9   6   4  110.91   11.06
   6   9   4   87.42   11.38
  -6  -9   4   99.17   12.56
   9  -6   5  127.80   12.25
   9  -6   5  111.86    5.34
   6   9  -5  116.12   13.36
  -6  -9   5  147.98   15.98
  -9   6   5  118.53   12.60
  -9   6  -5  122.01   13.38
   6   9   5  139.14   15.29
  -6  -9   5  155.62   13.21
   6   9   5  132.25   15.69
   6   9   6   49.48    9.62
   6   9   6   37.73    9.45
   6   9  -6   53.38    9.55
   9  -6   6   38.00    7.45
  -9   6   6   25.40    7.10
  -9   6   6   38.60    8.20
  -9   6  -6   31.17    7.32
  -6  -9   6   41.35    8.56
   6   9   7   34.47    9.02
   9  -6   7   44.28    9.66
  -9   6   7   35.90    8.56
   9  -6   7   34.44    7.51
  -9   6  -7   38.80    8.41
  -6  -9   7   41.72    9.64
   6   9   7   49.21   10.21
   6   9   7   62.08    9.71
   6   9  -7   65.33   10.57
   9  -6   8   44.56    9.46
   6   9  -8   70.36   11.03
  -9   6   8   63.18   11.61
   6   9   8   74.86   11.46
  -6  -9   8   68.13   12.92
  -9   6  -8   66.91   11.49
   6   9   8   60.74   12.23
   6   9   8   70.86   12.90
   6   9   9   21.00    6.66
  -9   6   9   20.00    6.83
   6   9   9   19.24    7.01
   9  -6   9   11.75    4.42
   6   9   9   27.68    8.98
  -9   6  -9   12.21    5.06
   9  -6  10   20.26    7.35
   6   9  10   13.80    6.24
  -6  -9  10   17.22    7.77
   9  -6  10    8.98    5.47
   9  -6  11   11.97    6.90
   9  -6  11    6.99    5.68
   6   9  11   14.32    6.66
  -6  -9  11    4.73    4.64
   6   9  11   13.20    6.54
   9  -6  12   -2.58    4.29
   6   9  12    1.28    3.06
  -9   5   0  427.91   22.60
  -9   5   0  462.52   13.38
   5   9   0  445.48   24.87
  -9   5   0  447.15   13.21
   5   9  -1  295.77   13.19
   5   9   1  308.57   15.46
   5   9   1  286.60   20.12
  -9   5  -1  305.84   10.83
  -9   5  -1  317.68   19.24
  -9   5   1  288.03   19.05
   5   9  -1  307.61   20.57
  -9   5   1  335.14   12.76
   5   9  -2  168.23   15.19
  -9   5   2  194.06   11.18
   5   9   2  145.42   13.59
   5   9   2  157.95    9.61
  -9   5  -2  184.01    9.62
  -9   5  -2  177.20   14.43
  -9   5   2  166.65   14.82
   5   9   2  166.85   15.56
  -9   5   3   49.45    8.76
  -9   5  -3   48.97    7.66
  -5  -9   3   52.98    8.87
  -9   5   3   61.56    7.16
   5   9   3   49.35    8.71
   5   9   3   50.05    4.49
   9  -5   3   54.10    6.18
   5   9  -3   47.17    8.01
  -9   5   3   53.89    8.77
   5   9   3   39.70    7.42
   5   9   4    6.72    3.19
   5   9   4    7.63    3.60
   9  -5   4   21.13    4.46
   5   9   4   12.59    1.98
   5   9  -4    9.50    4.50
  -5  -9   4   17.58    5.34
  -9   5  -4   11.03    4.04
  -9   5   4   17.06    4.30
  -5  -9   5    3.76    3.63
   9  -5   5    8.75    3.87
  -9   5   5    7.40    3.65
   5   9   5    3.13    3.99
  -9   5  -5    7.51    4.09
   5   9   5    3.37    1.49
   5   9  -5    2.20    3.27
   5   9  -6    2.01    1.93
   5   9   6    7.28    4.30
  -5  -9   6    7.19    4.70
  -9   5   6    7.86    4.43
  -9   5  -6    1.27    2.96
   9  -5   7    9.33    4.06
   9  -5   7    6.60    3.95
   5   9  -7   14.81    4.96
   5   9   7   17.91    5.72
  -9   5   7    6.46    3.84
  -9   5  -7    9.05    3.75
   5   9   7   23.87    7.39
  -9   5   7    3.81    3.05
  -5  -9   7   19.23    6.88
  -9   5  -8   10.58    5.07
   5   9   8   15.97    6.38
  -9   5   8   16.72    7.30
   5   9  -8   17.10    5.85
  -9   5   8    3.83    4.29
   5   9   8    9.83    4.96
   9  -5   8   11.49    5.54
   9  -5   8    4.17    3.44
  -9   5   9   22.04    7.52
  -5  -9   9    8.14    4.67
   5   9   9    9.07    5.67
   5   9   9    4.95    4.72
  -9   5  -9   20.52    6.33
  -9   5   9   31.00    9.35
   9  -5   9   21.05    7.02
   5   9  10   16.99    6.95
   5   9  10   12.66    5.74
  -9   5  10   15.48    7.86
   9  -5  10   15.57    6.69
  -5  -9  10   10.31    5.42
   9  -5  11   25.36    9.41
   9  -5  11   28.91    9.16
  -5  -9  11   16.71    7.82
   5   9  11   28.73    9.52
  -9   5  11   36.67   11.07
  -9   4   0    0.09    0.36
  -9   4   0    0.06    1.56
   4   9   0   -0.78    0.92
   4   9   0    1.00    2.83
  -9   4   0   -1.00    2.15
  -9   4   0    0.11    0.39
   4   9   1   12.46    2.99
   4   9  -1   13.69    2.46
   4   9   1   11.72    3.78
   4   9  -1   17.65    5.02
  -9   4   1   14.98    2.39
  -9   4  -1    9.91    1.64
  -9   4  -1   14.37    4.20
  -9   4   1   15.50    4.08
  -9   4   2   55.59    8.31
   4   9   2   38.21    4.88
   4   9   2   42.21    8.17
   4   9   2   33.04    6.51
  -9   4  -2   43.81    7.05
  -9   4  -2   48.79    4.48
   9  -4   2   46.25    4.43
   4   9  -2   33.67    6.98
  -9   4   2   44.96    5.16
  -9   4   3   18.87    3.84
   4   9   3   19.21    5.03
   9  -4   3   18.21    3.49
  -9   4   3    1.24    1.28
  -4  -9   3   18.58    3.36
  -9   4   3   21.45    6.02
   4   9  -3   14.32    5.11
   4   9   3   10.85    4.47
  -9   4   3   13.25    4.20
  -4  -9   3    9.82    3.75
   4   9   3   14.02    2.60
  -9   4  -3   15.47    4.67
   4   9   4    2.33    1.19
   9  -4   4    2.06    1.20
   4   9   4    1.52    2.50
  -9   4  -4    3.79    2.31
  -9   4   4    2.43    2.44
   9  -4   4    0.76    1.38
  -4  -9   4   -1.31    2.56
   4   9  -4    2.94    2.29
   4   9  -5    3.64    3.83
  -9   4   5    6.56    4.12
  -4  -9   5    2.92    2.64
   4   9   5    2.31    2.83
  -4  -9  -5    1.38    1.06
  -9   4  -5    8.20    3.35
   4   9   5   -0.15    2.59
   9  -4   5    3.65    2.45
  -9   4   5    4.00    3.11
   4   9   6    6.90    5.11
  -9   4   6    0.45    3.06
   4   9  -6   -0.91    1.74
  -4  -9   6   12.01    5.63
   9  -4   6    8.66    3.70
   9  -4   6   -3.15    2.72
  -9   4  -6    1.25    3.36
   4   9   6    5.65    2.72
   4   9   7   17.46    5.26
   4   9  -7   12.56    4.82
   4   9   7    6.37    4.03
  -4  -9   7    4.93    3.00
   9  -4   7    3.28    3.27
  -9   4  -7   -0.35    2.03
   9  -4   7    4.58    3.01
   4   9   7   11.92    5.32
  -9   4   8    1.09    2.22
   9  -4   8    7.38    4.31
   4   9   8    6.09    5.24
   4   9   8    3.76    2.86
  -4  -9   8    8.94    5.30
   9  -4   8    4.13    3.12
  -9   4  -8    5.30    3.72
   4   9  -8    3.93    2.57
   9  -4   9    2.86    3.51
   4   9   9    3.64    3.21
  -4  -9   9   13.82    6.76
   4   9   9    9.56    4.96
   9  -4   9    4.71    5.15
  -4  -9  10    5.88    4.61
   4   9  10    0.86    2.66
   9  -4  10    0.16    3.92
   4   9  10   -0.84    3.63
   9  -4  10    5.85    5.04
  -4  -9  11    1.40    3.00
   9  -4  11   -2.88    2.88
   9  -4  12   -3.00    3.82
  -9   3   0  132.25   11.55
   3   9   0  150.66   11.86
  -9   3   0  111.89   11.05
   3   9   0  163.39   14.52
  -9   3   1   63.96    8.85
   3   9  -1   60.98    4.30
   3   9   1   56.81    6.65
  -9   3   1   70.20    4.61
   9  -3  -1   65.88    4.51
  -9   3  -1   58.23    7.62
  -9   3   1   67.58    8.67
   3   9  -1   67.55    9.27
   3   9   1   59.98    8.75
   3   9  -2  131.67   12.71
  -9   3  -2  112.95    6.33
   9  -3   2   99.15    6.01
   3   9   2  119.25   12.77
   3   9   2  122.67    8.96
   9  -3  -2  109.04    7.56
   3   9   2  118.06   12.09
  -3  -9   2  122.33    6.29
  -9   3  -2   97.43    9.58
  -9   3   2  106.15   11.24
  -9   3   2  107.58    7.54
   9  -3   3   40.15    4.79
   9  -3   3   33.30    4.42
   3   9  -3   50.22    8.28
  -9   3  -3   37.75    4.67
  -9   3   3   42.09    7.96
  -3  -9   3   46.11    8.09
  -3  -9  -3   46.55    5.37
  -9   3  -3   37.50    6.10
   3   9   3   49.43    8.17
   3   9   3   42.97    4.85
  -9   3   3   33.96    6.13
  -9   3   3   38.23    5.64
   3   9   4    8.46    2.37
  -9   3   4    9.04    3.82
  -3  -9   4   10.44    4.05
   3   9   4   13.37    4.74
  -9   3  -4    4.33    2.79
  -9   3   4    4.59    2.43
   3   9  -4   10.45    3.59
  -3  -9  -4   10.61    2.59
   9  -3   4    7.85    1.74
   9  -3   4   10.58    3.28
   9  -3   5   -1.62    1.92
  -3  -9   5   -3.26    3.47
  -9   3   5    3.61    2.62
  -3  -9  -5    1.60    1.61
  -9   3  -5    0.24    1.38
   9  -3   5    2.49    2.48
   3   9   5    3.27    3.38
   3   9  -5    2.22    2.50
   3   9  -6    6.32    3.57
  -9   3   6    5.28    3.49
   9  -3   6    7.73    3.36
   3   9   6   10.27    4.56
   3   9   6   13.08    5.45
   9  -3   6    9.55    4.81
  -9   3  -6    8.42    3.22
  -3  -9   6    6.91    3.81
  -9   3   7    6.52    4.69
   3   9  -7    0.56    1.48
  -9   3   7    1.50    1.85
  -9   3  -7   -0.47    1.04
   9  -3   7    2.18    3.77
  -3  -9   7    6.33    5.07
   3   9   7    2.38    3.14
   9  -3   7    1.73    2.94
   3   9   7   -1.89    2.52
   3   9   7   10.52    5.85
  -3  -9   8    6.02    4.45
   9  -3   8    9.25    5.25
  -9   3   8    7.71    5.08
  -9   3  -8    6.41    4.69
   9  -3   8    2.55    2.30
   3   9   8    3.62    2.92
   3   9  -8    6.38    3.08
   3   9   8    3.52    4.42
  -9   3   9   14.58    6.65
   9  -3   9    8.62    5.04
  -3  -9   9   13.77    6.28
   9  -3   9   11.27    4.82
   3   9   9   10.11    5.57
  -3  -9  10    8.89    6.21
  -9   3  10    9.07    6.13
   9  -3  10    8.63    5.11
   3   9  10    8.49    5.38
  -9   3  11   10.46    6.05
   9  -3  11    6.01    4.36
  -3  -9  11    9.23    4.78
   9  -3  11    5.44    2.86
   9  -3  12    1.41    2.50
   9  -3  12    0.60    2.70
   2   9   0    0.10    1.22
   2   9   0    2.96    2.54
  -9   2   0   -0.12    1.68
   9  -2  -1   11.82    1.75
  -9   2   1   11.07    1.73
   2   9  -1   14.17    3.81
   2   9  -1   14.27    5.21
  -9   2  -1   11.66    3.16
   2   9   1   18.22    4.19
   2   9   1   26.80    6.19
  -9   2   1   15.28    4.13
   9  -2   2    4.22    2.25
  -9   2   2    2.28    1.44
  -9   2   2   -0.23    0.99
   9  -2   2    1.78    0.93
  -9   2  -2    2.50    1.84
   2   9   2    1.02    1.47
  -9   2  -2    2.51    1.08
   9  -2  -2    0.60    0.71
   2   9  -2   -2.85    2.63
   2   9   2   -2.08    2.14
   2   9   3    8.51    3.71
  -9   2   3    0.35    0.92
   9  -2   3    6.07    1.99
  -2  -9   3    3.62    1.48
  -9   2   3    0.08    1.37
  -9   2  -3    4.82    1.91
  -9   2   3    0.11    2.43
   2   9  -3    1.81    2.50
   9  -2   3    3.85    1.56
  -9   2  -3    3.10    1.95
   2   9   3    2.36    1.57
  -2  -9   3   11.61    4.74
   2   9  -4   27.49    5.96
   9  -2   4   34.68    3.93
  -9   2   4   32.69    5.69
   2   9   4   22.19    5.74
   2   9   4   30.88    4.53
   9  -2   4   28.23    4.90
  -2  -9   4   24.94    6.20
   9  -2   4   24.68    6.25
  -9   2  -4   30.84    5.37
  -9   2   5   -0.09    1.48
  -9   2   5    1.61    2.53
   2   9   5    8.02    4.83
   9  -2   5    1.20    1.28
   9  -2   5    5.35    4.08
   2   9  -5    1.75    2.02
  -9   2  -5    1.59    1.78
  -2  -9   5    0.73    2.82
   9  -2  -5    1.39    0.96
  -9   2  -6    1.77    2.40
   9  -2   6    2.83    2.27
   2   9   6    8.65    3.95
  -2  -9   6   -0.06    2.02
   2   9   6    2.70    1.98
   2   9  -6    2.17    3.06
   9  -2   6    0.04    3.37
   9  -2   7    0.99    1.62
  -9   2   7   -2.25    2.36
   2   9  -7    4.21    2.40
   2   9   7    0.50    1.60
  -9   2  -7    2.12    2.44
   9  -2   7    6.46    4.43
  -9   2   8    1.10    4.17
   9  -2   8   -3.66    3.02
   2   9   8   -1.06    2.73
  -9   2   8   -0.55    2.02
  -9   2  -8    3.12    2.55
  -9   2   9   -0.13    2.87
   9  -2   9    3.83    4.63
   9  -2   9   -2.02    2.34
   2   9   9    6.25    4.67
  -2  -9   9    6.53    4.53
  -9   2  10   -1.13    3.30
   2   9  10    1.37    3.27
   9  -2  10    6.84    4.46
  -2  -9  11   -0.12    2.08
  -9   2  11    1.43    3.55
  -9   2  11   -0.12    1.77
   2   9  11   11.14    5.73
   9  -2  11   -2.42    4.44
   9  -2  11   -0.86    3.29
   9  -2  12    4.52    3.24
   9  -2  12    2.20    5.20
   9  -1   0  928.06   22.40
   1   9   0 1010.04   32.00
   1   9   0  986.62   35.38
  -9   1   0  936.16   29.74
  -9   1   1 1007.42   32.72
   9  -1   1  970.06   29.17
  -9   1   1  999.19   17.89
   1   9  -1 1008.99   35.09
   9  -1  -1  982.97   17.77
   1   9   1  952.25   35.63
  -9   1  -1  980.91   29.19
  -9   1   1  993.74   26.13
   9  -1   1 1031.73   21.65
   1   9  -1 1026.26   34.66
   1   9   1 1026.16   30.40
   1   9  -2  771.40   29.97
   9  -1  -2  761.46   20.27
   9  -1   2  738.92   29.37
   9  -1   2  755.43   16.65
   1   9   2  779.40   24.89
  -9   1   2  747.52   20.23
  -9   1  -2  730.78   24.48
   1   9   2  726.52   30.17
  -9   1  -2  743.32   16.75
   9  -1   2  730.04   23.25
   9  -1   3  198.57   11.01
  -9   1   3  217.99   12.74
   1   9   3  204.43   12.18
  -9   1  -3  215.15   12.79
   9  -1   3  204.65   10.90
   1   9  -3  203.93   15.13
  -9   1   3  220.52   14.99
  -1  -9   3  183.75   15.23
   1   9   3  203.22   16.31
  -9   1  -3  216.03   11.19
  -9   1   4   21.80    4.54
   1   9  -4   21.03    4.97
   1   9   4   13.55    4.39
  -9   1   4    1.69    2.24
   1   9   4   19.31    3.85
  -9   1  -4   21.97    4.29
   9  -1   4   21.35    4.08
   9  -1   4   24.17    3.67
  -1  -9   4   24.17    6.53
   9  -1   4    5.90    3.36
   9  -1   5    7.05    3.01
   1   9   5    5.95    2.72
   9  -1   5    6.33    1.50
  -9   1  -5    7.44    2.46
   1   9  -5    8.41    3.15
   9  -1   5    8.45    4.13
  -1  -9   5   10.92    4.80
   1   9   6   10.56    4.65
  -9   1   6    2.82    1.91
   1   9  -6    3.32    3.29
   9  -1   6    7.00    4.70
  -9   1  -6    3.09    2.21
  -1  -9   6    6.65    5.10
   1   9   7   12.62    5.29
  -9   1   7   14.40    5.25
   1   9   7    5.43    3.98
   1   9  -7    9.86    3.59
  -9   1  -7   12.50    3.98
   9  -1   8   22.66    6.56
   1   9   8   25.72    8.22
  -9   1   8   26.03    7.18
  -1  -9   8   28.93    8.01
   9  -1   8   28.37    7.73
   9  -1   9   28.66    7.53
   1   9   9   41.12   10.27
  -9   1   9   53.13   11.05
  -1  -9   9   44.02   10.77
  -9   1  10   35.77    9.50
   9  -1 -10   38.49    9.76
   9  -1  10   38.77    9.92
  -1  -9  10   37.70   10.22
   1   9  10   48.18   11.25
   1   9  10   39.87   10.70
   1   9  11   34.18    9.98
  -9   1  11   53.06   12.79
  -1  -9  11   52.97   12.82
   1   9  11   48.78   12.59
   9  -1  11   58.17   12.91
   9  -1  12   45.90   12.02
  -9   0   0    1.46    1.23
   9   0   0    1.40    1.49
   0   9   0   -3.39    4.00
   0   9   0    1.10    1.66
   9   0  -1    0.69    0.75
  -9   0   1    1.17    0.90
   9   0   1    0.14    1.38
   0   9   1   -0.69    1.35
  -9   0   1   -0.19    0.73
   9   0   1    1.45    0.79
   0   9  -1    1.94    1.95
  -9   0  -1    1.13    1.33
   9   0   1    4.80    2.65
   0   9  -1    1.31    2.44
   0   9  -2   65.19    8.59
   9   0   2   61.06    6.62
   9   0  -2   61.82    5.57
  -9   0  -2   57.84    4.73
  -9   0   2   62.07    5.70
  -9   0  -2   54.99    6.08
   0   9   2   58.93    6.96
   9   0   2   64.03    8.62
   9   0   2   52.42    4.34
   9   0  -2   59.40    5.54
   0   9  -2   60.06    8.93
   0   9   2   60.29    8.58
   0   9  -3   18.23    4.72
  -9   0  -3   17.24    3.26
   9   0   3   -0.92    1.61
   0  -9   3   16.39    5.07
  -9   0   3   19.85    3.91
   9   0  -3   20.25    2.66
   9   0   3   21.09    3.58
   9   0   3   18.95    3.53
   0   9   3   11.22    3.46
  -9   0  -3   15.52    3.13
   0   9   3   15.84    3.74
  -9   0  -4  144.58    9.73
   9   0   4  140.15    8.96
   0  -9   4  143.51   14.35
   9   0   4  151.73   11.17
   0   9  -4  156.86   12.93
  -9   0   4  136.33   11.81
   0   9   4  147.10   11.01
   0   9   4  155.68   14.87
  -9   0   4  124.55   13.65
   0   9  -5  150.83   12.53
   9   0   5  188.69   17.46
  -9   0  -5  177.30   11.38
   0  -9   5  136.81   14.85
  -9   0   5  183.43   15.19
   0   9   5  136.69   14.91
   9   0   5  178.24    9.16
   9   0   6   85.17   10.75
   0   9  -6   79.05    9.22
  -9   0   6   77.02   10.61
   0  -9   6   75.12   11.60
  -9   0  -6   91.04    8.60
   9   0   6   93.25   12.97
   0   9   6   66.50   10.94
   9   0   7   55.64    9.55
  -9   0   7   68.58   11.22
   0   9   7   61.43   11.18
   0  -9   7   60.94   11.13
  -9   0  -7   52.60    7.02
   0   9  -7   58.38    7.92
   0  -9   8   41.27    9.70
   9   0   8   64.73   10.92
  -9   0   8   57.86   10.98
   0   9   8   36.70    9.10
   9   0  -9   25.76    7.31
   0  -9   9   27.63    8.27
   9   0   9   32.07    8.25
   0   9   9   14.54    6.15
   9   0   9   25.25    7.39
  -9   0   9   34.92    8.74
   9   0 -10   13.39    5.54
   9   0  10    8.28    5.49
   0  -9  10    3.11    1.94
  -9   0  10   11.44    6.23
   0   9  10    3.36    3.06
   0   9  10    1.19    2.94
   9   0  11    6.14    4.92
   0  -9  11    4.27    5.07
  -9   0  11    5.51    4.57
   0   9  11    3.26    4.30
   0   9  11    8.77    6.99
   9   0  12   -1.45    2.17
   9   0  12   -0.02    3.16
  -1   9   0 1257.96   37.85
   9   1   0 1310.57   20.82
   9   1   0 1389.25   37.67
   9   1   0 1388.46   34.85
   9   1   1  722.34   25.47
  -9  -1  -1  691.91   22.59
   9   1  -1  731.71   17.50
   9   1   1  686.51   26.16
  -1   9   1  792.75   29.54
   9   1  -1  655.56   26.86
  -1   9   1  763.44   27.35
   9   1  -1  724.41   22.29
  -1   9  -1  781.61   30.56
  -9  -1   1  711.68   17.45
  -1   9  -1  774.71   29.80
   9   1   1  701.71   14.87
   9   1  -2  441.83   22.92
  -1   9   2  433.45   19.97
   9   1   2  430.21   18.53
   9   1   2  438.22   14.06
   9   1  -2  445.99   14.98
  -1   9  -2  448.16   22.26
  -1   9  -2  428.05   23.87
  -9  -1  -2  460.76   14.82
  -1   9   2  412.08   21.94
  -9  -1  -2  441.33   16.50
   9   1   2  453.59   22.45
  -9  -1   2  454.37   16.50
  -1   9  -3  265.70   16.49
  -9  -1  -3  251.55   11.85
   9   1   3  257.48   12.31
   9   1   3  249.50   13.41
   9   1   3  266.38   12.96
   9   1  -3  246.38   17.78
  -1   9   3  243.05   17.73
  -1   9  -3  277.19   19.83
   1  -9   3  269.38   18.32
  -9  -1   3  258.19   14.29
  -1   9   3  278.19   15.79
   9   1  -4   51.26    8.45
  -9  -1   4   60.26    9.54
  -9  -1   4   60.82    8.06
   1  -9   4   68.88    9.95
   9   1   4   63.80    6.61
  -1   9   4   70.72    8.05
  -9  -1  -4   54.08    5.43
  -1   9  -4   77.00    8.83
  -1   9   4   82.13   10.80
   9   1  -5   -0.88    2.73
  -1   9   5    0.44    1.56
   9   1   5    1.08    1.63
   9   1   5    0.09    2.12
  -1   9  -5    0.96    2.35
   9   1   5   -1.13    1.77
  -9  -1   5    1.72    2.08
  -1   9   5    0.47    1.80
  -9  -1  -5    1.07    1.08
   1  -9   5    5.09    3.84
   9   1  -6    5.77    3.17
  -9  -1  -6    5.79    2.13
   9   1   6    6.06    3.38
   1  -9   6    3.09    2.14
  -1   9   6    0.97    2.39
  -1   9   6    1.51    2.23
  -9  -1   6    9.62    3.79
  -1   9  -6    4.60    2.67
   9   1  -7   15.90    5.31
  -1   9   7   21.81    6.99
  -1   9  -7   14.39    3.91
  -9  -1   7   13.61    5.25
   1  -9   7   17.92    6.28
   9   1  -8   19.24    6.37
   9   1   8   17.28    5.99
  -9  -1   8   17.97    6.20
  -1   9   8   18.66    6.75
   1  -9   8   25.34    7.73
   9   1  -9    2.71    4.06
   1  -9   9    9.52    5.30
   1  -9   9    9.56    4.16
   9   1   9   -3.35    4.44
  -1   9   9   13.26    6.13
  -9  -1   9   11.03    5.32
   9   1 -10   19.95    6.89
   9   1  10   24.18    8.22
   1  -9  10   32.73   10.05
  -1   9  10   16.21    6.78
  -1   9  10   18.67    6.53
  -9  -1  10   16.86    7.32
  -1   9  11   44.92   11.67
   9   1  11   31.73    9.44
   1  -9  11   37.82   11.07
   9   1  11   38.87   10.47
  -9  -1  11   37.59   10.73
  -1   9  11   45.36   12.38
   9   1  12    8.33    5.46
   9   2   0    0.90    0.78
   9   2   0    0.99    1.22
  -2   9   0    1.87    2.40
  -2   9   0    2.38    1.35
   9   2   1    6.49    1.72
   9   2  -1    2.71    1.47
   9   2   1    4.13    2.27
  -9  -2   1    6.60    3.40
   9   2  -1    4.92    2.09
   9   2  -1    6.72    1.99
  -2   9  -1    2.84    3.15
  -2   9   1    4.64    3.20
  -2   9   1    4.63    2.77
  -9  -2   2   10.69    2.62
   2  -9   2   12.28    1.69
   9   2   2    8.36    4.06
   9   2  -2    6.07    2.30
  -2   9  -2   12.10    4.08
  -9  -2   2    6.60    2.38
   9   2   2    9.78    2.42
  -2   9   2   17.38    4.37
   9   2   2   13.82    3.50
  -2   9   2    5.72    2.70
   9   2   2    9.85    2.19
  -2   9   3   10.70    3.98
   9   2  -3    9.38    4.04
  -9  -2  -3    9.35    2.21
  -9  -2   3    8.19    2.76
   9   2  -3    8.24    1.57
   9   2   3    9.42    2.14
  -2   9  -3   11.14    3.78
   9   2   3    8.48    2.82
   2  -9   3   10.21    3.95
  -2   9  -3    9.21    3.61
   9   2   3   11.51    2.98
  -2   9   3    6.78    2.76
  -9  -2   4   51.90    7.44
   9   2  -4   58.66    9.21
  -9  -2  -4   59.38    4.87
   9   2   4   68.70    7.83
  -2   9   4   51.74    8.68
   2  -9   4   63.77    9.43
  -2   9  -4   44.00    6.59
  -2   9  -4   59.63   10.21
  -9  -2   4   59.86    9.30
   9   2   4   56.78    6.61
  -2   9   4   55.71    7.73
   9   2  -5   94.38   12.19
   9   2   5   99.43    8.57
   9   2   5  103.83   10.74
  -2   9   5   81.41   11.66
  -2   9  -5   83.46    8.77
  -9  -2  -5  111.96    6.84
  -9  -2   5   91.24   10.86
  -2   9  -5  124.54   15.14
   2  -9   5   97.92   12.43
  -2   9   5  102.69   10.72
   9   2   6   77.19   10.51
  -9  -2  -6   79.20    6.23
  -2   9   6   58.84   10.34
   9   2  -6   78.86   11.18
  -2   9   6   49.13    9.41
  -9  -2   6   76.94   10.94
   9   2   6   80.27   11.76
   2  -9   6   52.14    9.98
  -2   9  -6   75.23    8.11
  -2   9   7   59.53   11.18
   9   2  -7   75.73   11.69
   9   2   7   75.69   12.27
   9   2   7   80.19   11.47
  -9  -2   7   69.98   11.69
   2  -9   7   61.19   11.03
   9   2   8   43.94    9.12
   9   2  -8   53.36   10.25
   2  -9   8   24.23    8.01
  -2   9   8   17.39    6.69
  -9  -2   8   42.04    9.64
   2  -9   9   13.05    6.51
   9   2   9   37.36    8.67
   9   2  -9   33.08    8.22
   2  -9   9    6.42    3.55
  -2   9   9   21.36    7.80
  -9  -2   9   18.09    7.07
   9   2 -10    6.82    4.65
  -9  -2  10    0.79    1.50
   9   2  10    2.40    3.70
   2  -9  10    2.33    3.11
  -2   9  10   -1.78    3.51
  -2   9  10    7.00    4.84
  -9  -2  11    4.65    4.60
   2  -9  11   -1.09    3.15
   9   2  11    2.93    4.26
  -2   9  11    1.68    2.79
  -2   9  11    3.30    4.64
   9   2  12   10.94    4.83
  -2   9 -12   -3.79    4.48
   9   2  12    3.43    4.28
   9   3   0   59.97    5.44
  -3   9   0   89.70    6.25
  -3   9   0   79.63    9.66
   9   3   0   49.21    7.43
  -3   9  -1   28.55    5.83
   9   3   1   25.52    5.10
   9   3  -1   29.97    4.67
   9   3   1   24.59    3.55
  -3   9   1   35.05    6.31
  -3   9   1   34.22    6.27
   9   3  -1   19.80    4.96
  -9  -3   2   99.12   10.88
   9   3  -2   97.71   10.87
   9   3   2   91.72    8.96
  -3   9   2   65.22    8.30
   9   3  -2   86.11    6.81
   9   3   2   86.84    7.37
  -3   9  -2   91.65   11.42
   9   3   2   85.55    6.39
   9   3   2   90.53   10.18
  -3   9   2   76.46    9.43
  -9  -3   2   97.92    8.45
   3  -9   2   84.01    5.38
  -3   9  -3   -1.78    2.26
  -3   9   3    3.60    2.77
   9   3  -3    4.24    3.19
   9   3   3    2.00    1.94
   9   3   3    3.41    2.70
  -9  -3   3   -0.75    1.79
   3  -9   3    5.43    3.34
   9   3   3    0.37    0.97
   9   3   3    1.40    1.05
  -3   9   3   -0.53    1.86
   3  -9   4   -1.39    2.55
   9   3  -4   -1.62    2.61
  -9  -3   4    1.02    1.51
  -3   9  -4   -2.49    2.70
   9   3   4    0.58    0.60
   9   3   4    0.22    1.93
   9   3   4    2.33    1.88
  -3   9   4    1.11    1.50
  -3   9   4   -1.21    1.24
  -3   9   5   16.48    4.75
   9   3   5   35.19    5.58
  -9  -3  -5   34.61    2.75
  -3   9  -5   11.44    5.02
  -3   9   5   23.66    6.56
   9   3   5   41.53    6.95
   9   3  -5   35.09    7.27
   9   3   5   36.43    7.56
   3  -9   5   18.33    5.50
  -3   9   6    2.84    2.94
   9   3  -6    8.74    4.11
   3  -9   6    7.36    4.09
  -3   9   6    7.81    3.76
   9   3   6   10.31    3.93
  -3   9  -6    7.28    5.28
  -9  -3   6   13.76    5.33
   9   3  -7    4.42    3.81
   9   3   7   -4.48    2.28
  -3   9  -7    3.22    3.78
   9   3   7    6.11    3.51
  -9  -3   7    1.84    3.02
  -3   9   7   -2.50    2.55
   9   3  -8    6.07    3.60
  -3   9  -8    4.05    4.17
   9   3   8    2.71    4.27
   3  -9   8    5.16    3.88
  -3   9   8    7.07    5.36
  -9  -3   8   -0.63    1.47
   9   3  -9    5.26    4.31
  -3   9   9    6.72    6.18
   9   3   9    8.79    4.72
   3  -9   9    3.69    3.72
   3  -9   9    5.95    3.90
   9   3   9   12.53    6.08
  -3   9  -9    0.61    4.14
  -9  -3   9   -1.87    2.93
   9   3  10   10.96    5.64
   9   3 -10    4.68    3.73
   9   3  10    3.89    3.47
  -3   9  10    2.47    4.78
  -3   9 -10    5.66    4.99
   3  -9  10    1.37    2.54
  -9  -3  10    5.11    5.00
   9   3  11    2.98    4.71
  -3   9  11    5.79    4.67
  -3   9 -11    1.75    2.37
   3  -9  11   11.43    6.50
  -9  -3  11    2.14    3.41
  -3   9 -12    2.16    4.29
   9   3  12    2.11    4.02
   9   4   0    1.04    2.07
  -4   9   0    1.30    1.29
  -4   9   0    3.26    2.78
   9   4   0    1.02    1.37
   9   4   1    0.81    2.32
   9   4  -1   -0.19    2.10
  -9  -4   1    3.05    2.82
  -4   9  -1    3.69    3.93
  -4   9   1   -0.50    1.64
  -4   9   1   -0.24    1.62
   9   4  -1    1.14    1.66
   9   4   1    2.17    2.15
  -4   9   2   24.75    5.32
  -9  -4   2   35.28    5.43
   9   4   2   28.01    5.15
   9   4  -2   32.50    6.56
   9   4   2   40.03    4.12
  -4   9  -2   23.83    6.18
  -4   9   2   22.13    5.17
   9   4   2   43.15    5.65
   9   4   3   66.96    7.52
   9   4  -3   66.17    9.63
   9   4   3   68.46    4.34
  -9  -4   3   63.87    8.08
  -4   9   3   90.87   10.58
  -4   9  -3   82.02   11.28
  -4   9   3   71.16    9.04
   4  -9   3   81.30   10.00
   9   4   3   81.75    9.24
  -4   9  -4   18.17    5.59
  -9  -4   4   38.59    7.40
   9   4  -4   20.21    5.40
   9   4   4   34.32    5.83
  -9  -4   4   33.20    6.08
   9   4   4   39.61    6.14
  -4   9   4   39.68    7.95
   4  -9   4   34.86    7.19
  -4   9   4   28.67    6.24
   9   4   4   37.64    4.34
   4  -9   5   70.68   10.19
  -9  -4   5   55.96    8.99
   9   4  -5   60.59    9.67
  -9  -4   5   52.57    9.36
   9   4   5   63.49    8.12
   9   4   5   56.34    8.43
  -4   9  -5   71.27   11.61
  -4   9   5   76.19   10.23
  -4   9   5   82.75   11.44
  -4   9   6   95.71   13.05
   9   4   6   85.13    9.02
  -9  -4   6   70.88   11.03
   9   4  -6   67.66   10.73
   9   4   6   85.32   11.25
   4  -9   6   70.29   10.91
  -4   9   6   78.24   12.23
  -4   9  -6   88.30   13.23
   9   4  -7   36.95    8.27
   9   4   7   28.39    5.97
  -4   9  -7   48.19   11.22
  -4   9   7   36.22    8.95
   9   4   7   26.36    6.92
  -4   9   7   41.31    9.40
   9   4   7   24.54    7.56
  -9  -4   8   32.15    8.48
   4  -9   8   27.93    7.50
   9   4   8   30.71    8.75
   9   4  -8   20.77    6.48
  -4   9  -8   35.34    9.53
  -4   9   8   43.56    9.83
   9   4   8   27.37    7.48
   9   4   9   26.56    8.01
  -9  -4   9    6.07    4.09
   9   4  -9   25.05    6.92
  -4   9  -9   33.75    9.42
   4  -9   9   29.15    8.05
   4  -9   9   29.86    8.54
  -4   9   9   35.77    9.49
   9   4  10   10.88    5.15
   4  -9  10    8.66    3.37
  -4   9 -10    9.23    5.47
   9   4 -10   10.79    4.95
  -9  -4  10   11.11    6.01
   4  -9  10   20.90    6.81
   9   4  10   10.54    5.80
   9   4  11   15.77    6.98
  -4   9 -11    5.65    4.93
   9   4  11    1.73    4.58
  -4   9  11    9.15    4.84
   4  -9  11   12.90    6.85
   9   4  12   -4.47    3.30
  -5   9   0   22.33    3.90
   9   5   0   51.89    8.11
  -5   9   0   35.32    7.04
   9   5   0   43.87    6.64
  -5   9   1   23.57    4.79
   9   5   1   37.27    5.42
  -5   9  -1   18.42    4.15
   9   5  -1   35.02    6.81
   9   5  -1   36.35    5.38
   9   5   1   25.86    5.59
  -5   9   1   28.48    6.14
  -5   9   2    9.90    3.05
  -9  -5   2    7.02    2.76
   9   5   2    2.82    1.22
   9   5  -2    4.65    2.35
   9   5   2    5.61    2.75
   9   5   2    3.87    2.79
  -9  -5   2    4.67    3.32
  -5   9  -2   10.67    4.18
   9   5   2    2.47    1.91
   9   5  -2    4.63    2.15
  -5   9   2    5.37    2.10
   9   5  -3    4.26    3.11
  -9  -5   3    2.17    2.37
   9   5   3    1.29    2.12
  -5   9   3    9.79    3.35
  -9  -5   3    9.00    3.93
  -9  -5   3    2.45    1.23
   9   5   3   12.61    4.28
   5  -9   3   11.19    3.62
   9   5   3    6.24    2.83
  -5   9  -3    3.40    2.74
  -5   9   3    6.26    3.12
   9   5   4    7.96    3.77
   9   5   4    5.81    3.56
  -9  -5   4    2.61    2.01
   9   5   4    5.56    2.78
  -9  -5   4    8.62    4.27
  -5   9  -4    7.86    5.22
   5  -9   4    0.99    2.04
   9   5  -4    5.27    3.18
  -5   9   4    3.81    3.11
  -5   9   4    5.55    3.35
   5  -9   5    4.95    3.08
   9   5   5    4.72    2.93
  -5   9  -5    8.99    4.13
   9   5   5    4.06    3.25
   9   5   5    4.38    2.03
   9   5  -5    1.91    2.59
  -9  -5   5    0.48    1.31
  -9  -5   5    3.20    3.52
   9   5   5    5.87    4.15
  -5   9   5    2.99    3.31
  -5   9   6   -0.45    4.04
   9   5  -6    1.03    2.73
   9   5   6    1.31    1.55
  -5   9  -6    1.74    2.43
   9   5   6   -2.60    3.66
  -9  -5   6    0.20    2.27
   9   5   6    1.30    2.52
  -5   9   6    5.58    3.43
   5  -9   6    2.67    3.46
  -5   9   7    4.09    4.52
  -9  -5   7   -0.59    2.32
  -5   9  -7   -3.39    2.89
  -5   9   7    2.59    3.20
   9   5  -7   -2.18    3.49
   9   5   7    3.83    3.85
  -9  -5   8    1.80    3.56
  -5   9   8    7.39    5.64
   9   5  -8    4.93    4.07
  -5   9  -8    0.20    3.46
   9   5   8    4.36    4.11
  -9  -5   9   -1.73    1.95
  -5   9   9   -0.24    1.74
   9   5  -9    9.82    4.99
   5  -9   9    6.39    4.50
   5  -9   9    2.50    2.21
   9   5   9    6.98    5.25
  -5   9  -9    7.67    6.24
   9   5   9    3.30    3.50
  -9  -5  10    2.92    2.81
   9   5  10   12.99    6.23
   9   5 -10    1.74    1.44
   9   5  10   12.84    6.88
   5  -9  10    6.49    5.41
   5  -9  10    6.96    5.82
  -5   9 -10    6.50    3.28
  -5   9  10   -0.29    2.13
  -9  -5  11    1.62    3.85
   5  -9  11   -2.12    3.26
   9   5  11   -3.72    4.34
  -5   9 -11   -0.07    2.41
  -5   9  11    1.30    3.74
   9   5  12   17.51    8.06
   9   5  12    8.78    5.62
  -6   9   0    3.06    2.38
   9   6   0    1.44    2.89
   9   6   0    3.39    2.41
  -6   9   0   -1.33    1.44
  -9  -6   1  124.46   11.63
   9   6   1   96.65   10.88
   9   6   1  112.28   11.78
   9   6   1  114.22   10.03
   9   6  -1  119.71   12.43
  -6   9   1  101.22   11.55
  -6   9   1   99.89    9.97
  -6   9   1  119.77   10.35
  -6   9  -1   88.66   10.82
  -6   9  -2  160.04   15.33
   9   6  -2  200.06   16.78
  -9  -6   2  202.50   14.65
   9   6   2  225.55   16.86
  -9  -6   2  207.17   15.31
  -6   9   2  188.16   15.93
   9   6   2  204.63   13.95
   9   6   2  200.25    9.20
  -6   9   2  185.29   14.19
   9   6   2  190.11   16.07
   9   6  -3  227.40   18.08
  -6   9  -3  246.35   19.67
   9   6   3  226.69   15.60
  -9  -6   3  195.87   15.29
   9   6   3  224.58   18.37
  -6   9   3  254.26   17.46
  -6   9   3  218.60   17.17
   6  -9   3  234.00   16.40
  -9  -6   3  242.43   16.98
   9   6   3  229.14   16.92
   9   6  -4  177.08   16.45
   6  -9   4  191.03   15.74
  -9  -6   4  199.22   16.46
   9   6   4  193.90   15.80
  -6   9  -4  192.12   18.00
   9   6   4  177.83   17.08
  -6   9   4  197.28   17.00
   9   6   4  199.33   15.54
  -6   9   4  172.23   15.44
  -6   9   5  400.22   25.36
   9   6   5  426.87   23.66
   9   6   5  425.21   24.76
  -9  -6   5  416.74   25.66
  -6   9  -5  402.26   27.16
   6  -9   5  411.10   24.79
   9   6  -5  428.13   26.45
  -6   9   5  411.71   25.25
   6  -9   6  339.34   24.02
   9   6  -6  294.82   22.62
  -6   9   6  315.45   23.53
   9   6   6  307.29   22.26
  -9  -6   6  316.26   23.19
   9   6   6  301.79   25.02
  -9  -6   6  294.30   23.02
  -6   9   6  299.11   24.81
  -6   9  -6  308.10   24.55
   9   6  -7  164.21   17.62
   6  -9   7  172.71   18.35
  -6   9   7  170.68   18.62
   9   6   7  174.59   17.97
   9   6   7  197.18   21.23
  -6   9   7  190.01   20.68
  -6   9  -7  205.03   21.19
  -9  -6   7  165.65   18.36
   6  -9   8  132.13   16.80
   9   6  -8  107.14   14.51
   9   6   8   99.46   14.50
  -6   9   8  116.88   16.49
  -6   9  -8  108.30   16.13
  -9  -6   8  111.54   15.92
   9   6   8  103.28   15.77
  -9  -6   9   96.22   15.85
   6  -9   9   90.03   15.11
   9   6   9   97.23   16.17
   6  -9   9  114.02   16.24
  -6   9  -9   83.06   14.65
   9   6  -9   83.68   13.16
  -6   9   9   93.41   15.58
   6  -9  10   43.71   11.23
  -6   9 -10   34.99    9.93
   9   6  10   31.27    9.91
   6  -9  10   38.91    9.61
  -9  -6  10   28.09    9.15
  -6   9  10   41.72   11.06
   9   6  10   40.07   10.41
  -6   9  11    1.20    3.27
  -9  -6  11    7.18    5.06
   9   6  11    1.70    2.43
   9   6  11   10.59    6.75
   6  -9  11    1.94    2.26
  -6   9 -11    8.28    5.49
   9   6  12    3.21    4.98
   9   7   0   25.30    5.77
   9   7   0   19.04    5.78
  -7   9   0   22.40    4.85
  -7   9   0   19.07    5.61
   9   7   1   53.30    8.09
   9   7   1   65.65    9.31
  -7   9   1   40.76    7.65
   9   7   1   66.78    8.29
  -7   9  -1   35.85    7.27
  -7   9   1   39.86    6.26
  -7   9   1   48.52    7.13
   9   7  -1   59.65    9.59
   9   7   2   23.92    3.21
  -9  -7   2   24.65    5.31
  -7   9   2   22.01    4.87
  -9  -7  -2   21.47    2.90
  -7   9   2   21.37    5.28
   9   7   2   25.51    6.32
   9   7  -2   18.02    5.43
  -7   9  -2   17.19    5.50
   9   7   2   23.54    5.03
  -7   9   2   15.86    5.43
   9   7   2   19.57    5.90
   9   7  -3    5.81    4.37
   9   7   3   15.65    4.64
   9   7   3   17.59    5.64
  -9  -7   3   13.95    4.19
   9   7   3   15.68    5.03
  -9  -7   3   14.58    4.79
  -7   9   3   15.55    5.40
  -7   9  -3   13.36    5.24
   7  -9   3   11.05    3.63
  -7   9   3   13.05    4.14
  -9  -7   4   12.45    2.80
  -9  -7   4    4.52    3.70
   9   7  -4   18.62    6.00
   7  -9   4   10.56    3.81
   9   7   4   18.90    5.47
  -7   9   4    7.69    3.59
  -9  -7   4    9.33    3.35
   9   7   4   16.51    5.15
  -7   9  -4    9.96    5.46
   9   7   4   21.24    6.25
  -7   9   4   10.09    4.54
   7  -9   5   15.46    4.81
  -9  -7   5   18.70    5.57
  -7   9  -5   12.17    4.86
   9   7  -5   28.89    7.46
  -7   9   5   12.31    4.36
   9   7   5   21.65    5.61
  -7   9   5   12.08    4.52
   9   7   5   15.23    5.92
   9   7   5   12.50    4.27
   9   7   6   -0.04    3.07
  -7   9  -6    1.81    2.91
  -7   9   6    4.45    3.76
  -9  -7   6    2.85    3.64
   7  -9   6    6.05    3.84
  -7   9   6    3.59    3.03
   9   7  -6    4.42    3.62
   9   7   6    4.77    3.49
  -9  -7   6    8.53    4.92
   9   7   7   18.93    6.73
   9   7   7   17.10    5.40
  -7   9  -7   23.09    7.60
   7  -9   7   18.49    5.90
  -7   9   7   27.33    8.38
  -7   9   7   23.50    6.91
   9   7  -7   13.82    5.92
   9   7  -8    8.37    5.61
   9   7   8   -3.13    3.12
  -7   9  -8    8.09    5.41
  -7   9   8    2.98    5.31
   9   7   8    5.49    4.38
  -7   9   8   -0.51    1.84
  -9  -7   8    1.81    2.64
  -9  -7   9    1.53    3.11
   7  -9   9    2.32    2.77
   9   7  -9    5.90    4.43
  -7   9   9   -0.71    2.73
  -7   9  -9   -1.74    3.54
   9   7   9   -1.64    2.52
   7  -9   9   -1.62    3.32
   9   7  10   20.93    8.29
   7  -9  10   11.88    5.95
  -9  -7  10   15.85    5.93
   7  -9  10   16.29    6.97
   9   7  10    8.31    4.93
  -7   9 -10   22.87    8.83
  -7   9  10    2.98    1.73
   9   7  11    4.27    4.99
  -9  -7  11    3.48    4.92
   7  -9  11    3.20    3.35
   7  -9  11    0.65    2.40
  -7   9  11   -3.99    2.10
   9   7  11   12.32    6.20
   9   7  12    5.14    5.04
   9   8   0    1.27    1.86
  -8   9   0    2.93    2.51
   9   8   0    2.61    2.54
  -8   9   0    0.45    0.92
  -8   9   0   -1.37    2.97
  -8   9   1   12.20    3.41
   9   8   1   12.81    4.60
   9   8  -1   15.18    4.72
  -8   9   1    9.79    3.73
   9   8   1   10.96    4.87
  -8   9  -1   10.02    4.24
   9   8   1   12.11    3.72
   9   8  -2   95.77   12.06
   9   8   2   99.07   12.35
  -8   9  -2  103.65   12.71
   9   8   2   97.93   12.43
  -8   9   2  103.21   11.30
   9   8   2   94.45   10.53
  -8   9   2  101.19   12.46
  -8   9   2   99.54   10.26
  -9  -8   2   92.56   10.03
  -9  -8   3   81.78    9.71
  -8   9   3   67.35   10.33
  -9  -8   3   82.75   10.84
   9   8   3   83.42   11.50
   9   8   3   69.59   10.88
  -8   9  -3   76.11   11.43
  -8   9   3   81.27    9.87
   9   8   3   76.51    9.86
   9   8  -3   69.70   10.75
   9   8  -4  137.29   15.36
   9   8   4  132.13   16.00
  -8   9  -4  123.58   14.82
   9   8   4  140.01   14.81
   8  -9   4  130.71   12.74
  -9  -8   4  131.41   14.34
  -8   9   4  129.78   14.80
   9   8   4  141.75   14.29
  -8   9   4  134.21   13.44
   9   8   5  132.04   16.84
   9   8  -5  135.17   15.62
   8  -9   5  168.63   15.59
   9   8   5  151.92   15.43
  -9  -8   5  137.44   15.21
  -8   9  -5  155.95   16.98
  -8   9   5  148.20   15.25
  -8   9   5  141.66   16.09
   9   8   5  134.46   14.59
   9   8   6  229.74   20.29
  -8   9   6  272.20   22.14
  -9  -8   6  254.35   22.34
   9   8   6  211.35   21.69
   9   8  -6  240.46   21.20
  -8   9  -6  206.15   20.56
   8  -9   6  248.08   20.23
   9   8  -7  124.80   15.47
   9   8   7  117.03   15.23
   8  -9   7  165.42   17.61
  -9  -8   7  118.53   16.24
  -8   9   7  161.33   18.18
  -8   9  -7  145.57   17.96
  -8   9   7  152.58   18.91
  -9  -8   7  135.24   15.83
   9   8   7  121.25   17.28
   9   8   8   62.45   13.12
   9   8   8   67.08   12.32
   8  -9   8   88.64   13.79
  -9  -8   8   68.94   12.95
  -8   9  -8   72.06   13.58
   9   8  -8   60.57   11.46
  -8   9   8   79.96   13.71
  -8   9   8   86.31   15.00
  -8   9   9   53.55   12.68
   9   8   9   18.53    7.13
  -8   9  -9   34.29    9.46
   9   8   9   36.75   10.16
  -8   9   9   54.79   11.79
   9   8  -9   32.51    8.68
   8  -9   9   45.09   10.59
   9   8  10    6.24    4.15
  -8   9 -10    9.54    6.00
   8  -9  10   13.56    5.73
  -9  -8  10    7.58    5.54
   8  -9  10   18.13    6.44
  -8   9  10   11.11    6.02
  -9  -8  11    4.61    2.71
   8  -9  11    1.00    2.37
  -8   9  11    1.99    5.04
   9   8  11   10.78    6.18
   8  -9  11   14.12    6.45
   9   9   0    6.79    4.18
  -9   9   0   13.13    5.21
  -9   9   0    6.59    2.54
  -9   9   1   18.67    4.14
   9   9   1   22.26    5.31
   9   9   1   32.31    7.08
   9   9   1   23.34    6.66
  -9   9   1   16.29    5.15
  -9   9  -1   12.91    5.20
   9   9  -1   19.42    6.03
   9   9  -2   42.82    8.13
  -9   9   2   38.43    8.02
   9   9   2   65.18   10.67
  -9   9  -2   56.93   10.00
  -9   9   2   48.50    7.11
   9   9   2   58.54   10.16
   9   9   2   55.56    8.87
  -9  -9   2   51.17    7.52
   9   9   3   22.22    5.81
  -9  -9   3   18.59    5.19
   9   9  -3   17.64    5.45
  -9   9   3    8.50    3.79
   9   9   3   13.46    1.81
  -9   9   3   10.19    4.63
   9   9   3   13.18    1.82
   9   9   3   25.48    6.70
  -9   9  -3   14.33    4.86
  -9   9   3   10.58    4.10
  -9   9   4    8.71    4.77
   9   9   4    1.74    2.38
  -9  -9   4    0.00    1.68
  -9   9   4   -1.64    1.43
   9   9   4    2.41    5.05
  -9   9  -4    1.59    2.59
   9  -9   4    3.68    3.08
  -9  -9   4    0.86    1.26
   9   9   4    4.74    4.06
   9   9  -4    3.18    3.28
   9   9   5    2.06    2.32
   9  -9   5    2.46    2.79
   9   9  -5    5.56    4.09
   9   9   5   -2.52    2.00
  -9   9   5    6.37    4.95
  -9   9   5    2.11    2.52
  -9   9  -5   -1.54    2.55
  -9  -9   5    0.80    1.84
  -9  -9   5    5.06    3.33
  -9   9   6    0.11    3.29
   9  -9   6   12.41    4.96
   9   9   6    5.12    4.38
  -9  -9   6   -1.42    3.51
   9   9  -6    0.64    2.05
  -9   9  -6    2.72    4.53
   9   9  -7    1.77    2.26
  -9   9   7    0.76    2.40
   9   9   7    3.63    5.03
  -9   9  -7    4.50    4.24
  -9   9   7    6.73    4.37
   9  -9   7    0.67    1.33
  -9  -9   7    7.61    4.74
  -9  -9   7    0.88    3.08
   9   9  -8    0.57    4.09
  -9  -9   8    2.23    3.27
   9  -9   8    4.46    4.77
   9   9   8   -1.83    3.36
  -9   9   8   -0.77    2.85
  -9   9   8    6.36    4.64
  -9  -9   8   -1.31    2.67
  -9   9  -8    1.30    2.89
   9   9   9    3.28    2.98
  -9   9   9    6.39    4.02
   9   9  -9    2.87    3.14
  -9   9   9   -2.55    4.05
   9  -9   9   -0.31    2.92
  -9   9  -9    8.17    5.42
  -9  -9   9    0.34    2.24
   9   9   9   -0.97    3.44
  -9   9  10   13.31    6.55
  -9   9  10    6.67    5.88
   9   9  10    4.92    4.09
   9  -9  10   -3.39    3.31
  -9  -9  10   14.52    7.01
  -9   9 -10    3.36    2.88
  -9   9  11   -4.43    4.18
   9   9  11    9.47    5.32
   9   9  11    3.30    5.35
 -10   9   0    0.58    1.35
 -10   9   0    2.12    2.09
 -10   9   0   -0.31    0.82
 -10   9   1    2.46    2.75
 -10   9   1    5.19    2.60
 -10   9   1    5.08    2.97
   9  10   1    5.45    4.11
   9  10   1    2.05    1.99
   9  10  -1    0.88    2.82
 -10   9  -1    2.85    2.83
   9  10   2    6.64    3.75
 -10   9   2    4.58    2.75
   9  10  -2    1.54    1.92
   9  10   2    2.12    1.89
   9  10   2    4.87    2.80
   9  10   2   -1.50    1.54
 -10   9  -2    3.83    3.18
 -10   9   2    6.13    2.00
 -10   9   2   11.97    5.61
   9  10   3   12.87    4.58
 -10   9   3    9.70    3.56
  -9 -10   3   10.41    3.87
 -10   9  -3    9.15    4.33
   9  10  -3    9.16    4.03
 -10   9   3   10.56    4.70
   9  10   3    9.86    5.22
   9  10   3   12.11    2.07
 -10   9   3   11.29    5.63
 -10   9   4   36.57    8.38
 -10   9   4   39.58    8.83
   9  10   4   46.13   10.13
   9  10   4   48.26    9.05
   9  10  -4   45.36    9.45
  -9 -10   4   47.89    9.35
 -10   9   4   36.90    7.07
  10  -9   4   43.43    7.35
   9  10   4   49.04    9.61
  -9 -10   4    5.02    3.32
 -10   9  -4   34.08    8.35
 -10   9   5   16.68    6.18
  -9 -10   5   18.57    6.25
   9  10   5   13.77    5.36
   9  10   5   12.30    5.59
   9  10  -5   19.78    6.02
 -10   9   5    5.08    2.66
 -10   9  -5   10.93    4.48
  10  -9   5    6.29    3.15
   9  10   6    6.06    2.99
  -9 -10   6    2.78    1.51
  10  -9   6   -1.07    2.62
 -10   9  -6    1.85    2.49
   9  10  -6   -1.77    2.60
 -10   9   6    3.82    3.60
   9  10   7    2.20    3.98
 -10   9   7    9.53    5.43
  -9 -10   7    9.98    4.01
   9  10  -7    7.82    4.61
  -9 -10   7   13.97    6.00
  10  -9   7    5.36    3.42
 -10   9   7    0.03    2.06
 -10   9  -7    4.57    4.23
  -9 -10   8    7.60    4.98
 -10   9   8    0.14    2.37
  -9 -10   8   17.55    6.20
  10  -9   8    2.94    4.25
 -10   9  -8    5.82    4.10
   9  10   8    9.88    5.36
   9  10  -8   11.98    5.33
   9  10   9   16.33    6.98
 -10   9   9    2.29    2.64
   9  10  -9   14.63    6.11
 -10   9  -9    7.67    5.04
   9  10   9    6.01    4.06
  10  -9   9    1.71    3.02
  10  -9   9   -0.24    2.97
 -10   9   9    6.57    4.86
  -9 -10   9   14.82    7.06
 -10   9  10    5.74    5.21
 -10   9  10    5.25    4.89
   9  10  10   10.27    6.71
   9  10  10    6.71    5.54
  10  -9  10    5.48    5.60
  10  -9  10   -1.23    1.99
  -9 -10  10    0.08    2.27
 -10   9  11    2.57    4.75
   9  10  11   -1.66    3.09
  10  -9  11    5.97    5.26
 -10   8   0  127.68    9.64
 -10   8   0  122.06   12.55
 -10   8   0  118.19   13.57
   8  10   0  117.35   14.41
   8  10   1  126.36   14.28
 -10   8   1  129.71   13.25
 -10   8   1  157.82   15.80
   8  10  -1  126.56   14.48
 -10   8   1  156.43   11.01
 -10   8  -1  131.64   14.41
 -10   8   2   59.50    9.63
   8  10  -2   47.39    9.20
 -10   8   2   69.41   10.62
   8  10   2   57.62    6.25
 -10   8  -2   67.39   10.32
   8  10   2   58.82   10.65
 -10   8   2   67.02    7.77
   8  10   2   52.41    8.84
   8  10   3    5.83    3.41
   8  10   3    6.99    3.97
   8  10  -3    6.99    3.66
  -8 -10   3    4.87    2.69
 -10   8   3   11.29    5.23
 -10   8   3   14.79    4.29
   8  10   3   18.53    6.62
   8  10   3    6.39    1.54
 -10   8  -3   12.71    5.04
 -10   8   3   12.73    4.71
 -10   8   4    8.66    5.23
  -8 -10   4    7.18    4.20
 -10   8   4    9.32    3.62
   8  10   4    4.04    3.48
   8  10  -4   -1.16    2.59
   8  10   4    2.27    2.32
  10  -8   4    7.82    3.51
  -8 -10   4    9.07    3.82
 -10   8   4    9.47    5.32
 -10   8  -4    4.59    3.23
  10  -8   5    2.05    1.75
   8  10  -5    3.52    3.22
  -8 -10   5    3.02    2.78
 -10   8   5    1.13    1.42
 -10   8  -5   -0.08    2.55
   8  10   5    1.80    2.37
  -8 -10   5    5.90    4.56
   8  10   5   -2.23    2.10
   8  10   5   -0.84    2.08
  -8 -10   6    2.81    1.73
   8  10   6   -1.82    1.88
   8  10   6    3.42    2.60
 -10   8   6   -0.94    2.02
 -10   8  -6    7.63    4.93
 -10   8   6    2.36    2.79
  10  -8   6    2.63    2.64
   8  10  -6    7.30    5.35
  -8 -10   7   13.13    4.79
  -8 -10   7    7.53    4.39
   8  10  -7    6.38    4.13
 -10   8   7    5.11    3.56
  10  -8   7    7.02    4.19
 -10   8  -7    3.66    4.08
 -10   8   7    4.33    2.64
   8  10   7    6.19    4.91
   8  10   7    8.09    5.10
  10  -8   8    7.07    3.68
  10  -8   8   15.40    7.15
  -8 -10   8    9.57    4.91
   8  10  -8   12.66    5.06
   8  10   8   12.78    5.43
 -10   8  -8   17.37    6.75
 -10   8   8    4.88    4.17
   8  10   8   14.78    6.56
  -8 -10   8   14.48    6.84
   8  10   9    3.64    4.37
   8  10  -9    4.08    4.42
  -8 -10   9   12.38    6.83
   8  10   9    0.06    2.25
 -10   8   9    7.57    4.33
  10  -8   9    6.17    3.37
 -10   8  -9    4.35    3.53
   8  10  10    4.20    2.33
 -10   8  10    9.30    5.60
  10  -8  10    8.74    4.56
  10  -8  10   -6.91    5.22
  -8 -10  10    5.24    4.95
 -10   8  11    7.84    6.18
  10  -8  11    2.79    4.09
   8  10  11    7.56    7.08
   8  10  11   21.33    8.69
  10  -8  11    0.74    3.00
 -10   7   0    0.60    0.86
 -10   7   0    0.58    0.88
 -10   7   0    1.86    2.46
   7  10   0   -0.89    2.30
 -10   7   0   -1.18    1.71
 -10   7  -1   -0.25    0.81
   7  10  -1   -0.59    2.70
 -10   7   1   -1.07    2.15
   7  10   1    2.16    2.46
 -10   7  -1    1.18    2.60
 -10   7   1    5.15    3.94
 -10   7   1    1.49    1.71
   7  10   2   16.03    4.93
 -10   7   2   17.65    5.46
   7  10  -2   12.35    4.53
   7  10   2   13.31    3.27
   7  10   2   16.26    5.45
 -10   7  -2   20.28    5.47
 -10   7   2   20.02    4.10
 -10   7   2   20.01    5.66
 -10   7   3    3.91    2.22
   7  10   3    3.84    3.16
  10  -7   3    4.25    1.88
   7  10   3   -2.48    4.30
 -10   7   3    7.04    2.77
 -10   7   3    3.94    3.48
   7  10   3    1.77    3.44
   7  10  -3    1.70    2.07
 -10   7  -3    3.58    2.77
   7  10   3    3.70    1.39
 -10   7   4    7.00    4.12
   7  10   4    4.51    4.25
   7  10   4    8.86    4.80
  10  -7   4   10.56    3.63
   7  10  -4    0.13    1.85
  -7 -10   4    7.01    3.49
   7  10   4   -2.70    2.93
 -10   7   4    9.57    3.20
  -7 -10   4    4.18    4.44
 -10   7  -4    9.95    4.47
 -10   7   4   18.77    6.52
   7  10   5    0.66    2.08
 -10   7  -5    4.38    4.32
  10  -7   5    1.32    2.44
  -7 -10   5    1.24    3.03
   7  10  -5   -0.93    2.29
 -10   7   5   -1.23    2.22
 -10   7   5    3.16    3.52
  -7 -10   6    0.80    1.13
   7  10   6    4.17    4.48
   7  10  -6    2.23    3.42
  -7 -10   6    6.21    4.36
 -10   7   6    3.29    3.79
 -10   7   6   -0.04    1.94
 -10   7  -6    0.95    2.38
  -7 -10   7    4.64    3.80
 -10   7  -7   -0.69    2.70
  -7 -10   7    1.32    2.32
   7  10   7    9.20    5.17
  10  -7   7   -0.06    1.85
   7  10   7    4.87    3.87
   7  10  -7    6.38    4.58
 -10   7   7    2.84    4.15
 -10   7   8   13.34    6.47
  10  -7   8    4.84    3.66
   7  10  -8    2.55    4.20
 -10   7  -8    4.36    4.43
  10  -7   8    1.89    2.96
  -7 -10   8    8.44    5.22
   7  10   8    5.95    4.20
 -10   7   9    1.60    3.17
  10  -7   9    0.67    3.23
 -10   7   9    3.41    4.94
   7  10   9    5.26    4.96
  10  -7   9    9.96    5.59
   7  10   9   13.00    6.42
 -10   7  -9    3.95    5.80
  -7 -10   9   10.59    5.70
 -10   7  10    0.91    2.85
  10  -7  10    7.10    4.85
 -10   7  10   -4.91    4.78
  -7 -10  10   -0.47    2.10
   7  10  10    1.20    3.11
 -10   7  11    9.06    5.90
  10  -7  11    3.19    2.44
   7  10  11   -2.42    3.57
   7  10  11    5.23    5.34
  10  -7  12    5.58    3.35
   6  10   0  194.22   17.51
 -10   6   0  194.68   15.65
 -10   6   0  187.50   15.94
 -10   6   0  182.64    9.09
 -10   6   0  173.42    8.95
   6  10  -1  190.86   17.10
 -10   6   1  170.02   15.18
   6  10   1  202.57   17.85
   6  10   1  191.42   12.96
 -10   6  -1  151.08   14.16
 -10   6   1  173.15   15.49
 -10   6   1  168.18    9.65
 -10   6   2  106.54    8.63
   6  10  -2  129.18   14.05
   6  10   2  117.24   13.90
 -10   6  -2  100.55    7.51
 -10   6   2   93.70   11.85
   6  10   2  118.28    8.93
   6  10   2  104.36   12.20
 -10   6  -2  118.61   12.76
 -10   6   2  100.31   12.17
 -10   6   3   90.19    9.04
   6  10  -3   82.33   11.33
 -10   6  -3   95.22   11.66
   6  10   3  101.59   12.87
  10  -6   3   98.07    8.48
   6  10   3  100.77    6.85
  -6 -10   3   93.05   11.89
   6  10   3  100.02   12.03
 -10   6   3   87.15   11.93
 -10   6   3   90.77   12.22
 -10   6   4   40.22    6.84
 -10   6  -4   46.81    8.64
   6  10   4   49.84    8.97
 -10   6   4   48.29    9.68
   6  10  -4   44.30    8.32
   6  10   4   59.44   10.90
  10  -6   4   49.97    6.83
   6  10   4   55.03    9.58
 -10   6   4   43.90    8.36
   6  10   4   48.84    3.53
  -6 -10   4   47.21    8.88
  -6 -10   5   21.24    4.92
  -6 -10   5   22.77    6.44
   6  10   5   19.16    6.41
 -10   6   5   27.48    6.47
   6  10  -5   25.21    6.48
 -10   6  -5   26.62    6.72
   6  10   5   18.78    5.62
 -10   6   5   24.93    6.80
  10  -6   6    0.63    2.31
  -6 -10   6   -3.12    3.92
   6  10   6    0.64    2.31
 -10   6  -6   -0.03    3.50
   6  10  -6    0.85    2.56
  -6 -10   6    2.24    2.56
   6  10   6    0.57    2.75
 -10   6   6   -1.13    1.29
  10  -6   7    6.64    3.93
   6  10   7    2.42    3.56
   6  10   7    1.74    1.85
 -10   6   7    9.30    4.43
  10  -6   7    5.97    3.86
   6  10  -7    2.43    1.88
 -10   6  -7    1.98    2.64
 -10   6   7    9.13    4.86
  -6 -10   7    0.40    1.76
 -10   6   8   38.76    9.11
   6  10  -8   20.51    6.07
  10  -6   8   25.64    6.75
  10  -6   8   18.13    6.47
   6  10   8   18.96    7.01
  -6 -10   8   34.40    9.65
 -10   6  -8   19.43    6.39
   6  10   8   30.71    9.53
 -10   6   9   44.79   10.75
 -10   6   9   38.10   10.69
  10  -6   9   44.05    9.84
   6  10   9   54.88   12.92
   6  10   9   39.62    9.12
   6  10   9   44.99   10.90
  -6 -10   9   30.59    9.20
  10  -6   9   38.79    9.88
   6  10  10   19.93    7.13
  10  -6  10   20.96    6.67
 -10   6  10   14.11    6.20
 -10   6  10   14.92    6.71
  10  -6  10   26.11    8.41
  -6 -10  10   25.76    9.76
   6  10  10   20.13    8.22
   6  10  10   32.70    9.73
  10  -6  11   29.17    8.88
  10  -6  11   43.73   11.18
 -10   6  11   31.00    9.72
   6  10  11   32.15    9.94
  10  -6  12   17.10    7.49
   5  10   0    2.40    3.30
 -10   5   0   -0.09    0.36
 -10   5   0    1.14    0.84
 -10   5   0    1.44    2.51
 -10   5   0    1.38    2.99
 -10   5   1   38.63    7.14
 -10   5   1   37.59    4.07
   5  10   1   37.80    5.59
   5  10  -1   38.39    7.91
   5  10   1   44.57    8.77
 -10   5  -1   44.56    7.61
 -10   5  -1   37.05    3.44
 -10   5   1   47.43    7.80
   5  10   2   26.91    6.52
 -10   5   2   28.92    4.25
 -10   5  -2   26.83    3.51
 -10   5   2   31.13    6.78
   5  10   2   31.50    6.51
   5  10  -2   27.29    6.22
   5  10   2   30.61    4.67
 -10   5  -2   20.14    5.35
 -10   5   2   26.05    5.74
   5  10  -3   79.03   11.04
 -10   5   3   79.40    8.23
 -10   5   3   80.69   11.16
  10  -5   3   80.03    7.40
   5  10   3   79.27    6.43
 -10   5  -3   82.56   10.17
   5  10   3   74.83   11.10
   5  10   3   75.86   10.54
 -10   5   3   80.29   11.21
  -5 -10   3   76.19   10.81
  -5 -10   3   83.94    7.35
  10  -5   4   70.66    6.19
   5  10   4   49.28    8.69
   5  10  -4   62.13   10.02
 -10   5  -4   55.70    8.75
 -10   5   4   62.73    8.23
  -5 -10   4   63.19   10.18
   5  10   4   61.70    4.89
 -10   5   4   56.47    9.31
 -10   5   4   49.89    9.12
   5  10  -5  154.67   15.59
 -10   5   5  120.09   14.49
 -10   5   5  123.01   12.76
  -5 -10   5  134.64   15.79
 -10   5  -5  159.12   15.04
   5  10   5  130.25   15.07
  10  -5   5  148.22   12.88
   5  10   5  136.70   16.50
   5  10  -6  106.45   13.12
 -10   5   6   76.70   12.19
   5  10   6   92.55   13.41
  10  -5   6   87.80   13.09
 -10   5  -6   78.50   11.10
  -5 -10   6  102.19   14.63
   5  10   6   83.90   13.19
  10  -5   6   98.69   11.58
 -10   5   6   92.35   12.12
  10  -5   7   61.30    9.86
 -10   5   7   59.83   10.45
   5  10  -7   87.17   11.99
 -10   5  -7   71.87   11.05
   5  10   7   94.00   14.16
  -5 -10   7   86.67   14.12
   5  10   7   80.00   13.66
  10  -5   8   31.40    7.88
 -10   5   8   33.85    8.67
 -10   5   8   36.24    9.80
   5  10  -8   44.87    9.25
   5  10   8   28.62    8.39
 -10   5  -8   35.04    8.28
  -5 -10   8   53.67   11.78
   5  10   8   33.80    9.59
  10  -5   9   24.10    7.62
 -10   5   9   28.38    8.21
   5  10   9   42.96    9.60
  -5 -10   9   13.57    6.49
   5  10   9   28.35    9.27
   5  10   9   27.47    8.92
 -10   5   9   13.65    6.30
  10  -5  10   12.38    5.83
   5  10  10   35.29    8.95
   5  10  10   39.18   10.70
 -10   5  10   14.06    7.29
  -5 -10  10   33.32   10.26
 -10   5  10   17.01    7.06
 -10   5  11    2.65    4.43
   5  10  11    8.16    5.60
   5  10  11    2.08    4.65
  10  -5  11    4.04    3.47
  -5 -10  11    2.55    4.34
  10  -5  12    0.06    2.30
 -10   4   0  202.74   15.87
   4  10   0  228.25   15.54
   4  10   0  208.83   17.50
 -10   4   0  185.10   14.83
   4  10  -1  207.55   17.35
 -10   4   1  226.42    8.92
 -10   4  -1  197.64    6.13
   4  10   1  208.76   13.45
   4  10   1  188.51   16.92
 -10   4  -1  207.51   15.55
 -10   4  -1  199.62    6.20
 -10   4   1  218.10   16.60
   4  10   2  220.21   18.47
 -10   4  -2  204.32    8.84
 -10   4   2  220.34   11.29
   4  10   2  221.65   17.43
 -10   4   2  196.05   16.28
   4  10   2  224.27   12.68
 -10   4  -2  215.61   15.66
   4  10  -2  258.20   19.00
  10  -4  -2  208.75   10.96
 -10   4   2  228.89   17.94
 -10   4   3   83.05   11.15
 -10   4  -3   68.11    6.36
   4  10  -3   88.51   11.31
 -10   4   3   67.38    7.35
  -4 -10   3   74.91   10.66
 -10   4  -3   68.19    9.16
   4  10   3   87.25    7.19
  10  -4   3   68.46    6.45
   4  10   3   86.54   11.64
   4  10   3   78.80   10.97
  -4 -10   3   74.33    6.12
  10  -4   4   53.12    5.27
  -4 -10   4   53.09    6.84
  -4 -10   4   51.02    9.25
   4  10   4   38.66    7.72
 -10   4   4   54.13    9.13
   4  10  -4   35.39    7.25
 -10   4   4   38.45    8.40
 -10   4  -4   47.34    7.68
   4  10   4   44.95    4.80
  10  -4   4   48.57    6.36
 -10   4   4   50.47    7.15
 -10   4   5   25.87    6.00
   4  10  -5   36.79    7.28
  10  -4   5   29.89    5.94
  10  -4   5   23.38    2.52
   4  10   5   22.97    6.23
 -10   4  -5   29.53    6.44
  10  -4   5   27.86    7.49
  -4 -10   5   25.93    6.78
  -4 -10   6    1.66    2.72
 -10   4   6    2.44    3.12
   4  10   6    6.03    4.30
 -10   4   6    1.51    3.23
  10  -4   6    1.01    1.28
   4  10  -6    3.41    4.32
  10  -4   6    6.24    4.98
 -10   4  -6    2.48    3.66
   4  10  -7    4.49    3.89
 -10   4  -7    4.52    3.28
 -10   4   7    6.58    3.81
  10  -4   7    2.22    2.71
   4  10   7    2.16    2.87
  10  -4   7    2.05    1.56
  -4 -10   7    5.21    4.37
  -4 -10   8   53.31   11.46
 -10   4   8   42.45    9.95
  10  -4   8   70.86   12.76
   4  10   8   42.56   10.18
 -10   4  -8   57.35    9.85
   4  10   8   64.90   11.28
  10  -4   8   40.74    8.52
   4  10  -8   52.54    9.51
 -10   4   9   54.09   11.39
  -4 -10   9   56.75   12.74
  10  -4   9   62.51   12.58
   4  10   9   64.68   13.21
  10  -4   9   61.94   11.69
   4  10   9   48.69   10.47
 -10   4  10   36.54   10.19
  -4 -10  10   24.59    8.64
   4  10  10   25.70    8.61
  10  -4  10   19.58    7.53
   4  10  10   42.19   10.80
  10  -4  10   37.25    9.63
   4  10  11   34.31    9.57
  -4 -10  11   19.78    8.61
   4  10  11   32.81    9.86
  10  -4  11   42.27   10.74
 -10   4  11   28.51    9.42
   4  10  12   25.30    9.20
  10  -4  12   22.13    8.70
  10  -4  12   26.57    9.05
   3  10   0   -1.43    1.85
 -10   3   0   -1.01    3.18
   3  10   0    1.51    2.52
 -10   3   0    0.92    2.55
 -10   3   1   21.99    5.42
 -10   3   1    6.76    3.82
 -10   3  -1   15.50    3.63
   3  10  -1   18.84    5.22
   3  10   1   13.61    3.78
   3  10   1   14.26    5.29
 -10   3   2   64.21    9.14
 -10   3  -2   61.10    4.34
  10  -3   2   57.33    4.29
   3  10  -2   61.18    9.19
  10  -3  -2   58.39    5.55
   3  10   2   60.39    6.83
 -10   3   2   58.65    9.16
 -10   3  -2   56.98    7.81
   3  10   2   47.71    7.99
 -10   3  -3  225.39   11.32
  10  -3   3  234.87   12.70
 -10   3  -3  239.11   15.85
   3  10   3  239.12   12.57
   3  10  -3  241.01   18.22
  10  -3   3  246.29   11.74
   3  10   3  206.87   17.31
  -3 -10   3  210.49   17.57
 -10   3   3  232.16   18.78
   3  10  -4  179.72   15.84
  10  -3   4  194.68   10.05
 -10   3   4  194.10   14.00
  10  -3   4  192.16   17.62
  -3 -10   4  193.47   10.97
 -10   3  -4  209.59   15.17
  -3 -10   4  177.05   16.88
  10  -3   4  200.16   12.62
   3  10   4  190.65   10.87
   3  10   4  171.13   16.42
 -10   3   4  176.61   17.31
  10  -3   5  225.59    8.25
  10  -3   5  245.60   20.56
   3  10   5  230.61   20.12
  -3 -10   5  224.95   19.88
   3  10  -5  247.79   18.43
 -10   3   5  211.06   16.33
 -10   3  -5  239.52   16.88
  10  -3   5  243.16   15.99
  -3 -10   6  106.38   14.63
   3  10  -6   91.12   11.44
  10  -3   6  111.80   14.81
 -10   3   6  122.66   13.74
 -10   3  -6  129.39   12.83
  10  -3   6  121.10   12.47
   3  10   6   92.50   13.14
   3  10  -7  112.87   13.05
  10  -3   7  106.59   14.93
 -10   3  -7  112.09   12.28
  10  -3   7  109.90   13.09
  -3 -10   7   85.37   13.85
   3  10   7  104.02   15.05
  10  -3   8   68.31   11.15
   3  10  -8   51.28    8.69
  10  -3   8   71.64   13.23
   3  10   8   50.93   10.94
   3  10   8   52.96   10.46
  -3 -10   8   55.42   11.71
   3  10   9   27.19    8.55
  10  -3   9   34.13    9.10
   3  10   9   30.45    9.05
  -3 -10   9   29.14    8.87
  10  -3   9   56.08   10.96
  10  -3  10   14.11    5.29
 -10   3  10   18.05    7.28
   3  10  10    6.71    4.46
   3  10  10   14.11    5.92
  10  -3  11    1.76    2.49
 -10   3  11    5.67    3.85
   3  10  11    2.03    2.81
  10  -3  11    0.96    3.45
   3  10  11    4.52    5.08
   3  10  12    6.33    4.46
  10  -3  12    8.69    8.47
  10  -3  12    0.95    2.28
   2  10   0   79.56    9.29
   2  10   0   71.26    9.81
 -10   2   0   75.30    9.10
 -10   2   1   14.19    4.33
 -10   2   1    3.16    3.01
   2  10   1   19.33    4.30
   2  10  -1   16.90    5.18
   2  10  -1   16.72    5.14
  10  -2  -1   14.60    1.86
   2  10   1   21.65    5.46
 -10   2  -1   16.16    4.33
 -10   2   1   10.84    1.62
  10  -2   2   13.90    3.67
 -10   2  -2   12.12    1.85
  10  -2  -2   13.87    2.69
 -10   2   2    9.98    2.23
  10  -2   2   13.82    2.01
   2  10   2   19.81    4.06
 -10   2   2   -1.39    1.39
 -10   2  -2   10.15    3.03
   2  10   2   11.07    3.92
   2  10  -2   18.30    5.47
   2  10   3   23.59    6.18
  10  -2   3   14.14    3.09
  -2 -10   3   18.68    2.45
  10  -2   3   19.37    3.16
   2  10  -3   21.11    5.31
   2  10   3   23.91    4.32
  -2 -10   3   24.83    6.13
 -10   2  -3   20.89    4.71
 -10   2  -3   14.09    2.85
  10  -2   3   24.59    6.09
 -10   2   3   19.75    4.02
  10  -2   4   23.76    3.65
   2  10   4   30.94    7.16
  10  -2   4   25.39    4.40
  10  -2   4   32.12    7.96
   2  10  -4   35.39    6.80
 -10   2   4   22.65    6.57
 -10   2  -4   22.61    4.92
   2  10   4   36.49    5.08
  -2 -10   4   28.54    6.72
   2  10   5   35.09    5.05
  10  -2   5   18.12    4.51
 -10   2   5   21.21    5.67
  10  -2   5   19.07    2.58
  -2 -10   5   23.82    6.61
   2  10  -5   31.37    6.67
   2  10   5   33.77    7.56
 -10   2  -5   15.63    4.30
  10  -2   5   23.63    7.10
   2  10  -6    7.21    3.74
   2  10   6    2.54    2.42
  10  -2   6    1.57    1.12
  10  -2   6    1.79    1.95
 -10   2  -6    2.21    2.88
 -10   2   6    2.23    3.98
  -2 -10   6   -2.62    1.99
 -10   2   6    1.11    2.51
 -10   2   7    0.82    2.65
  10  -2   7    5.73    4.08
 -10   2  -7    1.11    1.44
  10  -2   7    0.27    2.64
   2  10   7    0.45    1.43
  -2 -10   7    4.48    3.86
   2  10  -7    2.63    3.80
   2  10   8   19.02    6.71
 -10   2   8   15.15    6.15
 -10   2   8    8.11    4.13
  10  -2   8    8.29    3.98
   2  10   8   11.56    5.61
  -2 -10   8   13.46    6.16
 -10   2   9    7.07    5.07
 -10   2   9    8.31    5.35
  10  -2   9   13.91    6.78
  -2 -10   9    9.63    6.36
   2  10   9    2.14    3.93
   2  10   9    4.46    2.97
  10  -2   9    8.03    5.08
 -10   2  10    7.14    6.51
  10  -2  10   -1.58    2.23
 -10   2  10    2.47    2.87
   2  10  10   10.25    6.14
   2  10  10   13.63    6.23
  10  -2 -11    0.18    2.93
 -10   2  11    1.08    3.60
 -10   2  11    8.87    5.67
  10  -2  11    2.93    3.61
   2  10  11   10.80    5.82
   2  10  11   11.77    5.78
   2  10  12    8.20    5.81
  10  -2  12    3.85    3.72
  10  -2  12   -4.08    4.92
 -10   1   0    0.97    1.41
 -10   1   0   -0.51    1.02
   1  10   0   -0.24    1.31
 -10   1   1   23.34    5.17
  10  -1   1   19.91    4.30
 -10   1   1    1.28    2.56
  10  -1   1   22.49    5.30
 -10   1   1   23.60    2.40
   1  10   1   20.44    4.43
   1  10   1   28.55    5.98
   1  10  -1   31.95    7.10
  10  -1  -1   25.30    2.49
   1  10  -1   25.20    5.61
 -10   1  -1   18.92    4.28
 -10   1  -2    2.45    1.46
  10  -1   2   10.36    3.24
  10  -1  -2    3.60    1.30
  10  -1   2    2.30    2.14
  10  -1   2    3.86    1.05
   1  10  -2    3.12    3.24
   1  10  -2    1.03    2.00
 -10   1   2    4.28    1.62
   1  10   2    2.27    1.73
   1  10   2    5.77    3.78
 -10   1  -2    4.26    1.22
   1  10   3   17.86    5.47
   1  10  -3   16.91    5.06
 -10   1  -3   16.51    3.05
  10  -1   3   20.34    3.85
  -1 -10   3   15.62    2.01
  -1 -10   3   12.04    4.13
 -10   1   3    0.58    1.64
 -10   1   3   23.21    4.27
   1  10   3   14.91    3.51
 -10   1  -3   23.28    4.42
  10  -1   3   16.75    3.23
  10  -1   3   26.97    5.85
  10  -1   4   26.44    4.09
   1  10   4   19.96    5.90
 -10   1   4   22.82    5.58
 -10   1   4   24.73    6.60
 -10   1   4   17.91    4.39
  10  -1  -4   25.25    2.88
  10  -1   4   28.10    5.05
   1  10  -4   30.09    6.58
  -1 -10   4   28.05    6.65
 -10   1  -4   18.49    4.11
   1  10   4   27.92    4.85
   1  10  -5   -0.20    2.39
   1  10   5    1.87    3.41
 -10   1   5    2.46    2.34
  10  -1   5    0.42    2.25
  -1 -10   5    5.28    3.69
  10  -1   5    0.37    0.72
 -10   1  -5   -0.31    1.19
 -10   1   5    5.64    3.92
   1  10   5    0.08    2.23
  10  -1   5   -0.55    2.04
  10  -1   6    5.04    4.75
 -10   1   6   14.75    5.75
 -10   1  -6    4.41    2.63
   1  10  -6    6.15    3.06
   1  10   6   12.78    5.30
  -1 -10   6   -0.54    2.29
  -1 -10   7    5.10    5.45
 -10   1   7   15.39    5.80
   1  10  -7    9.55    3.58
   1  10   7    2.12    2.45
 -10   1  -7   13.49    3.91
  10  -1   7   13.30    5.47
   1  10   7    8.46    5.43
  10  -1   8    0.22    2.34
 -10   1   8    1.18    2.78
   1  10   8    2.16    3.36
  10  -1   8    1.98    2.38
   1  10   8    2.87    3.21
  -1 -10   8    4.66    3.92
  10  -1   9   11.20    5.39
   1  10   9    1.07    1.87
   1  10   9    9.36    5.50
 -10   1   9    7.09    5.13
  10  -1 -10   -0.31    2.42
 -10   1  10    0.93    2.27
  10  -1  10    2.62    5.02
  10  -1  10    6.06    5.11
 -10   1  10   -1.40    3.48
   1  10  10   -0.76    3.50
  10  -1 -11    1.95    2.91
  10  -1  11    7.35    4.44
 -10   1  11    1.05    1.76
  -1 -10  11   -3.32    3.15
   1  10  11    3.08    3.68
   1  10  12  -10.87    6.16
  10  -1  12   12.91    6.60
 -10   0   0  119.69   10.86
  10   0   0  122.77   11.50
   0  10   0  100.47   11.64
   0  10   0  116.62   11.32
  10   0   0  132.28   10.95
 -10   0  -1    7.61    2.88
  10   0  -1    8.68    3.38
   0  10  -1    5.19    3.66
 -10   0   1    7.21    1.58
  10   0   1    5.61    1.31
  10   0   1    5.98    2.72
 -10   0   1   -0.15    1.05
  10   0  -1    8.02    2.81
   0  10   1    9.57    2.78
  10   0   1    5.54    2.81
   0  10  -1    7.03    3.57
  10   0  -1    2.99    1.02
 -10   0   2    1.19    0.89
  10   0   2    1.98    1.37
  10   0  -2    1.35    1.38
   0  10   2    2.74    2.12
  10   0  -2    0.88    1.13
   0  10  -2    3.92    3.11
   0  10  -2    4.55    2.77
  10   0   2    1.54    0.93
   0  10   2   -0.74    1.37
 -10   0  -2   -0.70    0.85
 -10   0  -2    1.09    1.21
  10   0   3    0.15    1.08
  10   0   3    2.44    1.56
   0  10   3   -2.84    2.57
 -10   0  -3    0.20    0.78
  10   0  -3    0.65    0.60
   0 -10   3   -0.05    1.42
 -10   0   3    3.22    1.95
   0  10  -3    2.63    3.06
   0  10  -3    3.68    3.57
   0  10   3    2.83    1.83
  10   0   3   -0.86    2.71
 -10   0  -3    1.41    1.30
 -10   0   4   10.58    4.85
   0  10   4   10.81    4.57
  10   0  -4    5.91    1.10
  10   0   4    6.71    2.47
  10   0   4    3.25    2.86
   0  10  -4   19.18    5.11
 -10   0   4   10.46    3.46
 -10   0  -4    6.68    2.73
   0 -10   4   16.62    5.10
   0  10   4   21.13    4.28
   0  10   5   -0.66    1.42
  10   0   5    0.76    1.42
   0 -10   5   -1.50    2.49
   0  10   5    4.60    3.67
  10   0   5    2.00    2.89
  10   0   5    1.96    1.35
   0  10  -5    5.98    3.82
 -10   0   5    2.83    2.54
 -10   0  -5    1.13    1.61
 -10   0  -6   11.36    3.09
  10   0   6    7.46    3.51
   0 -10   6    2.43    3.78
   0  10   6    7.41    4.30
  10   0   6   13.18    5.65
 -10   0   6    4.91    2.97
   0  10  -6    2.65    2.25
   0  10   7    4.01    2.30
   0  10   7   -1.01    2.44
 -10   0   7    2.81    2.05
   0  10  -7    2.69    2.74
   0 -10   7   -0.72    2.13
   0  10   8    0.29    3.21
   0 -10   8    5.60    5.00
 -10   0   8    3.45    2.37
   0  10   8   10.01    5.17
  10   0  -8    3.07    2.30
  10   0  -9   -2.27    3.31
  10   0   9    6.27    4.47
   0  10   9    1.73    2.79
   0  10   9    2.34    2.65
 -10   0   9    1.47    3.37
  10   0 -10    0.86    3.20
   0 -10  10    7.07    5.59
  10   0  10   -1.28    3.64
  10   0  10   -2.67    2.62
 -10   0  10   -1.46    2.56
   0  10  10    6.64    5.27
  10   0  11   -2.04    4.37
   0 -10  11   -0.76    2.99
 -10   0  11    4.32    5.01
  10   0  12    5.00    3.87
  10   0  12    3.23    3.93
 -10  -1   0    1.59    1.77
  10   1   0   -0.19    1.71
  10   1   0    0.19    0.59
  -1  10   0    0.00    2.10
  10   1   0    0.07    0.32
  10   1   0    2.12    2.58
  10   1   1   25.04    2.59
 -10  -1  -1   30.98    4.96
  10   1  -1   24.77    5.61
  10   1   1   20.76    4.38
  -1  10   1   33.57    6.58
  -1  10   1   32.53    6.33
 -10  -1   1    2.27    2.10
  10   1   1   20.90    4.69
  10   1  -1   25.37    3.08
 -10  -1   1   21.32    3.46
  -1  10  -1   32.28    6.35
  10   1   1   24.99    2.55
  10   1  -2   20.19    5.27
  10   1   2   13.70    3.78
 -10  -1  -2   20.13    3.72
 -10  -1   2   21.35    3.66
  -1  10  -2    7.24    4.15
  10   1   2   20.91    2.96
  10   1   2   16.47    4.17
  -1  10   2   19.32    4.56
  10   1  -2   19.10    3.45
  -1  10   2   20.08    5.07
  10   1   3  142.52    9.38
  10   1  -3  150.13   14.43
  10   1   3  138.09   10.60
  10   1  -3  145.89    7.48
 -10  -1   3  139.14   13.87
  -1  10  -3  146.95   15.16
  -1  10   3  140.03   11.73
 -10  -1  -3  144.19    9.55
  -1  10   3  137.70   13.73
   1 -10   3  146.95   14.22
 -10  -1   3  140.71   10.58
  -1  10  -3  149.96   13.32
  10   1  -4  136.88   14.27
  -1  10  -4  165.98   17.13
  -1  10  -4  165.16   13.72
  -1  10   4  177.63   13.39
  10   1   4  158.85   11.62
  -1  10   4  157.03   15.40
 -10  -1  -4  168.85   10.10
  10   1   4  150.16   10.73
   1 -10   4  148.70   14.76
 -10  -1   4  158.20   12.92
  10   1   5  288.60   17.79
  10   1  -5  265.55   20.82
 -10  -1   5  259.03   21.45
   1 -10   5  258.41   20.67
 -10  -1  -5  282.55   13.19
 -10  -1   5  266.08   18.46
  -1  10  -5  263.88   17.33
  -1  10   5  285.07   17.51
  -1  10   5  258.99   20.98
  10   1   5  280.81   14.01
  10   1   5  292.46   22.58
  10   1  -6  245.35   20.96
   1 -10   6  228.61   20.62
 -10  -1   6  234.63   19.03
  -1  10  -6  244.47   16.46
 -10  -1  -6  240.96   12.68
  -1  10   6  240.56   21.46
  10   1   6  240.65   17.90
  10   1  -7  212.50   20.11
  -1  10   7  193.01   20.22
   1 -10   7  177.17   19.46
  -1  10   7  186.26   19.43
 -10  -1   7  230.00   20.35
  10   1   7  206.46   18.10
  10   1  -8  145.13   17.25
   1 -10   8  116.47   16.41
  -1  10   8  109.25   16.07
  -1  10   8   97.01   14.83
  10   1   8  111.93   14.53
 -10  -1   8  132.61   16.87
  10   1   8  115.83   16.39
  10   1  -9   36.96    9.29
  10   1   9   37.90    9.27
  -1  10   9   28.75    8.33
  10   1   9   48.88   11.19
 -10  -1   9   25.46    7.72
  -1  10   9   33.71    9.58
  10   1 -10   25.12    7.36
  -1  10  10   21.62    8.10
   1 -10  10   27.05    9.16
 -10  -1  10   28.41    8.58
  10   1  10   26.18    8.22
  10   1  11   13.59    6.88
  10   1  11    4.49    4.57
   1 -10  11   11.20    6.20
 -10  -1  11   12.08    7.79
  10   1  12    1.56    2.34
  10   1  12   -1.03    3.08
  -1  10 -12   -0.15    2.16
  10   2   0   85.15    9.55
  -2  10   0   77.01    9.76
  10   2   0   94.64    5.92
  -2  10   0   78.80    5.32
  10   2   1  185.69   13.64
 -10  -2   1  184.60    9.96
  10   2  -1  177.77   11.41
  10   2   1  195.10   14.41
  -2  10   1  169.91   14.25
  -2  10  -1  154.90   14.18
  10   2  -1  173.20   14.39
  10   2  -1  191.46    9.54
  -2  10   1  155.98   13.15
  10   2   1  180.04    8.37
  10   2   2   55.35    7.23
  10   2  -2   54.89    8.38
 -10  -2   2   55.76    6.12
  10   2  -2   59.61    5.91
  10   2   2   45.54    7.61
  -2  10  -2   43.45    8.07
  -2  10   2   56.32    8.02
  -2  10   2   51.34    8.24
   2 -10   3   44.42    7.90
  -2  10   3   34.28    6.76
  10   2   3   40.59    5.28
  10   2  -3   44.90    8.09
  10   2   3   40.43    2.87
  -2  10  -3   39.42    8.00
  10   2  -3   44.78    4.16
  10   2   3   36.48    5.53
  10   2   3   43.05    4.95
 -10  -2  -3   43.25    4.83
  -2  10   3   35.06    6.15
 -10  -2   3   44.09    8.13
 -10  -2   3   45.03    6.33
 -10  -2   4    1.09    1.96
  10   2  -4   -0.76    1.33
 -10  -2   4    4.23    4.04
   2 -10   4    3.46    2.61
  -2  10   4    2.48    3.45
  10   2   4    0.29    1.37
  -2  10  -4    1.53    2.42
  10   2   4    1.48    1.88
  -2  10   4    1.86    1.89
 -10  -2  -4    0.14    1.02
  -2  10   5    4.19    3.42
 -10  -2   5   -0.55    2.04
  10   2  -5    1.48    2.58
  -2  10   5    0.96    3.31
  -2  10  -5   -0.60    1.03
  -2  10  -5    7.70    5.10
  10   2   5    1.58    1.73
   2 -10   5    5.87    3.99
  10   2   5    0.63    1.71
 -10  -2  -5    1.62    0.94
 -10  -2   5    2.67    3.00
  10   2  -6    2.01    2.84
  10   2   6    4.21    2.82
  -2  10  -6    4.82    2.65
 -10  -2   6    6.03    3.59
  10   2   6    0.89    2.26
   2 -10   6    4.58    4.03
  -2  10  -6   12.91    6.44
  10   2   7    7.64    3.67
  10   2  -7    3.98    3.84
  -2  10   7    6.39    4.06
  -2  10  -7    5.73    4.81
  -2  10   7    6.86    4.48
   2 -10   7    0.22    1.29
 -10  -2   7    0.42    1.55
  10   2  -8    0.75    3.56
  -2  10   8    0.86    3.08
  -2  10   8    7.20    3.95
   2 -10   8    2.19    3.62
 -10  -2   8    5.97    4.40
  -2  10   9    5.31    3.84
  10   2  -9   -0.49    2.66
  -2  10   9    5.70    4.58
 -10  -2   9   -0.70    1.81
  10   2 -10    3.82    2.67
  10   2  10    7.60    6.50
  -2  10 -10    0.34    2.37
   2 -10  10   15.07    7.51
  -2  10  10    0.75    3.55
 -10  -2  10   10.30    4.66
  10   2  11   11.58    5.79
   2 -10  11   14.83    6.55
  -2  10 -11   12.77    7.23
  10   2  11    9.23    5.26
  -2  10  11    9.53    5.86
 -10  -2  11   11.95    5.99
  -2  10 -12   18.10    8.26
  10   2  12   12.31    7.73
  10   3   0   -0.49    2.08
  -3  10   0    2.76    1.14
  10   3   0   -1.57    1.93
 -10  -3   0    0.59    0.27
  10   3   0    0.79    0.95
  -3  10   0    1.19    2.36
  10   3   1    1.22    1.13
  -3  10   1    3.60    2.86
  10   3  -1   -2.03    2.18
  10   3   1    1.20    1.78
  -3  10  -1    1.75    1.98
  -3  10   1    3.00    2.16
 -10  -3   1    1.28    2.95
  10   3  -2  196.17   16.04
  10   3   2  212.55   14.70
  -3  10   2  197.93   15.71
  10   3  -2  196.24   11.01
  10   3   2  193.07   11.01
 -10  -3   2  207.39   12.47
  -3  10  -2  202.73   17.30
  -3  10   2  197.85   15.23
   3 -10   2  203.27    7.92
  10   3   2  194.27   15.57
  10   3   3  225.89   13.28
  10   3  -3  227.01   18.01
  -3  10   3  207.53   15.56
 -10  -3   3  219.29   14.32
  -3  10  -3  218.36   18.67
  10   3   3  223.23   14.82
   3 -10   3  206.11    9.54
  10   3   3  227.68   18.08
  10   3   3  216.90   10.12
  -3  10   3  219.52   17.34
   3 -10   3  216.03   17.08
 -10  -3   3  226.08   17.80
  10   3   4  200.86   14.01
  10   3  -4  173.73   16.22
  10   3   4  189.80   13.45
   3 -10   4  221.00   17.98
  -3  10  -4  220.13   19.59
  -3  10   4  247.88   17.27
  -3  10   4  230.18   18.78
 -10  -3   4  191.53   14.71
  -3  10   5  194.97   18.11
  10   3  -5  197.31   18.26
  10   3   5  200.90   15.35
   3 -10   5  172.55   16.90
  10   3   5  221.25   19.59
  10   3   5  209.34   14.01
  -3  10  -5  182.63   18.99
  -3  10   5  189.27   15.51
 -10  -3   5  212.73   17.01
 -10  -3   5  181.33   17.76
 -10  -3  -5  188.16    7.02
  -3  10   6  250.47   21.89
  10   3  -6  212.57   19.50
  10   3   6  235.64   18.39
  10   3   6  226.14   21.16
  -3  10  -6  246.34   22.97
   3 -10   6  261.50   21.99
  10   3  -7  141.75   16.34
  -3  10   7  183.15   19.78
   3 -10   7  162.93   18.41
  10   3   7  148.41   15.68
  10   3   7  178.17   19.56
  -3  10   7  150.79   18.01
  -3  10  -7  155.79   19.01
 -10  -3   7  161.51   17.43
  10   3   8   57.87   10.63
  10   3  -8   50.29    9.95
  -3  10   8   60.20   11.90
  -3  10   8   54.29   11.98
  -3  10  -8   62.06   12.43
   3 -10   8   77.17   13.32
 -10  -3   8   62.31   11.74
 -10  -3   9   85.42   14.35
  10   3  -9   91.79   14.25
  -3  10   9   76.18   14.24
  10   3   9   85.78   13.93
  10   3   9   70.12   13.48
  -3  10  -9   76.98   14.64
  -3  10   9   96.31   16.10
  10   3  10   25.25    7.96
  10   3 -10   23.97    7.98
 -10  -3  10   20.26    7.37
  10   3  10   30.04    9.00
  -3  10 -10   32.89   10.26
  -3  10  10   21.78    8.05
 -10  -3  11    0.78    2.24
  -3  10 -11   18.24    7.41
   3 -10  11   15.33    7.61
  -3  10  11   -1.12    3.50
  10   3  12    6.57    5.29
  10   3  12    1.02    2.95
  -3  10 -12   11.77    7.07
  10   4   0  471.50   24.07
  10   4   0  475.14   21.73
  -4  10   0  498.56   25.89
  10   4  -1  353.76   21.36
  -4  10   1  340.88   15.73
  -4  10   1  333.16   20.53
  10   4   1  344.16   20.00
  -4  10  -1  318.10   21.18
  10   4  -1  359.71   17.45
  -4  10   1  318.03   19.12
  10   4   1  373.12   15.71
  10   4  -2  173.81   15.24
  10   4   2  168.65   13.52
  10   4  -2  173.39   10.77
  10   4   2  163.53   14.44
  -4  10   2  170.11   14.42
  -4  10   2  161.10   13.95
 -10  -4   2  171.64   12.17
  10   4   2  172.25    9.55
  -4  10  -2  186.09   16.79
  10   4   2  179.97   11.50
  10   4  -3  182.13   16.43
  -4  10   3  157.66   14.57
  10   4   3  172.62   15.85
  -4  10  -3  154.97   15.93
  10   4   3  186.99    8.41
  -4  10   3  187.92   15.27
 -10  -4   3  179.76   13.50
  10   4   3  173.17   13.84
  10   4   3  193.80   12.96
   4 -10   3  179.00   15.40
   4 -10   4   37.95    7.80
  -4  10   4   33.01    7.19
  10   4  -4   34.04    7.15
  10   4   4   42.84    6.87
  10   4   4   37.88    6.57
  -4  10  -4   36.47    8.50
  10   4   4   30.35    7.40
  -4  10   4   34.35    6.99
  10   4   4   39.45    4.05
  -4  10   5    1.43    1.37
  10   4  -5    1.74    1.84
  10   4   5   -0.35    0.91
   4 -10   5    0.98    2.26
  10   4   5    2.73    2.86
 -10  -4   5    2.15    3.05
  -4  10   5   -3.19    2.76
  10   4   5    1.38    2.59
   4 -10   6    4.44    3.85
  -4  10   6   -0.26    1.44
  10   4  -6    2.04    1.69
 -10  -4   6    9.27    5.31
  -4  10  -6    1.76    3.33
  10   4   6    2.40    2.66
  10   4   6    2.08    1.42
 -10  -4   6    0.89    3.38
  10   4   7    8.77    4.21
 -10  -4   7    6.61    3.49
  10   4  -7    7.99    3.86
  -4  10   7   14.03    5.60
  -4  10  -7    6.80    5.12
  -4  10   7   13.45    5.26
   4 -10   7    6.08    3.90
  10   4   7   10.59    3.84
  -4  10  -8    5.40    4.94
   4 -10   8    2.99    3.08
 -10  -4   8    6.56    4.12
  10   4  -8    3.15    3.77
  10   4   8    2.92    4.32
  -4  10   8    0.27    2.24
  -4  10   8    0.89    2.76
  10   4   8    2.37    2.91
  10   4   9   22.90    7.69
  10   4  -9   14.67    5.60
  -4  10   9    9.44    5.99
  10   4   9   17.35    6.98
 -10  -4   9   24.28    7.51
  -4  10   9   21.77    7.53
  -4  10  -9    8.71    5.23
 -10  -4  10   37.66   10.83
  -4  10 -10   39.11   11.03
  -4  10  10   33.71   10.03
  -4  10  10   28.93    9.59
   4 -10  10   18.37    6.30
  10   4 -10   31.38    8.21
 -10  -4  11   39.60   10.70
  10   4  11   33.56   10.02
  10   4  11   23.64    8.49
  -4  10  11   15.50    6.57
  -4  10  11   11.84    6.33
  -4  10 -11   15.46    7.90
  10   4  12   31.39   10.60
  10   4  12   19.31    7.50
  -4  10 -12   17.99    8.26
  10   5   0    5.02    3.20
  10   5   0    1.58    3.25
  -5  10   0   -0.68    1.39
  10   5   1    9.77    3.01
  10   5  -1   12.95    4.10
  10   5  -1    9.98    2.95
  -5  10   1    9.04    3.61
  -5  10  -1   11.74    4.44
  -5  10   1    7.96    2.49
  -5  10   1    4.49    3.23
  10   5   1    8.79    2.65
  -5  10   2   -1.22    2.30
  10   5   2    0.52    1.65
  10   5   2   -0.01    0.72
  10   5  -2   -0.22    2.11
  10   5   2    0.35    2.79
 -10  -5   2   -1.04    1.71
  10   5   2    0.33    1.81
  -5  10  -2    0.08    2.96
  -5  10   2    2.04    1.69
  10   5   3   24.65    5.78
  10   5  -3   20.35    5.68
  10   5   3   24.29    4.80
  10   5   3   21.61    5.84
 -10  -5   3   18.47    3.18
 -10  -5   3   27.81    6.05
  10   5   3   24.07    2.67
  -5  10  -3   26.89    7.22
  -5  10   3   26.16    6.32
 -10  -5   3   17.98    5.20
  -5  10   3   19.13    5.21
  10   5   4   83.73    9.70
  -5  10   4   95.53   11.92
  10   5  -4   84.10   11.47
  10   5   4   88.26   12.35
 -10  -5   4  104.47   11.80
  10   5   4   93.03   10.68
   5 -10   4  101.69   11.89
  -5  10  -4   91.05   13.03
 -10  -5   4   90.90   11.60
  -5  10   4   94.53   11.88
  -5  10   5   19.79    5.48
  10   5   5   15.01    5.60
 -10  -5   5   14.35    5.33
  -5  10   5   27.14    6.93
  -5  10  -5   16.62    5.95
   5 -10   5   16.83    5.28
  10   5   5   17.71    4.71
  10   5   5   15.12    4.17
  10   5  -5   14.85    6.04
  10   5   5   20.75    3.86
   5 -10   6   22.10    6.52
  10   5   6    2.51    2.91
 -10  -5   6    9.86    4.85
  10   5  -6    3.05    2.60
  -5  10   6   17.48    6.22
 -10  -5   6    3.72    3.56
  -5  10  -6   18.03    7.63
  10   5   6   16.15    4.66
  10   5   6    8.33    3.85
  10   5   6    8.88    2.97
  10   5   7    4.58    4.62
  -5  10   7   12.43    5.41
 -10  -5   7    7.27    4.70
  -5  10   7   16.13    6.11
  -5  10  -7   20.83    7.60
  10   5  -7    3.01    3.36
  10   5   7    4.56    3.28
   5 -10   7   18.80    6.42
  -5  10   8   17.48    7.12
 -10  -5   8    8.84    4.95
  -5  10  -8   17.98    7.40
  10   5  -8    5.71    4.08
  10   5   8   11.69    4.73
  -5  10   8   17.96    7.13
   5 -10   8   16.47    5.70
 -10  -5   9    1.60    3.56
  10   5  -9   15.02   11.85
   5 -10   9   21.36    7.69
  10   5   9    2.18    3.92
  -5  10  -9   22.77    8.70
  -5  10   9   14.23    6.09
  -5  10   9   16.47    6.63
  10   5   9   11.00    5.53
  10   5  10    3.99    4.86
  -5  10  10    1.81    4.96
  10   5 -10    2.15    3.68
   5 -10  10    2.60    2.72
  -5  10 -10    1.76    4.49
  10   5  10    2.41    3.47
  -5  10  10   11.51    6.13
 -10  -5  10    2.83    2.84
  10   5  11   -1.87    2.16
 -10  -5  11    4.84    5.74
  -5  10 -11    4.76    4.70
  -5  10  11    9.44    6.06
  -5  10  11    7.44    6.04
  10   5  11   -2.57    2.36
  10   6   0   -1.27    2.84
  -6  10   0   -1.33    2.75
  -6  10   0    0.35    1.21
  10   6  -1   13.46    5.67
  -6  10   1    3.97    3.10
  10   6   1    1.45    2.27
  10   6   1   12.62    4.81
  10   6   1    5.38    2.44
  -6  10   1    2.69    2.70
  -6  10  -1    2.72    3.30
  10   6   2    0.96    1.70
  -6  10   2   -2.02    2.26
  10   6  -2    1.32    2.82
  10   6   2    1.22    2.71
  10   6   2   -0.09    1.53
  -6  10  -2    5.02    3.95
  -6  10   2    0.57    1.86
  10   6   2    1.54    1.10
 -10  -6   3    2.22    1.81
  -6  10   3    5.70    3.31
  10   6   3    4.76    2.85
 -10  -6   3    2.61    2.38
  10   6   3    1.66    3.05
  10   6   3    4.76    1.07
  10   6  -3    3.20    3.38
  -6  10  -3    2.32    1.54
  -6  10   3    1.58    2.10
 -10  -6   4   14.52    4.77
  10   6   4    7.90    3.85
   6 -10   4    9.59    3.85
 -10  -6   4    8.63    1.89
  10   6  -4   12.49    5.11
  -6  10  -4    8.39    4.83
  -6  10   4    6.57    3.70
 -10  -6   4    3.91    2.51
  10   6   4    6.00    3.32
  -6  10   4    7.84    3.59
  -6  10   5    1.37    3.05
  -6  10  -5    0.58    3.09
  10   6  -5   -1.74    1.80
  -6  10   5    7.65    4.52
   6 -10   5   -0.54    2.22
 -10  -6   5    2.75    2.19
  10   6   5    8.33    4.55
  10   6   5    3.13    3.62
 -10  -6   5    0.36    1.61
   6 -10   6   14.78    5.39
  10   6   6   23.36    4.72
  10   6  -6   10.99    4.79
 -10  -6   6   19.57    6.80
  10   6   6   20.69    5.44
  10   6   6   23.51    6.06
  -6  10  -6    6.39    4.46
  -6  10   6    9.61    4.10
  10   6  -7   20.58    6.66
  10   6   7   16.95    6.95
 -10  -6   7   15.17    5.61
  -6  10  -7    8.49    4.41
   6 -10   7   17.06    6.15
  -6  10   7   16.93    6.53
 -10  -6   7   21.51    7.38
  10   6   7   19.08    5.93
 -10  -6   8    0.89    2.54
  -6  10   8    0.15    2.83
  10   6  -8    2.45    4.28
  10   6   8    2.05    4.69
  -6  10  -8   -0.37    3.69
  -6  10   8    2.66    2.13
   6 -10   8   -1.61    3.43
  10   6   8    0.09    2.75
  -6  10   9   -1.71    2.79
   6 -10   9   -0.47    2.61
  10   6  -9   -1.87    3.01
 -10  -6   9    9.23    5.41
  10   6   9    4.64    4.03
  10   6   9    6.23    5.10
  -6  10  -9    5.84    5.76
  -6  10   9    0.74    2.70
 -10  -6  10   -2.60    2.54
  10   6 -10    0.56    3.36
   6 -10  10    4.98    4.40
  10   6  10   -1.38    2.17
   6 -10  10    4.11    5.09
  -6  10 -10   -5.17    5.36
  -6  10  10   -5.05    4.54
  10   6  10   -0.87    2.63
  10   6  11   -1.07    3.88
  10   6  11    8.46    6.33
 -10  -6  11    2.10    2.29
  -6  10 -11    8.94    5.71
  -6  10  11    4.49    4.59
  10   7   0   -3.86    1.76
  -7  10   0    2.79    3.90
  -7  10   1   -0.11    2.20
  10   7   1    2.60    3.47
  10   7   1   -0.73    2.49
  -7  10  -1    2.19    3.21
  10   7  -1   -1.57    1.75
  -7  10   1   -0.74    1.36
  10   7   1   -0.51    1.31
  -7  10   1    0.82    1.67
  10   7  -1    0.06    1.12
  10   7   2    5.28    3.14
  -7  10   2    2.89    1.22
 -10  -7   2    0.51    1.86
  10   7   2    1.42    1.96
  10   7   2    4.32    3.21
  -7  10   2    3.37    3.05
  10   7  -2    5.39    3.64
  -7  10  -2    3.23    2.01
  -7  10   2    3.75    4.03
  10   7   2    3.69    1.54
  10   7   3    2.08    2.68
 -10  -7   3    3.52    2.25
  10   7   3   10.05    3.88
  10   7   3    4.91    3.69
 -10  -7   3    0.97    2.51
  10   7  -3    7.08    4.39
  -7  10  -3    0.06    3.07
  -7  10   3    0.84    2.12
  10   7   3    5.40    1.04
  -7  10   3    2.05    2.48
  10   7  -4    2.00    2.33
  10   7   4    5.93    3.97
 -10  -7   4    5.78    3.28
  -7  10   4    6.99    3.73
  10   7   4    4.24    2.79
  -7  10  -4    8.01    4.65
   7 -10   4    5.36    2.88
  10   7   4   11.77    5.67
  -7  10   4   10.95    4.40
  -7  10   5    9.54    4.25
 -10  -7   5   14.32    5.11
  10   7   5    9.97    3.77
  10   7  -5   12.86    5.37
  -7  10   5   12.25    5.21
  10   7   5   16.81    6.56
  -7  10  -5    7.53    5.38
  10   7   5    4.25    2.78
   7 -10   5    8.19    3.68
   7 -10   6    9.16    4.34
 -10  -7   6   20.19    6.36
  -7  10   6    9.15    4.24
  10   7   6   21.26    6.68
  10   7   6   21.65    6.51
  10   7  -6    8.95    4.47
  -7  10  -6   12.12    5.91
 -10  -7   6   22.24    6.89
  10   7  -7   23.28    6.90
  10   7   7    7.52    3.78
 -10  -7   7   31.44    7.78
  10   7   7   20.83    7.60
 -10  -7   7   11.94    5.49
  -7  10   7    1.66    3.59
  -7  10  -7    2.18    2.27
   7 -10   7    3.05    3.62
 -10  -7   8    5.88    5.40
  -7  10  -8    5.44    4.63
  -7  10   8   -0.33    3.51
  10   7   8    7.03    5.78
 -10  -7   8    6.41    4.84
  10   7  -8   -1.53    2.34
  -7  10   8    0.49    2.85
   7 -10   8   -3.95    3.40
  10   7   8   -4.12    3.72
 -10  -7   9   -0.06    2.15
  10   7   9    7.79    5.63
   7 -10   9    0.80    1.92
  10   7  -9    1.57    2.80
  -7  10   9    6.22    4.64
  10   7   9    7.56    5.73
  -7  10  -9    4.45    4.81
  -7  10   9    7.74    6.51
  -7  10  10   -2.93    4.77
 -10  -7  10   -0.54    2.73
   7 -10  10    8.46    5.18
  -7  10 -10    1.11    3.67
   7 -10  10    6.78    4.56
  -7  10  10   -0.47    2.48
  10   7  10    4.70    5.83
  10   7  10    7.25    7.14
  10   7  11    4.32    4.25
  10   7  11   -0.68    3.85
  -7  10 -11    0.04    3.54
   7 -10  11    6.43    4.70
 -10  -7  11   -3.58    4.61
  -7  10  11   -0.23    2.19
  10   8   0  581.39   30.61
  -8  10   0  625.72   25.77
  -8  10   0  606.98   25.35
  10   8   0  591.10   28.22
  -8  10   0  600.00   31.15
  10   8  -1  454.23   27.31
  10   8   1  443.19   26.75
  10   8   1  459.90   23.30
  -8  10   1  464.81   27.32
  -8  10   1  479.22   22.87
  -8  10  -1  461.85   27.63
  10   8  -2  251.88   20.62
  10   8   2  245.10   19.65
  -8  10   2  242.68   17.49
  -8  10   2  228.89   19.15
  10   8   2  237.27   19.63
  -8  10  -2  215.34   19.17
  10   8   2  237.53   11.35
  10   8   2  265.36   17.96
  -8  10   2  240.48   16.84
  10   8  -3  133.15   14.95
  -8  10   3  145.79   15.61
  10   8   3  136.02   14.70
  -8  10   3  125.46   13.43
  10   8   3  141.71   15.79
  10   8   3  113.45    4.78
  10   8   3  123.51    5.16
  -8  10  -3  127.29   14.99
  10   8   3  137.53   13.51
  -8  10   3  150.08   14.02
 -10  -8   3  132.78   13.72
  10   8  -4   95.49   12.99
 -10  -8   4   75.99   10.93
  10   8   4   83.83   11.79
  -8  10  -4   70.03   11.48
  10   8   4   81.03   12.86
   8 -10   4   86.81   10.98
  -8  10   4   94.52   12.94
  10   8   4   86.42   11.16
  -8  10   4   93.65   11.83
 -10  -8   5   10.24    5.18
  -8  10   5   10.79    4.66
  10   8   5   14.10    5.28
  -8  10   5   10.57    4.61
 -10  -8   5   12.02    5.16
  10   8   5   16.63    5.95
  -8  10  -5   16.63    6.88
  10   8   5   14.94    6.63
   8 -10   5    7.63    3.65
  10   8  -5   14.42    5.21
  -8  10   6    7.99    4.19
  10   8   6    8.94    4.72
 -10  -8   6    6.15    4.00
  10   8  -6   11.15    4.89
 -10  -8   6   10.98    4.55
  10   8   6   12.32    5.37
  -8  10  -6    4.96    4.92
   8 -10   6    8.67    3.74
   8 -10   7    8.11    3.96
  10   8  -7   10.27    5.78
  10   8   7    9.97    6.01
  10   8   7    4.62    3.64
  -8  10   7    9.14    4.43
  -8  10  -7    9.17    5.43
 -10  -8   7    8.90    5.47
  -8  10  -8    5.10    4.49
  -8  10   8    5.93    4.69
 -10  -8   8    3.07    3.38
  10   8  -8    9.41    5.39
   8 -10   8    3.08    3.69
  10   8   8    2.03    3.38
  10   8   8    1.84    4.13
 -10  -8   8   10.27    4.92
  -8  10   8    0.01    2.21
  10   8  -9    4.96    3.68
  -8  10  -9   10.79    6.12
 -10  -8   9   13.40    6.69
 -10  -8   9   21.16    8.51
  10   8   9   22.36    9.15
   8 -10   9   11.83    5.61
  10   8   9   16.19    7.07
  -8  10   9   11.95    4.92
  -8  10   9    5.58    4.25
  -8  10 -10   26.81    8.43
  -8  10  10   31.95    9.96
  10   8  10   28.57    9.93
   8 -10  10   28.57    9.24
  -8  10  10   33.35   10.25
  -8  10  11   14.39    7.07
   8 -10  11   42.31   11.15
  10   8  11   33.69    9.60
  10   8  11   31.07   10.42
  -9  10   0    2.99    3.68
  10   9   0    1.45    2.90
  -9  10   0   -0.02    1.94
  -9  10   1    3.10    2.69
  10   9   1    5.51    3.48
  10   9   1    1.86    2.76
  -9  10  -1    1.81    3.07
  10   9   1    3.89    2.94
  -9  10   1    2.15    2.89
  10   9  -1   10.48    5.37
  -9  10   2    6.71    3.56
 -10  -9  -2   10.41    2.52
  10   9  -2   11.97    5.28
  10   9   2    7.71    5.38
  -9  10  -2    3.06    2.43
  -9  10   2    4.66    3.05
  10   9   2   10.82    3.83
  10   9   3   11.55    4.10
  10   9  -3    8.26    3.77
  -9  10   3   10.36    3.50
  10   9   3   11.39    4.44
  10   9   3   10.29    1.68
  -9  10   3   14.51    5.81
  10   9   3   10.48    4.80
  -9  10  -3   13.71    5.40
  -9  10   3    4.37    3.26
  10   9  -4    7.56    4.78
  10   9   4   -0.59    2.44
  10   9   4    0.23    2.91
  -9  10   4    3.40    3.55
  -9  10  -4   -2.46    1.73
  10   9   4    2.58    4.47
 -10  -9   4    3.66    3.31
  -9  10   4   -0.75    2.72
  -9  10   5    7.50    4.12
   9 -10   5    8.71    4.32
  10   9  -5    3.46    3.09
  10   9   5    4.28    3.20
  10   9   5    7.06    4.83
  -9  10   5   10.25    4.31
  10   9   5    8.11    5.29
 -10  -9   5    2.80    2.31
  -9  10  -5    9.03    5.14
  -9  10  -6   17.42    6.88
  10   9  -6   18.98    6.19
 -10  -9   6   14.77    5.70
  10   9   6   19.19    8.42
   9 -10   6   15.63    5.53
  -9  10   6   15.60    5.57
 -10  -9   7   -2.03    3.66
   9 -10   7   -2.06    3.21
 -10  -9   7    6.05    4.12
  10   9   7    1.07    1.75
  -9  10   7   -0.17    1.55
  -9  10  -7   11.77    5.88
  10   9  -7    7.16    4.10
  10   9   7    1.77    3.44
 -10  -9   8   11.14    6.40
  -9  10   8    7.10    4.16
  -9  10  -8    8.80    4.77
  10   9   8   10.70    5.43
  10   9   8    3.83    3.97
  10   9  -8    9.83    6.15
   9 -10   8   13.69    5.75
 -10  -9   8    7.66    4.41
  10   9  -9   12.59    6.12
   9 -10   9    2.49    2.30
  -9  10  -9    2.70    2.42
  10   9   9    0.02    2.18
   9 -10   9    5.82    4.20
 -10  -9   9    4.11    4.01
  -9  10   9    5.39    4.43
 -10  -9   9   17.16    6.75
  -9  10 -10    0.17    1.80
   9 -10  10    0.48    1.73
 -10  -9  10   -2.20    3.03
  -9  10  10    4.58    5.56
  10   9  10    0.79    3.51
  -9  10  10    4.51    4.15
  10   9  11    1.30    4.59
   9 -10  11   -3.11    5.58
   9 -10  11    1.92    2.91
  10  10   0  493.44   30.18
 -10  10   0  495.91   25.51
 -10  10   0  515.72   22.87
 -10  10   0  519.94   30.48
  10  10  -1  439.53   28.64
  10  10   1  448.27   25.57
 -10  10   1  472.62   29.15
 -10  10  -1  426.72   27.77
  10  10   1  477.77   29.54
 -10  10   1  470.83   22.22
  10  10  -2  264.47   22.41
 -10  10   2  275.17   20.39
  10  10   2  220.31   20.19
 -10  10  -2  262.14   21.94
 -10  10   2  274.70   22.39
  10  10   2  244.10   19.00
 -10  10   2  276.06   17.72
  10  10   2  210.54   19.63
 -10  10   3  193.71   15.76
  10  10   3  190.90   19.11
  10  10  -3  186.08   19.03
 -10  10   3  189.76   17.79
  10  10   3  187.71   19.03
 -10  10   3  186.76   18.80
  10  10   3  176.65   16.67
 -10  10  -3  190.05   18.92
 -10  10   4   62.28   11.55
 -10 -10   4   42.54    7.76
 -10 -10   4   50.55    9.76
  10  10   4   67.75   10.90
 -10  10   4   45.12    9.34
  10  10  -4   53.84   10.56
  10  10   4   58.24   11.04
 -10  10  -4   41.38    8.84
 -10  10   4   42.75    7.84
 -10  10   5    3.07    2.96
 -10 -10   5    1.08    2.05
  10 -10   5    4.53    3.67
 -10  10   5    5.71    3.59
  10  10  -5   -1.49    3.70
  10  10   5    4.17    3.88
  10  10   5   -0.44    2.21
 -10  10  -5    5.91    3.50
 -10  10  -6    5.14    4.79
 -10 -10   6    1.35    2.21
  10 -10   6    0.29    1.49
 -10  10   6   -1.36    3.33
 -10 -10   6    0.02    2.28
  10  10  -6   -0.23    2.86
  10  10   6    1.49    2.68
 -10 -10   7   16.47    6.59
  10  10   7   14.80    6.09
  10  10  -7   12.19    6.25
 -10  10  -7    4.99    4.52
 -10  10   7    9.94    4.49
  10 -10   7    7.85    4.08
  10 -10   8   48.81   10.70
 -10 -10   8   24.35    8.30
  10  10   8   28.23    8.22
 -10 -10   8   31.32    8.14
  10  10  -8   30.28    8.61
 -10  10  -8   23.41    8.82
 -10  10   8   35.23    9.10
 -10 -10   9   40.68   11.61
  10  10   9   48.29   11.36
 -10  10   9   37.81   10.76
  10  10  -9   35.19    9.07
  10 -10   9   33.76   10.43
 -10  10  -9   29.46    9.32
  10 -10   9   30.38    8.57
 -10  10   9   37.13    9.83
 -10  10  10   34.84   10.11
  10  10  10   22.25    9.27
  10 -10  10   21.46    7.87
  10  10  10   15.49    6.99
  10 -10  10   19.25    6.82
 -10  10  10   28.36   10.13
 -10 -10  10   17.24    7.12
  10 -10  11   47.98   12.30
  10  11   0    0.18    3.34
 -11  10   0   -2.63    1.93
 -11  10   0    0.84    2.10
  10  11  -1    1.64    2.99
 -11  10   1    3.52    2.44
 -11  10   1    2.78    2.06
  10  11   1   -2.91    3.46
 -11  10   1    5.46    4.98
  10  11   1    1.58    3.13
 -11  10  -1    5.37    3.26
 -11  10   2   16.05    4.48
  10  11  -2   14.18    5.85
  10  11   2   12.06    5.83
  10  11   2   11.52    3.58
 -11  10   2   11.49    5.63
 -11  10  -2   23.58    7.00
  10  11   2   14.48    5.21
  10  11   3   43.96    9.11
 -11  10   3   30.53    6.51
  10  11  -3   63.36   11.81
  10  11   3   37.66    9.16
  10  11   3   53.68    9.62
 -11  10  -3   32.25    8.57
 -11  10   3   43.45    9.19
 -11  10   4   13.04    5.97
  10  11   4   20.01    6.45
 -10 -11   4    7.50    3.23
 -11  10   4   17.68    5.25
 -11  10  -4   13.24    5.75
  10  11   4    4.80    4.05
  10  11  -4   18.22    6.67
 -11  10   5   37.84    9.24
  11 -10   5   35.06    7.14
 -10 -11   5   33.39    8.39
 -11  10  -5   35.38    8.76
 -11  10   5   38.97    9.62
  10  11   5   42.61   10.32
 -11  10   5   30.71    7.00
  10  11  -5   44.77   10.29
  10  11   5   51.77   10.70
  10  11   5   49.89    9.87
 -10 -11   6   58.89   11.60
  10  11  -6   49.30   10.65
  10  11   6   41.10   10.63
 -11  10   6   38.45    8.63
 -11  10  -6   40.67    9.99
  10  11   6   41.32    9.53
  11 -10   6   55.61    9.62
  10  11   7   44.44   10.23
 -10 -11   7   45.91    9.16
  10  11   7   50.36   12.03
  10  11  -7   36.62    9.67
  11 -10   7   33.36    7.78
 -11  10   7   24.00    7.64
 -10 -11   7   35.31    9.84
 -11  10  -7   29.09    9.06
  11 -10   8    2.39    2.61
  10  11  -8   29.10    8.73
 -10 -11   8   15.59    7.21
  10  11   8   27.17    8.50
 -11  10  -8   18.59    7.46
  10  11   8   19.87    7.84
 -10 -11   9   11.49    5.65
  10  11  -9    1.90    1.97
  11 -10   9    9.20    5.44
  10  11   9   15.12    6.50
 -11  10  -9    4.04    4.22
 -11  10   9    0.21    2.47
 -11  10  10    7.50    5.46
 -10 -11  10   21.79    9.30
  11 -10  10    3.31    5.70
  10  11  10   13.45    7.63
  10  11  10    2.82    2.23
   9  11   0  156.79   17.09
 -11   9   0  129.07   13.73
 -11   9   0  138.64   10.46
 -11   9   0  156.54   16.78
   9  11  -1  158.10   17.51
   9  11   1  139.76   16.68
 -11   9   1  146.93   14.56
 -11   9  -1  112.34   14.10
 -11   9   1  137.56   15.83
   9  11   1  149.84   15.30
 -11   9   1  136.86   10.92
 -11   9   2   45.17    8.86
   9  11  -2   64.30   11.11
   9  11   2   71.66    7.37
   9  11   2   67.71   11.52
 -11   9  -2   47.76    9.48
 -11   9   2   50.52    7.01
   9  11   2   61.51   10.05
 -11   9   2   50.61    9.92
 -11   9   3   54.54    8.01
   9  11   3   54.22    9.55
   9  11   3   40.73    9.03
   9  11  -3   45.35    9.70
 -11   9  -3   50.82    9.75
   9  11   3   42.63    9.35
 -11   9   3   54.24   10.46
 -11   9   4   41.65    9.46
   9  11   4   31.69    8.68
 -11   9   4   46.64    9.90
   9  11   4   37.94    8.24
 -11   9  -4   41.19    9.28
  -9 -11   4   26.91    5.83
 -11   9   4   43.13    7.66
   9  11   4   20.91    6.20
  -9 -11   4   31.13    7.97
   9  11  -4   25.80    7.53
  -9 -11   5   11.39    3.97
  11  -9   5   10.25    3.59
  -9 -11   5    7.79    4.60
   9  11   5   15.60    6.79
   9  11  -5   18.40    7.27
   9  11   5   11.34    4.63
 -11   9   5    4.83    2.51
 -11   9  -5   13.89    5.71
 -11   9   5   16.27    6.62
  -9 -11   6    5.33    3.61
   9  11   6    6.59    4.41
 -11   9  -6   -2.11    2.26
  -9 -11   6   -0.57    1.61
  11  -9   6   -0.16    1.73
   9  11  -6    1.86    2.76
 -11   9   6    0.18    2.65
 -11   9   7    6.82    4.60
  11  -9   7    3.91    3.33
   9  11  -7    9.29    5.68
   9  11   7    1.73    2.26
 -11   9  -7    3.26    3.40
  -9 -11   7   -0.03    2.11
 -11   9   8    2.17    4.06
 -11   9   8    7.32    4.41
  -9 -11   8    4.69    3.37
   9  11   8    1.02    2.47
   9  11  -8    6.23    4.48
 -11   9  -8    3.63    3.36
  11  -9   8    5.80    2.84
 -11   9   9   17.53    6.41
  -9 -11   9   15.36    7.44
 -11   9   9   19.62    7.47
   9  11   9    9.06    6.94
   9  11  -9   18.60    7.12
  11  -9   9    6.32    4.51
   9  11   9   17.54    7.10
 -11   9  -9   15.02    6.85
  11  -9   9   13.19    5.25
   9  11  10   14.45    6.55
 -11   9  10   11.49    6.21
  -9 -11  10   11.72    5.57
 -11   9  10   20.53    9.17
  11  -9  10   15.22    8.72
   9  11  10   16.35    6.11
 -11   8   0    0.64    1.53
 -11   8   0   -1.36    2.05
   8  11   0   -0.37    2.51
 -11   8   0    1.49    2.91
 -11   8   1    7.68    2.60
 -11   8   1    8.89    4.02
   8  11   1   11.26    4.89
   8  11  -1   10.28    4.59
 -11   8  -1    7.28    2.68
 -11   8  -1    3.58    3.33
 -11   8   1    0.82    2.10
   8  11  -2   82.06   11.91
   8  11   2   86.72    8.12
   8  11   2   86.82   12.66
 -11   8  -2   96.16   12.60
 -11   8   2   80.75   11.20
   8  11   2   72.14   10.75
 -11   8   2   64.44   10.71
 -11   8   2   94.13    9.16
 -11   8   3  186.77   14.11
   8  11  -3  185.61   18.71
   8  11   3  179.09   18.55
   8  11   3  181.23    9.42
 -11   8  -3  204.23   18.75
   8  11   3  181.34   17.42
 -11   8   3  210.45   19.67
 -11   8   3  179.59   17.82
  -8 -11   4  190.16   14.42
 -11   8   4  210.38   16.38
   8  11  -4  197.22   19.46
   8  11   4  218.11   20.55
 -11   8  -4  194.91   18.66
  11  -8   4  213.00   15.26
 -11   8   4  195.74   19.61
   8  11   4  205.52   19.06
 -11   8   4  182.64   19.12
  -8 -11   4  205.11   19.60
   8  11   4  172.93   18.89
   8  11  -5  277.74   23.57
 -11   8   5  341.42   22.58
   8  11   5  318.17   27.00
  11  -8   5  368.76   21.86
  -8 -11   5  350.62   26.83
 -11   8   5  342.90   27.01
   8  11   5  294.78   23.86
 -11   8  -5  310.85   23.96
  11  -8   6  420.54   25.38
   8  11  -6  447.13   30.22
 -11   8   6  421.51   27.23
   8  11   6  405.33   31.61
  -8 -11   6  420.21   30.55
 -11   8  -6  430.84   29.27
   8  11   6  418.62   29.83
   8  11   7  255.64   24.23
  11  -8   7  261.89   21.47
   8  11  -7  276.90   24.38
  -8 -11   7  248.64   20.22
 -11   8   7  268.97   23.28
  -8 -11   7  246.99   24.72
 -11   8  -7  267.78   23.94
   8  11   7  249.53   25.79
 -11   8   7  214.56   23.27
  11  -8   8  164.46   18.13
   8  11   8  137.68   18.48
   8  11  -8  136.62   17.23
   8  11   8  109.15   17.92
 -11   8   8  140.51   19.45
  -8 -11   8  139.28   19.32
  11  -8   8  154.47   20.36
 -11   8  -8  143.53   18.22
 -11   8   8  133.95   17.49
  11  -8   9   89.11   14.75
 -11   8   9   56.11   12.07
  -8 -11   9   65.57   13.94
  11  -8   9   69.06   14.37
   8  11   9   63.49   13.85
   8  11   9   57.78   12.58
  -8 -11  10   21.74    8.25
 -11   8  10   20.21    7.23
   8  11  10   32.95   10.71
   8  11  10   30.52    9.11
  11  -8  10   29.52    9.94
  11  -8  11    5.62    4.63
 -11   8  11    6.31    4.85
   8  11  11    6.58    7.39
 -11   7   0    2.26    1.44
 -11   7   0   -0.52    0.89
   7  11   0    5.86    3.89
 -11   7   0    1.60    1.63
 -11   7   0    2.93    3.90
   7  11  -1   47.50    9.40
   7  11   1   29.80    7.76
   7  11   1   51.28    7.19
 -11   7  -1   28.38    3.84
 -11   7  -1   47.70    8.52
 -11   7  -1   32.21    4.20
 -11   7   1   36.21    4.83
 -11   7   1   29.20    6.65
 -11   7   1   36.76    7.90
 -11   7   2   47.52    6.08
   7  11   2   58.58    6.67
 -11   7   2   51.48    9.10
   7  11  -2   63.46   11.10
 -11   7  -2   49.59    9.03
   7  11   2   55.37    9.91
   7  11   2   52.08    9.07
 -11   7   2   33.10    7.61
 -11   7   3    9.43    4.74
   7  11   3   13.11    4.79
 -11   7   3    9.72    4.64
   7  11  -3   15.78    5.95
   7  11   3   11.95    5.48
   7  11   3   16.22    2.94
 -11   7  -3   13.59    4.79
 -11   7   3   13.35    3.63
 -11   7   4   12.24    5.20
   7  11   4   14.28    4.65
   7  11   4   12.87    5.41
   7  11  -4   21.25    6.00
  -7 -11   4   17.98    6.81
 -11   7  -4   14.57    5.66
  11  -7   4   11.77    3.27
 -11   7   4   15.85    6.53
 -11   7   4   14.71    4.56
  11  -7   5    2.53    2.38
   7  11   5    3.17    3.65
  -7 -11   5    3.04    4.34
   7  11   5   -0.94    2.67
   7  11  -5    5.69    3.91
 -11   7   5   11.03    5.78
 -11   7  -5    1.83    1.88
 -11   7   5    4.52    3.44
  -7 -11   5    3.89    2.82
  11  -7   6    5.25    3.15
   7  11   6    4.48    5.75
 -11   7  -6    7.30    4.18
  -7 -11   6    7.26    3.62
 -11   7   6    3.06    2.86
 -11   7   6   -0.43    3.10
   7  11  -6    2.56    3.91
   7  11   6    0.86    2.51
  -7 -11   7    4.53    3.38
   7  11  -7    0.90    3.63
   7  11   7   -1.61    1.49
  11  -7   7   -0.38    3.60
  -7 -11   7    3.47    3.72
 -11   7  -7    2.19    3.86
 -11   7   7    2.50    2.66
  11  -7   7    2.45    2.58
 -11   7   8    5.48    3.57
  -7 -11   8   -1.16    2.80
   7  11  -8    1.95    2.50
   7  11   8   -1.47    3.46
  11  -7   8    2.05    1.67
  11  -7   8    0.29    2.93
   7  11   8    0.52    2.54
 -11   7  -8    1.23    2.91
  -7 -11   9   11.87    6.42
   7  11   9    9.50    5.45
  11  -7   9    3.35    2.06
  11  -7   9    5.98    4.44
   7  11   9    8.31    4.87
  11  -7  10    1.25    2.12
 -11   7  10    3.21    3.19
 -11   7  10    0.75    3.24
   7  11  10   14.56    5.91
   7  11  10    7.09    4.79
  -7 -11  10    9.94    6.30
 -11   7  11   -2.79    2.26
 -11   6   0   -0.21    0.59
 -11   6   0   -0.01    0.50
 -11   6   0   -0.51    1.49
   6  11   0   -1.07    1.67
 -11   6   0    1.63    1.94
 -11   6  -1   20.02    2.82
 -11   6   1   21.38    5.40
   6  11  -1   23.11    6.58
 -11   6   1   20.27    3.32
   6  11   1   20.95    6.15
   6  11   1   15.80    4.13
 -11   6  -1   18.18    2.81
 -11   6  -1   23.79    6.40
 -11   6   1   16.76    5.22
 -11   6   2   65.35    6.69
   6  11   2   59.62    6.80
   6  11  -2   72.46   11.30
   6  11   2   67.55   10.75
 -11   6   2   55.84    9.48
 -11   6  -2   63.24    9.67
   6  11   2   49.31    8.91
 -11   6   2   64.40   10.15
 -11   6   3   23.81    6.45
   6  11   3   26.54    7.12
  11  -6   3   31.58    4.92
 -11   6   3   22.86    6.29
   6  11  -3   24.94    6.53
   6  11   3   17.52    5.75
 -11   6   3   32.90    5.57
   6  11   3   16.32    3.13
 -11   6  -3   27.00    6.14
   6  11   4   44.97    8.63
 -11   6   4   53.32    7.72
   6  11  -4   52.90    9.63
 -11   6   4   42.10    8.94
  11  -6   4   58.41    7.53
   6  11   4   65.88   10.62
   6  11   4   61.68    4.83
 -11   6  -4   61.91   10.03
  -6 -11   4   51.71    9.49
  11  -6   5   96.76   10.49
   6  11  -5   99.22   13.22
 -11   6   5   96.99   11.49
 -11   6  -5  100.81   12.73
 -11   6   5   80.84   12.39
   6  11   5   87.70   12.86
  -6 -11   5   80.14   12.63
 -11   6   5   92.62   13.96
  11  -6   6   92.29   11.29
 -11   6  -6   93.71   12.84
   6  11   6   61.47   11.94
   6  11   6   70.33   11.99
  -6 -11   6   70.38   12.47
 -11   6   6   93.58   12.39
  -6 -11   6   36.21    6.90
   6  11  -6   79.43   11.91
 -11   6   7   67.51   11.49
 -11   6   7   86.46   14.12
  -6 -11   7   83.13   13.97
  11  -6   7   87.80   14.44
   6  11  -7   67.42   11.52
   6  11   7   77.67   13.28
 -11   6  -7   63.52   10.67
  11  -6   7   90.20   12.10
   6  11   7   79.28   14.30
  11  -6   8   66.07   11.20
   6  11  -8   44.21    9.59
   6  11   8   42.05   10.13
   6  11   8   39.60   10.51
 -11   6  -8   50.27   10.30
  -6 -11   8   35.12    9.89
 -11   6   8   54.96   12.25
  11  -6   8   63.97   12.77
   6  11   9   26.68    8.83
 -11   6   9   28.90    8.26
  11  -6   9   37.61    9.06
  11  -6   9   37.32   10.17
  -6 -11   9   27.19    9.53
  11  -6  10    2.00    3.33
   6  11  10    8.03    6.35
  -6 -11  10    6.78    5.86
  11  -6  10   -0.96    2.55
  11  -6  11    7.31    5.01
 -11   6  11   18.36    7.31
 -11   5   0   16.85    2.00
 -11   5   0   14.36    1.87
 -11   5   0   20.78    5.95
   5  11   0   10.11    4.94
   5  11   0   14.66    4.35
 -11   5   0   18.38    5.31
 -11   5  -1    1.20    0.64
 -11   5   1    2.86    1.20
   5  11  -1    3.09    1.75
   5  11   1    2.73    1.65
   5  11  -1    5.73    3.65
   5  11   1   -0.20    1.90
 -11   5  -1    0.84    1.47
 -11   5  -1    2.23    0.86
 -11   5   1    1.66    3.09
 -11   5   1    5.73    3.53
 -11   5   2   -0.09    2.30
   5  11   2    0.15    1.58
 -11   5   2    0.80    1.33
   5  11   2    1.87    2.30
   5  11   2   -0.73    2.76
 -11   5  -2    0.08    1.90
   5  11  -2   -0.64    3.24
 -11   5  -2    1.23    0.88
 -11   5   3    2.95    1.73
   5  11   3    8.49    4.36
   5  11   3   11.52    2.74
   5  11  -3   13.04    6.38
   5  11   3   11.85    4.81
  -5 -11   3    9.45    2.48
 -11   5  -3    7.09    4.17
  11  -5   3    5.61    2.06
  11  -5   4    2.28    1.73
  -5 -11   4    4.99    4.01
 -11   5   4    3.96    3.45
 -11   5   4    7.29    3.36
   5  11  -4    6.83    5.30
   5  11   4    0.98    2.37
  11  -5   4    3.93    2.47
 -11   5  -4    7.71    4.23
 -11   5   4    2.45    1.84
   5  11   4    1.78    1.46
 -11   5   5   15.40    4.55
 -11   5  -5   18.78    5.31
 -11   5   5   22.80    7.21
  11  -5   5   20.83    5.05
   5  11  -5   10.65    5.17
   5  11   5    6.99    4.41
  -5 -11   5    5.90    4.40
 -11   5   6    0.81    2.44
  -5 -11   6   -0.50    1.65
  11  -5   6    3.34    3.04
 -11   5   6    1.25    2.85
 -11   5  -6   -0.83    1.43
  -5 -11   6    0.82    2.42
   5  11  -6    8.42    4.52
  11  -5   6    7.15    5.40
   5  11   6    8.73    5.22
  11  -5   7    1.02    3.22
   5  11   7    1.40    2.49
  -5 -11   7    3.08    3.94
 -11   5   7    1.45    3.25
   5  11  -7   -2.41    1.73
 -11   5  -7   -0.33    2.08
 -11   5   8    0.73    1.50
   5  11   8    6.92    4.80
  -5 -11   8    0.93    3.50
   5  11  -8    5.44    4.25
 -11   5  -8    3.56    3.22
  11  -5   9   -3.43    3.82
   5  11   9    0.53    3.09
  -5 -11   9   -0.14    2.68
 -11   5  10    5.54    4.85
 -11   5  10    3.08    1.98
   5  11  10    4.53    6.04
  -5 -11  10   -1.55    3.53
  11  -5  11    2.71    3.31
 -11   5  11   10.52    6.16
   4  11   0    1.89    3.54
 -11   4   0   -1.02    1.99
   4  11   0   -1.14    0.66
 -11   4   1    2.96    1.07
   4  11  -1    3.51    1.32
   4  11  -1    3.05    3.89
   4  11   1    4.02    2.77
   4  11   1    8.06    4.67
 -11   4   1    4.43    3.63
 -11   4  -1    4.24    2.24
 -11   4   1    7.95    4.21
 -11   4   2    0.69    1.16
 -11   4   2   -0.35    2.74
   4  11   2    2.97    2.28
   4  11  -2    0.88    2.68
 -11   4  -2    2.05    0.91
   4  11   2    7.97    4.57
   4  11   2    4.07    2.90
 -11   4  -2    3.44    2.65
  11  -4  -2    1.87    1.30
 -11   4   3   14.95    3.51
   4  11   3   17.55    5.10
 -11   4   3   14.25    4.74
  -4 -11   3   20.81    3.12
 -11   4  -3   19.83    3.25
   4  11   3   22.81    6.02
  11  -4   3   15.87    3.62
   4  11   3   26.37    4.31
 -11   4  -3   10.84    3.63
   4  11  -3   26.46    6.67
  11  -4   3   19.06    3.36
 -11   4   4   37.72    6.41
   4  11   4   29.38    6.96
   4  11  -4   38.97    8.13
 -11   4   4   31.48    8.00
  -4 -11   4   32.13    4.55
   4  11   4   38.71    4.97
  11  -4   4   33.55    4.57
 -11   4  -4   38.05    7.14
  -4 -11   4   38.25    8.50
  11  -4   4   38.79    5.75
  11  -4   5   24.99    5.32
   4  11   5   17.39    5.78
 -11   4   5   12.55    5.65
   4  11  -5   27.95    6.91
  11  -4   5   17.65    5.85
 -11   4  -5   22.80    5.74
  -4 -11   5   21.42    6.67
 -11   4   6    7.54    4.18
 -11   4   6   17.51    6.65
  -4 -11   6   11.44    5.31
   4  11  -6   10.21    4.49
   4  11   6    7.12    5.23
 -11   4  -6   17.78    5.05
  11  -4   6   11.54    4.25
  -4 -11   7    1.15    1.68
 -11   4   7   -0.30    2.37
   4  11  -7    4.27    3.04
 -11   4   7   -0.17    2.08
   4  11   7   -1.34    2.44
  11  -4   7    1.13    1.91
 -11   4  -7    4.17    2.77
  11  -4   7    2.33    2.51
   4  11  -8    3.68    2.86
   4  11   8   -1.02    2.57
 -11   4   8    0.72    2.25
  11  -4   8    6.33    3.85
 -11   4   8    7.27    4.55
  -4 -11   8   -0.15    2.37
 -11   4   9    7.18    5.32
  11  -4   9   13.46    6.47
   4  11   9    3.73    3.51
 -11   4   9    4.55    3.87
  -4 -11   9    0.98    3.24
  11  -4   9    7.86    4.16
 -11   4  10   21.16    8.77
  11  -4  10   12.98    6.09
   4  11  10    9.76    6.18
  -4 -11  10   16.14    7.46
  11  -4  10   10.75    6.13
 -11   4  10    9.61    4.54
   4  11  11   -1.01    2.18
   4  11  11   -3.95    4.09
 -11   4  11    7.15    5.26
  11  -4  11    5.45    4.86
 -11   3   0  195.06   16.32
 -11   3   0  200.20   15.58
   3  11   0  195.74   17.40
   3  11   0  195.87   15.04
   3  11  -1  153.24   15.47
 -11   3   1  155.08   15.04
 -11   3  -1  143.90   13.04
   3  11  -1  160.67   14.51
   3  11   1  174.73   13.34
   3  11   1  185.12   17.19
 -11   3   1  152.61    5.94
 -11   3   1  144.32   13.73
 -11   3   2   46.85    8.33
 -11   3  -2   54.93    3.64
   3  11   2   41.89    8.61
   3  11   2   48.13    6.32
  11  -3  -2   54.91    5.24
 -11   3  -2   53.86    7.88
   3  11   2   49.17    8.55
   3  11  -2   58.28    9.78
   3  11   3   25.95    6.57
  11  -3   3   18.06    3.14
  11  -3   3   23.15    4.35
 -11   3  -3   18.67    3.07
  -3 -11   3   25.70    2.91
   3  11   3   28.89    5.01
   3  11  -3   29.90    7.26
 -11   3  -3   23.88    5.38
  11  -3   4    5.78    4.10
  11  -3   4   12.42    3.22
   3  11   4   18.06    5.84
 -11   3   4    8.40    3.11
  11  -3   4   11.29    2.67
   3  11  -4   24.93    6.29
  -3 -11   4   21.03    6.22
  -3 -11   4   18.32    3.27
 -11   3  -4   12.07    4.17
   3  11   4   25.50    4.33
   3  11   5    2.14    1.61
 -11   3   5   -1.58    2.42
   3  11   5    5.33    4.03
  11  -3   5    0.54    0.99
   3  11  -5    5.50    3.73
 -11   3   5    0.62    3.00
 -11   3  -5    1.55    2.10
  11  -3   5    3.25    2.21
  -3 -11   5    3.85    3.21
   3  11   6    0.92    2.51
  -3 -11   6    3.69    3.37
 -11   3   6    4.07    3.31
  11  -3   6   -0.33    2.09
  11  -3   6   -0.19    1.05
 -11   3  -6    2.60    2.63
   3  11  -6    5.94    3.62
  -3 -11   7    5.51    3.98
   3  11   7    4.42    3.00
   3  11  -7   10.16    5.11
  11  -3   7   14.33    7.54
  11  -3   7   11.53    4.09
 -11   3  -7    5.46    3.71
  11  -3   8   18.12    6.96
   3  11   8   18.16    6.90
  -3 -11   8   17.71    6.57
  11  -3   8   17.60    5.71
  -3 -11   9   25.39    8.90
  11  -3   9   17.21    6.85
 -11   3   9    5.83    3.57
   3  11   9   13.66    6.37
  11  -3   9   13.55    4.97
 -11   3  10   -2.61    2.32
   3  11  10    2.88    3.21
  11  -3  10    1.19    1.93
   3  11  10    4.42    3.75
 -11   3  11    6.22    4.77
  11  -3  11   -2.19    3.42
   3  11  11    0.75    3.18
  -3 -11  11   12.64    6.98
   3  11  11   13.10    6.11
  11  -3  11   -0.94    2.93
  11  -3  12    7.66    5.62
   3  11  12   16.97    7.92
   2  11   0    0.04    2.91
   2  11   0    3.85    3.34
 -11   2   0    2.70    3.42
 -11   2   0   -1.05    1.53
 -11   2   1    4.31    2.90
   2  11  -1    1.44    3.13
 -11   2   1    1.28    0.50
   2  11  -1    3.49    2.20
   2  11   1    5.29    2.43
   2  11   1    1.92    3.57
 -11   2   1    1.34    1.47
  11  -2  -1    2.01    0.68
 -11   2  -1    4.12    2.70
  11  -2   2   52.48    6.94
  11  -2   2   41.26    2.99
 -11   2   2   50.75    6.95
   2  11  -2   41.47    8.15
   2  11   2   51.30    6.89
 -11   2   2   47.00    4.79
 -11   2  -2   43.84    3.10
   2  11  -2   42.91    8.09
  11  -2  -2   46.23    4.68
   2  11   2   42.71    7.73
 -11   2  -2   46.05    6.74
  11  -2   3  170.59   11.59
  -2 -11   3  141.72    5.65
 -11   2   3  169.67   11.21
   2  11   3  148.36   11.07
 -11   2  -3  159.32   12.71
   2  11  -3  144.50   14.59
  11  -2   3  164.53    9.12
   2  11   3  141.56   14.86
 -11   2  -3  154.77    8.87
  11  -2   3  150.20   15.26
  11  -2   4  242.70   12.62
   2  11  -4  223.29   18.03
 -11   2   4  239.46   15.61
  11  -2   4  239.40   13.57
 -11   2  -4  238.34   15.70
  -2 -11   4  233.38   10.59
   2  11   4  220.45   13.45
 -11   2   4  244.46   18.55
  -2 -11   4  215.61   19.21
   2  11   4  222.94   19.39
  11  -2   5  164.97    8.98
   2  11  -5  184.21   16.30
  11  -2   5  160.43   17.25
  -2 -11   5  166.96   17.58
 -11   2   5  158.81   14.33
  11  -2   5  183.03   13.65
 -11   2  -5  161.21   13.22
   2  11   5  190.40   12.50
   2  11   5  168.88   17.55
 -11   2   5  162.80   18.03
 -11   2   6  133.53   14.15
   2  11  -6  151.47   14.99
  11  -2   6  132.66   16.56
  11  -2   6  122.75   12.49
 -11   2  -6  130.27   12.39
  -2 -11   6  125.90   16.15
   2  11   6  131.78   16.42
   2  11   7  140.62   17.80
 -11   2   7  159.71   18.45
   2  11  -7  182.57   16.55
  11  -2   7  179.22   16.72
  11  -2   7  148.41   18.01
 -11   2  -7  173.69   14.74
  -2 -11   7  148.66   18.47
 -11   2   7  165.57   17.46
 -11   2   8  100.16   15.59
   2  11   8   77.78   13.81
 -11   2   8  100.16   14.62
  11  -2   8  101.69   13.61
  -2 -11   8   91.82   15.51
 -11   2   9   46.45   11.38
 -11   2   9   31.28    9.18
  11  -2   9   27.86    7.76
   2  11   9   20.88    7.86
  -2 -11   9   27.07    9.31
 -11   2  10    8.81    5.83
   2  11  10   11.09    5.67
 -11   2  10    7.19    4.64
  11  -2  10   12.56    5.93
   2  11  10    8.88    5.43
  -2 -11  10    5.67    2.89
  11  -2 -11    3.75    4.53
  -2 -11  11   12.46    7.48
   2  11  11   -3.67    3.10
 -11   2  11    5.81    4.47
   2  11  11   -2.06    3.11
  11  -2  11    1.71    2.76
  11  -2  12    4.81    2.69
  11  -1   0  430.02   22.38
   1  11   0  419.88   25.34
   1  11   0  451.26   23.37
  11  -1   0  457.56   21.80
 -11   1   0  462.84   22.74
  11  -1   1  522.44   23.47
  11  -1   1  523.84   15.76
   1  11  -1  525.32   26.81
  11  -1  -1  515.21   21.56
  11  -1   1  497.68   24.42
 -11   1   1  513.06   11.45
   1  11   1  524.69   24.05
 -11   1  -1  547.14   23.60
  11  -1  -1  499.71   11.08
   1  11  -1  512.86   27.37
  11  -1   2  382.93   18.87
   1  11  -2  391.19   23.62
 -11   1   2  382.99   13.99
   1  11  -2  398.74   24.60
   1  11   2  407.40   20.18
  11  -1   2  380.82   10.04
   1  11   2  401.62   24.12
 -11   1  -2  382.53   19.14
  11  -1  -2  380.17   13.94
  11  -1   3  130.41   10.26
 -11   1   3  130.45   11.93
   1  11  -3  108.13   12.26
 -11   1   3  117.75   13.64
  11  -1   3  114.20   13.16
  11  -1  -3  124.19    8.43
   1  11  -3  115.03   13.77
  11  -1   3  129.59    8.17
 -11   1   3  123.64    9.63
   1  11   3  114.67   10.24
 -11   1  -3  137.91   11.30
   1  11   3  114.01   13.33
 -11   1  -3  131.38    8.36
  11  -1   4   49.56    6.03
 -11   1   4   51.30    9.33
   1  11   4   45.53    8.60
  11  -1  -4   47.70    4.32
  -1 -11   4   40.63    8.37
 -11   1   4   54.08    7.43
   1  11  -4   55.84    8.80
  11  -1   4   46.22    5.97
 -11   1  -4   57.49    7.29
   1  11   4   38.87    5.95
   1  11   5   12.46    3.50
 -11   1   5   16.07    5.48
 -11   1   5   14.25    6.70
 -11   1   5   14.22    4.68
  11  -1   5   14.31    2.98
   1  11  -5   12.58    4.39
  11  -1   5   12.91    3.58
  -1 -11   5   11.70    4.69
 -11   1  -5    7.74    3.18
   1  11  -6    1.65    2.45
 -11   1  -6    0.22    1.57
  -1 -11   6   -1.78    2.65
  11  -1   6    1.77    2.68
 -11   1   6   -0.28    2.81
  11  -1   6    2.05    4.79
   1  11   6    5.18    3.88
  11  -1   7   26.03    6.51
 -11   1   7   11.23    4.91
   1  11   7   23.63    7.64
 -11   1   7   14.13    5.56
   1  11  -7   25.14    6.03
  -1 -11   7   31.11    8.47
 -11   1   8   40.55   10.03
   1  11   8   32.11    8.69
  11  -1   8   36.16    7.92
  11  -1   8   26.41    8.24
 -11   1   8   36.48    8.86
  -1 -11   8   26.23    8.06
  11  -1  -9   40.95   10.00
   1  11   9   35.87    9.46
  11  -1   9   30.54    8.26
 -11   1   9   32.89    9.03
   1  11   9   16.51    7.34
  -1 -11   9   26.92    8.64
  11  -1  10   68.17   14.01
   1  11  10   41.82   10.75
  11  -1  10   60.46   11.85
 -11   1  10   61.43   12.90
  11  -1 -10   44.78   10.74
  -1 -11  10   50.76   12.30
   1  11  10   50.21   12.18
  11  -1 -11   43.63   10.90
 -11   1  11   33.19   10.87
  11  -1  11   43.25   10.85
 -11   1  11   37.58   10.66
  -1 -11  11   42.92   12.11
   1  11  11   29.62    9.26
   1  11  11   29.11   10.48
  11  -1  12   21.79    8.45
  11   0   0   -0.25    1.95
 -11   0   0    2.45    2.30
  11   0   0    1.13    1.13
   0  11   0    1.89    2.02
  11   0  -1   90.59   10.47
  11   0   1  115.32   10.89
  11   0  -1  100.21    5.34
 -11   0   1  102.93    8.11
   0  11  -1  113.52   12.89
   0  11  -1   94.83   11.29
  11   0  -1  114.28    9.85
   0  11   1  108.29   10.96
 -11   0  -1  102.49    9.84
 -11   0   2   30.79    4.07
  11   0  -2   34.29    6.95
  11   0  -2   28.68    3.89
  11   0   2   33.54    5.72
  11   0   2   31.74    3.01
  11   0   2   30.19    3.05
  11   0  -2   29.40    4.73
   0  11  -2   29.64    6.48
   0  11   2   31.26    5.48
   0  11  -2   32.21    7.09
  11   0   2   28.61    6.33
   0  11   2   36.90    7.39
 -11   0  -2   32.17    5.37
 -11   0   3   25.83    4.44
   0  11   3   24.13    5.81
  11   0   3   25.43    3.76
 -11   0   3   32.30    5.97
 -11   0   3   25.06    6.28
  11   0   3   26.34    4.80
  11   0  -3   29.26    3.91
   0  11  -3   31.27    7.74
   0  11  -3   18.33    4.89
   0  11   3   23.89    4.93
 -11   0  -3   26.36    4.62
 -11   0  -3   24.45    3.71
  11   0   4  108.69    9.15
  11   0   4   96.45   12.56
 -11   0   4  114.16   13.88
   0  11  -4  105.95   11.80
   0  11  -4  127.67   15.37
  11   0   4  117.59    9.79
  11   0  -4  106.38    5.46
   0 -11   4  102.05   13.05
 -11   0   4  101.47   10.14
 -11   0  -4  111.81    9.32
   0  11   4  113.87   10.62
   0  11   4   92.19   12.47
  11   0   5   36.34    6.28
   0  11   5   46.72    9.33
   0 -11   5   46.94    9.41
   0  11  -5   50.83    8.25
  11   0   5   47.39    5.66
 -11   0   5   40.20    7.40
   0  11   5   55.97    7.64
 -11   0  -5   39.00    5.59
 -11   0   5   45.15    9.82
  11   0   6   24.99    7.94
   0  11   6   28.86    7.78
 -11   0   6   18.84    5.85
   0  11  -6   33.90    6.73
   0 -11   6   26.99    7.53
 -11   0  -6   18.81    4.30
   0 -11   7   60.04   11.55
  11   0  -7   22.20    6.83
   0  11   7   36.82    9.07
  11   0   7   22.38    5.75
 -11   0   7   32.03    7.56
   0  11  -7   51.17    8.16
  11   0  -8    9.27    4.59
  11   0   8   14.20    5.13
   0  11   8   21.39    7.73
   0 -11   8   18.57    6.61
 -11   0   8   20.65    6.59
  11   0  -9    5.63    3.81
   0  11   9   15.22    6.46
   0  11   9   18.12    7.21
  11   0   9    2.43    3.30
   0 -11   9   16.60    7.17
  11   0   9    9.58    4.89
 -11   0   9    6.82    5.00
  11   0 -10   13.40    7.03
  11   0  10    7.57    4.79
  11   0  10    9.30    4.65
 -11   0  10    8.09    5.52
   0  11  10   16.43    6.97
   0 -11  10   11.45    6.59
   0  11  10    5.23    5.21
  11   0 -11    2.86    4.05
  11   0  11    0.75    2.49
 -11   0  11   -3.76    4.85
   0  11  11    0.22    3.59
   0  11  11    7.29    5.11
   0 -11  11    4.01    4.32
 -11   0  11   -3.85    5.09
  11   0  12    4.42    4.45
  11   0  12    3.94    3.70
  11   1   0  351.31   20.26
  -1  11   0  297.92    9.46
  11   1   0  344.89   18.61
  -1  11   0  276.84   18.88
  11   1   0  339.09    9.04
  11   1   0  349.14    9.24
  11   1   1  194.13    6.86
  11   1  -1  206.62   16.15
  11   1   1  199.97   14.69
  -1  11   1  191.02   15.19
  11   1   1  188.78    6.89
  11   1   1  213.59   15.57
  -1  11  -1  207.68   16.96
  -1  11   1  185.65   15.78
 -11  -1   1  202.32   10.96
  11   1  -1  201.48    8.81
 -11  -1   2   44.19    8.07
  11   1  -2   43.93    8.34
  11   1   2   52.64    4.56
 -11  -1   2   46.72    5.32
  11   1   2   39.99    6.26
  -1  11   2   61.38    8.31
  11   1  -2   48.04    5.79
  11   1   2   54.88    8.55
  -1  11  -2   41.75    8.11
  -1  11  -2   42.34    7.67
 -11  -1  -2   52.01    6.38
  -1  11   2   36.97    7.08
  11   1   3  132.43   10.91
 -11  -1   3  127.93   13.99
  -1  11  -3  118.42   12.61
  11   1  -3  134.65    8.05
  -1  11  -3  125.69   14.74
  -1  11   3  122.94   11.41
  -1  11   3  108.81   12.77
 -11  -1  -3  142.10    9.99
  11   1  -3  123.14   13.66
 -11  -1   3  128.33   10.24
 -11  -1   4   44.28    6.99
  11   1  -4   42.73    8.23
  -1  11   4   38.87    7.90
  11   1   4   47.67    6.30
  11   1   4   47.78    9.40
  -1  11  -4   36.07    8.26
   1 -11   4   31.20    6.91
  -1  11  -4   38.88    7.23
 -11  -1  -4   49.61    5.72
  11   1   4   51.70    6.62
  -1  11   4   42.31    6.83
  11   1   5    1.54    1.96
  11   1  -5    3.32    2.85
  -1  11   5    0.26    2.35
 -11  -1   5    2.99    2.30
  11   1   5    6.13    5.37
  11   1   5    4.15    2.02
  -1  11  -5    1.40    2.71
   1 -11   5    5.06    3.79
 -11  -1   5    3.23    2.45
 -11  -1  -5    0.24    1.11
  -1  11  -5    2.59    3.70
  -1  11   5    6.85    3.12
  11   1   6    1.67    2.48
  11   1  -6    5.28    3.85
   1 -11   6    2.35    3.44
  -1  11   6    1.03    1.87
  -1  11  -6   13.68    7.45
  -1  11  -6    3.18    3.35
 -11  -1   6    2.93    3.29
 -11  -1   6    6.50    6.18
   1 -11   7   31.80    8.27
  11   1  -7   14.50    5.86
  11   1   7   18.87    5.59
  -1  11   7   22.62    7.22
 -11  -1   7   16.83    5.83
  11   1  -8    1.48    3.53
  11   1   8    9.19    4.63
  -1  11   8   16.83    7.31
  11   1   8    9.51    5.17
 -11  -1   8   11.93    4.89
   1 -11   8    3.71    2.62
  11   1  -9    3.97    1.75
  -1  11   9    2.19    2.26
  11   1   9    2.30    3.69
  -1  11   9   -1.66    2.49
   1 -11   9    2.52    2.66
 -11  -1   9   -2.02    3.36
  11   1 -10   21.88    8.18
  -1  11  10   27.85    9.02
 -11  -1  10   10.47    5.29
  -1  11  10   16.31    7.48
   1 -11  10   33.81   10.13
  -1  11  11    3.59    2.59
  -1  11 -11    9.28    6.32
   1 -11  11    5.89    4.44
  11   1  11   20.55    8.30
  -1  11  11   14.34    7.46
 -11  -1  11   27.13    8.78
  11   1  12   11.32    6.40
  11   1  12    8.01    5.54
  11   2   0    0.35    0.64
  11   2   0    0.57    1.97
  -2  11   0    0.44    0.96
  -2  11   0    1.26    2.18
  11   2   0    0.52    0.92
  11   2  -1    7.00    2.41
  11   2  -1    3.85    2.03
  11   2   1    6.59    1.55
  11   2   1    7.84    3.07
 -11  -2   1    6.71    3.27
  11   2  -1    5.34    1.66
  11   2   1    6.41    1.58
  -2  11  -1    2.48    2.12
  -2  11   1    3.33    2.89
  -2  11   1    3.40    3.35
  11   2   2   13.18    4.02
  11   2  -2    8.24    3.80
  -2  11   2   10.72    4.20
  11   2   2    5.88    3.74
  11   2   2    9.12    2.36
  -2  11  -2    6.86    3.91
 -11  -2   2   10.52    2.93
  -2  11   2    8.79    3.55
 -11  -2   2   11.00    3.89
 -11  -2  -3    7.19    2.38
  -2  11   3    5.16    3.94
  11   2  -3    2.96    3.12
  11   2   3    2.13    1.78
  11   2  -3    4.97    1.68
  -2  11   3    3.80    1.88
  11   2   3    8.24    2.42
 -11  -2   3    6.20    2.44
  -2  11  -3    7.32    5.65
   2 -11   3    1.15    0.63
 -11  -2   3    5.55    4.05
  11   2  -4   -1.49    2.25
  -2  11   4    0.29    1.95
 -11  -2   4    2.45    2.10
  11   2   4    2.80    2.30
  -2  11  -4    2.25    2.82
  -2  11  -4    2.02    2.07
   2 -11   4    6.44    3.91
  11   2   4    4.74    2.90
  11   2   4    2.30    1.45
  -2  11   4    2.55    2.39
 -11  -2  -4    2.87    1.32
  -2  11   5   11.61    3.79
  11   2  -5    6.14    4.11
  -2  11   5    9.71    5.28
  11   2   5    5.21    2.31
  -2  11  -5   10.24    5.94
   2 -11   5   16.06    5.72
 -11  -2  -5    7.22    1.82
  11   2  -6   10.98    5.23
  -2  11   6    2.81    3.45
  11   2   6    4.03    4.18
  -2  11  -6   10.45    6.20
 -11  -2   6    9.23    5.68
   2 -11   6   -1.52    2.80
  11   2   6    6.33    2.96
 -11  -2   6    7.90    3.20
   2 -11   7    4.68    4.08
  11   2   7    8.72    4.45
  11   2  -7    4.56    4.26
  -2  11   7    4.59    3.13
 -11  -2   7    6.18    3.95
  -2  11  -7   11.75    5.39
  11   2   8    7.81    4.55
  11   2  -8   10.75    5.42
  -2  11  -8    2.33    2.87
  -2  11   8    2.39    2.94
  11   2   8    0.30    2.93
   2 -11   8    2.68    3.37
 -11  -2   8   -2.16    1.77
  -2  11   9    2.21    2.47
  11   2  -9    4.71    3.76
  11   2   9    3.32    2.58
  -2  11  -9    3.97    5.33
  -2  11   9    8.70    4.74
   2 -11   9    3.73    4.08
 -11  -2   9    5.20    5.09
  11   2 -10    7.77    4.68
  -2  11  10    2.08    4.43
  11   2  10    4.52    2.80
  -2  11  10    3.54    3.76
  -2  11 -10    1.93    3.78
   2 -11  10    5.36    4.89
 -11  -2  10    2.26    4.11
  -2  11  11    1.44    2.09
  -2  11 -11    6.80    4.53
  11   2  11    7.16    5.80
  -2  11  11    1.93    2.26
   2 -11  11    2.34    1.99
 -11  -2  11    5.71    4.26
  11   2  12    0.94    3.59
 -11  -3   0   38.44    3.16
  11   3   0   31.19    6.61
  11   3   0   32.45    5.68
  -3  11   0   21.53    5.70
  11   3  -1   90.22   10.98
  11   3   1   97.91   10.68
  -3  11  -1  100.65   12.09
  -3  11   1  117.56   12.48
 -11  -3   1   79.46   10.43
  -3  11   1   98.16   11.22
  11   3   1   82.15    6.56
  11   3   1   94.64    7.10
  11   3  -2  158.16   14.91
  11   3   2  140.73   12.66
 -11  -3   2  165.94   15.38
  11   3   2  172.29   15.16
  -3  11   2  169.83   14.73
  -3  11  -2  178.26   16.65
 -11  -3   2  166.02   11.37
  -3  11   2  176.69   15.50
  11   3   2  169.88   10.23
  11   3   3   19.02    3.88
  -3  11   3   18.64    5.98
  11   3  -3   12.71    4.64
  11   3  -3   16.31    2.81
  11   3   3   17.06    4.43
  11   3   3   22.17    5.94
  -3  11  -3   23.84    7.77
   3 -11   3   12.07    2.14
  11   3   3   15.51    2.85
  -3  11   3    8.06    3.57
 -11  -3   3   18.29    4.10
  11   3   4   18.14    4.64
  11   3  -4   17.85    5.69
  -3  11   4   12.90    4.75
  11   3   4    8.73    3.86
 -11  -3   4   14.17    4.23
  11   3   4   19.87    4.50
  -3  11   4   18.83    5.43
  -3  11  -4   10.97    4.43
   3 -11   4   16.15    5.05
  -3  11   5   64.95    9.15
 -11  -3   5   67.33    9.49
  11   3  -5   64.48   10.72
  11   3   5   72.60    9.20
  11   3   5   68.80    6.43
  -3  11  -5   58.41   10.60
   3 -11   5   56.32    9.90
  11   3   5   73.10    8.41
  -3  11   5   68.24   11.02
 -11  -3   5   66.34   10.97
 -11  -3   6    7.46    4.33
  11   3  -6    7.72    3.57
   3 -11   6    4.15    3.22
  11   3   6    4.58    2.68
 -11  -3   6    4.58    5.01
  -3  11  -6    4.47    3.87
  11   3   6    7.69    3.10
  11   3   6    2.61    2.54
  -3  11   6    5.78    4.25
   3 -11   7    5.36    4.84
  11   3  -7    1.65    2.18
  11   3   7   -1.14    3.47
  -3  11   7   -0.51    1.91
  -3  11  -7    5.29    4.63
  11   3   7    2.66    3.35
  11   3   8    8.11    4.90
 -11  -3   8   10.49    5.30
  11   3  -8    4.63    4.29
  -3  11   8    9.97    5.13
  -3  11  -8   19.49    7.70
   3 -11   8   12.87    5.87
 -11  -3   9   17.63    7.27
  11   3   9   41.53   10.66
  11   3  -9   20.19    6.94
  -3  11   9   23.54    8.90
  -3  11  -9   19.85    8.08
  -3  11   9   17.95    6.68
   3 -11   9   19.44    6.69
 -11  -3  10   19.24    7.07
  11   3  10   21.72    7.36
  11   3 -10   15.15    6.04
  -3  11  10   11.47    5.61
  11   3  10   25.15    8.98
  -3  11 -10   23.90    9.17
   3 -11  10   11.87    5.56
  -3  11  10   18.01    7.18
  -3  11  11   10.08    5.25
  11   3  11   12.04    5.53
  -3  11 -11   11.50    8.17
   3 -11  11    6.36    5.70
  11   4   0    0.49    1.93
  -4  11   0    1.77    1.54
  11   4   0   -0.04    1.79
  -4  11   0    3.00    2.28
  -4  11   1    3.41    2.12
  -4  11  -1    4.15    3.25
  11   4  -1   -1.22    2.15
  -4  11   1   11.10    4.29
  11   4   1    3.48    2.91
  -4  11   1    7.82    3.49
  11   4   1    2.38    1.39
  -4  11   2   11.23    4.54
  11   4   2    5.77    1.88
  11   4  -2    8.22    5.02
  11   4   2   12.19    3.94
  11   4  -2   10.50    2.99
  11   4   2    5.09    3.77
  -4  11  -2   10.13    4.53
 -11  -4   2    7.69    2.73
  -4  11   2    4.61    2.85
  11   4   3  101.99   10.71
  11   4  -3   70.38   10.52
   4 -11   3   75.15    6.01
  11   4   3   76.75    5.96
  -4  11   3   85.30   11.18
  -4  11  -3   76.39   11.86
 -11  -4   3   85.39    9.47
  -4  11   3   74.21   10.09
  11   4   3   78.55    8.21
  11   4  -4  110.69   13.56
  11   4   4   99.54   10.13
  11   4   4  105.40   11.06
  11   4   4   93.64   12.32
 -11  -4   4   99.19   11.33
  -4  11  -4  113.22   14.96
 -11  -4   4  105.34   13.00
   4 -11   4  106.18   13.08
  -4  11   4  113.19   12.71
  -4  11   4  107.36   13.20
  -4  11   5   18.14    4.80
  11   4  -5   27.76    7.42
  11   4   5   25.76    3.92
  -4  11   5   27.06    6.95
  11   4   5   24.93    5.53
 -11  -4   5   16.17    4.75
  -4  11  -5   16.44    6.12
  11   4   5   25.01    6.64
   4 -11   5   30.01    7.55
  11   4   5   23.57    5.29
  11   4  -6   39.61    8.97
 -11  -4   6   50.96    9.90
  -4  11  -6   47.22   10.60
 -11  -4   6   41.41    8.65
  11   4   6   51.50    7.70
   4 -11   6   46.88    9.52
  11   4   6   52.90    9.21
   4 -11   7   38.45    9.26
  11   4  -7   21.93    6.83
 -11  -4   7   23.30    6.57
 -11  -4   7   30.29    8.23
  -4  11   7   51.90   10.82
  11   4   7   34.10    7.85
  -4  11  -7   44.81   10.58
 -11  -4   8    6.79    3.30
  11   4  -8   17.01    6.62
  11   4   8    3.77    3.83
  -4  11   8   24.40    7.55
   4 -11   8   25.78    7.71
  -4  11  -8   14.83    6.63
  11   4   8   23.62    7.13
  11   4   9   14.13    5.79
 -11  -4   9    8.50    5.15
  11   4  -9    9.63    5.41
  -4  11   9    9.72    5.56
  11   4   9   18.43    8.03
  -4  11  -9   21.41    8.34
  -4  11   9   16.25    7.67
   4 -11   9   10.17    5.69
 -11  -4  10    2.34    4.89
  11   4 -10    8.71    5.03
  -4  11  10   14.45    5.91
   4 -11  10   14.65    6.01
   4 -11  10   21.42    8.17
  -4  11  10   18.03    7.49
  -4  11 -10   14.22    7.21
 -11  -4  11    1.79    4.00
  11   4  11   -5.16    4.21
  11   4  11   -4.05    3.39
  -4  11 -11   -0.10    4.04
   4 -11  11    2.97    4.57
  11   5   0  273.14   19.41
  -5  11   0  321.68   14.87
  -5  11   0  340.29   22.43
  11   5   0  273.94   17.54
  -5  11   1  206.71   13.19
  11   5  -1  199.25   17.25
  11   5   1  210.57   16.82
  11   5   1  202.48   12.78
  11   5  -1  220.01   14.67
  11   5   1  219.44   16.84
  -5  11   1  230.53   18.31
  -5  11   1  209.62   16.30
 -11  -5   1  209.35   17.01
  -5  11  -1  212.16   18.29
  11   5  -2  198.15   17.38
 -11  -5   2  197.04   16.88
  11   5   2  188.84   15.78
  11   5   2  185.88   16.51
  -5  11  -2  193.26   18.19
  -5  11   2  214.90   17.50
  -5  11   2  210.26   16.86
   5 -11   2  218.68   10.93
  11   5   2  202.50   13.09
  11   5  -3  112.47   13.59
  11   5   3  122.91   12.51
 -11  -5   3  105.14   12.61
  11   5   3   93.88   12.57
  -5  11  -3  131.37   15.34
  11   5   3  110.03    6.54
  -5  11   3  122.43   13.37
  -5  11   3  130.37   13.78
  11   5   3  101.78    9.99
 -11  -5   3  113.64   11.31
  11   5   4   91.06   10.19
  -5  11  -4  106.04   14.51
  11   5  -4  119.03   14.19
 -11  -5   4   98.28   12.42
  11   5   4  113.43   12.22
  11   5   4   95.81   13.04
  -5  11   4   98.81   12.25
   5 -11   4  104.00   12.78
  -5  11   4  100.54   12.79
 -11  -5   4  115.27   12.30
   5 -11   5   58.82   10.08
  -5  11   5   63.27    9.75
  11   5  -5   64.66   10.94
  11   5   5   60.32    9.16
  -5  11   5   53.39    9.98
  11   5   5   63.99    9.26
  -5  11  -5   60.64   11.02
 -11  -5   5   61.05   10.09
  11   5   5   41.46    9.11
  11   5  -6   -0.28    2.04
  -5  11   6    1.38    2.42
  11   5   6   -0.20    3.27
   5 -11   6   -0.02    1.84
  11   5   6    1.09    3.26
 -11  -5   6    2.02    3.01
  11   5   6    4.25    3.54
  -5  11  -6    3.13    3.08
   5 -11   7   16.28    6.17
  11   5  -7   19.33    6.72
  -5  11   7   13.16    5.69
 -11  -5   7   17.15    6.42
  11   5   7   18.21    7.25
  -5  11  -7   14.80    6.13
  11   5   7   13.05    4.91
 -11  -5   7   18.83    7.04
  11   5  -8   28.35    8.24
  -5  11  -8   19.29    7.64
  -5  11   8   17.23    6.64
 -11  -5   8   24.30    7.71
 -11  -5   8   25.48    8.15
   5 -11   8   26.64    8.17
  11   5  -9   58.38   11.91
  -5  11  -9   38.19   10.12
 -11  -5   9   65.04   12.86
  -5  11   9   49.37   11.77
   5 -11   9   48.45   11.58
  -5  11   9   49.32   11.64
  11   5   9   73.75   12.98
  11   5  10   47.69   10.94
  -5  11  10   56.76   13.41
  11   5 -10   52.45   11.41
  11   5  10   58.57   13.20
 -11  -5  10   58.34   13.20
   5 -11  10   61.78   12.48
  -5  11 -10   38.62   11.14
   5 -11  10   63.57   13.96
  -5  11  10   46.35   11.97
 -11  -5  11   50.55   12.91
  11   5  11   39.45   10.68
  11   5  11   57.52   13.90
  -5  11 -11   48.80   13.18
   5 -11  11   48.63   12.54
  11   6   0    3.55    3.45
  -6  11   0    3.24    2.46
  11   6   0    0.16    1.76
  -6  11   0   -1.79    1.80
  11   6   1   -0.86    2.36
  11   6  -1    0.74    1.45
  11   6  -1    2.24    2.80
  11   6   1    3.06    3.50
  -6  11   1    1.66    2.66
  -6  11  -1   -1.32    2.65
  11   6   1    4.32    2.75
  -6  11   1   -0.37    1.68
  -6  11   2   28.30    6.26
  11   6   2   35.07    6.11
 -11  -6   2   43.32    7.87
  -6  11   2   27.03    5.82
  11   6  -2   24.56    6.78
  11   6   2   33.96    7.57
  11   6   2   29.85    7.10
  11   6  -2   34.67    5.81
  -6  11  -2   27.70    7.35
  -6  11   2   26.50    6.55
  11   6   2   22.50    3.63
  11   6  -3  136.56   15.29
  11   6   3  150.84   14.65
 -11  -6   3  131.17   13.83
  11   6   3  128.44    6.48
  -6  11  -3  125.83   15.19
 -11  -6   3  146.24   13.36
  -6  11   3  126.91   14.12
  -6  11   3  128.21   13.62
  11   6   3  141.36   12.32
  11   6   4   70.37   10.44
 -11  -6   4   77.34   10.53
  11   6  -4   61.45   10.30
  -6  11  -4   63.33   11.05
  -6  11   4   86.62   11.76
   6 -11   4   73.12   10.74
  -6  11   4   66.84   10.64
  11   6   4   74.19    9.54
  11   6   5  170.73   15.60
  11   6  -5  179.19   18.33
 -11  -6   5  190.16   17.50
  11   6   5  195.83   16.69
  -6  11  -5  128.78   16.57
   6 -11   5  146.03   15.60
  -6  11   5  125.33   14.71
 -11  -6   5  189.70   18.19
  -6  11   5  156.32   16.70
  -6  11   6  171.98   18.34
  11   6  -6  210.65   20.51
 -11  -6   6  214.32   19.82
  11   6   6  214.10   18.54
 -11  -6   6  211.19   20.18
   6 -11   6  186.58   18.83
  11   6   6  212.84   17.22
  -6  11  -6  169.96   20.46
 -11  -6   7  105.98   14.93
  11   6  -7  108.86   15.17
  -6  11   7   86.11   14.12
 -11  -6   7  107.95   15.19
  11   6   7  112.86   14.52
   6 -11   7  106.63   15.01
  -6  11  -7   85.69   14.99
 -11  -6   8   43.49   10.35
 -11  -6   8   56.42   11.38
  11   6  -8   47.93   10.49
  11   6   8   48.68   11.68
  11   6   8   44.41    9.67
  -6  11  -8   55.11   11.88
  -6  11   8   59.23   12.15
   6 -11   8   53.05   11.22
  11   6   9   42.42   11.48
  11   6  -9   51.08   11.31
 -11  -6   9   58.42   12.37
 -11  -6   9   47.87   11.32
  -6  11  -9   47.45   11.87
  -6  11   9   59.49   12.84
   6 -11   9   29.95    8.70
  11   6   9   43.49   10.15
  11   6  10   34.73    9.49
  -6  11  10   15.92    7.04
 -11  -6  10   24.75    8.50
  -6  11 -10   10.46    5.68
  11   6 -10   41.48   10.45
   6 -11  10   10.93    5.67
   6 -11  10   21.92    8.49
  11   6  10   15.45    7.29
  -6  11  10   24.76    8.79
  11   6  11    3.44    5.64
  11   6  11    2.51    2.16
   6 -11  11   -5.00    5.09
  -6  11 -11    3.18    4.18
 -11  -6  11    9.71    6.03
  -7  11   0   86.38   12.25
  -7  11   0   99.95    9.61
  11   7   0   69.38   10.55
  11   7  -1  127.07   14.48
  11   7   1  129.85   14.05
  -7  11   1  142.44   12.12
  11   7   1  128.16   13.92
  -7  11  -1  113.74   13.71
  11   7   1  123.71   11.46
  -7  11   1  112.25   13.31
  -7  11   1  128.69   12.75
  11   7  -2  121.09   14.37
  11   7   2  122.12   13.56
  -7  11   2  113.36   11.63
  11   7   2  103.96   13.00
  -7  11  -2  123.89   14.75
  -7  11   2  111.14   13.43
  11   7   2  102.49    7.55
  11   7   2  114.44   11.14
  -7  11   2  117.53   12.47
  11   7  -3   51.53    9.38
  11   7   3   37.19    6.89
  -7  11   3   63.20    9.62
 -11  -7   3   47.48    8.39
  11   7   3   51.56    8.98
  11   7   3   38.80    8.45
  -7  11  -3   51.65    9.82
 -11  -7   3   39.19    7.42
  -7  11   3   63.55   10.15
  -7  11   4   72.43   10.73
  11   7   4   89.76   13.94
  11   7  -4   73.40   11.46
  11   7   4   57.88    9.47
  -7  11  -4   70.17   11.85
 -11  -7   4   56.04    9.19
  11   7   4   73.65    9.92
   7 -11   4   70.39   10.49
  -7  11   4   65.90   10.70
  -7  11   5   79.55   11.94
 -11  -7   5   72.30   11.04
 -11  -7   5   73.63   11.19
  -7  11   5   81.19   12.03
  11   7   5   99.63   14.87
   7 -11   5   88.52   12.36
  11   7   5   69.58   10.54
  -7  11  -5  103.16   14.79
  11   7  -5   67.21   11.36
 -11  -7   6    7.58    4.67
  11   7  -6    3.82    4.32
  11   7   6   -1.79    2.02
  -7  11   6   11.96    5.63
  11   7   6    6.86    2.78
   7 -11   6    7.66    3.62
  -7  11  -6    2.65    3.93
 -11  -7   6    5.44    2.98
 -11  -7   7   -0.04    2.19
  11   7  -7   -1.01    1.57
   7 -11   7    1.12    3.31
  11   7   7    3.48    5.01
  -7  11   7    3.87    3.40
  11   7   7    4.78    3.63
 -11  -7   7    3.10    1.81
  -7  11  -7    1.63    3.94
  11   7  -8   11.20    5.67
   7 -11   8    6.16    5.55
 -11  -7   8    5.05    3.79
  11   7   8    6.44    5.07
 -11  -7   8    4.50    4.09
  -7  11  -8    5.72    4.43
  -7  11   8    4.51    4.76
  11   7   8    0.15    2.37
  11   7  -9   11.42    6.12
  11   7   9   20.07    8.48
  -7  11  -9   10.37    5.40
 -11  -7   9   15.20    6.90
  -7  11   9   21.84    7.91
  11   7   9    5.29    3.36
   7 -11   9   14.80    7.05
  -7  11  10   14.48    6.65
   7 -11  10   12.85    5.72
 -11  -7  10   -0.22    1.85
  11   7  10   12.80    6.52
   7 -11  10    9.88    5.42
 -11  -7  10    5.41    4.62
  -7  11 -10   12.39    6.99
  11   7 -10    2.04    3.15
  11   7  10   13.39    5.95
  11   7  11   13.31    6.72
  11   7  11   12.06    6.24
  -7  11 -11   18.78    7.90
   7 -11  11   19.09    7.72
  11   8   0   -0.62    2.30
  11   8   0    0.00    2.16
  -8  11   0    1.34    1.62
  -8  11   0    1.46    3.04
  11   8  -1   -4.10    3.83
  11   8   1   -0.36    1.63
  11   8   1    1.71    2.48
  -8  11  -1   -1.24    2.18
  -8  11   1   -0.53    1.39
  -8  11   1    0.64    3.85
  11   8   1    0.89    1.93
  11   8   2   34.19    6.57
  -8  11   2   34.47    6.70
  11   8  -2   25.75    6.87
  11   8   2   37.46    8.04
  -8  11  -2   45.37    9.35
  11   8   2   36.79    8.17
  -8  11   2   40.75    8.50
  11   8   3   25.45    6.02
  -8  11   3   36.35    7.15
 -11  -8   3   25.81    8.17
  11   8   3   27.42    7.77
  -8  11   3   26.65    6.53
  11   8   3   32.94    7.65
  -8  11   3   33.87    8.01
  -8  11  -3   25.40    7.09
  11   8  -3   14.50    6.03
  11   8   4   33.01    6.86
  11   8   4   46.92    9.10
  11   8  -4   39.11    8.88
  -8  11   4   35.26    7.62
 -11  -8   4   37.91    7.62
  11   8   4   47.76    9.77
  -8  11  -4   28.53    7.71
  -8  11   4   39.48    8.57
  -8  11   5   62.03   10.77
  11   8  -5   74.12   12.17
 -11  -8   5   63.04   10.56
  11   8   5   75.16   13.34
  11   8   5   74.33   10.77
   8 -11   5   62.71    9.94
  11   8   5   76.76   11.56
  -8  11  -5   70.34   12.15
 -11  -8   6   65.91   11.45
  11   8  -6   74.89   12.55
  11   8   6   64.49   10.88
 -11  -8   6   71.90   11.52
  -8  11   6   43.16    9.25
  11   8   6   72.45   12.99
  -8  11  -6   56.06   12.17
   8 -11   6   63.20   10.82
  11   8  -7   47.76   10.35
   8 -11   7   21.83    6.81
  11   8   7   49.15   11.90
  11   8   7   46.33    9.27
  -8  11   7   41.35   10.14
  -8  11  -7   27.50    8.28
 -11  -8   7   46.59    9.91
  11   8  -8   31.43    8.63
   8 -11   8   30.25    8.98
 -11  -8   8   40.20   10.40
  11   8   8   29.47    9.13
  -8  11  -8   13.90    6.80
  11   8   8   34.33    9.14
  -8  11   8   31.00    8.69
 -11  -8   9    9.18    6.25
 -11  -8   9   15.90    7.67
  11   8  -9   13.28    6.04
  11   8   9   18.48    8.48
  -8  11  -9    5.97    4.60
  11   8   9   25.72    8.10
  -8  11   9    4.21    4.12
   8 -11   9   10.03    5.05
  11   8  10   15.13    8.33
 -11  -8  10    5.25    5.01
  11   8 -10   -0.25    3.69
   8 -11  10    1.42    3.20
 -11  -8  10   -0.80    2.37
  -8  11 -10    5.37    5.21
  11   8  10    6.30    6.52
  -8  11  10   -1.22    2.89
   8 -11  10    5.92    4.89
   8 -11  11   -8.13    5.24
   8 -11  11    3.80    6.34
  11   8  11    7.80    3.76
  -9  11   0    1.78    2.29
  11   9   0    9.65    4.56
  11   9   0    2.61    3.01
  -9  11   0    7.72    4.58
  -9  11   0    3.29    2.33
  -9  11   1    4.72    3.01
  11   9  -1   10.48    4.36
  -9  11   1    6.81    3.41
  -9  11  -1    6.71    3.67
  11   9   1   10.75    5.27
  11   9   1   12.38    5.22
  11   9   1   11.50    4.06
  -9  11   1    6.81    3.79
  -9  11   2    7.68    3.31
  11   9  -2   12.83    4.57
  11   9   2    9.67    5.36
  -9  11  -2    9.54    5.36
  -9  11   2    6.13    4.59
  11   9   2    9.11    3.81
  -9  11   3   -1.22    1.87
  11   9   3    4.81    3.49
  -9  11   3    2.85    3.86
 -11  -9   3   -0.35    1.43
  11   9  -3   -1.61    4.33
  11   9   3   -0.81    3.16
  -9  11  -3    3.00    2.81
  -9  11   3    0.12    3.10
  -9  11   4    3.94    3.23
  11   9   4    2.45    2.90
  11   9   4   -3.26    2.52
  -9  11  -4   -1.73    3.13
  11   9  -4   -0.26    3.50
  -9  11   4    4.72    3.80
 -11  -9   4    6.86    5.19
  11   9   4   -1.35    2.31
 -11  -9   4    3.96    2.63
  -9  11   5    3.59    2.58
  -9  11   5   -2.64    2.52
 -11  -9   5    1.76    2.45
   9 -11   5    3.31    3.30
 -11  -9   5    0.45    2.08
  11   9  -5    2.77    3.86
  11   9   5    6.24    3.75
  11   9   5   10.90    6.51
  11   9   5    8.34    5.28
  -9  11  -5    4.25    2.94
  11   9   6   13.37    5.33
  11   9   6   19.12    8.09
  11   9  -6    1.09    2.51
 -11  -9   6    8.14    4.39
 -11  -9   6    7.88    4.06
  -9  11   6    5.10    4.14
  -9  11  -6    5.14    5.36
  11   9   6    6.09    4.38
   9 -11   6    3.77    3.27
 -11  -9   7    1.84    2.61
  11   9  -7    2.71    3.03
   9 -11   7    0.97    3.22
  11   9   7    6.48    5.11
  11   9   7    1.06    6.00
  -9  11   7   -0.75    2.70
  -9  11  -7    0.30    2.47
 -11  -9   8   -2.21    2.55
   9 -11   8    2.84    3.42
  11   9  -8   -0.43    3.20
 -11  -9   8    5.81    4.08
  11   9   8   10.69    4.91
  11   9   8    1.40    2.67
  -9  11  -8    6.64    4.72
  -9  11   8    0.63    3.17
   9 -11   9    2.68    2.70
  11   9  -9    0.03    3.30
  11   9   9   -0.95    3.53
  11   9   9    3.97    4.81
  -9  11   9    6.18    4.11
  -9  11  -9    2.15    4.47
 -11  -9   9   -0.05    2.83
  -9  11  10   -3.71    3.17
 -11  -9  10    6.32    3.93
  11   9  10    2.68    4.83
   9 -11  10   -3.11    5.36
  -9  11 -10    6.65    4.99
  11   9  10    7.83    5.33
   9 -11  10    7.18    4.93
   9 -11  11    1.95    3.24
   9 -11  11    2.90    4.89
  11   9  11    1.66    2.75
 -10  11   0    2.94    2.72
  11  10   0   -1.79    2.17
 -10  11   0   -2.96    3.11
 -10  11   0   -0.57    1.55
 -10  11   1    2.06    2.11
  11  10   1    8.19    5.06
  11  10  -1   -4.50    4.31
 -10  11  -1    3.01    3.07
  11  10   1    0.54    2.15
  11  10   1    0.99    2.85
 -10  11   1    0.92    1.91
 -10  11   2   29.69    6.13
 -10  11   2   37.18    7.60
  11  10  -2   20.97    6.24
  11  10   2   34.24    8.57
 -10  11  -2   33.68    8.21
 -10  11   2   24.38    7.03
  11  10   2   19.32    5.35
 -10  11   3  117.70   14.38
 -10  11   3   97.28   14.02
  11  10  -3   85.54   13.68
  11  10   3  101.94   14.29
 -11 -10   3  120.29   13.02
 -10  11  -3   92.91   13.70
 -10  11   3   88.73   11.12
  11  10   3   83.32   11.57
  11  10  -4  134.60   16.86
  11  10   4  137.95   15.26
 -11 -10   4  149.36   14.79
  11  10   4  145.04   16.87
 -10  11   4  158.68   17.39
 -11 -10   4  141.69   16.23
 -10  11  -4  136.98   17.15
 -10  11   4  157.44   18.06
 -10  11   4  152.99   15.48
 -11 -10   5   88.54   11.99
 -10  11   5   90.96   14.01
  11  10   5   82.69   12.60
  11  10  -5   81.17   13.21
 -10  11   5   72.99   11.18
  11  10   5   83.48   14.13
 -11 -10   5  102.15   14.44
 -10  11  -5   62.85   11.82
  10 -11   5   80.48   11.47
  11  10   5   95.21   13.23
  11  10   6   86.41   13.27
  11  10  -6  101.29   15.47
 -10  11   6  105.39   14.42
  11  10   6  101.00   16.03
  11  10   6   96.01   14.30
 -10  11  -6  113.08   16.12
  10 -11   6  104.88   13.70
 -11 -10   6   85.99   13.95
 -11 -10   7   70.75   12.12
  11  10  -7   59.79   12.25
  11  10   7   40.12   10.87
 -11 -10   7   52.21   11.31
  10 -11   7   70.08   11.88
 -10  11   7   70.00   12.36
 -10  11  -7   62.02   12.30
  11  10   7   44.93   10.75
  11  10   8   15.70    7.92
 -11 -10   8    8.98    5.01
  11  10   8   25.28    8.09
 -10  11  -8   22.73    8.53
  11  10  -8   13.82    6.59
 -10  11   8   18.50    6.93
  10 -11   8   29.04    8.46
 -11 -10   9   10.87    5.62
  10 -11   9   18.52    7.27
 -10  11  -9   27.04    9.83
  11  10   9   17.40    7.17
  11  10  -9   20.80    7.29
 -11 -10  10    6.64    4.61
  10 -11  10   14.82    6.57
  10 -11  10   10.29    5.01
 -10  11 -10   13.80    7.63
  11  10  10    4.04    4.03
 -10  11  10   -2.78    4.87
  10 -11  11   -1.33    3.80
  11  11   0   26.39    7.16
 -11  11   0   27.52    8.41
 -11  11   0   27.07    5.66
 -11  11   1    3.39    2.52
 -11  11   1    2.55    3.87
  11  11  -1   11.72    5.49
  11  11   1    5.18    4.19
 -11  11  -1    5.71    4.78
  11  11   1    4.21    3.50
 -11  11   1   -0.20    1.86
 -11  11   2    0.94    2.19
  11  11   2   12.26    6.47
 -11  11   2    4.61    3.06
  11  11   2    8.84    5.02
  11  11  -2    7.68    4.77
 -11  11  -2    3.12    3.89
  11  11   2    5.59    3.24
  11  11   3    4.18    4.02
  11  11   3    2.72    3.27
  11  11  -3    0.30    2.70
  11  11   3    2.05    4.15
 -11  11   3   -1.23    1.31
 -11  11  -3   -0.65    3.53
 -11  11   3    0.19    2.67
 -11  11   4   -1.28    2.34
  11  11   4    1.33    3.04
 -11 -11   4    2.21    2.04
  11  11   4    2.32    4.02
  11  11  -4    4.06    3.75
 -11  11   4    5.69    3.45
  11  11   4    3.21    3.06
 -11  11  -4    4.06    3.69
  11  11   5    1.21    2.42
 -11  11   5    0.35    2.60
  11  11   5    7.39    5.66
 -11 -11   5   -0.24    1.36
 -11  11   5    1.13    3.23
  11  11  -5   -5.02    4.46
 -11  11   5    0.57    1.22
  11  11   5    2.83    4.49
 -11 -11   5    1.95    2.02
 -11  11  -5   -0.08    1.90
  11  11   6    1.70    5.03
  11  11  -6    1.57    3.94
  11  11   6    3.76    3.21
 -11 -11   6   16.63    7.85
  11 -11   6    0.69    2.34
 -11  11   6    3.83    2.94
 -11  11  -6    6.95    5.14
  11  11   7   -2.36    2.73
  11  11  -7    4.29    5.25
  11  11   7    7.87    6.20
 -11  11  -7    6.65    5.12
 -11  11   7    1.26    2.53
  11 -11   7   -1.71    1.39
 -11 -11   7   -0.21    1.65
  11  11   8    3.85    3.36
  11  11  -8    3.43    3.14
  11 -11   8   -1.52    2.69
  11  11   8    9.67    5.89
 -11 -11   8   -1.29    3.27
 -11  11  -8    6.80    4.69
 -11  11   8   -1.70    1.63
 -11  11  -9    1.38    4.08
 -11 -11   9   -1.41    3.33
  11  11  -9   -2.88    3.71
  11  11   9    5.13    5.31
  11  11   9    6.31    5.27
  11 -11   9   -2.48    5.72
 -11  11   9   -4.12    4.34
 -11  11  10    5.19    4.60
  11  11  10   -0.67    2.03
 -11 -11  10    4.43    4.23
 -12  11   0    1.36    1.74
  11  12   0   -3.50    2.50
 -12  11   0    0.15    2.17
 -12  11   1   21.43    5.02
  11  12  -1   22.15    7.57
  11  12   1   15.33    6.71
  11  12   1   17.07    5.73
 -12  11  -1   21.05    4.88
 -12  11  -1   27.18    8.25
 -12  11   1   17.75    6.73
  11  12  -2   27.67    8.54
 -12  11  -2   46.39   10.00
  11  12   2   22.08    6.94
 -12  11   2   46.83   10.53
  11  12   2   30.31    7.53
 -12  11   2   40.55    7.05
  11  12   3  170.81   19.96
  11  12  -3  171.07   19.91
 -12  11  -3  174.90   19.38
 -12  11   3  174.04   18.21
  11  12   3  181.05   20.58
 -12  11   3  197.42   20.70
  11  12   3  147.56   16.57
 -12  11   3  192.24   16.03
  11  12   4  338.46   28.90
 -12  11   4  333.97   22.62
  11  12  -4  312.24   27.06
  11  12   4  330.45   27.52
 -12  11  -4  317.46   27.02
 -11 -12   4  349.92   22.44
  11  12   4  354.79   26.34
 -12  11   4  326.44   27.41
 -11 -12   5  200.55   21.34
 -12  11   5  185.86   18.10
  11  12  -5  180.86   20.83
 -11 -12   5  184.50   17.01
 -12  11   5  187.19   20.92
  11  12   5  171.97   21.21
 -12  11  -5  170.42   20.08
  11  12   5  214.31   22.24
  11  12   5  191.76   20.21
 -12  11   5  184.20   21.10
  11  12  -6  121.05   17.29
 -12  11   6  138.40   16.59
 -12  11   6  133.78   18.61
 -11 -12   6  116.81   16.99
  11  12   6  124.41   18.59
 -12  11  -6  136.11   18.35
  11  12   6  133.91   17.38
  11  12   7  127.40   17.66
 -12  11   7  115.56   16.11
 -11 -12   7   97.86   16.31
  11  12   7   89.65   16.72
  11  12  -7   98.46   15.87
 -12  11  -7  115.63   17.45
  11  12   8   81.14   16.32
  11  12  -8   93.96   15.92
  11  12   8   83.96   14.87
 -12  11  -8   72.05   14.02
 -11 -12   8   79.61   15.35
  11  12  -9   44.29   11.10
  12 -11   9   42.40   11.58
  11  12   9   49.27   11.88
 -11 -12   9   52.36   12.88
 -12  11  -9   43.22   11.43
 -12  11   9   26.89    8.52
 -12  11  10   17.48    7.21
  11  12  10   21.94    7.74
 -12  10   0  164.34   16.08
  10  12   0  150.60   18.01
 -12  10   0  147.52   16.96
 -12  10   0  153.04   11.76
  10  12   1   15.66    6.69
 -12  10   1   16.77    4.22
 -12  10   1   13.54    5.06
  10  12  -1   15.92    6.35
  10  12   1   13.05    5.34
 -12  10  -1   22.48    4.65
 -12  10  -1   17.81    6.69
 -12  10   1   16.81    5.64
  10  12  -2   23.67    6.89
 -12  10   2   36.88    6.39
  10  12   2   21.43    7.08
  10  12   2   19.70    4.21
 -12  10  -2   33.84    8.28
  10  12   2   20.26    6.10
 -12  10   2   29.05    7.25
  10  12   3    6.98    3.89
 -12  10   3   15.43    5.84
  10  12   3    7.65    5.80
  10  12  -3   10.33    5.94
 -12  10   3   12.46    4.05
 -12  10  -3   10.89    5.07
 -12  10   3   10.96    5.07
 -12  10   4    5.19    4.78
  10  12   4    1.50    3.18
  10  12   4    9.39    6.70
  10  12  -4   -2.63    2.98
 -12  10   4    3.95    2.48
  10  12   4    6.14    5.16
 -12  10  -4    4.55    4.80
 -12  10   5    7.97    4.83
  10  12   5    9.49    4.52
  12 -10   5    4.93    3.34
  10  12  -5    5.90    4.62
 -12  10   5    6.15    4.26
 -12  10   5   -1.36    3.11
 -10 -12   5    3.89    2.67
  10  12   5    4.01    3.99
 -12  10  -5    6.99    4.33
  10  12   5   10.07    7.23
 -10 -12   5   11.26    6.19
 -12  10  -6    3.53    3.45
 -10 -12   6    5.53    3.53
 -12  10   6   -3.89    3.67
  10  12   6    4.59    3.80
  10  12  -6    4.32    3.40
  10  12   6    4.42    4.27
 -12  10   6    2.17    3.41
 -10 -12   7   -1.30    2.45
 -12  10  -7   -2.71    3.48
  10  12   7    0.08    3.03
  10  12  -7    0.66    4.39
 -12  10   7    9.04    4.79
  10  12   8   15.02    8.20
  10  12   8    3.34    4.12
  10  12  -8   14.48    7.27
 -12  10  -8    4.40    5.81
 -10 -12   8    4.14    3.93
 -12  10   8    7.82    4.77
  10  12   9    6.74    5.73
  10  12  -9    3.76    5.14
  10  12   9   -1.53    3.09
  12 -10   9    6.69    3.97
 -10 -12   9    3.50    4.16
 -12  10   9    1.75    3.08
 -12  10  -9    9.69    5.63
 -12  10  10    4.75    4.74
  12 -10  10    0.38    2.04
  10  12  10    6.08    4.76
 -12   9   0    1.91    1.67
 -12   9   0    2.52    3.69
   9  12   0   -1.24    2.81
 -12   9   0    5.11    4.87
   9  12  -1    0.49    2.91
 -12   9   1    1.60    1.87
 -12   9   1    4.63    4.04
   9  12   1   -2.01    2.65
   9  12   1   -0.88    2.93
 -12   9  -1    1.75    1.84
 -12   9  -1    2.51    3.48
 -12   9   1    4.65    2.79
 -12   9   2   12.60    5.06
 -12   9   2   17.32    4.14
   9  12  -2    8.98    4.09
   9  12   2   16.52    6.31
   9  12   2   17.28    3.85
 -12   9  -2   12.23    4.11
   9  12   2   14.53    5.26
 -12   9   2   12.23    5.51
   9  12   3   23.59    6.19
   9  12   3   30.60    8.18
 -12   9   3   47.40    7.40
   9  12  -3   30.80    8.52
 -12   9  -3   32.95    8.09
 -12   9   3   41.54    9.18
 -12   9   3   29.69    7.56
 -12   9   4   38.82    9.52
 -12   9   4   42.85    9.84
   9  12   4   37.13    9.14
   9  12   4   42.97    9.02
  -9 -12   4   38.58    6.94
   9  12  -4   44.12   10.32
 -12   9   4   40.87    7.53
 -12   9  -4   32.12    7.83
 -12   9  -5    8.12    4.65
  -9 -12   5    1.64    2.17
   9  12   5   15.42    5.99
 -12   9   5   15.46    6.50
   9  12   5   14.20    6.43
   9  12  -5    4.61    4.11
  12  -9   5   11.15    4.07
 -12   9   5   11.32    4.12
   9  12   5    6.24    5.15
  -9 -12   5    7.07    3.24
 -12   9   6    0.59    2.64
 -12   9   6    1.05    2.06
   9  12   6    2.16    3.06
  12  -9   6    1.95    2.15
   9  12   6    2.41    4.88
  -9 -12   6    4.53    3.96
 -12   9  -6   -1.28    1.60
   9  12  -6    1.57    1.75
   9  12   7    8.00    5.28
   9  12  -7   11.22    5.53
 -12   9  -7    4.71    3.37
 -12   9   7    6.45    4.54
  -9 -12   7   10.48    6.45
  12  -9   8    7.87    4.97
 -12   9  -8    2.54    2.99
   9  12   8   14.75    7.75
   9  12   8    5.77    4.26
   9  12  -8    6.36    4.45
  -9 -12   8    8.08    5.14
 -12   9   8    0.56    2.11
 -12   9   9    9.79    4.56
 -12   9   9   11.16    6.37
  -9 -12   9   17.38    9.10
   9  12   9   14.78    7.98
   9  12   9   27.70    9.21
 -12   9  10    5.10    3.74
   9  12  10    2.46    3.56
   9  12  10   -0.87    3.84
  -9 -12  10    8.87    5.16
 -12   8   0    8.76    2.44
   8  12   0    3.57    3.84
 -12   8   0    0.15    2.10
   8  12   1   11.51    5.70
 -12   8   1    8.07    2.53
   8  12  -1   12.65    5.71
   8  12   1   12.12    3.94
 -12   8   1   10.72    4.10
   8  12   1   11.87    5.32
 -12   8  -1    8.66    4.89
 -12   8  -1   12.00    2.92
 -12   8   1   11.37    4.69
 -12   8   2  113.32    9.87
   8  12   2  126.38   14.73
   8  12   2  133.16   10.70
   8  12   2  117.92   15.55
 -12   8   2   94.47   12.78
 -12   8  -2   99.11   13.46
 -12   8   2   96.11   13.28
   8  12  -2  124.03   15.53
 -12   8   3   27.65    8.04
   8  12   3   24.40    6.75
 -12   8   3   22.74    7.21
   8  12  -3   27.09    7.12
 -12   8   3   19.54    4.69
   8  12   3   26.64    7.95
 -12   8  -3   18.54    5.87
   8  12   4   14.13    5.20
 -12   8   4    5.03    5.07
   8  12   4   11.01    5.34
  -8 -12   4    8.57    3.25
  12  -8   4    6.97    2.86
   8  12  -4    9.42    4.70
 -12   8   4    1.93    1.78
 -12   8  -4    7.88    5.01
 -12   8   4    0.90    3.09
   8  12   5    9.48    4.42
 -12   8   5   -0.10    3.39
  -8 -12   5   11.68    5.19
 -12   8  -5   -2.87    3.25
 -12   8   5    3.64    2.97
  12  -8   5    4.24    2.15
   8  12  -5    3.91    2.56
   8  12   6   15.55    7.74
  12  -8   6    2.42    2.96
   8  12   6    8.30    5.09
   8  12  -6    9.89    5.24
  -8 -12   6    1.17    1.96
 -12   8  -6   -0.87    2.55
 -12   8   6   -0.90    2.32
 -12   8   7    7.26    4.56
   8  12   7    7.30    4.22
   8  12   7    2.74    1.83
   8  12  -7   16.21    7.31
 -12   8  -7    8.09    4.45
  -8 -12   7   25.78    9.09
  12  -8   7    9.34    4.72
 -12   8   7    9.03    5.43
 -12   8   8    2.68    1.67
 -12   8   8    2.77    4.10
   8  12   8    1.63    4.99
   8  12  -8    6.38    3.47
  -8 -12   8   -1.95    3.86
  12  -8   8    5.81    3.68
 -12   8  -8    0.14    2.41
   8  12   8    4.41    3.95
 -12   8   9   -4.33    2.70
  12  -8   9   -1.48    4.75
   8  12   9    0.30    1.55
  -8 -12   9    0.14    3.30
 -12   8  10    9.67    5.80
  -8 -12  10   13.75    7.38
   8  12  10    0.26    3.07
  12  -8  10   11.46    6.90
 -12   8  10    0.98    2.52
 -12   8  11   -7.53    5.75
 -12   7   0   -0.17    0.70
   7  12   0   -1.27    3.17
 -12   7   0    0.07    0.52
 -12   7   0   -0.96    2.59
 -12   7   1   58.97    5.87
 -12   7  -1   65.77    5.56
 -12   7   1   71.48   10.60
   7  12  -1   53.11    9.94
   7  12   1   76.68    9.23
   7  12   1   84.30   13.02
 -12   7  -1   60.32    5.17
 -12   7  -1   83.53   11.81
 -12   7   1   60.70   10.23
   7  12  -2   54.11   10.46
 -12   7   2   62.18    6.92
 -12   7   2   56.62   10.03
   7  12   2   68.85    7.74
   7  12   2   55.95   10.83
 -12   7  -2   68.07   10.48
   7  12   2   60.80   10.49
 -12   7   2   64.32   10.70
 -12   7   3   23.15    6.86
   7  12   3   29.11    7.39
 -12   7   3   18.38    6.36
   7  12  -3   35.42    9.01
   7  12   3   33.65    8.37
 -12   7   3   28.41    5.52
   7  12   3   30.67    4.41
 -12   7  -3   21.57    6.12
 -12   7   4   75.82   12.22
   7  12   4   78.51   12.15
 -12   7   4   78.42    9.71
   7  12  -4   68.92   11.41
 -12   7   4   73.93   12.42
  12  -7   4   82.19    8.87
   7  12   4   72.75   11.99
 -12   7  -4   74.65   11.61
  -7 -12   5   87.03   13.58
   7  12   5   78.76   12.62
 -12   7   5   75.48   13.62
  12  -7   5   84.72    9.98
   7  12  -5   88.00   13.33
 -12   7  -5   88.62   12.65
  12  -7   6   47.68    8.21
 -12   7   6   40.42    9.79
  -7 -12   6   36.09    9.44
   7  12   6   34.31    9.11
   7  12  -6   21.73    7.00
 -12   7  -6   49.00   10.07
 -12   7   6   39.13    8.10
 -12   7   7   30.01    7.76
  12  -7   7   35.79    9.99
 -12   7   7   17.66    7.01
   7  12  -7    9.72    5.82
  12  -7   7   21.68    6.08
  -7 -12   7   12.57    5.14
 -12   7  -7   20.29    6.68
   7  12   7   15.25    6.16
 -12   7   8   24.68    7.49
  -7 -12   8   43.00   10.97
   7  12  -8   33.68    8.16
   7  12   8   27.92    8.37
 -12   7  -8   37.22    8.76
 -12   7   9    8.23    4.87
  -7 -12   9    9.76    6.05
   7  12   9    7.29    3.87
  -7 -12  10    1.70    3.26
  12  -7  10    1.09    3.06
   7  12  10   -0.72    2.55
 -12   6   0  273.91    9.53
 -12   6   0  292.87   21.30
   6  12   0  310.25   19.74
   6  12   0  283.48   22.79
 -12   6   0  291.82    9.81
 -12   6   1  316.09   12.21
 -12   6   1  318.77   22.60
   6  12   1  310.39   24.21
 -12   6  -1  300.74    9.80
   6  12   1  328.46   18.98
   6  12  -1  328.81   24.48
 -12   6  -1  322.19   22.35
 -12   6  -1  314.34   10.11
 -12   6   1  312.26   22.46
 -12   6  -2  316.04   11.94
   6  12   2  329.38   17.18
 -12   6   2  345.22   15.18
 -12   6   2  328.89   23.84
   6  12   2  312.10   24.55
 -12   6   2  300.28   22.86
 -12   6  -2  295.21   21.14
   6  12   2  323.60   23.27
   6  12  -2  327.76   24.45
 -12   6   3  156.91   11.82
 -12   6   3  139.04   16.00
   6  12   3  167.52   18.04
   6  12   3  161.49   10.63
 -12   6  -3  154.21   15.46
   6  12   3  158.73   16.48
 -12   6   3  150.71   16.54
   6  12  -3  147.40   16.36
 -12   6   4   91.21   10.24
   6  12   4   66.19   11.30
   6  12  -4   98.95   13.71
 -12   6  -4   80.99   11.42
 -12   6   4   85.99   13.32
  12  -6   4   76.26    8.18
  -6 -12   4   94.10   13.63
   6  12  -5   32.14    8.12
   6  12   5   30.00    7.85
 -12   6   5   41.01    9.77
 -12   6   5   25.49    7.25
  -6 -12   5   19.65    7.00
 -12   6  -5   20.91    6.28
  12  -6   5   26.94    5.60
 -12   6   5   24.26    5.78
  -6 -12   6   -1.34    2.50
 -12   6   6   -0.58    1.69
 -12   6   6    3.45    4.12
   6  12   6   -1.88    1.83
   6  12  -6    0.11    2.66
  12  -6   6   -1.24    2.25
  12  -6   6    0.55    1.33
 -12   6  -6    0.35    2.28
  12  -6   7    4.54    3.43
   6  12   7    3.83    3.85
  12  -6   7    6.65    5.29
   6  12  -7    2.22    2.31
  -6 -12   7    5.63    3.61
 -12   6  -7    5.71    3.00
 -12   6   8   15.57    6.24
 -12   6   8   28.22    8.94
   6  12  -8   20.97    6.88
   6  12   8   17.60    6.62
  12  -6   8   20.49    6.27
  12  -6   8   18.77    7.59
  -6 -12   8   15.62    6.29
  -6 -12   9   31.86   10.24
 -12   6   9   25.47    9.28
   6  12   9   21.08    7.37
  12  -6   9   26.64    9.20
  -6 -12  10   85.74   16.76
 -12   6  10   57.82   14.10
  12  -6  10   56.66   12.81
   6  12  10   58.16   13.27
  12  -6  11   41.15   11.57
 -12   6  11   32.42   10.49
 -12   5   0    5.86    3.73
   5  12   0    2.25    3.75
   5  12   0   -0.73    3.43
 -12   5   0   -1.90    2.74
   5  12  -1    1.93    1.33
   5  12  -1    6.35    4.52
   5  12   1    2.38    1.67
   5  12   1   -0.04    2.41
 -12   5   1    0.98    2.20
 -12   5   1    2.20    1.09
 -12   5  -1    3.44    2.96
 -12   5   1   -0.72    2.25
 -12   5   2    8.05    3.73
 -12   5   2    3.67    2.64
   5  12  -2   13.82    5.13
 -12   5  -2    6.69    1.52
   5  12   2   12.84    5.25
   5  12   2   15.12    4.03
 -12   5  -2    8.61    3.45
   5  12   2   13.58    5.41
 -12   5   2    6.11    1.86
   5  12   3   68.63   11.07
 -12   5   3   72.71   11.61
   5  12   3   67.42    6.92
   5  12  -3   65.38   10.77
 -12   5   3   74.78    7.87
 -12   5   3   64.59   10.66
 -12   5  -3   81.53   10.84
   5  12   3   53.02   10.03
  12  -5   3   73.19    6.56
 -12   5   4    9.71    3.47
  12  -5   4   11.30    3.05
   5  12   4   12.80    5.28
 -12   5   4   14.99    5.38
 -12   5   4   12.04    5.81
  -5 -12   4   13.20    2.98
   5  12  -4   14.24    5.51
 -12   5  -4    3.38    2.00
   5  12   4   13.95    3.02
  -5 -12   4   18.10    6.55
  12  -5   4    9.55    2.77
 -12   5   5   26.48    6.17
   5  12   5   35.98    8.58
   5  12  -5   33.44    8.27
  12  -5   5   18.63    4.48
 -12   5   5   22.82    7.56
  -5 -12   5   19.83    6.50
 -12   5  -5   21.06    5.78
   5  12  -6    4.24    3.20
 -12   5   6    1.33    2.13
 -12   5   6    8.79    5.06
  12  -5   6    3.02    2.48
   5  12   6   -0.24    1.40
 -12   5   6    6.55    4.74
 -12   5  -6    2.20    3.59
  12  -5   6    0.17    3.90
  -5 -12   6    0.68    2.60
  12  -5   7   21.26    5.89
 -12   5   7    9.98    5.03
   5  12  -7   16.26    6.45
  -5 -12   7   11.17    4.77
  12  -5   7   14.12    6.31
   5  12   7   10.66    4.80
 -12   5  -7   17.39    5.66
  12  -5   8   18.60    5.77
 -12   5   8   19.09    7.70
  -5 -12   8   19.24    8.06
  12  -5   8   12.24    6.73
   5  12   8   17.60    6.65
   5  12  -8   16.50    5.87
  12  -5   9    2.06    1.41
  -5 -12   9   -3.63    2.97
   5  12   9    7.26    5.08
  12  -5   9    2.78    2.76
 -12   5   9    2.79    3.44
  -5 -12  10    5.60    3.31
 -12   5  10   12.44    8.50
   5  12  10    7.50    4.60
  12  -5  11   12.09    6.98
 -12   5  11    5.70    3.55
   4  12   0  433.56   23.58
 -12   4   0  373.73   23.03
   4  12   0  442.32   28.00
 -12   4   0  418.67   25.34
   4  12  -1  409.12   26.85
   4  12   1  395.43   26.87
 -12   4   1  424.73   10.50
   4  12  -1  418.70   24.68
 -12   4  -1  415.64   23.76
 -12   4   1  426.55   25.22
   4  12   1  432.99   21.99
   4  12  -2  340.39   24.13
 -12   4   2  358.68   13.82
   4  12   2  321.59   24.46
   4  12   2  362.27   18.55
 -12   4  -2  330.93   20.94
  12  -4  -2  333.01   13.33
   4  12   2  347.30   23.84
 -12   4   2  331.45   22.82
 -12   4  -2  327.02    8.70
 -12   4  -3  165.16    9.12
   4  12  -3  180.19   17.37
  12  -4   3  202.37   13.50
 -12   4   3  184.34   12.13
  12  -4   3  180.58    9.63
   4  12   3  163.75   11.60
 -12   4  -3  182.09   15.47
 -12   4   3  188.29   18.45
   4  12   3  164.16   16.93
  12  -4   4  147.59   10.75
  12  -4   4  173.94   11.32
 -12   4   4  150.99   15.26
   4  12  -4  153.61   16.12
 -12   4   4  164.90   13.17
 -12   4  -4  169.03   15.11
   4  12   4  162.01   10.75
   4  12   4  153.63   16.83
  -4 -12   4  163.50   17.43
 -12   4   5   31.59    6.48
  12  -4   5   37.87    6.33
   4  12   5   44.40    9.28
 -12   4   5   39.19    9.02
  -4 -12   5   53.45   10.57
 -12   4   5   36.46    9.52
   4  12  -5   48.02    9.20
  12  -4   5   37.95    9.12
 -12   4  -5   42.43    7.66
 -12   4   6   -0.59    1.80
 -12   4   6    0.94    2.41
   4  12   6   -2.84    3.07
  12  -4   6   -3.29    4.35
 -12   4  -6    1.65    2.46
  -4 -12   6    8.94    4.78
   4  12  -6   -1.53    4.04
 -12   4   7    4.02    4.48
 -12   4   7    6.55    4.12
   4  12   7    6.71    4.55
  -4 -12   7   10.17    4.93
   4  12  -7   11.81    5.17
 -12   4  -7   10.67    4.37
  12  -4   7    7.88    4.03
 -12   4   8   47.25   10.96
   4  12   8   37.54   10.18
 -12   4   8   20.08    6.89
  -4 -12   8   41.13   10.78
  12  -4   8   35.17    8.03
  -4 -12   9   35.46   10.30
 -12   4   9   63.82   13.88
 -12   4   9   41.34   10.28
   4  12   9   49.63   12.14
  12  -4   9   49.34   10.24
  -4 -12  10   53.82   13.24
 -12   4  10   56.71   13.04
 -12   4  10   62.38   13.18
  12  -4  10   76.02   14.87
   4  12  10   49.01   12.29
 -12   4  11   45.67   12.04
   3  12   0    3.24    3.03
   3  12   0    4.14    4.06
 -12   3   0    2.38    1.95
 -12   3   1    5.10    2.99
   3  12   1    0.63    2.52
   3  12  -1    1.59    1.79
   3  12  -1    2.56    2.91
   3  12   1    1.31    3.53
 -12   3  -1    2.02    2.79
  12  -3  -2    5.40    1.76
 -12   3   2   13.24    4.99
  12  -3   2    7.82    3.13
   3  12  -2    9.58    4.98
 -12   3   2    5.82    1.87
   3  12  -2    1.67    3.05
   3  12   2    1.91    3.28
   3  12   2    2.89    1.87
   3  12   2    2.11    3.65
 -12   3  -2    4.93    1.96
   3  12   3    2.92    3.76
  12  -3   3    1.71    1.48
 -12   3   3    1.30    1.22
 -12   3  -3    1.08    1.08
 -12   3   3    2.30    3.03
  12  -3   3    1.76    0.82
 -12   3   3    1.57    1.33
   3  12   3    4.50    2.74
 -12   3  -3    3.80    2.78
   3  12  -3    5.64    4.19
 -12   3   4    0.53    2.31
  12  -3   4    1.14    0.95
  -3 -12   4    4.01    3.77
   3  12   4    4.28    3.43
  12  -3   4    2.12    1.84
   3  12  -4    9.41    5.69
 -12   3   4    2.36    1.69
 -12   3  -4    2.47    3.02
  12  -3   4   -0.31    1.98
   3  12   4    2.37    1.92
   3  12   5    5.02    2.06
   3  12   5   -0.28    2.20
  -3 -12   5    6.93    4.04
  -3 -12   5    5.07    2.24
 -12   3   5    8.41    4.83
 -12   3   5    5.90    3.48
   3  12  -5   -0.39    2.87
 -12   3  -5    9.56    3.97
  12  -3   5    3.74    2.70
  12  -3   5    5.75    2.88
 -12   3   6    2.84    3.58
   3  12   6    1.79    3.05
 -12   3   6    8.15    3.66
   3  12  -6    8.57    3.35
  -3 -12   6    0.42    2.32
  12  -3   6    5.48    2.78
 -12   3  -6    4.34    1.38
 -12   3   7    7.01    4.04
   3  12  -7    3.75    3.17
  -3 -12   7   -2.97    3.58
   3  12   7    1.39    3.70
  12  -3   7    7.89    3.55
 -12   3  -7    4.20    2.80
  -3 -12   8    0.16    1.83
  12  -3   8    4.59    4.87
 -12   3   8    9.12    4.81
   3  12   8    3.38    4.21
  -3 -12   9    6.70    4.22
 -12   3   9   11.83    6.46
  12  -3   9    2.93    3.01
   3  12   9    7.68    5.53
  12  -3   9    6.38    4.06
 -12   3  10    3.66    3.07
   3  12  10    2.12    2.19
  -3 -12  10   10.46    6.09
  12  -3 -11   -6.25    5.54
  12  -3  11    0.86    1.99
 -12   3  11   -4.27    3.03
 -12   2   0   16.30    4.70
   2  12   0    5.27    2.78
   2  12   0    9.19    4.63
  12  -2   1    4.89    1.80
 -12   2   1    4.79    2.46
 -12   2   1    8.03    4.34
   2  12  -1   18.16    5.18
   2  12  -1   17.23    5.91
   2  12   1   11.35    3.95
   2  12   1    6.68    4.77
 -12   2  -1    7.46    2.68
  12  -2   2   21.68    4.81
  12  -2  -2   14.48    2.58
 -12   2   2   12.28    5.61
  12  -2   2   17.44    5.21
   2  12  -2   23.45    7.10
   2  12  -2   19.99    6.29
   2  12   2   16.63    4.26
   2  12   2   19.00    5.76
 -12   2   2   14.75    2.71
 -12   2  -2   18.02    4.49
   2  12   3   13.46    5.00
  12  -2   3    8.13    2.07
 -12   2  -3    4.04    1.37
  12  -2   3    5.30    2.47
 -12   2   3   10.90    4.70
   2  12  -3    5.98    3.84
 -12   2   3    8.15    2.29
  12  -2   3    3.21    1.91
   2  12   3   10.24    3.73
 -12   2  -3    7.14    3.77
  12  -2   4   40.98    5.54
 -12   2   4   39.78    6.39
   2  12   4   27.52    6.90
  12  -2   4   30.82    7.72
   2  12  -4   38.64    8.13
  12  -2   4   36.55    5.21
  -2 -12   4   35.47    3.62
  -2 -12   4   40.29    8.69
 -12   2   4   33.10    8.44
 -12   2  -4   43.52    6.80
   2  12   4   42.28    6.14
 -12   2   5    7.63    4.18
  -2 -12   5    9.08    4.79
   2  12   5   11.03    5.50
 -12   2   5    5.61    4.21
 -12   2   5    6.06    2.72
  12  -2   5    9.28    3.03
   2  12  -5   11.33    4.92
 -12   2  -5    9.77    3.88
   2  12   5    7.08    3.31
 -12   2   6    6.66    5.60
 -12   2   6    6.43    3.81
   2  12   6   12.39    5.79
  12  -2   6   13.23    4.42
   2  12  -6   12.68    5.21
  -2 -12   6   13.49    5.63
 -12   2  -6    5.89    2.55
  -2 -12   7    0.75    1.70
 -12   2   7    2.16    3.16
  12  -2   7    4.27    3.12
   2  12  -7    4.00    3.50
  12  -2   7    1.44    2.54
   2  12   7    6.52    4.23
  -2 -12   8    3.59    2.81
 -12   2   8   -1.72    1.73
  12  -2   8    4.17    5.93
  12  -2   8    1.36    2.48
   2  12   8    0.60    3.13
  -2 -12   9    7.47    4.80
   2  12   9    0.71    3.56
  12  -2   9    1.87    1.39
 -12   2   9   -1.42    3.46
  12  -2 -10    9.51    6.14
 -12   2  10   12.37    6.86
  12  -2  10    1.27    2.04
   2  12  10    7.68    6.02
  -2 -12  10    7.45    4.40
  12  -2 -11    3.32    4.12
 -12   2  11    0.63    2.35
 -12   1   0   -1.64    2.03
  12  -1   0    1.68    1.89
 -12   1   0    3.48    2.80
  12  -1   0    3.09    1.64
   1  12   0   -1.11    1.57
   1  12  -1   40.57    8.40
  12  -1   1   33.25    6.38
  12  -1   1   46.29    7.87
  12  -1  -1   35.68    6.10
   1  12  -1   40.72    8.13
 -12   1   1   26.85    6.66
   1  12   1   44.80    7.43
 -12   1  -1   37.48    6.27
  12  -1   2   -1.16    1.43
 -12   1   2    3.98    2.67
 -12   1   2    0.77    2.66
  12  -1  -2   -1.18    1.44
 -12   1   2    1.03    0.74
   1  12  -2    4.32    3.77
  12  -1  -2   -0.21    0.55
   1  12   2    2.98    2.51
   1  12  -2   -2.93    3.25
  12  -1   2    0.69    1.52
   1  12   2    0.50    2.07
 -12   1  -2    3.73    2.00
   1  12   3   -0.05    2.05
  12  -1   3    2.51    1.18
   1  12  -3    1.39    2.49
  12  -1   3    4.63    3.52
   1  12  -3    1.71    2.94
 -12   1   3    1.53    3.06
  12  -1   3    2.93    2.63
   1  12   3    1.60    2.50
 -12   1   3    1.88    1.87
 -12   1  -3    1.93    2.29
 -12   1  -3    1.08    0.87
  12  -1   4    2.70    1.93
   1  12   4    4.31    3.43
  12  -1   4    3.46    2.88
  12  -1   4    2.50    2.27
  -1 -12   4    0.31    0.66
   1  12  -4    2.37    2.48
 -12   1   4    2.71    1.78
  -1 -12   4    2.83    2.21
 -12   1  -4    1.94    2.42
   1  12   4    1.15    1.95
  12  -1  -4    3.97    1.66
   1  12   5    9.06    4.79
  12  -1   5   12.43    3.61
  12  -1   5   15.62    3.37
  12  -1   5   19.13    7.31
 -12   1   5   25.52    6.10
   1  12  -5   17.60    5.66
 -12   1  -5   16.48    4.06
  -1 -12   5   20.87    6.45
   1  12   5   24.73    5.09
   1  12   6   33.64    8.35
 -12   1   6   12.72    5.41
 -12   1   6   20.69    5.64
 -12   1   6   26.79    8.30
   1  12  -6   34.07    7.33
  -1 -12   6   32.72    8.63
  12  -1   6   32.16    8.66
 -12   1  -6   17.75    4.38
  12  -1   6   18.25    5.35
 -12   1   7    3.09    2.66
  12  -1   7    2.00    2.48
  12  -1   7    1.86    3.41
 -12   1   7    3.45    3.36
  -1 -12   7   14.43    6.41
   1  12  -7    4.16    3.44
  -1 -12   8   -3.72    3.12
   1  12   8   -0.27    2.45
  12  -1   8    2.29    3.36
  12  -1   8    6.21    4.89
 -12   1   8    4.10    4.56
 -12   1   8   10.18    5.47
  -1 -12   9   -0.03    3.65
  12  -1  -9    8.38    5.46
 -12   1   9   11.88    6.38
  12  -1   9    5.11    4.61
 -12   1   9    4.99    3.61
   1  12   9    4.36    4.84
  12  -1 -10    1.95    3.02
 -12   1  10   -0.75    3.01
  12  -1  10    1.88    4.69
 -12   1  10   -5.53    4.69
   1  12  10    2.87    3.06
  12  -1  10    0.18    2.48
  -1 -12  10    4.83    4.79
  12  -1 -11   -2.05    3.76
  12  -1  11    0.25    3.65
 -12   1  11    3.79    3.29
  12   0   0   91.41   10.75
   0  12   0  110.57   12.21
  12   0  -1  183.12   13.11
  12   0  -1  159.36    6.56
  12   0  -1  170.39   15.38
  12   0   1  172.00   14.11
   0  12  -1  198.85   17.72
   0  12  -1  203.03   17.29
   0  12   1  182.64   14.95
  12   0   1  173.80   14.81
 -12   0  -1  177.89   13.67
  12   0  -2  308.34   21.46
  12   0   2  330.84   18.68
  12   0  -2  299.95   12.55
 -12   0   2  316.22   13.16
  12   0   2  285.56    9.02
   0  12   2  305.63   21.79
   0  12  -2  257.92   19.80
  12   0   2  310.70    9.29
  12   0   2  317.88   21.40
   0  12  -2  277.58   21.32
   0  12   2  319.58   19.24
 -12   0  -2  317.69   17.49
  12   0  -3  154.66   15.63
  12   0   3  156.74   12.40
   0  12  -3  150.78   14.84
 -12   0  -3  143.58    8.88
   0  12  -3  140.12   15.98
   0  12   3  142.77   12.57
 -12   0  -3  149.71   11.62
   0  12   3  143.24   15.32
 -12   0   3  158.11   16.30
 -12   0   3  140.21   10.51
   0  12   4   19.53    6.65
  12   0   4   21.19    4.00
  12   0  -4   23.86    2.94
  12   0   4   18.46    5.77
   0  12  -4   21.59    7.71
   0  12  -4   25.77    6.55
   0 -12   4   22.64    6.45
 -12   0   4   20.75    5.55
  12   0   4   25.43    4.91
   0  12   4   17.86    4.77
 -12   0  -4   24.80    4.57
 -12   0   4   18.68    4.41
   0  12   5    3.70    2.11
   0 -12   5    1.78    2.62
 -12   0   5    3.59    4.52
  12   0   5   -0.37    1.74
   0  12  -5    3.62    3.79
   0  12  -5    4.23    3.18
 -12   0   5    4.39    3.34
 -12   0  -5   -0.82    1.08
   0  12   5    0.11    1.68
  12   0  -6    0.59    2.64
  12   0   6    0.97    2.12
   0  12   6    5.73    4.66
 -12   0   6    3.50    3.45
  12   0   6   -0.05    2.11
   0  12  -6    1.59    1.90
   0 -12   6   -2.90    2.61
 -12   0   6    3.09    3.19
  12   0  -7    2.33    3.72
 -12   0   7    5.13    3.31
  12   0   7   -0.36    2.09
   0 -12   7    3.86    4.52
  12   0  -8    8.60    4.55
   0 -12   8   20.58    7.19
  12   0   8   10.66    4.69
   0  12   8    9.40    5.61
 -12   0   8   15.29    5.81
  12   0  -9   21.76    7.65
  12   0   9   23.02    7.20
  12   0   9   15.63    7.10
 -12   0   9   17.88    6.98
   0  12   9   23.71    8.29
   0 -12   9   18.50    7.39
  12   0  10   31.15    8.99
  12   0  10   26.73    9.34
  12   0 -10   19.70    7.57
 -12   0  10   36.51   10.75
 -12   0  10   27.76    8.54
   0  12  10   27.83    8.72
   0 -12  10   25.03    8.46
  12   0 -11   33.58   10.03
 -12   0  11   26.06    8.94
  12   1   0    0.46    0.36
  12   1   0    1.83    1.97
  12   1   1   73.91    3.85
  12   1  -1   88.67   11.09
  12   1   1   86.59   10.02
  12   1   1   78.31    3.91
 -12  -1   1   89.18    7.52
 -12  -1   1   79.76   11.09
  12   1   1   85.14   10.26
  -1  12  -1   69.09   10.50
  -1  12   1   73.68   10.34
  -1  12   1   81.69   10.51
  12   1  -1   81.66    5.47
  12   1  -2  177.92   16.51
  12   1   2  169.93   13.71
  12   1   2  163.15    7.80
 -12  -1   2  151.41   15.50
 -12  -1   2  165.12   10.05
  -1  12  -2  148.84   15.60
  -1  12   2  148.68   13.53
  -1  12  -2  155.62   15.42
  -1  12   2  168.98   16.16
 -12  -1  -2  162.92   12.13
 -12  -1   3  112.97    9.78
  12   1   3  134.69    8.94
  12   1  -3  127.86   14.38
  12   1   3  117.34   10.89
  12   1  -3  123.95    8.25
  -1  12  -3  115.57   14.58
  -1  12   3  106.68   11.28
 -12  -1  -3  116.12    8.50
  -1  12   3  127.89   14.49
 -12  -1  -3  130.27   10.23
 -12  -1   3  138.62   12.23
  12   1  -4  211.80   19.04
  12   1   4  224.58   14.53
  12   1   4  187.15   18.13
  12   1   4  216.04   13.38
  12   1  -4  207.57    7.93
 -12  -1   4  197.86   18.80
  -1  12  -4  181.20   16.06
  -1  12  -4  181.19   18.78
 -12  -1  -4  210.67   12.53
  -1  12   4  191.86   15.09
  -1  12   4  176.19   17.56
   1 -12   4  191.46   18.18
 -12  -1   4  205.71   14.90
  12   1  -5  200.22   19.51
  -1  12  -5  196.89   20.84
 -12  -1   5  179.53   19.17
  12   1   5  199.42   14.69
  12   1   5  198.04   19.61
  -1  12  -5  220.99   17.60
  12   1   5  193.20   12.99
   1 -12   5  195.48   19.09
 -12  -1  -5  190.07   11.54
 -12  -1   5  201.38   16.33
  -1  12   5  214.70   16.13
  -1  12   5  210.10   20.17
  12   1  -6  246.23   22.46
 -12  -1   6  223.26   22.39
  12   1   6  280.88   19.30
   1 -12   6  249.95   23.07
  -1  12  -6  284.79   25.87
 -12  -1   6  274.43   20.78
  -1  12  -6  265.32   18.98
  -1  12   6  239.60   22.65
  -1  12   7  158.17   19.31
  12   1  -7  166.18   18.92
 -12  -1   7  158.12   19.60
  12   1   7  166.97   16.20
   1 -12   7  187.62   20.76
  -1  12  -7  166.79   21.14
 -12  -1   7  163.28   17.39
   1 -12   8   68.36   13.04
  12   1  -8   94.12   14.75
  12   1   8   59.73   10.42
  -1  12   8   68.73   13.26
  12   1   8   81.75   14.44
  -1  12  -8   74.07   14.65
 -12  -1   8   65.17   11.87
  12   1  -9   24.04    7.77
  12   1   9   31.79    8.38
  -1  12  -9   37.57   11.02
  12   1   9   23.99    8.33
  -1  12   9   35.17   10.26
 -12  -1   9   25.51    7.92
   1 -12   9   33.68   10.15
  12   1  10    5.42    4.64
  12   1 -10    9.76    5.31
  -1  12 -10    5.19    3.42
  -1  12  10   12.27    5.71
 -12  -1  10    4.06    2.75
   1 -12  10   14.97    6.88
  12   1  10   15.73    6.32
  12   1 -11    5.15    3.28
  -1  12 -11   -0.53    2.60
   1 -12  11    9.39    6.08
 -12  -1  11    3.31    3.17
  12   2   0  429.64   23.84
  -2  12   0  448.52   12.87
  12   2   0  426.93   12.87
  -2  12   0  416.84   24.52
  12   2   0  443.98   13.25
  12   2  -1  165.56   15.15
  12   2   1  185.37   14.99
 -12  -2   1  168.18   16.16
  12   2  -1  164.92    8.92
 -12  -2   1  181.21   10.41
  12   2   1  174.12    8.17
  -2  12  -1  191.76   17.16
  -2  12   1  217.38   17.12
  12   2  -1  172.67   12.59
  -2  12   1  227.99   18.14
  12   2   1  188.15    8.36
  12   2   2   37.47    6.78
  12   2   2   33.40    4.08
  -2  12  -2   43.02    8.67
  12   2  -2   38.23    7.83
 -12  -2   2   37.55    5.16
 -12  -2   2   36.52    7.90
  -2  12   2   41.36    7.45
  -2  12   2   40.54    7.88
  12   2  -3  108.16   13.44
  -2  12  -3  115.20   14.61
  12   2   3  113.69   11.14
  12   2   3  129.10    9.33
 -12  -2   3  131.83   10.92
 -12  -2   3  120.54   14.28
  -2  12   3  139.11   13.31
  -2  12   3  131.65   14.62
  12   2  -4   44.63    8.95
   2 -12   4   61.98   10.65
  -2  12   4   66.93   10.71
  12   2   4   55.23    7.20
  12   2   4   51.91    7.42
  -2  12  -4   72.01   12.04
  -2  12   4   67.49    9.63
  12   2   4   52.78    3.98
 -12  -2   4   41.66    8.82
 -12  -2  -4   54.39    5.75
 -12  -2   4   55.47    7.95
  12   2  -5    2.20    2.93
 -12  -2   5   -0.41    2.13
  -2  12   5    3.40    3.00
  -2  12  -5    4.10    3.79
  12   2   5    3.91    2.43
  -2  12  -5    5.17    2.63
  12   2   5    2.17    2.62
   2 -12   5    1.81    2.47
 -12  -2  -5    3.62    1.82
  -2  12   5    5.74    3.12
  12   2   6   -0.43    2.19
  -2  12   6    9.37    3.78
  12   2  -6    6.91    4.68
  -2  12   6    5.97    4.23
  12   2   6    3.62    2.28
 -12  -2   6    0.09    2.92
  -2  12  -6    4.56    5.25
   2 -12   6    5.25    3.39
  -2  12  -6    6.90    3.40
 -12  -2   7   13.08    5.15
  12   2   7    5.77    3.27
  12   2  -7   11.09    5.73
  -2  12   7    7.31    4.24
 -12  -2   7    4.63    3.21
  -2  12  -7    4.19    5.34
   2 -12   7    8.40    5.65
 -12  -2   8   29.01    8.35
   2 -12   8   20.48    7.21
  12   2   8   14.55    5.28
  12   2  -8   25.03    7.97
  12   2   8   10.16    5.86
  -2  12   8   19.95    7.36
  -2  12  -8   33.44    9.92
  12   2  -9    9.06    4.94
  12   2   9   20.81    6.47
  -2  12  -9   23.47    7.81
  -2  12   9   35.00   10.03
   2 -12   9   25.15    8.73
 -12  -2   9   24.72    8.19
 -12  -2  10   17.38    7.21
  12   2 -10   22.34    8.43
  -2  12 -10   14.00    7.27
  -2  12  10   19.38    7.94
   2 -12  10   15.50    7.93
 -12  -2  11   13.75    6.57
  12   2 -11    3.52    4.69
  12   2  11   21.12    8.77
  12   2  11    8.52    5.56
  -2  12 -11   24.61    9.55
   2 -12  11    7.52    5.27
  12   3   0   -0.39    0.82
  12   3   0   -1.37    1.53
  12   3   0   -0.89    1.43
  -3  12   0    0.51    2.04
  12   3   0    2.35    1.37
  12   3  -1  180.75   16.25
  12   3   1  196.94   15.83
 -12  -3   1  182.28   16.72
  12   3   1  176.55    9.72
  -3  12  -1  185.46   16.92
  -3  12   1  194.69   16.87
  -3  12   1  174.71   15.80
  12   3   1  202.38   10.16
  12   3  -2   93.04   12.12
  12   3   2   95.68   10.75
  12   3  -2   90.02    8.48
  12   3   2  102.67   12.08
  -3  12  -2   99.17   13.12
  -3  12   2   98.45   11.75
  -3  12   2   92.45   11.86
 -12  -3   2   93.33    8.61
  12   3   2  100.24    7.79
  12   3  -3   92.72   12.68
  12   3   3   99.33    8.76
  12   3   3  104.60   11.11
 -12  -3   3   97.60   12.52
   3 -12   3  110.93    5.43
  12   3  -3  121.26    8.38
  12   3   3  104.21   13.03
  -3  12  -3  107.33   14.13
  -3  12   3  125.34   13.04
  -3  12   3  117.30   13.64
 -12  -3   3  110.59   10.38
 -12  -3   4  258.21   21.53
  12   3   4  285.33   22.65
  12   3  -4  286.95   22.60
 -12  -3   4  330.03   19.86
  12   3   4  315.16   17.46
  -3  12  -4  258.99   23.08
  -3  12   4  319.59   21.11
  -3  12   4  288.08   22.48
   3 -12   4  324.04   23.41
  12   3   4  315.94   19.13
  12   3  -5  176.95   18.46
  12   3   5  208.84   15.58
 -12  -3   5  195.43   19.42
  -3  12  -5  203.27   20.86
   3 -12   5  171.13   17.84
  12   3   5  201.20   14.95
  -3  12   5  183.52   16.21
  -3  12   5  172.22   18.00
 -12  -3   5  199.27   16.75
  12   3  -6  168.57   18.54
   3 -12   6  164.18   18.41
  12   3   6  176.53   19.29
  -3  12  -6  148.30   18.77
  12   3   6  169.05   15.35
  -3  12   6  159.12   15.54
 -12  -3   6  169.19   16.68
  -3  12   6  178.64   19.42
  -3  12   7  119.38   16.58
  12   3  -7  157.50   18.34
 -12  -3   7  131.74   17.50
  12   3   7  136.84   15.03
  -3  12  -7  116.18   17.54
   3 -12   7  118.41   16.52
 -12  -3   7  143.88   16.45
  12   3   8   57.17   10.77
 -12  -3   8   72.91   12.59
   3 -12   8   50.57   11.40
  12   3  -8   45.05   10.15
 -12  -3   8   59.99   12.86
  -3  12   8   66.87   13.06
  -3  12  -8   73.48   14.11
   3 -12   9   40.37   10.69
 -12  -3   9   44.50   10.58
  12   3   9   27.75    7.49
  -3  12   9   27.37    9.84
  12   3  -9   39.27    9.99
  -3  12  -9   32.69   10.00
  -3  12 -10   12.27    7.95
 -12  -3  10   19.32    7.76
  12   3 -10    6.61    4.04
  12   3  10   13.25    6.22
  12   3  10   20.47    8.69
  -3  12  10   23.44    8.59
   3 -12  10    5.94    6.04
 -12  -3  11   -0.69    2.78
  -3  12 -11    4.44    4.12
   3 -12  11    5.63    4.47
  12   4   0    1.71    2.81
  12   4   0    1.51    1.41
  -4  12   0    8.38    2.37
  -4  12   0   10.28    4.01
  12   4   1   14.61    4.87
  12   4   1   14.00    3.12
  12   4  -1   13.13    4.49
  -4  12   1    9.24    2.74
  -4  12  -1   17.13    5.41
  -4  12   1   11.32    4.75
  -4  12   1   13.42    4.34
  12   4   2   -0.77    2.89
  12   4  -2    4.59    3.49
  12   4   2   -1.14    2.05
  12   4  -2    1.77    2.59
  -4  12  -2   -2.68    1.91
  -4  12   2   -0.37    2.32
 -12  -4   2    2.67    4.08
  12   4   2    1.02    1.19
  -4  12   2    0.89    2.44
  -4  12   3    4.61    3.59
  12   4   3    0.04    1.34
  12   4  -3    2.03    3.54
 -12  -4   3    6.25    3.79
  12   4  -3    0.60    0.96
  -4  12  -3    0.57    2.15
  12   4   3    1.10    1.33
 -12  -4   3    4.25    2.40
  -4  12   3    9.02    3.89
  12   4   3    1.11    2.28
  12   4  -4   10.23    4.51
  -4  12   4   17.06    5.49
   4 -12   4   16.21    4.97
 -12  -4   4   15.06    4.91
  12   4   4   12.39    3.82
  12   4   4   13.89    4.79
  -4  12  -4    5.29    3.66
 -12  -4   4    8.91    3.63
  -4  12   4   17.47    5.44
  12   4  -5    4.18    3.51
  -4  12   5   17.83    5.39
  12   4   5    2.20    2.64
   4 -12   5   23.46    7.19
  12   4   5   17.56    5.13
  -4  12  -5   36.30    8.87
  12   4   5    9.77    3.41
  -4  12   5   29.34    6.59
  -4  12   6   21.28    6.08
  12   4  -6    2.29    2.14
 -12  -4   6    3.61    2.92
  -4  12   6   14.54    5.48
 -12  -4   6    6.58    3.26
  -4  12  -6   14.57    6.12
   4 -12   6   18.41    6.51
  12   4   6    4.62    2.98
  12   4  -7    3.83    3.22
 -12  -4   7   -0.66    2.09
   4 -12   7    7.39    5.06
  -4  12   7   -0.39    3.36
  -4  12  -7   -2.48    1.86
  12   4   7    7.52    3.30
 -12  -4   7    2.64    3.06
   4 -12   8   -3.18    2.06
  12   4  -8   -2.53    3.47
  12   4   8    7.13    6.23
  -4  12   8    2.59    2.78
 -12  -4   8    3.59    3.98
  -4  12  -8    1.43    3.87
 -12  -4   8   -0.25    1.60
  12   4   8    1.19    2.09
   4 -12   9    1.84    2.33
 -12  -4   9    8.34    6.26
  12   4   9   -0.54    3.61
  12   4  -9   -2.18    1.80
 -12  -4   9    1.17    2.87
  12   4   9   -4.81    5.77
  -4  12  -9   -0.23    4.62
  -4  12   9   -0.64    2.50
  12   4  10    0.74    2.95
  12   4 -10    3.45    5.22
 -12  -4  10   -1.27    3.72
  -4  12 -10    3.52    2.10
  -4  12  10   -1.28    3.17
   4 -12  10    3.96    4.61
 -12  -4  11   -1.08    1.80
  12   4  11    5.01    5.60
  -4  12 -11   -0.72    3.05
   4 -12  11    2.71    2.66
  -5  12   0    0.20    1.53
  12   5   0   -1.53    2.29
  -5  12   0   -0.10    1.81
  12   5   1   -0.26    1.95
  12   5   1    1.67    2.26
  12   5  -1   -0.56    1.40
  -5  12  -1    1.91    2.12
  -5  12   1    3.45    3.67
  12   5  -1   -4.39    3.70
  -5  12   1    4.04    2.62
  12   5   1    1.14    1.40
  -5  12   2    3.95    3.21
  12   5   2    2.01    2.02
 -12  -5   2   -0.66    2.53
  12   5  -2    0.89    2.00
  12   5   2   -0.79    1.77
  12   5   2    0.60    1.73
  12   5  -2    2.13    1.76
  -5  12  -2    0.25    3.07
  -5  12   2    1.40    2.24
 -12  -5   3    9.53    4.05
  -5  12   3    7.74    4.08
  -5  12  -3    7.05    3.97
 -12  -5   3   12.29    3.77
  12   5   3    5.44    2.63
  12   5   3    1.18    2.40
  12   5  -3   10.51    5.60
  -5  12   3   15.41    5.19
  12   5   3    5.20    2.50
  12   5  -4   11.76    5.11
  -5  12   4   14.63    5.35
 -12  -5   4   16.80    5.17
  12   5   4    9.62    4.62
  12   5   4   13.31    3.92
   5 -12   4   11.92    4.82
  -5  12  -4    7.67    4.65
  -5  12   4    7.50    3.96
  -5  12   5   -1.31    2.40
  12   5   5    2.72    3.95
  12   5   5   -1.19    1.40
  12   5   5    1.48    2.04
  -5  12  -5    5.17    4.68
   5 -12   5    1.83    3.14
 -12  -5   5   -0.05    2.32
  12   5  -5    5.62    3.76
 -12  -5   5    4.24    4.15
  -5  12   5    5.10    3.82
  -5  12   6    7.32    4.23
  12   5   6    0.74    3.88
  12   5  -6    1.41    2.78
 -12  -5   6    0.64    2.10
  -5  12  -6    3.76    5.30
  12   5   6    2.26    3.69
  12   5   6    1.86    2.27
  -5  12   6    3.80    3.54
   5 -12   6    0.29    3.37
  12   5  -7   13.68    6.44
  12   5   7   12.86    7.20
   5 -12   7    1.11    2.43
 -12  -5   7    3.37    3.71
  -5  12   7    4.87    3.54
  -5  12  -7   -1.83    1.83
  12   5   7    3.69    2.74
 -12  -5   8    0.53    4.88
   5 -12   8   -0.40    3.49
  12   5  -8    4.92    4.52
 -12  -5   8    3.86    3.71
  -5  12   8    0.27    1.85
  -5  12  -8    7.89    5.04
  12   5   8    8.97    6.72
  12   5   8    1.08    2.90
   5 -12   9    1.22    1.49
 -12  -5   9    5.58    5.39
  -5  12  -9   -2.61    3.06
  -5  12   9    0.72    3.07
  12   5  -9    6.42    4.71
  12   5   9    2.05    2.00
  12   5  10    0.66    2.34
  12   5 -10    7.48    5.83
 -12  -5  10    5.09    3.71
  12   5  10   -2.67    2.79
  -5  12 -10   -0.12    2.55
  -5  12  10   -0.25    1.69
 -12  -5  10    0.95    3.79
   5 -12  10    0.43    1.85
  12   5  11   -0.15    1.90
  12   5  11   -9.66    6.03
  -5  12 -11    2.66    5.05
 -12  -5  11   -5.44    4.98
   5 -12  11   -0.51    4.33
  12   6   0    7.28    3.44
  12   6   0   18.10    5.44
  -6  12   0   15.35    5.42
  12   6   1   53.15    9.09
  12   6  -1   54.13    7.85
  12   6   1   65.01    9.53
  12   6  -1   59.95   10.22
  -6  12   1   40.74    7.40
  -6  12  -1   49.37    8.99
  12   6   1   57.15    7.26
  -6  12   1   58.84    9.92
  -6  12   1   65.86    7.88
  -6  12   2   27.18    5.37
  -6  12   2   29.24    6.78
  12   6  -2   31.15    5.68
  12   6   2   23.68    5.03
  12   6  -2   20.21    6.39
 -12  -6   2   27.07    6.90
  12   6   2   25.94    6.41
  -6  12  -2   33.81    8.03
  -6  12   2   35.57    7.96
  -6  12   3    2.56    2.50
  12   6  -3    5.54    3.98
 -12  -6   3   -1.11    2.09
  12   6   3   -1.05    3.25
  -6  12  -3    5.42    5.25
  12   6   3    0.04    1.28
 -12  -6   3   -1.29    2.39
  -6  12   3   -4.87    4.09
  -6  12   4    3.13    2.80
  12   6  -4    5.12    4.70
  12   6   4    1.60    2.35
  12   6   4    0.26    2.35
  12   6   4   10.57    4.99
  -6  12  -4   -0.16    3.15
 -12  -6   4    3.00    2.72
  -6  12   4    6.13    4.02
  -6  12   5   49.61    9.42
 -12  -6   5   17.50    5.21
  12   6  -5   29.97    7.61
  12   6   5   22.77    6.02
 -12  -6   5   35.74    8.90
  12   6   5   29.36    8.22
  12   6   5   25.04    6.01
  -6  12   5   44.52    8.96
  -6  12  -5   41.44    9.90
   6 -12   5   53.37    9.92
   6 -12   6    1.94    3.09
  -6  12   6   -1.50    2.33
  -6  12   6    8.14    4.40
  12   6   6    7.54    3.79
  -6  12  -6   -0.21    2.72
  12   6   6    3.36    3.38
 -12  -6   6    5.27    3.69
  12   6  -6    6.57    4.18
  12   6  -7   13.97    5.93
   6 -12   7    5.85    3.85
 -12  -6   7   10.71    6.23
  -6  12   7    2.97    4.58
 -12  -6   7   16.05    6.39
  -6  12  -7    5.75    5.11
  12   6   7   18.43    5.99
   6 -12   8    0.61    2.54
 -12  -6   8    9.14    5.86
  12   6  -8    6.21    4.82
 -12  -6   8   -2.73    3.67
  -6  12   8   -0.20    2.57
  -6  12  -8    1.12    2.26
  12   6   8    1.71    3.59
  12   6   8   -1.69    2.49
   6 -12   9   -0.28    3.36
 -12  -6   9    6.17    4.70
  12   6   9    4.27    6.49
 -12  -6   9   10.38    6.28
  -6  12  -9    7.06    6.54
  -6  12   9    2.70    2.23
  12   6  -9    1.52    2.59
  12   6   9   -0.19    1.82
  12   6  10    1.91    4.34
   6 -12  10   16.11    7.68
  12   6  10    6.65    4.77
 -12  -6  10    1.29    2.98
 -12  -6  10    1.34    2.44
  -6  12 -10    9.31    6.42
  -6  12  10   -6.22    4.60
  12   6 -10   -7.18    5.31
 -12  -6  11   -2.17    3.95
  -6  12 -11   10.31    6.48
   6 -12  11    0.97    3.17
  -7  12   0    2.27    1.80
  12   7   0    0.72    2.03
  12   7   0    1.76    2.79
  -7  12   0    3.70    3.97
  12   7   1   37.13    7.70
  12   7  -1   54.17    8.38
  12   7   1   54.80    9.45
  -7  12   1   51.00    7.37
  12   7  -1   46.96    8.65
  -7  12  -1   43.42    8.87
  -7  12   1   39.37    8.39
  12   7   1   36.97    6.27
  -7  12   1   51.70    8.26
  -7  12   2   44.70    8.11
  12   7   2   36.83    7.91
  12   7   2   44.42    8.79
  -7  12  -2   50.77    9.98
  12   7   2   56.87    8.15
  -7  12   2   55.33    9.84
  12   7  -2   56.46    9.76
  -7  12   3   51.07    9.05
 -12  -7   3   37.99    7.80
  12   7   3   29.40    5.94
  12   7   3   40.31    8.88
  12   7   3   40.73    8.28
  -7  12  -3   46.22   10.05
  12   7  -3   35.91    8.80
  -7  12   3   40.80    8.68
  12   7  -4  149.16   16.96
  12   7   4  162.36   18.15
  -7  12  -4  138.37   17.06
 -12  -7   4  156.28   15.59
 -12  -7   4  153.77   16.10
  12   7   4  164.10   16.20
  -7  12   4  148.98   16.39
  -7  12   4  160.85   16.48
  12   7   4  177.79   15.23
  12   7   5  191.68   17.03
  12   7  -5  195.98   19.89
  12   7   5  192.72   17.68
  12   7   5  173.73   19.65
 -12  -7   5  203.44   18.86
  -7  12  -5  186.25   20.40
   7 -12   5  176.73   17.68
  -7  12   5  177.89   18.13
  -7  12   5  170.57   17.84
  -7  12   6  155.41   18.02
  12   7  -6  129.93   16.73
  12   7   6  152.27   16.28
 -12  -7   6  128.53   15.71
  12   7   6  131.80   17.87
   7 -12   6  145.28   16.90
  12   7   6  166.81   16.44
  -7  12  -6  142.79   18.60
 -12  -7   6  173.89   18.65
  -7  12   6  169.27   18.30
  12   7  -7  106.03   15.52
  12   7   7   84.58   14.86
  -7  12   7   85.71   14.11
  -7  12  -7   84.00   14.96
   7 -12   7   89.74   13.90
  12   7   7   80.50   12.45
 -12  -7   7   91.67   14.05
 -12  -7   7   97.44   14.72
   7 -12   8   45.21   10.46
  -7  12   8   46.53   11.01
  12   7  -8   54.17   11.38
  12   7   8   56.52   11.06
  12   7   8   59.62   13.64
 -12  -7   8   56.11   12.23
  -7  12  -8   60.99   13.23
 -12  -7   8   53.03   11.53
   7 -12   9   19.85    7.02
  12   7  -9   37.81   10.12
 -12  -7   9   39.89   10.52
  12   7   9   51.09   11.99
 -12  -7   9   33.11    9.22
  -7  12  -9   36.78   11.03
  -7  12   9   36.11   10.13
   7 -12  10   10.16    5.91
 -12  -7  10    7.72    5.03
  12   7  10    6.18    6.53
  12   7 -10   16.01    7.07
   7 -12  10    6.47    5.29
  -7  12 -10    4.86    4.73
  -7  12  10   18.59    7.88
  12   7  10   10.83    6.01
   7 -12  11   12.51    7.72
  12   7  11    9.13    4.92
 -12  -7  11    0.36    3.45
  -7  12 -11    1.00    3.38
  12   8   0  317.32   23.55
  -8  12   0  269.88   16.80
  12   8   0  356.46   22.69
  -8  12   0  266.47   22.25
  -8  12   0  264.42   18.69
  12   8  -1  206.07   19.39
  12   8   1  203.59   19.07
  12   8  -1  225.08   17.23
  -8  12  -1  185.75   18.65
  -8  12   1  214.97   15.84
  -8  12   1  181.43   18.16
  12   8   1  217.92   16.11
  -8  12   1  203.57   16.46
  12   8  -2  223.19   20.39
  12   8   2  231.26   19.92
 -12  -8   2  243.75   19.16
  -8  12   2  207.15   16.72
  12   8   2  235.26   20.55
  -8  12  -2  188.52   19.14
  -8  12   2  178.45   18.16
  12   8   2  228.79   16.88
  -8  12   2  211.63   17.57
 -12  -8   3   96.16   12.39
  -8  12   3   87.13   11.62
  12   8   3   78.11   12.36
  12   8  -3   81.08   12.76
  12   8   3   77.92   11.74
  -8  12  -3   84.46   12.98
  12   8   3   88.94   10.82
  -8  12   3   82.18   11.30
  -8  12   3   68.89   11.31
 -12  -8   4   44.97    8.80
  12   8   4   33.60    7.21
  -8  12   4   52.16    9.51
  12   8  -4   48.91   10.31
  12   8   4   40.97    9.44
  12   8   4   43.35    9.34
  -8  12  -4   43.73    9.82
 -12  -8   4   38.31    8.03
  -8  12   4   41.12    8.79
  -8  12   5    5.59    3.42
  12   8  -5   11.56    6.32
 -12  -8   5   17.35    5.89
  -8  12   5   10.13    4.53
  12   8   5   16.33    6.81
  12   8   5   18.09    6.58
  -8  12  -5   15.46    6.29
  12   8   5   16.40    5.36
 -12  -8   5   16.47    5.74
   8 -12   5   17.15    5.71
  -8  12   6    6.16    4.32
  12   8  -6    1.77    2.45
 -12  -8   6    6.57    3.64
   8 -12   6    4.79    3.87
 -12  -8   6    7.33    4.60
  12   8   6    2.97    5.63
  -8  12   6   -1.37    3.05
  12   8   6    0.00    3.11
  12   8   6    9.18    5.97
  -8  12  -6    4.00    2.73
 -12  -8   7   16.04    6.57
  12   8   7    2.95    2.48
  12   8  -7    9.80    5.71
  -8  12   7   10.32    6.04
  12   8   7    6.41    3.67
  -8  12  -7   24.96    9.02
   8 -12   7    9.50    4.85
   8 -12   8   16.02    7.10
  12   8  -8   12.00    5.72
  12   8   8   26.56    9.44
  -8  12  -8   18.61    7.54
  -8  12   8   10.96    6.06
  12   8   8   13.09    5.24
 -12  -8   8   11.42    4.95
   8 -12   9    1.65    2.44
 -12  -8   9   12.56    6.44
  12   8  -9    8.07    5.55
  12   8   9   12.04    7.59
  -8  12  -9    9.69    5.31
  -8  12   9   14.65    6.69
  12   8   9   13.78    6.62
 -12  -8   9    6.88    4.25
   8 -12  10   35.86   10.22
   8 -12  10   32.89    9.63
 -12  -8  10   33.93   10.17
  12   8  10   23.87    9.39
  -8  12 -10   27.63    9.02
 -12  -8  10   25.87    9.25
  12   8 -10   33.05    9.65
  -8  12  10   20.63    7.60
  12   8  10   33.45    9.88
  12   8  11   28.61    9.86
   8 -12  11   13.21    6.84
   8 -12  11   25.12    8.83
  -8  12 -11   20.96    8.42
  -9  12   0   -1.33    1.63
  12   9   0    1.10    3.27
  12   9   0   -2.66    2.76
  -9  12   0   -0.66    2.01
  -9  12   0    2.46    2.29
  -9  12   1   36.31    6.93
  -9  12   1   34.70    6.55
  12   9  -1   37.44    9.12
  12   9   1   36.53    7.94
  12   9   1   50.77    9.72
  -9  12  -1   43.98    9.26
  -9  12   1   41.37    9.05
  12   9   1   44.11    7.78
  12   9   2   41.19    7.52
  -9  12   2   44.41    7.70
  12   9   2   38.25    8.21
  12   9  -2   38.50    8.93
  12   9   2   43.78    9.21
  -9  12   2   41.03    7.76
  -9  12  -2   39.68    8.99
  -9  12   2   22.09    6.12
  12   9  -3  157.08   18.05
  12   9   3  165.30   18.29
  -9  12  -3  136.16   16.82
  12   9   3  159.10   17.31
  -9  12   3  167.89   17.92
  12   9   3  160.90   15.30
  -9  12   3  154.11   15.23
  12   9   4  162.16   17.54
  12   9  -4  142.24   17.46
  12   9   4  155.65   18.55
  -9  12  -4  152.72   18.32
  -9  12   4  158.56   17.86
  12   9   4  163.27   15.96
  -9  12   4  179.64   17.35
 -12  -9   4  171.39   17.37
  12   9  -5  114.98   16.05
  12   9   5   96.14   16.05
  12   9   5  131.52   16.09
  -9  12  -5  141.01   18.16
 -12  -9   5  118.56   14.62
 -12  -9   5  114.01   14.83
  -9  12   5  138.95   17.02
  12   9   5  119.28   14.44
   9 -12   5  126.42   14.73
  -9  12   6   49.47   10.38
  12   9  -6   51.39   11.01
  -9  12   6   62.01   11.50
  12   9   6   36.13   10.60
  12   9   6   56.23   10.68
   9 -12   6   79.07   12.46
  -9  12  -6   67.94   12.84
  12   9   6   53.90   10.92
 -12  -9   6   35.42    8.60
  12   9  -7   47.39   11.41
 -12  -9   7   30.27    8.47
 -12  -9   7   36.40    9.19
  12   9   7   51.02   11.93
  12   9   7   32.44    8.80
  -9  12   7   43.39   10.74
  -9  12  -7   46.57   11.24
   9 -12   7   47.18   10.00
 -12  -9   8   46.77   11.18
  12   9  -8   51.68   11.53
  12   9   8   59.36   13.58
   9 -12   8   76.36   13.34
  12   9   8   54.80   11.31
  -9  12  -8   68.99   14.19
  -9  12   8   64.88   12.91
 -12  -9   9   24.91    8.84
   9 -12   9   12.53    6.73
  12   9  -9   15.57    7.33
  12   9   9   26.06    9.69
  -9  12  -9    6.09    3.00
  12   9   9   20.54    7.75
  -9  12   9   17.45    7.30
   9 -12  10   13.44    6.80
  12   9 -10   10.33    6.14
   9 -12  10    9.33    5.19
  -9  12 -10   17.29    7.69
  12   9  10    5.70    4.50
  -9  12  10    6.91    4.75
 -12  -9  10   11.98    6.39
   9 -12  11    2.84    4.39
  12   9  11    1.89    4.53
  12  10   0  137.64   16.91
 -10  12   0  141.40   16.83
 -10  12   0  143.01   13.40
 -10  12   1  234.82   18.22
  12  10  -1  187.26   19.41
  12  10   1  196.34   19.86
  12  10   1  202.68   19.06
  12  10   1  192.81   16.79
 -10  12  -1  187.75   19.67
 -10  12   1  193.89   19.71
 -10  12   1  193.81   15.91
  12  10  -2  149.59   17.78
  12  10   2  142.39   16.89
 -10  12   2  129.56   14.08
  12  10   2  181.63   18.98
 -10  12  -2  120.86   16.05
 -10  12   2  152.85   17.66
  12  10   2  136.97   14.24
 -10  12   2  138.04   13.71
  12  10   3   57.49   11.11
  12  10   3   49.17    8.79
 -10  12   3   49.14    8.58
  12  10  -3   45.32    9.68
 -10  12  -3   50.56   10.71
 -10  12   3   41.21    9.52
  12  10   4   17.05    6.47
 -10  12   4   18.94    6.45
  12  10  -4   15.20    6.23
  12  10   4   15.52    6.11
 -10  12   4    7.35    3.49
 -10  12  -4    6.20    4.16
  12  10   4   22.48    6.29
 -10  12   4   10.23    4.80
 -10  12   5   -4.15    4.37
 -10  12   5    1.32    2.35
 -12 -10   5    2.87    2.97
  12  10   5    6.20    4.24
  12  10  -5    2.00    1.88
  12  10   5    8.20    4.25
 -10  12  -5    5.22    4.17
 -12 -10   5    3.32    3.06
  10 -12   6    6.52    2.75
 -12 -10   6    3.23    5.26
 -10  12   6    9.77    5.54
  12  10  -6    7.75    5.05
 -10  12  -6   15.64    6.04
  10 -12   7    9.42    4.93
 -12 -10   7    4.78    3.80
  12  10  -7   10.74    6.03
  12  10   7    9.91    5.52
 -10  12  -7   14.02    5.82
 -10  12   7    6.35    3.69
 -12 -10   7    4.07    3.45
  12  10  -8   18.77    7.10
  12  10   8   39.23   11.28
 -12 -10   8   18.60    7.56
  12  10   8   21.57    7.18
 -10  12  -8   15.50    6.10
 -10  12   8   14.83    7.14
  10 -12   8   21.26    7.06
 -12 -10   8   12.65    5.75
 -12 -10   9   27.59    8.84
  12  10  -9   36.84   10.09
  12  10   9   28.06    9.95
  10 -12   9   33.51    9.33
 -10  12  -9   26.16    9.40
  12  10   9   32.70    9.46
 -10  12   9   41.87   10.58
 -12 -10  10   26.08    9.28
  10 -12  10   28.40   10.05
 -10  12 -10   20.18    8.40
  12  10  10   23.39    8.65
 -10  12  10   25.99    9.19
 -11  12   0    1.33    1.76
  12  11   0   -0.92    2.11
 -11  12   0    6.57    4.97
 -11  12   0    2.45    2.38
 -11  12   1   -1.32    1.36
 -11  12   1    2.92    2.31
  12  11  -1   -3.52    4.46
  12  11   1   -1.71    3.89
 -11  12  -1    0.07    2.51
  12  11   1    2.41    2.72
 -11  12   1    1.29    3.84
  12  11  -2   11.52    6.02
 -11  12   2    5.34    3.14
  12  11   2   12.52    6.37
  12  11   2    6.03    5.05
 -11  12  -2    9.08    4.04
 -11  12   2   10.70    4.53
  12  11   2    0.27    1.78
 -11  12   3    3.67    3.01
  12  11   3   11.75    4.80
  12  11  -3    8.62    4.44
  12  11   3    0.91    2.06
 -11  12  -3    5.19    3.84
 -11  12   3    6.83    4.91
  12  11   4    2.21    3.00
 -12 -11   4    0.47    1.63
 -11  12   4    7.08    4.74
  12  11  -4   -1.05    2.45
 -11  12   4    4.41    3.33
  12  11   4    4.10    5.15
  12  11   4   10.28    6.28
 -11  12  -4   -2.25    3.27
 -11  12   4    4.64    4.20
 -11  12   5    5.11    4.49
  12  11   5    0.46    2.71
  12  11  -5    1.54    2.22
 -11  12   5    4.75    3.58
 -11  12   5    2.86    3.59
  12  11   5    5.56    3.23
 -11  12  -5    1.97    3.27
 -12 -11   5   -1.96    1.99
 -12 -11   6    2.72    3.44
  12  11  -6   -1.36    3.40
  12  11   6   -1.74    2.43
 -11  12   6    8.05    4.81
  12  11   6    4.08    4.71
 -11  12  -6   -1.64    2.44
 -12 -11   6    1.33    3.44
  11 -12   6    5.71    3.58
 -12 -11   7   12.31    6.40
  11 -12   7    4.82    3.95
  12  11  -7   -1.50    2.88
  12  11   7    5.81    4.02
 -11  12   7    1.03    3.69
 -11  12  -7    8.33    5.44
  12  11  -8    2.57    3.83
  12  11   8    9.46    6.10
 -11  12  -8    5.37    3.67
 -12 -11   8    1.41    4.02
 -11  12   8    8.69    5.10
  12  11  -9    0.21    2.90
  12  11   9    7.59    4.78
 -12 -11   9   -2.76    4.45
  12  11   9    1.89    3.13
 -11  12  -9    4.38    5.15
  11 -12  10   -2.36    2.59
  12  11  10    0.09    2.01
 -11  12  10    2.62    3.52
  12  12   0    3.02    3.21
 -12  12   0    1.51    1.24
 -12  12   1    1.36    2.26
  12  12  -1   -2.99    2.84
  12  12   1    0.70    4.58
 -12  12  -1    0.34    1.26
 -12  12  -1   -3.35    3.34
  12  12   1   -0.86    2.09
 -12  12   1    0.50    2.66
 -12  12   2    3.05    3.51
  12  12   2   -4.04    3.58
 -12  12  -2   -2.39    2.13
  12  12  -2    4.00    3.43
 -12  12   2   -4.86    4.16
 -12  12   2    4.03    4.28
  12  12   2    1.56    2.40
  12  12   3   -0.89    1.77
  12  12   3   -1.46    2.62
 -12  12   3   -1.47    3.26
 -12  12   3    1.28    2.19
  12  12   3    3.32    3.94
  12  12  -3   -2.80    3.57
 -12  12  -3    0.82    3.48
 -12  12   3    2.70    2.89
 -12  12   4   -1.17    1.12
  12  12   4    1.41    1.45
  12  12   4    1.82    3.87
  12  12  -4    0.89    2.75
 -12  12  -4    1.19    3.46
  12  12   4    4.88    4.79
 -12  12   4    1.57    4.02
 -12  12   4   -1.24    2.05
 -12  12   5   11.14    5.96
  12  12   5   20.51    6.99
  12  12  -5   10.45    4.96
 -12  12   5   26.38    6.88
  12  12   5   13.56    6.04
 -12  12  -5    9.64    5.50
 -12  12   6    7.22    4.22
  12  12   6    3.82    3.72
  12  12  -6    7.15    5.30
 -12  12   6    1.82    2.24
  12  12   6    3.27    2.63
 -12  12  -6   -1.42    2.12
 -12 -12   6    4.91    3.94
  12  12  -7    5.61    5.80
  12  12   7    5.20    3.70
 -12 -12   7    2.64    4.63
 -12  12   7    4.86    4.48
 -12  12  -7   -1.40    2.52
  12  12  -8   -0.16    2.34
  12  12   8   -0.59    2.69
 -12  12  -8    5.91    4.94
 -12  12   8    2.61    2.68
  12  12   9    3.29    6.52
  12  12  -9   -0.32    4.26
  12  12   9   -2.42    3.23
 -12  12  -9   -0.87    2.55
 -12 -12   9    2.73    5.57
 -12  12   9    1.89    4.19
 -12  12  10    8.91    6.43
  12  12  10    7.01    4.82
 -13  12   0    1.24    3.41
  12  13   0   10.15    6.85
 -13  12   0    3.56    4.21
  12  13  -1    3.44    5.30
 -13  12   1    4.46    4.41
  12  13   1    0.36    3.42
  12  13   1    8.01    4.24
 -13  12  -1    7.30    5.47
 -13  12   1    1.35    3.44
 -13  12   2    1.79    2.30
  12  13  -2   -3.59    2.43
 -13  12  -2    1.94    2.09
  12  13   2    8.27    5.52
 -13  12   2    6.28    4.78
  12  13   2    0.11    2.30
  12  13   3    7.42    4.07
 -13  12   3    8.19    3.39
  12  13  -3    7.71    6.06
  12  13   3    7.71    3.76
 -13  12  -3    2.43    3.87
 -13  12   3   11.64    6.45
 -13  12   4   -3.92    3.78
  12  13   4   -0.55    1.39
 -13  12   4   -0.70    2.54
  12  13  -4    4.92    4.10
 -13  12   4    2.20    2.83
  12  13   4    4.24    4.75
 -13  12  -4   -0.74    2.64
 -13  12   5    1.92    3.71
  12  13   5    2.43    3.52
  12  13   5    7.50    6.42
  12  13  -5   -1.00    3.70
 -13  12   5    1.21    2.00
  12  13   5    0.43    3.00
 -13  12  -5   -2.62    3.88
  12  13   6   -1.14    1.77
 -13  12   6    2.83    3.04
  12  13   6    5.70    6.82
  12  13  -6    3.83    3.86
 -13  12   6    2.43    2.68
 -13  12  -6    2.93    3.39
 -12 -13   6    6.58    3.45
 -13  12   7    7.98    7.32
  12  13   7   19.57    9.36
  12  13  -7    6.85    5.74
 -12 -13   7   -2.24    2.77
 -13  12  -7    2.26    2.99
 -13  12   7    4.76    4.50
 -13  12   8    9.70    5.64
  12  13   8    6.70    7.13
  12  13  -8   -2.05    5.22
  12  13   8    6.18    5.31
 -12 -13   8    5.91    5.02
 -13  12  -8    8.77    6.03
 -12 -13   9    2.21    3.86
  12  13  -9   -5.70    4.70
  13 -12   9    7.94    4.58
 -13  12  -9    7.52    5.85
  12  13   9    4.92    4.63
  11  13   0   92.55   15.07
 -13  11   0   90.23   14.27
 -13  11   1  105.59   13.81
  11  13   1  126.89   17.42
  11  13  -1   99.62   15.49
 -13  11  -1  116.47   16.14
 -13  11   1  110.25   15.56
  11  13   1   96.43   13.61
 -13  11   1   88.62    9.67
 -13  11   2  100.83   13.91
  11  13  -2  128.08   17.84
  11  13   2  105.59   16.30
  11  13   2  122.72   15.39
 -13  11  -2   96.49   14.48
 -13  11   2  101.27   10.68
 -13  11   2  100.74   15.00
  11  13   3   14.65    5.54
 -13  11   3   19.65    6.51
 -13  11   3   10.24    3.75
  11  13  -3   16.73    6.72
  11  13   3   25.38    7.93
 -13  11  -3   11.65    4.86
 -13  11   3   19.35    7.55
 -13  11   4    0.30    3.48
  11  13   4    5.28    3.48
  11  13  -4    4.15    4.06
 -13  11   4    3.85    3.25
  11  13   4    0.54    4.31
 -13  11  -4    1.15    2.88
 -13  11   5   -1.00    3.42
  11  13   5    1.24    2.99
  11  13   5    7.03    7.48
  11  13  -5    2.63    3.62
 -13  11   5   -1.74    1.28
  11  13   5    1.03    4.22
 -13  11   5    5.67    3.98
 -13  11  -5    2.89    4.47
 -13  11   6    2.65    6.17
  11  13   6    5.86    5.66
  11  13  -6    2.42    3.78
 -13  11  -6   -0.35    2.67
 -13  11   6    1.16    1.76
  11  13   6    1.96    2.76
 -11 -13   6   -0.86    2.18
 -11 -13   7   -0.19    3.00
 -13  11   7    4.34    2.42
  11  13   7   -0.48    4.20
  11  13  -7    3.21    3.07
 -13  11  -7    1.95    1.91
 -13  11   7   -1.80    2.88
  11  13   8   10.92    6.92
 -11 -13   8   11.74    6.80
  11  13  -8    5.05    3.99
  11  13   8   13.68    6.71
 -13  11  -8    9.62    5.87
 -13  11   8   20.94    7.64
 -13  11   9    7.41    5.74
 -11 -13   9    8.67    5.71
  13 -11   9   17.15    8.52
  11  13   9   17.68    8.64
  11  13  -9   22.23    7.93
  11  13   9   13.86    6.13
 -13  10   0    1.21    1.88
 -13  10   0   -0.99    2.77
 -13  10   1    2.54    1.78
 -13  10   1    2.53    3.00
  10  13  -1    3.56    4.05
  10  13   1    4.19    2.59
  10  13   1    2.72    3.38
  10  13   1    0.00    2.17
 -13  10  -1    6.13    4.42
 -13  10   1    0.26    2.43
 -13  10   2    2.63    4.03
 -13  10   2    6.33    2.71
  10  13  -2    8.74    4.73
  10  13   2    9.05    4.34
 -13  10  -2   11.02    4.84
  10  13   2    7.65    4.09
 -13  10   2    7.89    4.38
  10  13   3   21.04    6.37
 -13  10   3   19.23    6.87
  10  13  -3    6.15    4.91
 -13  10   3   13.08    4.16
  10  13   3   17.77    6.98
 -13  10  -3   20.88    7.19
 -13  10   3   28.89    8.84
 -13  10   4    9.04    5.10
  10  13   4   15.45    6.58
  10  13  -4   11.83    5.39
 -13  10   4   11.82    3.97
  10  13   4    8.95    5.66
 -13  10  -4    8.13    4.42
 -13  10   5    9.31    5.68
 -13  10   5   -0.47    2.33
  10  13   5    0.80    2.14
  10  13  -5    5.79    3.08
 -13  10   5    6.27    3.76
  10  13   5    4.90    3.36
 -13  10  -5    1.43    4.12
  10  13   6   14.22    6.88
 -13  10   6   10.18    7.81
  10  13  -6    8.52    5.45
 -13  10  -6   12.12    5.52
 -13  10   6    8.19    3.78
 -10 -13   6    7.19    4.35
 -13  10   7   17.27    8.17
  10  13   7    4.76    4.30
  10  13  -7   14.99    6.65
 -10 -13   7    5.13    5.37
 -13  10  -7   10.63    4.89
 -13  10   7    5.63    3.80
  10  13   7    0.05    1.84
 -10 -13   8    9.13    4.99
  10  13   8   10.66    6.53
  10  13  -8    5.56    4.79
  10  13   8    1.95    1.93
 -13  10  -8    4.26    4.28
 -13  10   8   10.62    5.83
 -13  10   9    5.32    4.15
  13 -10   9    2.74    2.66
  10  13   9    4.63    4.30
 -10 -13   9   -1.57    2.86
 -13  10  10    4.35    3.44
   9  13   0  529.52   34.06
 -13   9   0  545.29   32.84
 -13   9   0  524.29   19.37
   9  13  -1  540.10   34.69
 -13   9   1  555.37   31.86
   9  13   1  608.07   27.32
 -13   9  -1  566.21   33.46
   9  13   1  592.97   33.05
 -13   9   1  573.52   34.09
 -13   9  -1  593.77   20.62
   9  13   1  585.58   35.92
 -13   9   1  623.42   22.45
 -13   9   2  489.60   21.44
   9  13  -2  480.71   32.61
 -13   9   2  433.50   28.51
   9  13   2  492.66   33.34
   9  13   2  499.28   21.99
 -13   9  -2  465.30   30.17
   9  13   2  489.39   30.42
 -13   9   2  447.10   30.38
 -13   9   3  244.19   16.52
   9  13  -3  239.77   23.12
 -13   9   3  220.44   21.27
   9  13   3  216.23   22.27
 -13   9  -3  235.04   21.89
   9  13   3  230.43   21.29
 -13   9   3  231.22   22.34
 -13   9   4   97.81   14.97
   9  13  -4  105.58   15.57
 -13   9   4  110.63   12.06
 -13   9  -4  103.71   14.57
   9  13   4  102.56   15.73
   9  13   4  115.76   15.45
   9  13   5   35.58    8.88
 -13   9   5   53.77   11.99
   9  13  -5   39.00    9.56
   9  13   5   27.30    8.36
 -13   9  -5   49.99   10.41
 -13   9   5   42.58    8.12
  -9 -13   6    5.97    3.72
   9  13  -6    9.32    4.96
 -13   9   6    5.60    4.98
 -13   9  -6    5.82    4.22
   9  13   6    5.16    4.04
 -13   9   7    9.78    4.83
   9  13   7    9.12    5.04
  -9 -13   7    9.07    5.55
 -13   9  -7    8.98    4.44
   9  13  -7    7.27    4.48
 -13   9   7   14.70    5.85
 -13   9   8   22.28    7.28
   9  13  -8   28.92    9.46
  13  -9   8   30.52    9.75
   9  13   8   22.13    7.97
 -13   9  -8   17.66    6.80
  13  -9   9   47.93   12.37
   9  13   9   40.35   11.31
  -9 -13   9   60.56   13.94
 -13   9  10   48.79   11.92
   9  13  10   59.13   13.88
 -13   8   0   -0.27    0.85
   8  13   0    0.19    2.79
 -13   8   0    4.76    3.81
 -13   8  -1   20.08    3.38
 -13   8   1   25.66    7.09
 -13   8   1   19.55    3.69
   8  13  -1   14.92    5.89
   8  13   1   14.22    5.97
   8  13   1   19.97    5.07
   8  13   1   11.81    4.84
 -13   8  -1   17.32    6.15
 -13   8   1   24.08    7.11
   8  13  -2   15.50    6.87
 -13   8   2    5.71    2.41
   8  13   2    7.90    3.35
   8  13   2    5.36    4.34
 -13   8  -2    7.00    4.14
 -13   8   2    7.69    4.48
   8  13   2    7.64    3.87
 -13   8   2    6.15    3.70
 -13   8   3   21.75    7.14
   8  13   3   25.84    7.45
 -13   8   3   28.76    7.83
   8  13  -3   19.87    7.68
   8  13   3   16.59    6.42
 -13   8   3   24.76    5.06
 -13   8  -3   28.15    7.33
 -13   8   4   30.47    8.30
   8  13   4   26.51    7.09
   8  13  -4   43.61    9.79
   8  13   4   40.92    9.63
 -13   8   4   27.81    5.93
 -13   8  -4   23.64    6.89
  -8 -13   5   35.63    9.15
   8  13   5   27.12    7.94
 -13   8   5   47.13   11.25
   8  13  -5   35.41    9.00
 -13   8  -5   55.17   10.81
  -8 -13   6   31.44    8.86
   8  13  -6   16.88    6.04
   8  13   6   29.45    8.41
 -13   8   6   40.39   11.21
 -13   8  -6   30.53    8.13
 -13   8   6   35.69    8.37
 -13   8   7    4.26    3.19
  -8 -13   7   -2.58    1.93
 -13   8   7    1.27    2.84
   8  13   7    1.87    2.99
   8  13  -7    4.22    4.46
  13  -8   7    6.93    4.87
 -13   8  -7    9.66    4.43
 -13   8   8    2.28    1.63
 -13   8   8   -1.17    2.13
  13  -8   8    4.29    5.10
   8  13  -8    4.19    4.55
   8  13   8    2.10    2.13
 -13   8  -8    1.13    3.29
  -8 -13   8   10.27    6.22
 -13   8   9    0.37    1.94
 -13   8   9    3.70    4.95
   8  13   9    7.32    5.79
  -8 -13   9   -5.61    5.37
  13  -8  10    4.95    6.33
   8  13  10   -5.60    4.61
   7  13   0  131.15   16.43
   7  13   0  123.48   13.24
 -13   7   0  127.88   15.28
 -13   7   0  132.33    7.10
 -13   7   1  131.31    8.24
 -13   7   1   97.52   12.95
   7  13   1  118.28   16.11
   7  13   1  127.43   12.28
   7  13  -1  111.99   15.34
 -13   7  -1  113.22   13.84
 -13   7   1  132.19   15.53
 -13   7  -1  119.11    6.62
 -13   7   2  126.06    9.44
   7  13  -2   97.42   14.62
   7  13   2  106.81   10.25
   7  13   2   93.88   14.08
 -13   7  -2  117.15   14.21
   7  13   2   90.03   12.80
 -13   7   2  132.04   15.81
 -13   7   2  106.52   13.87
 -13   7   3   94.00    9.33
 -13   7   3  102.67   14.31
   7  13   3   79.38    7.61
 -13   7  -3   90.83   12.72
   7  13   3   98.42   14.62
   7  13  -3  113.46   15.46
   7  13   3   84.51   12.97
 -13   7   3   95.30   13.91
   7  13   4   40.55    8.94
   7  13  -4   59.37   11.61
   7  13   4   64.45   12.11
 -13   7  -4   55.77    9.91
 -13   7   5    6.73    4.40
   7  13   5    8.15    5.02
   7  13  -5    4.76    4.07
  -7 -13   5    3.41    3.35
 -13   7  -5    9.22    5.62
 -13   7   5    1.05    1.68
 -13   7   6    4.89    3.05
 -13   7   6    3.68    3.37
   7  13  -6    1.43    4.63
   7  13   6   -1.65    2.83
  -7 -13   6    0.97    2.39
 -13   7  -6    0.69    2.92
 -13   7   7    7.04    5.41
  -7 -13   7   11.21    5.93
 -13   7   7    1.10    1.50
   7  13  -7   10.97    5.79
 -13   7   7    8.69    6.14
   7  13   7    7.65    5.25
  13  -7   7    9.23    6.60
 -13   7  -7   12.35    4.66
 -13   7   8   26.79    8.40
 -13   7   8   19.76    6.45
   7  13  -8   19.67    7.03
   7  13   8   19.37    7.19
  13  -7   8    5.81    4.39
  -7 -13   8   12.63    6.29
 -13   7   9   16.92    6.48
  -7 -13   9   28.84    9.42
   7  13   9   31.37    9.73
  13  -7  10   16.83    7.32
   7  13  10   23.28    8.87
   6  13   0    2.80    2.93
   6  13   0   -0.67    3.09
 -13   6   0   -0.02    2.55
 -13   6   1    3.52    3.93
   6  13  -1    0.45    2.55
   6  13   1    8.34    3.45
   6  13   1    2.43    3.31
 -13   6   1    2.76    1.19
 -13   6  -1    6.65    4.55
 -13   6   1    0.96    2.07
 -13   6   2   10.26    4.34
 -13   6   2    3.00    2.00
   6  13  -2   11.91    5.15
   6  13   2   14.80    6.33
   6  13   2    6.50    2.67
 -13   6   2   13.13    2.96
 -13   6  -2   13.07    5.27
   6  13   2   14.02    4.69
   6  13   3    5.31    4.27
 -13   6   3    5.31    3.49
   6  13  -3    9.31    5.38
   6  13   3    4.79    4.27
   6  13   3    4.99    2.19
 -13   6  -3    3.61    3.37
 -13   6   3    3.96    1.83
 -13   6   3    3.25    2.69
  13  -6   4   -0.40    1.00
   6  13   4   -0.23    1.66
  13  -6   4    0.10    1.04
   6  13  -4   -3.78    3.83
 -13   6  -4    3.34    2.70
 -13   6   4   -0.33    0.81
 -13   6   5    2.58    1.83
   6  13   5    6.55    4.48
   6  13  -5    4.79    3.67
 -13   6  -5    3.64    3.45
  -6 -13   5   -0.33    1.80
   6  13   6    9.52    4.58
   6  13  -6   12.91    5.29
  13  -6   6   22.68    7.44
 -13   6   6   14.67    5.78
  -6 -13   6   12.39    6.32
 -13   6  -6   12.00    4.93
 -13   6   6   13.42    6.52
  -6 -13   7    3.51    4.37
 -13   6   7    8.17    4.04
 -13   6   7    9.65    6.25
   6  13   7    5.26    4.58
   6  13  -7   -1.17    2.40
 -13   6  -7    4.14    3.21
 -13   6   8    1.08    2.63
   6  13   8    1.73    2.39
   6  13  -8    4.61    4.46
  13  -6   8    6.09    4.38
  -6 -13   8    3.58    3.71
  -6 -13   9    4.08    3.70
   6  13   9    3.77    3.19
 -13   6  10   -0.38    2.90
  -6 -13  10    8.81    6.76
  13  -6  10   14.97    6.31
   6  13  10   15.41    7.34
 -13   6  11   -0.96    4.60
   5  13   0   32.40    6.80
   5  13   0   17.88    6.47
 -13   5   0   22.11    6.25
 -13   5   1    7.92    1.47
 -13   5   1   13.37    4.88
   5  13  -1   13.08    5.76
   5  13  -1   16.00    6.69
   5  13   1   14.20    4.51
   5  13   1    6.56    4.52
 -13   5  -1    4.52    2.62
 -13   5   1   12.71    4.92
 -13   5   2    4.72    2.37
 -13   5   2    6.69    4.17
 -13   5   2    3.92    1.69
   5  13  -2    1.92    3.61
   5  13   2    7.01    5.14
   5  13   2    2.68    2.72
 -13   5  -2    4.50    3.57
   5  13   2    4.11    3.12
   5  13   3   16.52    6.04
   5  13  -3    8.81    4.86
   5  13   3    4.33    3.01
 -13   5   3   10.58    5.07
   5  13   3   11.08    3.34
 -13   5  -3   14.71    5.20
 -13   5   4    2.95    3.07
   5  13   4    1.04    1.48
  13  -5   4    1.07    1.35
  13  -5   4    1.93    1.33
   5  13  -4    3.79    5.36
 -13   5  -4    4.54    3.37
   5  13   4   -0.01    1.37
 -13   5   5    2.92    2.51
   5  13   5    0.14    2.09
 -13   5   5   -1.89    2.43
   5  13  -5   -4.03    3.81
 -13   5   5    0.49    3.12
  13  -5   5   -2.77    3.32
  -5 -13   5    5.19    4.93
  13  -5   5   -0.07    1.07
 -13   5  -5    0.06    2.52
 -13   5   6    1.53    1.21
 -13   5   6    3.08    5.37
  -5 -13   6    0.30    1.54
   5  13  -6    4.96    3.66
  13  -5   6   -0.08    2.00
   5  13   6    1.83    3.16
 -13   5  -6   -0.44    1.73
 -13   5   7   -1.48    4.05
 -13   5   7    0.78    1.74
   5  13   7   -0.59    2.61
   5  13  -7    1.40    3.75
  13  -5   7    3.93    3.26
 -13   5  -7    0.50    1.89
  -5 -13   7    0.09    2.97
 -13   5   8   -1.87    2.08
   5  13   8   -0.20    1.69
  13  -5   8    1.37    3.51
  -5 -13   8    2.73    3.41
  -5 -13   9    4.36    3.33
  13  -5   9    6.50    4.63
   5  13   9    3.79    4.52
  -5 -13  10    0.25    2.19
 -13   5  10   -0.04    3.97
   5  13  10    0.83    2.41
 -13   5  11   20.44    8.59
   4  13   0    0.39    0.59
   4  13   0    0.94    2.23
   4  13   0    1.39    2.55
 -13   4   0    3.28    2.96
 -13   4   1   24.96    7.27
   4  13  -1   30.68    7.30
   4  13  -1   24.46    6.26
   4  13   1   24.37    5.59
 -13   4   1   26.38    7.40
   4  13   1   24.00    6.82
 -13   4  -1   38.68    8.13
 -13   4   2   37.35    8.18
 -13   4   2   30.03    7.70
 -13   4   2   22.69    3.32
   4  13  -2   37.56    8.65
   4  13   2   29.15    5.76
   4  13   2   16.83    5.31
 -13   4  -2   24.48    5.89
   4  13  -2   19.82    6.65
   4  13   3   20.40    5.84
  13  -4   3   36.38    6.19
 -13   4   3   26.60    6.88
 -13   4   3   38.43    5.44
   4  13  -3   16.81    6.20
  13  -4   3   39.78    4.20
   4  13   3   33.72    5.70
 -13   4  -3   33.29    6.94
  13  -4   4  123.07   10.28
  13  -4   4  123.58    9.47
 -13   4   4  112.95   13.52
   4  13  -4  125.40   15.11
  13  -4   4  124.43   15.32
 -13   4  -4  118.89   13.07
   4  13   4  141.25   10.82
   4  13   4   97.27   13.85
  13  -4   5   91.40   13.71
 -13   4  -5   96.25   11.83
 -13   4   5   80.65   13.51
  -4 -13   5  111.45   15.43
   4  13  -5  103.86   13.95
   4  13   5   92.00   14.06
  13  -4   5   97.98    9.83
 -13   4   6   57.13   10.97
 -13   4   6   59.54    9.66
   4  13   6   72.29   12.80
  -4 -13   6   74.96   13.37
 -13   4   6   57.36   12.28
  13  -4   6   55.51   11.66
   4  13  -6   53.20   10.05
 -13   4  -6   56.63    9.34
  13  -4   6   58.26    8.49
 -13   4   7   15.20    6.40
 -13   4   7   35.32    9.83
  13  -4   7   17.57    7.10
   4  13  -7   32.11    8.94
   4  13   7   35.08    9.55
  -4 -13   7   34.47    9.78
   4  13   8   20.92    7.66
  -4 -13   8   21.65    7.92
  13  -4   8   17.20    6.90
 -13   4   8   26.76    8.10
  -4 -13   9   32.28   10.08
 -13   4   9   17.82    7.01
 -13   4   9   18.79    6.78
   4  13   9   37.23   11.11
  13  -4  10   17.39    9.08
 -13   4  10    5.92    4.13
  -4 -13  10    7.71    5.17
   4  13  10   11.74    6.92
 -13   4  10   10.92    7.18
 -13   4  11    1.84    2.61
   3  13   0   14.69    4.88
   3  13   0   15.49    6.00
 -13   3   0   15.04    4.75
 -13   3   1   38.41    7.54
 -13   3   1   49.06    9.00
   3  13  -1   51.27    8.69
   3  13  -1   49.95    9.95
   3  13   1   54.63    8.19
   3  13   1   65.04   11.22
 -13   3  -1   48.16    8.16
  13  -3   2   75.74    9.36
   3  13   2   81.44    9.34
   3  13  -2   77.85   11.67
   3  13  -2   69.25   10.67
 -13   3   2   78.33    5.87
 -13   3  -2   80.22   10.44
  13  -3  -2   70.91    5.59
   3  13   2   70.42   10.96
   3  13   3   62.02   10.89
  13  -3   3   66.54    8.26
 -13   3   3   64.27    9.26
  13  -3   3   65.20    5.08
 -13   3   3   77.27   12.25
  13  -3   3   65.87   10.69
 -13   3  -3   78.40   10.04
 -13   3   3   58.71    6.57
   3  13  -3   79.58   12.24
   3  13   3   76.58    8.73
   3  13   4   18.55    6.04
  13  -3   4   19.03    3.70
  13  -3   4   16.06    3.79
  13  -3   4   22.36    6.81
 -13   3   4   21.59    4.86
   3  13  -4   23.91    7.27
 -13   3  -4   19.51    5.21
   3  13   4   16.32    3.93
   3  13   5    9.06    5.17
  -3 -13   5    7.07    4.32
 -13   3   5   13.73    6.75
 -13   3   5    5.73    3.06
  13  -3   5    8.37    3.38
   3  13  -5   12.50    5.10
 -13   3  -5    5.68    3.48
  -3 -13   6    5.22    3.98
 -13   3   6   -2.28    2.26
   3  13   6    5.18    4.33
 -13   3   6   -0.42    1.25
   3  13  -6    5.06    4.06
 -13   3  -6    0.87    1.38
  13  -3   6   -0.77    1.06
 -13   3   7    1.24    3.02
 -13   3   7    3.14    4.40
 -13   3   7   -1.37    1.24
   3  13   7   -0.03    4.35
   3  13  -7    1.41    3.52
  -3 -13   7   -0.56    2.23
  13  -3   7   -0.68    1.55
 -13   3   8   16.82    6.27
 -13   3   8    7.87    5.67
  -3 -13   8   14.13    6.39
   3  13   8   12.42    6.20
  13  -3   8    3.39    3.03
 -13   3   9   18.44    7.48
  -3 -13   9   11.01    6.19
 -13   3   9    2.23    3.65
   3  13   9   11.38    6.18
  13  -3   9   20.95    8.27
  -3 -13  10    9.34    6.39
 -13   3  10   12.65    6.76
 -13   3  10   10.09    6.48
   3  13  10   11.31    5.56
  13  -3 -11   20.06    7.69
  13  -3  11   10.95    5.92
 -13   3  11    8.13    6.04
 -13   2   0    1.02    2.25
 -13   2   0    7.54    4.55
   2  13   0   -0.92    2.43
   2  13   0   -1.09    2.54
 -13   2   1   49.98    8.67
  13  -2   1   44.80    7.35
   2  13  -1   51.70    9.02
  13  -2   1   41.86    7.61
   2  13   1   47.09    8.06
   2  13  -1   56.89   10.02
   2  13   1   52.47    9.70
 -13   2  -1   37.73    7.05
  13  -2   2  139.79   12.78
 -13   2   2  143.70   15.77
   2  13  -2  124.43   14.81
  13  -2   2  139.43   14.89
   2  13  -2  140.43   15.49
   2  13   2  143.70   12.75
   2  13   2  132.83   15.09
 -13   2  -2  125.37   12.50
  13  -2  -2  123.77    7.34
 -13   2   2  140.32    7.85
  13  -2   3  320.09   18.13
   2  13  -3  329.28   23.93
   2  13  -3  321.52   24.65
   2  13   3  318.10   18.40
 -13   2   3  327.15   15.64
 -13   2  -3  314.86   19.44
   2  13   3  288.00   23.05
  13  -2   3  310.30   11.28
  13  -2   4  375.32   18.26
 -13   2   4  331.13   25.79
   2  13  -4  361.08   25.20
  13  -2   4  325.70   24.99
  13  -2  -4  363.61   15.32
 -13   2   4  388.66   19.89
 -13   2  -4  359.97   20.74
   2  13   4  335.20   18.52
  13  -2   4  370.17   16.14
   2  13   4  283.70   23.51
 -13   2   5  318.94   23.51
 -13   2   5  307.02   26.00
   2  13  -5  320.00   23.53
  13  -2   5  330.65   26.37
 -13   2   5  342.46   20.99
  13  -2   5  324.79   17.83
 -13   2  -5  339.03   20.16
  -2 -13   5  314.13   25.94
   2  13   5  313.46   17.57
   2  13   5  296.11   24.82
 -13   2   6  282.96   20.93
 -13   2   6  243.31   24.24
   2  13  -6  276.68   21.94
  13  -2   6  274.97   24.98
  -2 -13   6  312.26   26.71
  13  -2   6  286.35   18.81
 -13   2  -6  293.43   18.98
   2  13   6  264.81   24.59
   2  13  -7  277.82   22.17
  13  -2   7  233.49   23.78
  -2 -13   7  249.59   25.08
  13  -2   7  241.79   19.17
 -13   2   7  234.49   20.79
 -13   2   7  222.12   24.15
   2  13   7  245.47   24.67
   2  13   8  120.01   17.84
  -2 -13   8   97.31   16.15
  13  -2   8   95.31   16.20
 -13   2   8  100.72   14.67
  -2 -13   9   50.29   12.09
 -13   2   9   64.74   12.63
   2  13   9   55.54   12.63
  13  -2 -10   32.67    9.51
  -2 -13  10   27.37    9.47
 -13   2  10   41.29   10.77
   2  13  10   28.71    9.65
  13  -2 -11    3.55    3.78
 -13   2  11   14.74    7.24
 -13   1   0   59.54    9.00
  13  -1   0   47.83    7.95
   1  13   0   43.09    8.07
   1  13   0   30.12    7.45
 -13   1  -1    8.58    2.85
  13  -1   1   13.39    4.77
  13  -1  -1    7.97    4.01
  13  -1   1    8.04    3.60
   1  13  -1    8.47    4.29
   1  13  -1    4.21    2.82
   1  13   1   14.01    4.65
 -13   1   1    9.06    3.84
  13  -1   2   -0.35    1.68
  13  -1  -2    1.68    1.17
  13  -1   2   -1.88    2.82
  13  -1  -2    1.36    0.99
   1  13  -2    0.60    2.53
 -13   1   2    4.29    3.52
   1  13  -2    4.23    3.46
 -13   1   2    0.00    1.70
 -13   1   2    1.38    1.22
   1  13   2    0.27    1.63
  13  -1   2    0.94    0.89
   1  13   2    0.42    1.32
 -13   1  -2   -0.27    1.49
   1  13   3    5.08    3.47
 -13   1   3    0.40    1.21
  13  -1   3    2.75    2.76
 -13   1   3    1.22    1.55
  13  -1  -3    2.25    1.42
   1  13  -3    0.54    3.21
   1  13  -3   -0.15    2.57
  13  -1   3    0.28    1.02
   1  13   3    2.89    2.88
 -13   1  -3    0.59    2.22
   1  13   4    4.03    3.51
 -13   1   4    0.34    1.85
  13  -1   4    0.34    1.86
 -13   1   4    1.08    3.42
  13  -1  -4    0.65    1.25
  13  -1   4    1.36    3.12
  13  -1   4    1.15    1.83
   1  13  -4    4.65    5.07
   1  13  -4    4.42    3.73
 -13   1   4    1.07    1.46
   1  13   4    1.18    2.64
 -13   1  -4    1.72    2.37
  -1 -13   5    5.70    4.50
   1  13   5    2.50    2.88
   1  13  -5    5.91    4.97
  13  -1   5    4.55    4.87
  13  -1   5    0.78    1.87
   1  13  -5    4.81    4.26
 -13   1   5    1.28    1.20
 -13   1  -5    0.40    2.12
   1  13   5   -0.80    1.42
  -1 -13   6    1.82    2.01
   1  13   6    9.79    5.07
 -13   1   6    5.58    5.48
  13  -1   6    0.47    2.77
   1  13  -6    2.62    3.28
 -13   1   6    3.40    2.19
 -13   1   7    1.68    3.31
 -13   1   7   -0.61    3.51
   1  13   7    8.41    5.53
  13  -1   7    1.17    1.25
  13  -1   7    3.11    5.62
   1  13  -7    2.69    3.34
 -13   1   7    2.86    3.42
  -1 -13   7    2.91    3.57
  13  -1  -8   -5.92    4.17
 -13   1   8    2.09    4.99
  -1 -13   8    5.56    4.56
  13  -1   8    1.67    2.96
   1  13   8   10.64    6.13
 -13   1   8    0.83    1.84
 -13   1   8    4.68    4.87
  13  -1  -9    0.58    3.54
 -13   1   9    2.41    3.99
  -1 -13   9   -0.51    3.06
   1  13   9   -1.75    2.70
 -13   1   9    1.42    3.10
  13  -1 -10    0.16    2.15
  -1 -13  10   -4.97    4.20
 -13   1  10    0.89    4.88
  13  -1  10   -0.59    3.74
   1  13  10    3.88    2.48
 -13   1  10   -1.39    1.96
  13  -1 -11    0.12    2.16
 -13   1  11    7.44    5.54
  13  -1  11    7.67    6.78
  13   0   0   -1.50    1.98
   0  13   0    1.39    0.79
  13   0   0    5.20    2.93
   0  13   0    3.09    3.74
 -13   0  -1   18.47    4.84
  13   0  -1   17.33    5.05
  13   0   1   23.72    5.42
 -13   0   1   15.39    5.76
  13   0  -1   14.62    4.00
  13   0   1   17.68    4.90
   0  13  -1   11.53    3.86
   0  13   1   22.25    5.81
   0  13  -1   32.15    8.24
  13   0  -1   17.46    1.94
 -13   0  -2   34.11    6.19
  13   0  -2   30.86    3.97
  13   0  -2   44.48    8.66
  13   0   2   44.25    7.12
 -13   0   2   72.84    6.22
  13   0  -2   33.69    5.52
   0  13  -2   49.69    9.37
   0  13  -2   32.15    7.13
   0  13   2   51.93    8.16
 -13   0   2   44.01    8.46
   0  13   2   41.64    8.33
   0  13   3   71.77   11.51
  13   0  -3   83.64   12.48
  13   0   3   90.66    9.86
 -13   0   3   65.14    8.76
 -13   0   3   72.62   11.70
  13   0  -3   94.22    8.08
  13   0   3   99.14   13.05
   0  13  -3   98.80   13.89
   0  13   3   84.06   10.00
   0  13  -3   77.02   11.13
 -13   0  -3   79.23    8.75
  13   0   3   79.67    6.21
 -13   0   3  104.21    9.12
  13   0  -4  229.69   20.75
  13   0   4  217.04   14.56
 -13   0   4  218.92   20.98
  13   0   4  185.99   18.83
   0  13  -4  222.90   18.80
   0  13  -4  243.90   22.65
   0  13   4  226.18   16.35
 -13   0  -4  229.55   14.73
   0  13   4  194.27   19.10
 -13   0   4  234.27   15.48
  13   0  -5   81.83   13.24
   0 -13   5   85.30   13.30
  13   0   5   84.87    8.63
 -13   0   5   93.70   12.37
 -13   0   5   84.41   13.36
   0  13  -5   93.08   14.53
   0  13  -5   79.64   11.22
 -13   0  -5   84.74    8.80
 -13   0   5   74.79   10.06
   0  13   5   88.10   13.24
   0  13   5   80.49    9.74
  13   0  -6   56.71   11.30
   0 -13   6   55.77   11.52
 -13   0   6   38.93    8.68
   0  13   6   67.29   12.31
  13   0   6   58.67    8.60
  13   0   6   54.51   11.21
   0  13  -6   62.08   12.81
   0  13  -6   68.86   10.32
 -13   0   6   50.34    8.78
   0  13   6   79.00    9.99
  13   0  -7   48.74   10.80
  13   0   7   49.03    8.79
 -13   0   7   57.12   12.53
   0  13   7   57.53   12.01
   0  13  -7   49.06   11.43
   0 -13   7   58.16   12.09
 -13   0   7   40.31    8.75
  13   0  -8   46.90   10.70
   0  13  -8   34.91   10.36
  13   0   8   23.34    7.22
 -13   0   8   36.16   10.43
   0 -13   8   24.99    8.35
   0  13   8   47.78   11.54
 -13   0   8   28.12    8.00
  13   0  -9   15.69    6.29
   0  13  -9   23.89    8.71
   0 -13   9   24.51    8.67
  13   0   9   33.57   10.63
   0  13   9   18.59    8.15
 -13   0   9   19.09    7.08
  13   0 -10   10.32    4.84
   0 -13  10   11.63    6.60
 -13   0  10    3.40    4.61
  13   0  10    6.90    4.04
   0  13 -10    6.93    5.02
   0  13  10   10.69    6.14
 -13   0  10    3.57    3.25
  13   0 -11    0.80    4.10
 -13   0  11   -1.49    4.31
  13   1   0    0.43    3.04
  -1  13   0    0.61    0.53
  -1  13   0    3.81    2.90
  13   1  -1    2.99    2.27
  13   1  -1    4.58    3.77
  13   1   1    5.83    3.35
 -13  -1   1   11.26    4.64
  -1  13  -1    9.28    4.73
  -1  13   1    2.67    3.70
  -1  13   1    1.42    1.91
  13   1  -1    4.08    1.22
 -13  -1  -2    4.25    2.91
  13   1  -2    0.19    2.32
 -13  -1   2    0.03    0.94
  13   1   2    1.15    1.90
 -13  -1   2   -0.35    1.78
  -1  13  -2    2.97    3.16
  -1  13   2    1.26    1.80
  -1  13   2   -1.42    2.12
  13   1   2   -0.19    0.47
  13   1   3    6.04    2.24
 -13  -1  -3    8.31    3.03
  -1  13   3    2.49    3.75
  13   1  -3    5.41    3.72
  13   1  -3    4.44    2.01
  13   1   3    3.38    1.94
  -1  13  -3    6.82    4.80
 -13  -1   3    1.57    1.58
  -1  13  -3   -1.91    3.60
  -1  13   3    0.25    2.51
  13   1   4    0.32    0.99
  13   1  -4    7.45    4.59
  -1  13   4    4.40    3.68
 -13  -1   4    1.98    3.18
 -13  -1   4   -0.08    2.15
 -13  -1   4    0.05    2.02
  13   1   4    2.20    1.76
  13   1   4    6.08    4.45
  -1  13  -4    5.76    3.23
 -13  -1  -4    0.06    0.79
 -13  -1   5   13.98    4.17
  13   1   5   11.43    3.75
   1 -13   5    9.95    4.42
  13   1  -5   16.80    5.80
  -1  13   5   13.80    5.38
  13   1   5   13.12    5.71
  13   1   5   13.39    3.55
  -1  13  -5   13.85    5.66
  -1  13  -5   16.79    5.19
 -13  -1  -5   13.10    3.19
  -1  13   5   22.68    5.82
  -1  13   6    5.88    3.44
 -13  -1   6   -4.20    2.72
  13   1  -6    5.46    3.46
   1 -13   6    3.82    4.43
  13   1   6    0.57    2.06
 -13  -1   6    7.27    6.29
  -1  13  -6    3.97    3.15
  -1  13  -6    4.12    3.28
  -1  13   6   -0.64    2.37
  13   1  -7    5.83    4.71
  -1  13   7   -4.02    2.38
  -1  13  -7    1.69    3.87
 -13  -1   7    1.23    3.64
   1 -13   7    3.62    4.68
 -13  -1   7    1.54    2.99
  13   1  -8    2.10    3.22
 -13  -1   8    2.86    3.99
   1 -13   8    3.94    4.23
  13   1   8    4.51    4.75
  -1  13   8    1.46    3.63
  -1  13  -8    1.33    2.46
 -13  -1   8    0.27    2.36
  13   1  -9    2.86    4.56
   1 -13   9   -0.14    2.42
 -13  -1   9   10.77    7.03
  13   1   9    8.98    6.29
  -1  13   9    4.25    3.17
  -1  13  -9   14.70    7.24
 -13  -1   9    9.08    5.59
   1 -13  10    1.14    2.43
  13   1 -10    5.24    1.89
  -1  13  10   12.80    8.00
  13   1  10    3.94    3.41
  -1  13 -10   -3.43    3.17
 -13  -1  10    5.53    4.48
 -13  -1  11   -2.08    2.06
  13   1 -11   -2.83    2.59
  13   2   0   -3.90    2.74
  13   2   0   -0.48    0.63
  -2  13   0    0.89    2.99
  13   2   0    0.28    0.73
  13   2   1   29.24    3.18
  13   2  -1   32.83    7.33
  13   2   1   36.12    6.93
 -13  -2   1   41.05    8.88
  13   2  -1   31.76    3.82
  13   2  -1   40.49    6.57
  -2  13  -1   31.55    7.32
  -2  13   1   31.42    6.94
  -2  13   1   41.31    8.39
  13   2   1   29.11    3.13
  13   2   2   67.14    9.18
  13   2   2   68.08    5.61
  13   2  -2   81.68   11.59
  -2  13   2   73.01   10.48
  -2  13  -2   68.68   11.00
  -2  13   2   89.39   12.09
 -13  -2   2   76.92    7.35
  -2  13   3   61.88   10.36
  13   2   3   80.87    9.83
  13   2  -3   87.60   12.39
  13   2   3   81.16    7.28
  13   2  -3   82.93    7.28
  -2  13  -3   78.92   12.50
  -2  13   3   80.95   10.56
 -13  -2   3   75.85    8.31
 -13  -2   3   87.60   12.56
 -13  -2  -4    5.06    2.40
  13   2  -4   10.51    5.09
  -2  13   4    3.51    3.47
 -13  -2   4    4.12    4.15
  13   2   4    6.15    2.16
  -2  13  -4    8.36    5.29
  -2  13   4    6.01    3.04
  13   2  -5   51.06   10.57
   2 -13   5   48.68   10.10
  -2  13   5   51.29   10.50
  13   2   5   56.63    7.79
  -2  13  -5   58.14   11.76
 -13  -2   5   68.16    9.76
  13   2   5   56.18    7.83
  -2  13   5   53.44    8.70
  -2  13   6   49.96   10.63
  -2  13   6   48.73    8.65
  13   2  -6   52.70   10.64
 -13  -2   6   48.15    8.97
   2 -13   6   48.71   10.54
 -13  -2   6   61.00   11.86
  13   2   6   74.80   10.01
  13   2   6   63.49   12.07
  -2  13  -6   39.33    9.94
 -13  -2   7   17.34    6.35
  13   2  -7    8.90    5.00
 -13  -2   7   19.16    7.28
  -2  13  -7    6.71    4.69
   2 -13   7    3.26    3.33
  13   2  -8   10.33    5.20
  13   2   8   14.22    5.39
 -13  -2   8    5.98    6.00
   2 -13   8    0.71    3.95
  13   2   8    9.93    4.74
  -2  13   8    4.35    3.43
  -2  13  -8    6.42    4.60
  13   2  -9    1.76    3.56
  13   2   9    2.70    4.34
   2 -13   9    0.88    3.40
 -13  -2   9    0.56    2.80
  13   2   9   16.88    7.81
  -2  13  -9    7.75    6.10
  -2  13   9    9.57    5.91
   2 -13  10   -1.95    3.62
  13   2 -10    7.16    4.79
  -2  13 -10    9.71    8.40
  -2  13  10    9.88    5.45
 -13  -2  11    1.78    4.44
  13   2 -11   11.15    6.40
  -2  13 -11    9.28    7.40
  13   3   0  100.96   12.38
  13   3   0  100.08   11.04
  -3  13   0  134.55   14.81
  13   3   0  119.52    7.86
  13   3  -1  128.61   14.08
  13   3   1  127.36   13.37
 -13  -3   1  135.64    8.91
  -3  13   1  128.40    9.40
  -3  13  -1   98.92   13.24
  -3  13   1  119.16   13.71
  -3  13   1  113.56   13.30
  13   3   1  135.35    8.19
  13   3   1  122.73    7.87
  13   3   2   73.30   10.03
  13   3  -2   75.62   11.29
 -13  -3   2   59.83   10.12
  13   3  -2   85.10    8.62
  13   3   2   68.58   10.12
  -3  13   2   78.71   10.92
  -3  13  -2   76.85   11.77
  -3  13   2   70.48   10.52
  13   3   2   77.60    6.74
  -3  13   3   74.01   11.17
  13   3   3   62.34    6.78
  13   3  -3   59.82   10.09
  13   3  -3   62.86    6.59
  13   3   3   68.62    9.28
 -13  -3   3   63.06    7.88
  13   3   3   68.05   10.96
  -3  13  -3   73.96   12.70
  -3  13   3   83.93   11.16
  -3  13   4   59.87   10.54
  13   3  -4   50.22   10.05
  13   3   4   57.01    7.48
 -13  -3   4   54.57    8.13
  13   3   4   44.79    7.47
  13   3   4   48.42    9.84
  -3  13  -4   58.66   11.56
  -3  13   4   65.87    9.94
  13   3  -5   22.65    6.66
 -13  -3   5   22.86    6.96
   3 -13   5   44.39    9.52
  13   3   5   23.19    5.57
 -13  -3   5   23.76    5.75
  -3  13   5   23.84    7.19
  -3  13  -5   25.79    8.09
  13   3   5   20.59    5.21
  -3  13   5   26.36    6.32
  -3  13   6   -0.93    1.19
  13   3  -6   -0.64    2.99
   3 -13   6    1.29    3.85
 -13  -3   6    4.48    2.17
  -3  13   6   -0.45    1.77
  13   3   6   -3.13    2.77
  -3  13  -6    1.49    3.76
  13   3   6   -1.75    1.53
  13   3   7    5.67    4.45
  13   3  -7    2.12    2.10
 -13  -3   7   -3.38    2.70
  -3  13   7    5.01    4.56
  -3  13  -7    2.66    4.56
   3 -13   7    1.79    2.92
 -13  -3   8    3.69    4.11
  13   3   8    4.49    3.14
  13   3  -8    3.92    6.28
   3 -13   8    0.88    2.48
 -13  -3   8   -0.20    2.11
  -3  13   8    1.88    2.37
  -3  13  -8    0.90    3.32
  13   3   9   16.69    6.48
 -13  -3   9   12.75    5.58
  13   3  -9    9.99    5.68
   3 -13   9   20.49    8.28
 -13  -3   9   13.48    6.24
  -3  13  -9   18.83    7.55
  -3  13   9   17.75    7.26
 -13  -3  10   14.06    6.10
   3 -13  10   29.47    9.83
  13   3 -10    6.75    6.15
 -13  -3  10   18.98    8.47
  13   3  10   11.98    6.93
  -3  13 -10   16.27    7.38
  -3  13  10   25.83    8.88
 -13  -3  11   14.99    7.22
  13   3 -11   13.92    6.48
 -13  -3  11   23.22   11.00
  -3  13 -11   24.29    8.77
  13   4   0   -1.18    2.04
  -4  13   0    0.14    0.98
  13   4   0    3.05    1.59
  -4  13   0   -0.50    1.93
 -13  -4   1   66.78   10.75
  13   4   1   80.38   11.20
  13   4  -1   81.29    9.24
  13   4  -1   79.93   11.64
  -4  13  -1   76.84   11.32
  -4  13   1  101.31   12.82
  -4  13   1   82.92   11.28
  13   4   1   78.78    7.17
 -13  -4   1   90.91    7.16
  13   4   2   73.64   10.37
  13   4  -2   58.68    9.73
  13   4  -2   66.13    7.73
  13   4   2   64.53    9.77
 -13  -4   2   64.71   10.27
  -4  13  -2   59.11   10.53
  -4  13   2   71.45   10.71
  13   4   2   69.14    7.03
  -4  13   2   76.63   11.21
  -4  13   3   34.82    8.12
  13   4  -3   54.42   10.04
 -13  -4   3   41.74    6.64
 -13  -4   3   46.71    9.35
  13   4  -3   38.94    5.24
  13   4   3   43.61    7.61
  13   4   3   42.08    6.07
  -4  13  -3   44.66    9.78
  -4  13   3   40.64    7.95
  13   4   4   61.11    7.89
  -4  13   4   47.16    9.47
  13   4  -4   60.87   11.32
 -13  -4   4   64.94    9.15
 -13  -4   4   56.76   10.44
  13   4   4   60.49    9.15
  -4  13  -4   69.02   12.44
  -4  13   4   72.41   10.66
  13   4  -5  108.81   15.13
 -13  -4   5  160.34   15.61
  13   4   5  120.81   12.35
 -13  -4   5  130.94   16.72
  13   4   5  102.78   15.24
  -4  13  -5  138.20   18.15
  13   4   5  126.88   12.86
   4 -13   5  108.16   14.65
  -4  13   5  128.98   14.47
  -4  13   5  118.22   15.42
 -13  -4   6  136.05   15.50
  13   4  -6  116.35   15.89
  -4  13  -6  118.68   17.25
   4 -13   6  127.12   16.49
  13   4   6  130.67   13.88
  -4  13   6  138.40   15.47
  -4  13   6  118.55   16.17
  13   4  -7   54.42   11.48
 -13  -4   7   66.49   12.89
  -4  13   7   64.02   12.37
 -13  -4   7   73.93   12.29
  -4  13  -7   66.71   13.52
   4 -13   7   49.41   10.91
  13   4   7   65.52   10.68
  13   4   8   16.51    6.47
  13   4  -8    8.78    5.16
  13   4   8    7.61    4.12
   4 -13   8   10.86    5.53
  -4  13   8   16.13    6.50
 -13  -4   8   16.18    6.74
 -13  -4   8   15.97    6.95
  -4  13  -8   16.55    7.69
  13   4   9   10.55    4.95
  13   4  -9   10.42    6.07
 -13  -4   9   18.20    7.35
 -13  -4   9   11.95    6.73
  13   4   9   13.96    6.93
   4 -13   9    0.87    3.08
  -4  13  -9    9.39    6.95
  -4  13   9    5.69    3.98
   4 -13  10   22.43    8.39
  13   4 -10    9.77    5.45
 -13  -4  10   18.04    8.29
  -4  13 -10   21.89    7.93
 -13  -4  10    3.91    4.48
  -4  13  10   14.32    7.06
 -13  -4  11   14.46    7.56
 -13  -4  11   -3.13    4.50
  -4  13 -11    5.56    5.37
  13   5   0  481.55   27.91
 -13  -5   0  442.14   10.78
  -5  13   0  405.90   26.71
  13   5  -1  380.16   25.47
  13   5   1  376.78   24.35
  13   5  -1  390.36   21.17
  13   5   1  389.35   24.01
  -5  13  -1  384.36   26.49
  -5  13   1  409.59   26.15
  -5  13   1  408.61   25.13
  13   5   1  383.38   17.67
  13   5  -2  210.51   19.13
  13   5   2  217.23   18.01
 -13  -5   2  228.29   19.73
  13   5  -2  221.41   14.74
  13   5   2  203.66   18.33
  -5  13  -2  199.03   19.62
  -5  13   2  209.45   18.51
  -5  13   2  224.55   19.04
  13   5   2  217.83   13.66
 -13  -5   3  136.59   15.46
  13   5  -3  164.59   17.47
  13   5   3  159.03   15.47
  -5  13  -3  160.33   18.00
  -5  13   3  157.05   15.95
 -13  -5   3  152.70   13.43
  -5  13   3  144.15   15.62
  13   5   3  175.94   13.06
  13   5   4  121.67   11.67
  13   5  -4  108.96   14.76
  13   5   4  116.69   13.18
 -13  -5   4  109.94   14.28
 -13  -5   4  112.28   12.31
  -5  13  -4  124.89   16.77
  -5  13   4  107.72   13.41
  -5  13   4  113.68   14.76
 -13  -5   5   35.92    7.55
  13   5  -5   40.33    9.63
 -13  -5   5   50.96   10.07
  13   5   5   42.50    9.56
  -5  13   5   35.36    8.66
  13   5   5   49.23    8.50
  13   5   5   42.77    7.45
  -5  13  -5   51.39   11.61
  -5  13   5   41.79    8.75
   5 -13   5   28.63    7.60
  -5  13   6    5.26    4.28
  13   5  -6    7.22    3.87
  -5  13   6    9.60    4.48
   5 -13   6   -0.84    2.23
  13   5   6    3.90    4.43
 -13  -5   6    1.86    2.63
  13   5   6    0.31    1.85
  -5  13  -6   -3.29    2.87
  13   5   7   25.99    8.48
  -5  13   7   22.82    7.77
  -5  13  -7   14.77    6.35
  13   5   7   14.01    5.48
  13   5  -7   10.32    4.68
   5 -13   7   17.53    6.20
  13   5  -8   20.99    7.29
  13   5   8   56.56   12.93
 -13  -5   8   49.61   11.02
   5 -13   8   31.32    8.83
  -5  13   8   41.03   10.25
 -13  -5   8   43.82   11.30
  -5  13  -8   43.82   11.30
  13   5   8   57.67   10.95
  13   5   9   70.48   12.85
  13   5  -9   64.29   13.11
 -13  -5   9   55.51   12.63
   5 -13   9   69.77   14.39
 -13  -5   9   93.14   15.61
  -5  13  -9   68.92   15.00
  -5  13   9   95.36   16.54
   5 -13  10   69.10   14.62
  13   5 -10   71.21   14.14
 -13  -5  10   67.91   14.73
 -13  -5  10   51.55   12.34
  13   5  10   68.04   15.06
  -5  13 -10   62.36   14.95
  -5  13  10   57.43   13.78
 -13  -5  11   54.72   14.45
 -13  -5  11   38.73   11.09
  -5  13 -11   57.05   14.62
  13   6   0   -1.82    1.84
  -6  13   0   -1.25    1.35
  13   6   0   -0.46    4.05
  -6  13   0    1.06    3.47
  13   6  -1   42.84    8.79
  13   6   1   45.85    9.13
  -6  13   1   38.40    6.00
  13   6   1   56.70    9.64
  13   6  -1   40.52    7.32
  13   6   1   49.39    6.91
  -6  13  -1   29.25    7.17
  -6  13   1   37.47    8.27
  -6  13   1   33.22    6.89
  -6  13   2   32.04    7.18
  13   6   2   31.24    5.48
  13   6  -2   30.15    7.58
  -6  13   2   30.28    6.12
  13   6  -2   37.31    6.21
  13   6   2   28.82    6.95
  -6  13  -2   25.94    7.06
  -6  13   2   32.40    8.10
 -13  -6   2   40.76    8.72
  -6  13   3   41.54    8.83
  13   6  -3   24.96    6.89
 -13  -6   3   33.11    7.63
 -13  -6   3   27.04    6.07
  13   6   3   35.15    8.39
  13   6   3   36.19    7.87
  13   6   3   23.79    5.08
  -6  13  -3   30.29    7.83
  -6  13   3   27.82    7.10
 -13  -6   4   17.70    5.34
  -6  13   4   19.18    6.34
  13   6  -4   17.71    6.82
  13   6   4   12.29    5.61
  13   6   4   10.78    5.35
  -6  13  -4   12.77    5.84
  -6  13   4   17.74    5.87
 -13  -6   5   24.77    6.72
  -6  13   5   22.03    6.73
  13   6   5   18.65    6.49
  13   6   5   20.34    5.33
  13   6   5   31.06    7.43
  -6  13  -5   26.19    8.56
   6 -13   5   26.35    7.15
  13   6  -5   25.20    7.74
  -6  13   5   34.28    8.36
  -6  13   6   38.24    8.76
  13   6  -6   23.64    7.53
 -13  -6   6   28.02    7.96
  -6  13   6   49.46   11.00
   6 -13   6   35.97    8.73
  13   6   6   24.93    6.42
  -6  13  -6   34.67    9.55
 -13  -6   6   30.51    7.83
   6 -13   7    0.90    3.74
  13   6  -7    6.01    4.15
  -6  13  -7   16.73    6.81
 -13  -6   7   10.26    5.80
  13   6   7    3.77    3.33
  -6  13   7    2.08    2.01
  13   6  -8    1.87    2.95
 -13  -6   8    5.76    4.51
  13   6   8   -3.79    4.70
  -6  13   8    7.93    5.26
   6 -13   8    1.07    3.00
 -13  -6   8    6.29    5.27
  -6  13  -8    2.16    3.80
  13   6   8    0.88    2.54
  13   6  -9   -1.05    3.20
   6 -13   9    2.18    2.49
  -6  13  -9    7.86    6.46
  -6  13   9    0.05    1.60
  13   6   9    3.23    2.63
  13   6   9   -3.72    3.94
  13   6  10    5.42    4.71
  13   6 -10    7.61    5.53
   6 -13  10    6.77    5.18
 -13  -6  10   14.49    7.11
  13   6  10    4.78    4.60
 -13  -6  10   -0.42    3.16
  -6  13 -10    8.60    7.03
  -6  13  10    0.32    2.51
 -13  -6  11    5.21    3.66
  -6  13 -11    1.23    3.69
  13   7   0   78.89   12.07
  -7  13   0   88.42    8.94
  13   7   0   84.09   11.33
  -7  13   0   79.79   12.49
  13   7  -1   94.38   13.85
  13   7   1  106.05   13.53
  13   7   1  108.41   13.47
  -7  13  -1  104.37   14.20
  -7  13   1  106.64   13.77
  -7  13   1   99.77   12.25
  13   7   1  112.60   11.06
  13   7  -2  138.56   16.39
  13   7   2  141.75   15.76
  -7  13   2  167.36   14.40
  13   7   2  137.72   15.50
  -7  13  -2  130.64   16.04
  -7  13   2  120.66   14.84
  -7  13   2  137.61   14.52
  13   7   2  137.72   12.54
  -7  13   3   52.94    9.28
  13   7  -3   56.04   10.76
  13   7   3   66.30   11.65
  13   7   3   71.51   11.04
  -7  13  -3   59.96   10.71
  13   7   3   62.01    8.62
  -7  13   3   48.95    9.76
  -7  13   4   41.53    8.84
  13   7  -4   45.09   10.15
 -13  -7   4   34.88    7.65
  13   7   4   36.08    7.10
  13   7   4   36.40    8.61
  13   7   4   49.55    9.65
  -7  13  -4   40.64    9.53
 -13  -7   4   31.14    7.01
  -7  13   4   36.92    8.66
 -13  -7   5   13.49    5.28
  -7  13   5    8.19    4.56
  13   7   5   24.73    8.36
  13   7   5   16.58    5.33
  13   7   5   13.13    5.40
  -7  13  -5   19.19    6.75
 -13  -7   5   17.34    5.84
  13   7  -5   21.70    7.69
   7 -13   5   17.64    6.21
  -7  13   5   15.00    5.66
  -7  13   6    1.37    3.23
 -13  -7   6   -1.92    2.39
 -13  -7   6    0.42    2.45
  -7  13   6    2.14    3.09
  13   7   6    3.02    5.84
  13   7   6   -4.05    1.82
  13   7  -6   -1.26    2.77
  13   7   6   -4.40    3.72
  -7  13  -6    1.54    4.19
   7 -13   6    6.66    3.83
   7 -13   7   -0.99    1.89
  13   7   7    2.19    5.35
  -7  13   7    1.01    2.33
  -7  13  -7   -1.11    3.00
  13   7   7    5.18    4.03
  13   7  -7    7.06    6.27
 -13  -7   7    5.60    4.87
 -13  -7   7    1.57    1.64
  13   7  -8   17.40    7.07
 -13  -7   8   18.29    7.15
  13   7   8   24.04    8.42
  -7  13   8   16.19    6.57
  -7  13  -8   15.81    6.76
   7 -13   8   16.98    7.00
  13   7   8   18.62    6.16
 -13  -7   8    4.86    3.12
  13   7  -9   20.79    7.50
 -13  -7   9   26.00    8.60
  13   7   9   36.63   11.24
   7 -13   9   19.65    7.83
  -7  13  -9   16.25    8.13
  -7  13   9   17.95    7.28
 -13  -7   9   17.19    7.23
  13   7   9   22.02    6.90
  13   7 -10    3.73    3.53
   7 -13  10   20.16    7.73
  13   7  10   28.28    9.72
  -7  13 -10   23.88    9.03
 -13  -7  10   26.40    9.07
  -7  13  10    2.01    2.50
  13   7  10   17.74    7.12
  13   8   0   -2.05    3.41
  -8  13   0    0.50    1.85
  -8  13   0    2.74    3.53
  -8  13   0    3.02    2.77
  13   8  -1   -0.54    2.47
  13   8  -1    2.23    3.73
  13   8   1    1.88    3.09
  13   8   1    0.75    2.17
  -8  13  -1    1.28    2.25
  -8  13   1   -0.96    2.44
  13   8   1    1.74    1.86
  -8  13   1   -1.53    1.79
  13   8   2    7.03    3.53
  -8  13   2    4.64    2.80
  13   8  -2    8.26    4.32
  13   8   2    2.81    4.20
  13   8   2    7.79    3.49
  -8  13  -2    1.74    3.12
  -8  13   2    2.21    2.75
  -8  13   3   10.44    4.72
  13   8   3    3.64    3.23
 -13  -8   3    7.42    4.02
  -8  13   3   14.58    5.36
  13   8   3    6.51    4.61
  13   8   3    9.98    6.10
  -8  13  -3    5.94    3.89
  -8  13   3   -0.11    2.10
  13   8  -3   12.80    5.96
  -8  13   4    0.67    2.62
  13   8  -4    3.28    4.03
 -13  -8   4   -2.19    1.13
  13   8   4    0.37    1.15
  13   8   4    0.94    2.90
  13   8   4    1.27    3.06
 -13  -8   4    0.95    1.74
  -8  13   4    2.95    3.56
  -8  13   5   -0.58    1.64
 -13  -8   5    8.00    4.39
  13   8  -5    0.05    2.67
  -8  13   5    3.27    2.91
  13   8   5   -3.62    4.00
  13   8   5   12.02    6.17
  -8  13  -5   -2.91    2.79
 -13  -8   5    3.05    2.56
  -8  13   6    5.43    3.81
  13   8  -6   -2.32    2.91
   8 -13   6    2.86    4.83
  13   8   6    0.03    4.78
  13   8   6   11.46    5.19
  -8  13   6    0.93    1.71
 -13  -8   6    3.74    4.24
  13   8   6   -2.79    2.53
  -8  13  -6    7.92    4.96
 -13  -8   7    1.64    1.88
 -13  -8   7    3.75    3.52
  13   8   7    3.93    2.43
  -8  13   7    8.15    4.95
  13   8   7    2.20    2.06
  13   8  -7    2.76    3.01
  -8  13  -7   -2.36    2.03
   8 -13   7    4.94    3.86
 -13  -8   8    5.43    5.66
  13   8   8   11.60    7.08
  -8  13   8    6.98    5.29
  -8  13  -8   12.06    7.04
  13   8  -8    3.00    3.45
  13   8   8    0.90    3.28
   8 -13   8    3.26    2.75
  -8  13   9   10.22    6.02
 -13  -8   9    9.39    5.98
  13   8  -9    2.40    1.91
  13   8   9    5.07    6.24
   8 -13   9    5.15    3.90
  -8  13  -9    6.07    4.78
  13   8   9   10.52    5.83
 -13  -8   9    5.26    4.82
 -13  -8  10    9.80    5.96
   8 -13  10    5.47    3.78
  13   8 -10   -2.42    4.37
  -8  13 -10    4.46    5.31
  -8  13  10    8.54    6.14
 -13  -8  10    4.49    4.63
  13   8  10    4.48    3.97
  13   9   0  185.10   19.25
  -9  13   0  244.28   17.01
  -9  13   0  240.67   22.04
  -9  13   0  230.06   18.01
  13   9   0  222.58   19.10
  13   9  -1   92.76   13.80
  13   9   1   84.79   13.35
  13   9   1   90.93   10.99
  -9  13   1   76.36   10.48
  -9  13  -1   75.38   12.42
  -9  13   1   75.25   12.39
  13   9   2   26.72    6.12
  -9  13   2   24.04    6.14
  13   9  -2   24.66    8.09
  -9  13   2   20.71    5.45
  13   9   2   17.92    6.54
  -9  13  -2   22.69    7.69
  -9  13   2   23.90    7.17
  13   9   3   63.78    9.65
  -9  13   3   60.70   10.02
 -13  -9   3   69.75   11.07
  -9  13   3   75.40   11.11
  13   9  -3   61.82   11.65
  13   9   3   72.49   12.38
  13   9   3   78.41   12.26
  -9  13  -3   84.39   13.82
  -9  13   3   76.76   12.43
  13   9  -4   41.64    9.82
 -13  -9   4   33.75    7.94
  -9  13   4   27.59    7.29
  -9  13   4   25.47    7.06
  13   9   4   36.71    9.72
  13   9   4   28.30    7.95
  -9  13  -4   19.83    6.74
  13   9   4   33.82    7.42
  -9  13   4   21.03    6.97
  -9  13   5    3.73    4.26
  13   9   5    1.04    2.91
  -9  13   5    6.52    5.14
  13   9   5   14.79    7.01
  13   9   5    5.73    4.33
  -9  13  -5    3.98    5.02
 -13  -9   5    2.15    2.40
 -13  -9   5    4.38    4.01
  13   9  -5    2.78    3.58
 -13  -9   6    2.60    2.97
  -9  13   6    4.24    3.88
  13   9   6    5.98    5.23
  13   9  -6    6.78    4.36
  13   9   6    8.22    4.52
  -9  13   6    5.80    4.26
  13   9   6    5.30    4.92
  -9  13  -6    6.76    5.27
   9 -13   6    4.01    3.82
  13   9  -7    5.25    4.47
  13   9   7   -0.26    4.67
 -13  -9   7    0.69    2.70
 -13  -9   7    1.59    1.87
   9 -13   7    4.02    4.52
  13   9   7    8.61    4.98
  -9  13   7   -1.73    2.26
  -9  13  -7    7.61    5.15
   9 -13   8    7.16    4.93
 -13  -9   8    7.41    6.29
  13   9  -8    7.62    5.21
  13   9   8    9.31    5.98
  -9  13   8    8.24    6.03
  13   9   8    8.10    5.09
  -9  13  -8    5.32    4.23
 -13  -9   8    3.19    4.08
 -13  -9   9    4.65    4.78
  13   9   9    3.49    5.19
  -9  13  -9    5.67    5.04
   9 -13   9    5.26    4.05
  -9  13   9    6.28    4.46
  13   9   9    6.62    5.44
  13   9  -9   16.23    7.89
 -13  -9  10   11.00    5.93
   9 -13  10   -0.88    2.29
  13   9 -10    5.49    5.07
  -9  13 -10    4.89    3.38
  -9  13  10    6.28    4.77
  13  10   0    1.18    2.95
 -10  13   0    1.49    1.86
 -10  13   0    2.47    3.12
 -10  13   0    0.34    1.86
 -10  13   1    5.34    3.10
 -10  13   1    5.75    3.04
  13  10   1    7.06    4.50
  13  10  -1    6.40    4.16
  13  10   1   10.81    5.51
 -10  13  -1   11.92    5.41
 -10  13   1   16.98    6.45
  13  10   1    5.27    3.08
  13  10   2   26.08    6.56
 -10  13   2   16.63    5.55
 -10  13   2   18.27    5.42
  13  10  -2   18.19    7.13
  13  10   2   28.06    7.84
  13  10   2   21.11    7.50
 -10  13  -2   11.87    5.95
 -10  13   2   17.24    7.24
 -13 -10   3  104.60   13.49
 -10  13   3  112.32   14.21
  13  10  -3   87.69   14.07
  13  10   3   92.89   14.16
 -10  13  -3  104.01   15.43
 -10  13   3  105.43   15.33
  13  10   3  104.98   12.87
 -10  13   3  122.26   14.15
  13  10   4  113.42   15.66
 -10  13   4   82.59   12.97
  13  10  -4   81.13   13.76
 -13 -10   4   93.60   12.83
 -10  13  -4   82.65   13.90
  13  10   4   80.31   11.78
 -10  13   4   91.72   12.94
 -10  13   4   85.53   13.95
 -10  13   5   72.02   12.93
 -13 -10   5   97.60   13.52
 -13 -10   5   68.95   12.20
  13  10  -5   54.64   11.20
  13  10   5   67.35   11.16
  13  10   5   72.86   14.14
 -10  13   5   63.31   10.95
  13  10   5   76.63   12.63
 -10  13  -5   70.05   13.25
 -10  13   6   37.44    9.85
  13  10  -6   26.85    8.53
  10 -13   6   37.05    8.70
  13  10   6   27.95    9.19
  13  10   6   29.42    7.83
 -13 -10   6   34.16    8.91
 -10  13   6   31.35    8.44
  13  10   6   27.41    8.07
 -10  13  -6   46.19   11.31
 -13 -10   6   19.39    6.38
  13  10   7   39.73   10.99
  13  10   7   29.45    8.15
 -10  13   7   33.51    9.49
 -10  13  -7   37.29   10.16
  13  10  -7   27.91    9.71
 -13 -10   7   30.33    9.27
  10 -13   7   45.23   10.19
  13  10  -8   29.33    8.83
  10 -13   8   30.39    8.40
 -13 -10   8   18.34    6.90
 -13 -10   8   30.03    9.51
  13  10   8   24.35    7.95
 -10  13  -8   27.41    9.14
 -10  13   8   22.87    7.62
  13  10  -9    6.71    5.37
 -13 -10   9    2.80    3.73
  13  10   9    2.82    5.32
 -10  13  -9    8.72    5.20
  13  10   9    5.51    4.51
  10 -13   9   12.52    5.93
  13  10 -10   -2.94    4.69
  10 -13  10    8.54    4.82
 -10  13 -10   -1.10    2.90
  13  10  10    0.94    2.42
  13  11   0  103.23   15.72
 -11  13   0  112.25   15.80
 -11  13   0  124.23   12.90
 -11  13   1   83.06   11.38
  13  11   1   72.07   12.10
  13  11  -1   75.60   13.46
  13  11   1   82.85   14.08
 -11  13  -1   75.50   10.08
  13  11   1   81.33   11.57
 -11  13   1   84.73   10.85
 -11  13  -1   83.27   13.72
 -11  13   1   75.94   13.07
  13  11   2   62.21   10.13
  13  11   2   82.68   13.39
  13  11   2   57.96   11.54
  13  11  -2   64.09   12.25
 -11  13  -2   62.91   11.96
 -11  13   2   64.61   10.36
 -11  13   2   77.87   13.26
 -11  13   2   73.52   11.02
 -11  13   3   59.63   10.55
  13  11   3   82.08   11.99
  13  11   3   68.98   12.68
  13  11  -3   91.33   14.87
  13  11   3   97.00   14.89
 -11  13  -3   66.33   12.44
 -11  13   3   70.15   10.70
 -11  13   3   62.29   11.95
  13  11   4   34.01    7.73
 -13 -11   4   25.21    7.03
 -11  13   4   32.73    8.20
  13  11  -4   27.72    8.24
 -11  13   4   23.61    7.57
  13  11   4   31.57    9.15
 -11  13  -4   15.21    6.47
 -11  13   4   27.54    8.40
  13  11   5    6.20    3.36
 -11  13   5    5.97    4.99
  13  11  -5    4.72    2.97
 -13 -11   5    5.15    4.16
 -11  13   5    6.61    4.03
 -11  13   5    8.73    4.98
  13  11   5    4.37    4.27
 -11  13  -5    0.76    2.00
 -11  13   6    6.17    6.02
 -13 -11   6   -1.83    3.14
 -13 -11   6    0.55    2.71
  13  11  -6    4.07    3.42
  13  11   6    0.48    1.79
 -11  13   6    0.72    1.51
  13  11   6    9.30    5.46
 -11  13  -6    3.19    3.00
  13  11  -7   10.94    5.72
 -13 -11   7   14.05    7.42
  13  11   7    8.80    5.76
 -11  13   7   14.56    6.48
 -11  13  -7    0.91    1.89
  13  11  -8   21.27    7.87
  13  11   8   44.27   10.61
 -11  13  -8   31.02    9.88
 -11  13   8   36.42   10.55
 -13 -11   8   29.00    9.76
  13  11  -9   32.15   10.04
 -13 -11   9   36.06   11.00
  13  11   9   43.03   11.08
 -11  13  -9   23.90    9.04
 -11  13   9   26.90    9.04
 -11  13 -10   16.81    6.90
  13  11  10   15.28    7.01
  13  12   0   -0.39    2.53
 -12  13   0   -0.76    2.64
 -12  13   0   -0.27    1.70
 -12  13   1   21.81    5.53
 -12  13   1   26.75    6.80
  13  12  -1   16.93    6.22
  13  12   1   13.81    6.33
 -12  13  -1   18.19    6.77
 -12  13  -1   19.54    5.07
  13  12   1   21.35    6.12
 -12  13   1   30.34    9.19
 -12  13   2   95.36   13.25
  13  12  -2   69.93   13.15
  13  12   2   81.34   13.89
 -12  13  -2   72.96   13.26
 -12  13   2   74.40   10.44
 -12  13   2   68.85   12.65
  13  12   2   76.10   11.79
 -12  13   3  120.21   15.66
  13  12   3  115.73   16.83
  13  12  -3  107.93   16.30
  13  12   3  110.68   16.06
 -12  13  -3  114.09   16.95
 -12  13   3  118.94   17.13
  13  12   3  129.67   15.47
 -12  13   3  133.61   14.47
 -13 -12   4  220.61   19.58
  13  12  -4  197.79   22.62
  13  12   4  222.16   23.99
  13  12   4  197.56   22.06
 -12  13  -4  173.85   20.86
 -12  13   4  181.64   21.23
  13  12   4  207.56   20.25
 -12  13   5  108.71   16.74
 -12  13   5  111.01   14.59
 -13 -12   5  101.21   13.72
  13  12  -5  112.27   17.19
  13  12   5  120.39   17.08
 -12  13  -5  108.06   16.74
  13  12   5  104.21   15.19
 -13 -12   6   70.49   13.55
 -12  13   6   67.15   13.38
  13  12   6   76.77   13.35
  13  12  -6   82.78   15.10
  13  12   6   59.98   13.64
 -12  13   6   76.78   12.82
 -12  13  -6   66.81   13.35
  13  12   7  106.57   16.29
 -13 -12   7  102.21   16.75
 -12  13   7   91.17   16.18
  13  12   7  115.98   19.30
 -12  13   7   90.04   14.99
 -12  13  -7   99.32   17.07
  13  12  -7   87.88   15.34
  13  12  -8   68.12   14.19
  13  12   8   55.19   14.20
 -13 -12   8   67.54   14.13
  13  12   8   76.57   14.29
 -12  13  -8   45.74   11.72
 -12  13   8   73.15   13.96
 -13 -12   9   22.28    8.44
  13  12  -9   17.73    7.33
  13  12   9   12.01    6.78
 -12  13  -9   25.09    9.02
  13  12  10   -5.26    4.45
 -13  13   0   21.92    6.34
  13  13   0   24.68    8.90
 -13  13   0   24.95    8.26
  13  13   1   15.34    6.85
  13  13  -1   20.63    8.31
 -13  13  -1   15.93    7.03
  13  13   1   15.99    5.78
 -13  13   1   18.39    7.64
  13  13  -2   27.89    9.30
  13  13   2   23.22    7.87
 -13  13   2   48.38    9.90
 -13  13  -2   47.42   10.79
 -13  13   2   45.33   10.75
  13  13   2   48.08    9.82
  13  13   3   17.67    6.02
  13  13  -3    9.41    5.20
  13  13   3   11.00    6.05
 -13  13  -3   25.65    8.20
 -13  13   3   27.78    8.61
 -13  13   4    7.94    4.61
  13  13   4    6.34    4.92
 -13  13   4    4.64    3.97
  13  13  -4    4.87    4.33
  13  13   4    8.35    6.02
 -13  13   4   12.24    5.09
  13  13   4    5.72    5.71
 -13  13  -4    7.44    4.71
 -13  13   5   10.24    6.60
  13  13   5    3.17    2.71
  13  13   5   17.89    8.47
  13  13  -5    4.80    4.36
  13  13   5    6.65    4.98
 -13  13  -5   17.98    7.77
 -13  13   5   10.01    4.60
  13  13   6    1.13    2.57
  13  13   6    1.78    3.33
  13  13  -6    4.88    3.89
 -13  13   6    0.32    1.79
  13  13   6   11.22    6.31
 -13  13  -6    3.21    4.04
 -13  13   7   -1.09    3.01
  13  13   7   11.78    7.92
 -13 -13   7    6.59    4.09
  13  13  -7   -1.88    4.25
  13  13   7    8.56    4.46
 -13  13  -7   -0.56    2.44
 -13 -13   8    9.65    6.25
 -13  13   8   -4.06    4.06
  13  13   8    8.09    5.19
  13  13  -8   10.33    5.89
  13  13   8   11.77    5.97
 -13  13  -8    7.11    5.35
  13  13  -9    5.59    3.90
  13  13   9    3.05    4.13
  13  14   0   -0.60    2.86
 -14  13   0    1.60    3.96
 -14  13   1    9.85    4.72
  13  14  -1   14.41    5.73
  13  14   1   10.19    5.17
 -14  13  -1   12.16    6.02
  13  14   1   14.51    6.21
 -14  13   1   10.81    5.85
  13  14  -2   17.41    7.83
  13  14   2   13.58    6.21
 -14  13   2   25.17    7.62
 -14  13  -2   18.30    7.19
 -14  13   2   23.63    8.50
  13  14   2   18.42    6.56
  13  14   3   31.46    8.40
  13  14  -3   36.38   10.72
  13  14   3   49.26   11.65
 -14  13  -3   43.05   10.55
 -14  13   3   39.00   10.64
 -14  13   4   42.17   10.94
  13  14   4   17.98    6.98
  13  14  -4   17.75    7.93
  13  14   4   37.30   10.12
 -14  13   4   32.31    9.13
 -14  13  -4   33.63    9.50
 -14  13   5   13.23    6.96
  13  14   5   24.93    7.69
  13  14  -5   30.40   10.69
  13  14   5   27.59    9.96
 -14  13  -5   21.58    7.99
  13  14   6   26.13    7.99
  13  14  -6   44.19   12.63
  13  14   6   19.86    8.11
 -14  13  -6   26.96    8.89
  13  14   7   29.99   11.38
  13  14  -7   15.88    7.46
 -14  13  -7   21.00    8.35
 -13 -14   8    5.38    5.14
 -14  13   8    9.49    5.59
  13  14  -8    2.61    3.66
  13  14   8    5.06    4.40
 -14  13  -8    5.52    4.87
  13  14  -9   17.69    7.94
  13  14   9    8.17    6.27
  12  14   0  318.49   28.68
 -14  12   0  300.65   27.10
  12  14  -1  226.82   24.50
 -14  12   1  240.93   21.76
  12  14   1  199.89   22.81
 -14  12  -1  229.91   23.40
  12  14   1  203.89   20.58
 -14  12   1  204.41   22.42
  12  14   2  149.38   19.70
  12  14  -2  181.69   21.79
 -14  12   2  200.29   20.51
 -14  12  -2  158.09   19.69
  12  14   2  135.82   16.85
 -14  12   2  190.06   21.76
 -14  12   3  114.30   16.00
  12  14  -3  120.16   17.94
 -14  12  -3  102.53   15.96
  12  14   3   99.09   14.48
 -14  12   3  112.97   17.19
  12  14   3  129.63   18.38
 -14  12   4   58.15   12.53
  12  14   4   57.72   11.34
 -14  12   4   63.94   12.45
  12  14  -4   48.39   11.47
  12  14   4   59.93   12.93
 -14  12  -4   53.27   11.54
 -14  12   5   17.97    7.86
  12  14   5   11.45    4.70
  12  14  -5   19.19    8.33
  12  14   5   13.12    5.95
 -14  12  -5   20.50    7.41
  12  14   6    1.81    2.90
 -14  12   6    4.88    5.36
  12  14  -6   -0.40    3.75
 -14  12  -6    0.52    2.93
 -14  12   7    4.94    5.11
  12  14   7   22.69    9.37
  12  14  -7   11.72    6.69
 -12 -14   7    7.30    4.62
 -14  12  -7    8.87    6.89
 -14  12   8   22.31    9.72
  12  14  -8   17.27    7.72
  12  14   8   21.51    8.18
 -12 -14   8   19.06    7.65
 -14  12  -8   12.22    6.84
  12  14  -9   33.64   10.82
  12  14   9   39.99   11.20
 -14  11   0   -1.21    1.83
  11  14   0    2.67    4.87
 -14  11   0    0.81    2.71
 -14  11   1   35.04    8.45
  11  14   1   41.49   10.60
  11  14   1   29.89    7.72
 -14  11  -1   29.68    8.40
 -14  11   1   41.23    9.13
  11  14  -1   36.23   10.36
  11  14   2    5.43    3.16
 -14  11   2   14.11    5.59
 -14  11  -2    7.80    5.06
  11  14  -2   11.15    5.35
  11  14   2    5.16    2.71
 -14  11   2    6.17    3.64
  11  14   3   70.83   12.60
  11  14  -3   78.17   14.42
  11  14   3   77.90   14.09
 -14  11   3   48.00   10.84
 -14  11  -3   69.23   12.56
 -14  11   3   64.76   12.85
 -14  11   4   87.13   15.01
  11  14   4   79.24   13.40
 -14  11   4   88.42   14.63
  11  14  -4   82.96   14.80
  11  14   4   75.90   14.17
 -14  11  -4   73.87   13.31
 -14  11   5   79.03   14.38
  11  14   5   39.26    9.83
  11  14  -5   82.64   14.71
 -14  11  -5   55.42   11.87
  11  14   6   25.68    8.52
 -14  11   6   40.40   10.90
  11  14  -6   33.59   10.30
 -14  11  -6   55.10   12.00
  11  14   7   50.89   11.77
 -14  11   7   61.88   13.73
  11  14  -7   51.49   12.63
 -14  11  -7   59.38   12.45
 -11 -14   7   49.55   11.91
 -11 -14   8   33.19   10.24
 -14  11   8   42.96   12.37
  11  14  -8   20.52    8.83
  11  14   8   28.65    8.93
 -14  11  -8   39.06   10.67
  11  14   9    3.89    3.64
 -14  10   0   20.28    5.93
  10  14   0   15.15    6.46
 -14  10   0    9.34    5.20
  10  14  -1   24.44    8.04
  10  14   1   21.17    8.28
  10  14   1   24.68    6.11
  10  14   1   15.72    5.67
 -14  10  -1   12.60    4.96
 -14  10   1   31.14    8.56
 -14  10   2    2.82    2.56
  10  14  -2   10.69    6.27
  10  14   2   -0.20    4.17
 -14  10  -2    7.28    4.81
  10  14   2    2.86    2.82
 -14  10   2    3.97    3.61
 -14  10   3    4.72    3.91
  10  14   3    5.07    4.94
  10  14  -3    2.61    4.01
  10  14   3   11.36    5.73
 -14  10  -3    9.27    4.93
 -14  10   4    2.14    3.66
  10  14   4   13.47    6.48
 -14  10   4   -1.14    2.83
  10  14  -4    6.93    6.22
  10  14   4    3.44    3.54
 -14  10  -4    6.64    4.31
  10  14   5   -6.83    4.20
 -14  10   5    2.93    4.37
  10  14  -5    6.75    3.87
  10  14   5    2.77    2.63
 -14  10  -5    5.34    4.34
  10  14   6   -0.71    1.44
 -10 -14   6    0.22    3.72
 -14  10   6    0.60    1.88
  10  14  -6   -2.87    3.56
 -14  10  -6    3.47    3.76
  10  14   7   -4.41    3.75
  10  14  -7   -0.52    3.64
 -10 -14   7   -2.07    3.02
 -14  10  -7   -2.26    2.96
 -14  10   8    6.24    5.42
  10  14  -8   10.75    5.82
  10  14   8    1.85    1.55
  14 -10   8    1.81    3.17
 -10 -14   8    6.20    5.97
 -14  10  -8    9.79    6.07
 -10 -14   9    3.14    3.18
  10  14   9    6.50    4.40
   9  14   0    2.12    3.33
 -14   9   0    4.79    5.66
   9  14  -1   13.88    6.14
   9  14   1    8.33    4.30
   9  14   1    8.17    3.54
   9  14   1   11.40    5.57
 -14   9  -1    5.49    4.27
 -14   9   1   10.18    5.60
 -14   9   2    5.78    4.00
   9  14  -2   -1.14    3.47
   9  14   2    0.18    4.06
 -14   9  -2    2.30    3.20
   9  14   2    0.62    2.08
 -14   9   2    1.67    3.15
 -14   9   3   -2.96    3.28
   9  14   3    3.72    2.68
   9  14  -3    1.51    3.18
   9  14   3   -1.65    2.44
 -14   9  -3   -1.42    2.23
 -14   9   4    3.00    3.57
   9  14   4    4.01    2.85
   9  14   4    2.47    2.27
 -14   9  -4    7.32    5.44
   9  14  -4    8.83    5.60
   9  14   5   11.01    5.66
 -14   9   5    0.03    3.01
   9  14  -5    2.47    4.50
 -14   9  -5    1.66    4.09
  -9 -14   6    4.43    3.62
 -14   9   6    1.91    2.61
   9  14  -6    6.87    4.97
 -14   9  -6    1.06    2.91
   9  14   6    9.05    5.04
  -9 -14   7    1.37    1.90
   9  14   7   10.41    6.04
   9  14  -7    7.09    5.63
 -14   9   7    2.59    4.84
 -14   9  -7    1.33    1.49
 -14   9   8    5.58    5.12
   9  14   8    8.20    4.96
   9  14  -8   -0.85    2.40
  -9 -14   8    6.26    5.81
  14  -9   8   -4.01    3.30
  -9 -14   9    4.29    5.35
 -14   9   9    2.05    3.13
  14  -9   9    4.30    4.71
   9  14   9    4.04    3.01
   8  14   0   36.41    7.59
   8  14   0   34.80    9.33
 -14   8   0   28.63    8.01
   8  14   1    6.88    3.34
   8  14  -1   11.91    6.36
   8  14   1   11.68    6.15
   8  14   1   16.39    5.62
 -14   8  -1    4.40    3.03
 -14   8   1    7.01    4.56
 -14   8   2    2.30    3.08
   8  14  -2    4.34    5.96
   8  14   2    1.15    3.31
   8  14   2    0.83    2.01
 -14   8  -2   -0.16    3.21
   8  14   2   -4.22    3.38
 -14   8   2   -0.65    2.46
 -14   8   3    3.88    2.82
   8  14   3    6.21    4.00
   8  14  -3   14.76    6.25
   8  14   3    7.44    4.97
 -14   8  -3   12.86    4.81
 -14   8   4   23.52    8.15
   8  14   4   13.46    5.35
 -14   8   4   16.66    6.40
   8  14  -4    9.60    4.85
   8  14   4   12.85    5.39
 -14   8  -4   20.66    6.84
 -14   8   5    6.15    5.27
   8  14   5    0.01    3.98
   8  14  -5   -0.08    3.32
 -14   8  -5    6.58    3.40
 -14   8   5    7.69    2.83
 -14   8   6   -1.11    2.31
   8  14   6    0.31    1.83
  -8 -14   6    1.41    2.69
   8  14  -6    1.98    3.23
 -14   8  -6   -0.60    1.79
 -14   8   7    2.05    2.59
 -14   8   7    6.59    5.47
   8  14   7   -0.87    1.73
   8  14  -7    0.83    2.98
  14  -8   7    6.23    5.42
 -14   8  -7    2.76    4.27
  -8 -14   7    3.25    3.28
 -14   8   8    0.75    1.74
  -8 -14   8    3.35    3.26
   8  14   8    5.11    4.69
   8  14  -8    2.05    5.05
 -14   8   8   -1.22    2.94
  -8 -14   9   -0.86    2.21
 -14   8   9    1.63    2.66
 -14   8   9    4.97    5.07
  14  -8   9   -1.47    2.93
   8  14   9    8.58    4.83
   7  14   0    2.09    3.09
   7  14   0    5.14    5.18
 -14   7   0    2.08    3.48
   7  14   1   71.32    9.66
   7  14  -1   65.56   12.02
   7  14   1   67.20   12.56
   7  14   1   68.35   11.65
 -14   7  -1   48.69    9.24
 -14   7   1   67.72   11.80
   7  14   2  139.73   17.83
   7  14   2  155.23   13.04
 -14   7   2  172.38   18.40
   7  14  -2  145.35   17.82
 -14   7  -2  176.07   17.77
   7  14   2  130.15   16.12
 -14   7   2  162.94   18.13
   7  14  -3  218.62   21.64
   7  14   3  204.51   21.93
 -14   7  -3  169.28   17.53
   7  14   3  186.08   19.64
 -14   7   3  190.26   20.05
 -14   7   3  195.09   13.31
 -14   7   4  209.25   15.48
   7  14  -4  236.35   22.80
 -14   7   4  194.03   21.12
 -14   7  -4  210.46   19.79
   7  14   4  199.94   20.65
 -14   7   5  219.88   23.31
 -14   7   5  217.30   17.57
 -14   7  -5  198.71   19.75
   7  14  -5  213.12   22.17
   7  14   5  223.57   22.53
   7  14  -6  174.54   20.24
 -14   7   6  197.91   18.28
  14  -7   6  167.11   21.08
 -14   7  -6  204.28   20.17
  -7 -14   6  179.97   21.78
   7  14   6  174.35   20.55
 -14   7   7  134.17   18.71
   7  14  -7  140.96   18.31
 -14   7   7  115.51   18.53
 -14   7   7  140.99   16.36
  14  -7   7  139.29   19.84
 -14   7  -7  147.85   17.46
  -7 -14   7  147.12   20.51
   7  14   7  155.73   20.34
  -7 -14   8   65.85   13.95
 -14   7   8   56.90   11.20
 -14   7   8   64.50   13.55
 -14   7   8   69.86   15.34
   7  14   8   86.28   15.77
   7  14  -8   87.56   14.75
  14  -7   8   49.09   11.91
 -14   7   9   30.44   10.60
 -14   7   9   49.03   12.68
 -14   7   9   34.39    8.93
  14  -7   9   41.11   11.95
   7  14   9   43.79   11.69
  -7 -14   9   52.98   13.60
   6  14   0   15.15    4.96
   6  14   0   18.61    7.09
 -14   6   0   11.19    5.08
   6  14  -1    2.03    2.66
   6  14  -1    6.53    5.20
   6  14   1    5.82    3.23
   6  14   1   13.38    6.90
 -14   6  -1    3.26    3.43
 -14   6   1    2.99    3.47
 -14   6   2    2.57    2.34
   6  14  -2   -0.67    3.07
 -14   6   2    1.72    4.43
   6  14   2    3.11    2.71
   6  14   2    1.37    1.51
 -14   6  -2   10.50    4.73
   6  14   2    8.20    5.21
   6  14   3    2.57    2.81
 -14   6   3    0.19    2.44
 -14   6   3    0.49    1.03
   6  14  -3    2.64    4.53
   6  14   3    3.40    2.62
 -14   6  -3    2.90    3.31
   6  14   4    6.26    4.18
 -14   6   4    0.16    2.68
   6  14  -4    4.91    4.98
 -14   6  -4    1.25    1.64
 -14   6   5   11.40    3.96
   6  14   5    5.79    3.99
 -14   6   5    3.24    3.59
   6  14  -5    5.69    3.30
 -14   6  -5   12.56    5.10
 -14   6   6    1.14    1.27
 -14   6   6    2.31    2.85
   6  14   6    7.33    5.79
  -6 -14   6   -3.09    3.92
   6  14  -6    9.74    6.09
  14  -6   6   -0.82    2.36
 -14   6  -6    1.08    2.09
 -14   6   7    0.80    4.74
 -14   6   7    5.10    4.81
   6  14   7    5.46    3.82
  -6 -14   7    6.68    4.67
   6  14  -7   -0.80    2.55
  14  -6   7    2.48    3.54
 -14   6  -7    9.79    4.91
  -6 -14   8    5.77    3.58
 -14   6   8    5.75    5.06
   6  14   8    0.78    1.78
   6  14  -8    2.15    4.60
 -14   6   9   12.79    6.50
   6  14   9    9.72    5.32
  -6 -14   9    9.29    5.39
 -14   6  10    4.29    2.55
 -14   5   0   -5.55    3.17
   5  14   0    0.28    3.68
   5  14   0    1.26    2.95
 -14   5   0    2.07    2.96
 -14   5   1   66.63   10.93
   5  14   1   75.07    9.87
   5  14  -1   59.99   10.31
   5  14  -1   57.78   11.36
   5  14   1   47.26    9.95
 -14   5  -1   64.59   10.33
 -14   5   2  130.59   16.25
   5  14   2  141.72   17.63
 -14   5   2  149.03    8.45
   5  14  -2  166.79   17.78
   5  14   2  158.81   13.46
   5  14  -2  170.21   18.60
 -14   5  -2  155.60   15.89
   5  14   2  140.83   16.38
 -14   5   2  144.76   16.64
  14  -5   3  128.13   12.02
 -14   5   3  120.56    9.68
   5  14  -3   83.45   13.05
   5  14   3  118.15   10.76
 -14   5  -3  116.15   13.61
   5  14   3   90.78   13.60
  14  -5   4  232.44   14.88
 -14   5   4  231.24   22.97
 -14   5   4  260.36   16.50
   5  14  -4  252.34   23.01
 -14   5  -4  240.19   19.83
   5  14   4  229.46   21.95
 -14   5   5  260.87   22.64
 -14   5   5  239.95   24.16
   5  14  -5  234.28   21.83
  14  -5   5  275.43   25.34
 -14   5   5  250.48   18.23
 -14   5  -5  254.13   20.41
   5  14   5  233.77   23.06
  -5 -14   5  228.99   23.24
 -14   5   6  181.97   20.02
 -14   5   6  195.61   22.68
 -14   5  -6  167.15   17.13
  -5 -14   6  196.78   22.26
   5  14   6  178.37   20.71
   5  14  -6  194.80   20.33
   5  14  -7  155.95   18.41
 -14   5   7  154.20   20.97
  14  -5   7  137.04   19.09
 -14   5   7  158.39   17.26
  -5 -14   7  145.17   20.06
   5  14   7  181.70   21.90
 -14   5   8   85.84   15.24
   5  14   8   71.11   14.01
 -14   5   8  104.69   15.15
  14  -5   8   70.21   14.23
 -14   5   8   79.39   15.91
  -5 -14   8   68.81   14.18
 -14   5   9   46.11   10.85
 -14   5   9   37.96   12.06
  14  -5   9   38.61   11.08
   5  14   9   54.81   13.71
 -14   5   9   58.01   13.56
  -5 -14   9   45.28   11.75
 -14   5  10    9.21    5.81
  14  -5  10   19.84    8.21
   5  14  10    8.15    4.23
 -14   5  10   15.32    7.18
 -14   5  11   11.66    5.73
 -14   4   0   12.60    5.60
   4  14   0   12.48    4.92
   4  14   0   12.93    5.75
 -14   4   0   16.04    5.54
 -14   4   1   63.08   10.65
   4  14  -1   64.48   10.44
   4  14  -1   41.88    9.48
   4  14   1   53.71    8.67
   4  14   1   62.44   11.51
 -14   4  -1   70.31   10.61
 -14   4   2   42.85    8.87
  14  -4   2   47.52    8.15
 -14   4   2   38.96    8.29
   4  14  -2   31.21    8.13
   4  14  -2   31.84    8.36
 -14   4   2   36.24    3.90
   4  14   2   65.34   12.32
   4  14   2   49.55    7.51
   4  14   2   38.90    8.95
 -14   4  -2   43.68    8.06
   4  14   3   36.77    8.73
  14  -4   3   58.23    8.14
 -14   4   3   63.76    6.87
   4  14  -3   42.51    9.94
   4  14   3   40.17    6.47
 -14   4   3   62.18   11.42
 -14   4  -3   56.64    9.23
  14  -4   4   58.89    7.58
   4  14   4   38.36    9.03
 -14   4   4   43.22    8.47
 -14   4   4   38.48    9.39
 -14   4   4   56.57    7.57
  14  -4   4   62.06   11.98
   4  14  -4   46.16   10.08
 -14   4  -4   73.06   10.43
   4  14   4   41.15    6.06
   4  14   5    3.61    3.22
 -14   4   5   15.03    4.32
  -4 -14   5   12.03    5.19
   4  14  -5   15.59    6.12
 -14   4  -5   19.33    5.58
  -4 -14   6    6.73    5.03
   4  14   6   -1.95    2.14
 -14   4   6    2.64    4.43
  14  -4   6    1.79    4.08
   4  14  -6    8.32    4.72
 -14   4  -6    0.14    1.44
 -14   4   6    1.39    1.35
  -4 -14   7   12.53    6.17
 -14   4   7    8.77    5.41
 -14   4   7    4.43    3.80
   4  14   7   12.45    6.30
  14  -4   7    3.96    4.46
   4  14  -7    8.18    4.53
 -14   4   7   -1.26    3.57
 -14   4   8    7.28    3.63
  14  -4   8   -0.13    4.20
 -14   4   8   11.93    6.91
  -4 -14   8    6.91    4.29
 -14   4   9   20.90    8.33
 -14   4   9   21.07    7.25
   4  14   9   20.16    7.31
  -4 -14   9   10.37    5.76
 -14   4   9   26.84    8.98
 -14   4  10   12.04    5.91
  14  -4  10    6.84    5.80
 -14   4  10   10.87    5.25
   4  14  10   12.49    6.54
 -14   4  11   18.97    8.03
 -14   3   0    1.74    3.66
 -14   3   0    1.17    2.83
   3  14   0   -0.44    2.55
   3  14   0   -1.48    2.39
 -14   3   1   39.13    8.46
  14  -3   1   25.62    6.22
   3  14  -1   27.18    7.06
   3  14  -1   15.66    5.64
   3  14   1   40.09    7.42
 -14   3   1   31.08    7.90
 -14   3  -1   27.37    6.78
  14  -3   2   35.56    6.96
 -14   3   2   30.78    8.09
  14  -3   2   37.44    7.96
   3  14  -2   27.55    7.52
   3  14  -2   39.20    8.75
   3  14   2   29.64    6.16
 -14   3   2   40.30    3.97
   3  14   2   47.79    9.78
 -14   3  -2   40.56    7.82
   3  14   3    7.98    4.19
  14  -3   3    9.57    3.73
 -14   3   3    8.60    5.83
  14  -3   3   15.85    6.28
   3  14  -3   10.89    5.82
   3  14  -3    4.86    3.02
 -14   3   3   11.17    2.87
   3  14   3    8.04    3.16
 -14   3  -3   10.61    3.92
  14  -3   4   86.69    9.07
   3  14   4   50.86   10.21
 -14   3   4   84.11   11.85
   3  14  -4   70.26   11.64
 -14   3   4   74.97    8.63
   3  14   4   60.76    8.01
 -14   3  -4   75.31   10.00
 -14   3   4   77.89   13.28
  -3 -14   5   21.08    6.83
   3  14   5   31.33    8.46
 -14   3   5   20.28    6.69
 -14   3   5   22.19    5.47
  14  -3   5   23.28    7.29
   3  14  -5   25.80    7.53
 -14   3  -5   16.57    5.00
 -14   3   6   11.44    6.51
 -14   3   6   10.54    3.93
  14  -3   6    8.36    5.26
   3  14  -6   14.99    5.56
   3  14   6   11.50    5.48
 -14   3  -6    7.83    3.66
  -3 -14   6    4.13    3.15
  -3 -14   7    1.69    2.27
 -14   3   7    9.81    6.05
   3  14   7    6.93    3.77
 -14   3   7   -0.66    2.52
   3  14  -7    5.78    4.41
  14  -3   7    5.17    5.19
 -14   3   8    2.29    2.04
 -14   3   8   10.39    6.80
   3  14   8    4.53    4.96
 -14   3   8    1.74    1.65
  -3 -14   8    4.00    4.58
 -14   3   9    5.71    4.17
 -14   3   9   10.77    7.00
  14  -3   9    9.33    5.64
 -14   3   9    3.91    3.49
   3  14   9    3.06    3.66
  -3 -14   9    9.28    6.43
  14  -3 -10   -3.21    4.04
 -14   3  10    9.71    6.77
  -3 -14  10    2.05    3.55
 -14   3  10    1.71    4.36
   3  14  10   -0.18    1.95
  14  -3 -11    4.51    4.08
 -14   3  11   -5.33    5.34
 -14   2   0   41.91    8.48
  14  -2   0   28.92    6.58
  14  -2   0   34.50    7.18
   2  14   0   39.02    8.17
 -14   2  -1   29.25    6.81
  14  -2   1   31.62    6.44
 -14   2   1   34.16    7.79
  14  -2   1   33.98    7.46
   2  14  -1   33.26    8.25
   2  14  -1   35.82    7.89
   2  14   1   36.20    7.39
  14  -2  -1   35.98    6.92
  14  -2   2   26.77    5.95
  14  -2  -2   14.93    4.37
   2  14  -2   17.52    6.49
   2  14  -2   25.59    7.54
 -14   2   2   23.34    7.30
   2  14   2   20.13    4.81
 -14   2   2   14.43    2.45
   2  14   2   18.56    5.90
 -14   2  -2   16.80    5.20
   2  14   3   14.89    5.04
  14  -2   3   17.93    4.73
 -14   2   3   14.00    4.65
  14  -2   3    9.33    5.15
  14  -2  -3   17.73    4.14
   2  14  -3   16.49    6.55
   2  14  -3    8.00    4.37
   2  14   3   15.47    4.47
 -14   2  -3   16.01    4.91
   2  14   4    3.40    3.56
  14  -2   4    3.78    2.69
 -14   2   4   10.27    5.88
   2  14  -4    1.17    3.07
   2  14  -4    4.30    3.08
 -14   2   4    4.82    2.50
   2  14   4    2.87    2.24
 -14   2  -4    4.36    2.28
   2  14   5    2.07    3.15
 -14   2   5    2.12    2.72
   2  14  -5    4.23    3.84
 -14   2   5    0.53    2.48
  14  -2   5    0.14    2.76
  -2 -14   5   -3.95    3.76
 -14   2  -5    2.10    2.71
   2  14   5    0.36    1.57
 -14   2   6    1.10    2.01
   2  14   6    5.15    3.55
 -14   2   6    6.30    6.15
  14  -2   6    6.56    5.95
 -14   2   6    2.33    4.89
   2  14  -6    5.45    4.07
  -2 -14   6    1.42    3.10
  -2 -14   7   -2.42    1.75
 -14   2   7    7.65    4.95
 -14   2   7   10.19    6.63
   2  14   7    1.79    2.32
 -14   2   7    3.82    3.42
   2  14  -7   -0.19    2.35
 -14   2   8   -0.74    2.40
   2  14   8   -0.41    1.95
  14  -2   8    4.28    4.95
 -14   2   8   -0.97    1.66
  -2 -14   8    1.65    3.45
  14  -2  -9    3.04    4.43
 -14   2   9    1.69    4.35
   2  14   9   10.19    6.69
  -2 -14   9    3.41    3.34
 -14   2   9    4.92    3.81
  14  -2 -10   -1.28    2.79
 -14   2  10    7.10    6.25
  -2 -14  10    3.26    2.63
   2  14  10    4.69    3.89
 -14   2  10    2.20    2.30
  14  -2 -11    2.83    3.47
 -14   2  11    3.46    3.66
  14  -1   0   -0.10    1.97
  14  -1   0    2.22    2.30
   1  14   0    1.77    3.41
 -14   1  -1    2.06    2.48
  14  -1  -1    4.81    3.90
  14  -1   1    2.29    2.73
 -14   1   1    6.08    4.29
  14  -1   1    5.18    3.05
  14  -1  -1    8.14    3.69
   1  14  -1   10.54    5.69
   1  14   1    8.87    4.12
  14  -1  -2    2.20    3.69
  14  -1   2   10.10    3.95
 -14   1   2    2.15    4.16
  14  -1  -2    3.29    1.89
 -14   1   2    5.13    1.69
   1  14  -2   16.05    6.46
   1  14  -2   15.37    5.35
   1  14   2   12.60    4.46
   1  14   2    3.01    1.77
 -14   1  -2    1.14    1.24
   1  14   3   14.28    5.43
  14  -1   3   10.78    3.65
 -14   1   3   13.02    3.48
  14  -1  -3   14.06    3.79
  14  -1   3    5.33    3.59
   1  14  -3   18.01    6.65
   1  14  -3   20.59    6.15
 -14   1   3   11.58    5.85
   1  14   3   18.03    5.24
 -14   1  -3   13.59    4.30
   1  14   4   16.17    6.61
 -14   1   4   22.95    6.32
 -14   1   4   19.03    6.68
   1  14  -4   17.33    6.72
   1  14  -4   21.66    6.40
  14  -1   4   22.93    5.02
   1  14   4   21.73    5.91
 -14   1  -4   27.51    5.80
   1  14   5   23.33    7.57
 -14   1   5   24.53    6.59
  14  -1   5   15.43    6.22
   1  14  -5   18.40    7.10
  -1 -14   5   21.34    7.58
   1  14  -5   29.91    7.43
 -14   1   5   39.40    7.13
 -14   1  -5   20.35    4.92
   1  14   5   25.84    5.59
   1  14   6    5.57    1.74
 -14   1   6    6.77    4.47
   1  14  -6   -4.30    2.80
   1  14  -6    6.80    4.31
 -14   1   6    7.52    3.13
  -1 -14   6    6.21    4.22
  14  -1  -7   13.84    5.81
  -1 -14   7   13.22    6.99
   1  14   7   11.76    5.55
  14  -1   7   19.92    7.63
   1  14  -7    7.79    5.19
 -14   1   7   16.88    6.01
  14  -1  -8   36.78    9.58
 -14   1   8   47.53   12.38
   1  14   8   16.79    6.85
 -14   1   8   26.60    7.70
  -1 -14   8   24.12    8.72
  14  -1  -9   10.17    5.96
 -14   1   9   13.86    6.62
  -1 -14   9    7.32    5.02
   1  14   9   -0.18    2.58
 -14   1   9   22.19    7.14
  14  -1 -10    8.11    5.79
 -14   1  10    4.34    5.28
  -1 -14  10   -2.98    2.31
   1  14 -10   10.71    7.50
   1  14  10   -0.46    2.31
 -14   1  10    6.68    6.19
  14  -1 -11    9.54    5.40
 -14   1  11    3.80    3.96
  14   0   0  468.39   26.72
   0  14   0  505.05   28.41
  14   0  -1  342.16   23.51
  14   0   1  339.74   21.77
  14   0  -1  342.68   19.88
   0  14  -1  335.37   24.24
   0  14   1  337.41   22.52
   0  14   1  314.53   23.58
  14   0  -2  218.89   19.47
  14   0   2  241.23   17.50
  14   0  -2  262.46   15.87
  14   0   2  221.71   19.02
   0  14  -2  275.44   22.50
 -14   0   2  251.50   15.81
   0  14  -2  255.25   21.77
   0  14   2  275.57   19.53
 -14   0   2  252.37   11.33
   0  14   2  232.12   20.61
 -14   0  -2  222.90   16.16
 -14   0   3  244.55   22.03
  14   0  -3  252.15   21.60
  14   0   3  283.02   18.36
  14   0   3  260.20   21.80
 -14   0   3  251.78   14.18
  14   0  -3  259.64   14.26
   0  14  -3  256.56   21.37
   0  14  -3  270.60   23.54
   0  14   3  283.53   19.41
   0  14   3  280.74   23.04
 -14   0  -3  264.77   17.00
  14   0  -4   80.92   13.00
  14   0   4   85.51    9.53
   0  14   4   80.84   12.69
 -14   0   4   85.67   11.35
 -14   0   4   70.59   12.50
   0  14  -4   73.75   12.91
   0  14  -4   76.12   11.79
   0  14   4   89.16   10.96
 -14   0  -4   75.27    8.72
 -14   0   4   75.17    8.84
  14   0  -5   13.04    6.07
   0  14   5    9.39    5.21
 -14   0   5   11.85    5.00
   0  14  -5   16.67    7.27
   0 -14   5   16.53    5.71
   0  14  -5   12.18    4.36
   0  14   5   12.14    4.56
   0  14   6    4.89    1.96
  14   0  -6   -0.01    3.41
   0  14   6   11.92    6.15
 -14   0   6    5.12    3.25
  14   0   6    1.79    2.58
   0  14  -6    8.46    5.79
   0  14  -6   11.86    5.36
   0 -14   6   11.74    5.73
 -14   0   6   13.48    5.40
   0 -14   7    7.68    5.21
  14   0  -7    5.13    3.96
 -14   0   7    6.47    4.73
   0  14   7    9.09    5.98
   0  14  -7    4.37    4.30
 -14   0   7    4.15    3.77
  14   0  -8   39.37   10.58
 -14   0   8   44.99   10.49
 -14   0   8   43.31   11.69
   0  14   8   26.44    8.86
   0  14  -8   42.44   11.92
   0 -14   8   41.65   11.20
 -14   0   8   39.04    9.53
  14   0  -9   52.76   12.45
 -14   0   9   19.79    7.40
 -14   0   9   49.73   12.54
  14   0   9   38.21   11.04
   0 -14   9   43.05   11.26
   0  14   9   38.82   11.07
   0  14  -9   31.04   10.36
 -14   0   9   36.71    9.46
  14   0 -10   32.34    9.88
 -14   0  10   38.45   11.90
   0 -14  10   34.44   10.94
  14   0  10   32.74    9.91
   0  14 -10   34.63   11.65
   0  14  10   29.79   10.01
 -14   0  10   32.23    9.52
 -14   0  10   36.85   10.74
  14   0 -11   35.28   10.47
 -14   0  11   47.41   12.12
  14   1   0    0.03    2.50
  -1  14   0   -0.36    0.25
  14   1   0    1.07    2.40
  -1  14   0   -0.93    2.11
  14   1  -1   -0.50    2.29
  14   1   1    0.20    1.61
 -14  -1   1    3.56    3.66
  14   1  -1    4.11    2.35
  -1  14  -1    0.51    1.82
  -1  14   1    1.66    2.60
  -1  14   1    1.63    3.57
  14   1  -2    0.18    2.29
  14   1   2   -0.30    0.40
  14   1   2   -1.17    1.63
 -14  -1   2   -2.17    2.26
  -1  14  -2    0.05    2.10
  -1  14   2   -1.43    2.39
  -1  14   2    0.64    3.44
 -14  -1  -3    4.26    2.71
  -1  14   3    5.41    3.81
 -14  -1   3    3.17    2.38
  14   1   3    3.89    2.41
  14   1   3    4.26    1.60
  14   1  -3   -2.17    2.88
 -14  -1   3    4.09    2.71
  14   1  -3    6.48    2.56
  14   1   3    4.07    3.17
  -1  14  -3    4.50    3.49
  -1  14   3    6.44    4.70
 -14  -1  -4    5.53    2.40
  14   1   4    4.58    1.98
  14   1  -4    6.22    2.10
  -1  14   4    2.87    2.46
  14   1   4    4.48    2.59
  14   1   4    7.57    5.02
 -14  -1   4    7.18    3.21
  -1  14  -4    9.86    5.19
  -1  14  -4   16.89    5.89
  -1  14   4    8.09    3.76
  14   1  -5   -0.66    2.82
  14   1   5    0.80    2.24
  -1  14   5    3.77    3.63
 -14  -1   5    0.89    1.51
 -14  -1   5    3.19    3.33
 -14  -1   5    0.86    4.23
  -1  14  -5    5.94    4.62
   1 -14   5   -0.02    2.64
  -1  14   5    6.28    3.37
  -1  14   6    9.10    3.84
 -14  -1   6    4.90    2.84
  14   1  -6    2.91    2.87
 -14  -1   6    2.12    2.62
  -1  14   6    5.67    4.21
  -1  14  -6    6.06    4.50
   1 -14   6    5.35    4.47
   1 -14   7    2.77    3.23
  14   1  -7    5.59    4.19
 -14  -1   7    3.48    3.85
 -14  -1   7    0.02    2.48
  -1  14   7    0.61    2.19
  -1  14  -7   -0.49    2.03
 -14  -1   8    1.17    1.82
  14   1  -8   -0.51    3.24
 -14  -1   8   -2.12    3.36
 -14  -1   8    1.36    3.82
  -1  14   8    7.54    5.48
  -1  14  -8    5.25    4.23
   1 -14   8    8.54    4.90
 -14  -1   9   -0.58    1.76
  14   1  -9   -3.70    3.57
 -14  -1   9    4.72    4.86
  14   1   9    7.20    4.36
   1 -14   9    3.79    3.59
  -1  14   9   17.27    7.65
  -1  14  -9    9.96    5.85
 -14  -1  10    3.07    2.89
  14   1 -10    4.98    4.42
 -14  -1  10    2.95    5.03
   1 -14  10   -0.26    2.62
  14   1  10    2.19    4.34
  -1  14 -10    6.26    7.35
  -1  14  10    2.58    2.81
  14   1 -11   -2.92    3.16
  14   2   0  256.95   19.92
  -2  14   0  260.64    9.08
  -2  14   0  236.64   19.82
  14   2   0  262.53    9.17
  14   2   1  228.83    8.22
  14   2  -1  211.17   18.79
  14   2   1  226.56   18.12
  14   2  -1  242.45   16.47
  -2  14  -1  227.24   20.33
  -2  14   1  230.54   19.17
  -2  14   1  220.82   19.80
  14   2  -2  180.67   17.84
  14   2   2  179.74   15.74
  14   2   2  174.28    8.57
 -14  -2   2  154.52   17.04
  -2  14  -2  168.90   18.15
  -2  14   2  189.79   16.91
  -2  14   2  168.86   17.52
  14   2  -3  149.53   16.55
  14   2   3  155.52   14.16
 -14  -2   3  139.28   16.49
  14   2   3  154.90    9.77
  14   2  -3  144.19   10.30
 -14  -2   3  153.12   11.86
  -2  14  -3  132.06   16.50
  -2  14   3  149.06   14.76
  -2  14   3  152.91   17.12
  -2  14   4   56.65   10.59
  14   2  -4   52.05   10.17
  14   2   4   41.62    7.36
  -2  14  -4   47.81   10.43
 -14  -2   4   48.43    7.48
  -2  14   4   41.51    7.89
  14   2   4   52.48    6.64
  14   2   5   18.26    4.55
  14   2  -5   14.17    6.60
   2 -14   5   12.70    5.55
  -2  14   5   19.43    6.78
 -14  -2   5   24.92    8.24
 -14  -2   5   18.48    4.94
  14   2   5   17.71    4.91
  -2  14  -5   11.82    5.15
  -2  14   5   20.27    5.61
  -2  14   6    5.76    3.34
  14   2   6    6.01    3.48
 -14  -2   6    7.73    3.99
  14   2  -6    1.88    2.55
  -2  14   6   -0.50    1.87
  14   2   6    2.62    2.09
  -2  14  -6    7.95    4.84
   2 -14   6    2.70    2.60
  14   2  -7   20.24    7.69
   2 -14   7   26.21    8.21
 -14  -2   7   24.83    7.30
 -14  -2   7   24.80    9.36
  -2  14   7   15.30    6.35
  -2  14  -7   27.92    9.27
 -14  -2   8   42.80    9.69
  14   2  -8   63.44   13.01
  14   2   8   56.05   12.76
  -2  14   8   58.19   13.18
  -2  14  -8   70.12   14.89
   2 -14   8   48.85   11.67
 -14  -2   9   60.92   12.58
  14   2  -9   34.21   10.16
 -14  -2   9   55.55   13.29
  14   2   9   49.78   12.46
   2 -14   9   46.31   11.73
  -2  14   9   52.36   12.38
  -2  14  -9   64.67   14.91
 -14  -2  10   34.18    9.45
  14   2 -10   49.30   12.48
 -14  -2  10   54.71   13.85
   2 -14  10   48.80   12.67
  -2  14 -10   67.88   15.81
  -2  14  10   41.48   11.93
 -14  -2  11   29.81    9.66
  14   2 -11   43.57   11.51
  14   3   0    5.17    4.34
  -3  14   0    1.75    1.11
  14   3   0   -1.30    1.74
  -3  14   0    0.22    2.36
  14   3   0    1.23    1.35
  14   3  -1    0.82    2.80
  14   3   1    3.53    1.33
  14   3   1    5.50    4.07
 -14  -3   1    9.84    5.36
  -3  14   1    2.58    1.58
  -3  14  -1    5.34    4.27
  -3  14   1    8.96    5.54
  -3  14   1    3.29    2.24
  14   3  -2    7.93    4.15
  14   3   2    3.68    3.44
  14   3  -2   -1.71    1.61
  14   3   2    1.74    1.14
  14   3   2    1.73    2.27
  -3  14  -2    1.77    3.12
 -14  -3   2    2.22    3.87
  -3  14   2    2.76    3.11
  -3  14   2    1.16    2.38
  -3  14   3    0.50    1.32
  14   3  -3    7.97    5.06
 -14  -3   3    1.52    1.85
 -14  -3   3   12.87    5.89
  14   3   3   -0.31    2.41
  14   3  -3    0.90    1.60
  14   3   3    4.03    4.30
  14   3   3    1.96    1.89
  -3  14  -3    2.77    3.01
  -3  14   3    6.81    4.02
 -14  -3   4   36.69    6.87
  -3  14   4   28.74    7.68
  14   3  -4   32.45    8.44
  14   3   4   37.21    7.08
  -3  14  -4   30.91    8.98
  14   3   4   31.32    5.44
  -3  14   4   37.51    8.05
  14   3  -5    4.94    3.25
  -3  14   5    7.48    4.77
  14   3   5    8.67    3.74
 -14  -3   5   -1.21    2.80
  14   3   5   11.31    5.03
  -3  14  -5    2.14    2.46
 -14  -3   5    5.69    3.83
   3 -14   5   -0.90    3.27
  -3  14   5    6.24    4.14
   3 -14   6    9.36    5.38
  -3  14   6    6.79    4.78
 -14  -3   6    7.05    3.99
  14   3  -6   -0.38    2.81
  -3  14   6    2.68    2.91
  14   3   6    5.52    4.13
  -3  14  -6   -2.79    4.16
  14   3   6    0.98    1.98
  14   3  -7   27.96    8.51
   3 -14   7    8.46    3.72
 -14  -3   7   26.83    7.25
  -3  14  -7    8.91    5.70
 -14  -3   8    7.05    5.05
  14   3  -8    3.83    4.08
 -14  -3   8    8.47    4.48
  -3  14   8    3.29    3.28
  -3  14  -8    9.51    6.57
   3 -14   8    6.31    4.67
  14   3  -9   -4.28    4.44
 -14  -3   9    4.08    4.19
 -14  -3   9    5.34    4.86
   3 -14   9    0.12    2.63
  -3  14   9    4.92    3.51
  -3  14  -9    0.36    4.83
  14   3 -10   -0.22    2.15
  14   3  10   -0.59    4.87
   3 -14  10   10.39    6.60
 -14  -3  10    2.25    3.94
  -3  14 -10    2.89    2.50
  -3  14  10    1.81    2.42
 -14  -3  10    1.53    1.91
  14   3 -11   -4.65    4.29
 -14  -3  11    2.73    2.19
  14   4   0   19.60    5.90
  -4  14   0   15.25    2.95
  -4  14   0   16.76    6.09
  14   4   0   15.84    3.44
  14   4   1    1.97    1.76
 -14  -4   1    0.38    0.85
  14   4  -1    3.60    3.14
  14   4   1   -2.67    3.10
  14   4  -1    1.30    1.27
  -4  14  -1   -2.71    2.44
  -4  14   1    7.21    5.00
  -4  14   1    1.43    3.08
  14   4  -2    9.94    4.16
 -14  -4   2    8.09    5.09
  14   4   2    0.39    2.58
  14   4  -2    1.15    1.93
  14   4   2    3.35    2.22
  14   4   2    2.52    2.88
  -4  14  -2    1.38    2.63
  -4  14   2    0.43    2.97
  -4  14   2    2.15    2.72
  -4  14   3   -0.67    2.00
 -14  -4   3    3.67    2.41
  14   4  -3    9.46    5.20
 -14  -4   3    6.17    4.97
  14   4   3    3.69    3.17
  14   4   3    4.84    2.36
  -4  14  -3    6.11    5.27
  -4  14   3    2.22    2.32
  -4  14   4    9.86    5.18
  14   4  -4    1.80    4.45
  14   4   4    2.00    2.64
 -14  -4   4    6.29    3.08
 -14  -4   4    3.98    3.66
  14   4   4    4.88    2.18
  -4  14  -4    5.02    3.98
  -4  14   4    9.09    4.33
  14   4  -5    6.39    4.41
  -4  14   5    5.21    3.18
  14   4   5    6.69    3.90
  14   4   5    6.95    4.47
  -4  14  -5   -0.38    2.33
  14   4   5    0.33    1.20
   4 -14   5    5.72    4.17
 -14  -4   5    2.31    2.01
  -4  14   5    2.99    3.23
  -4  14   6    2.74    2.67
  14   4  -6    2.08    2.06
   4 -14   6   -2.73    1.50
 -14  -4   6    4.71    5.15
  -4  14   6    2.11    2.72
  -4  14  -6    7.91    5.79
 -14  -4   6    5.53    3.36
  14   4   6    5.10    2.69
  14   4  -7   -1.33    2.41
  -4  14   7    2.29    2.49
 -14  -4   7    4.04    4.20
  -4  14  -7    0.55    2.69
   4 -14   7    5.75    4.28
  14   4   7    5.25    3.78
  14   4  -8   11.23    6.26
 -14  -4   8    0.17    2.07
 -14  -4   8    8.79    4.68
  14   4   8    4.49    3.12
  -4  14   8    0.41    2.90
  -4  14  -8    1.78    4.06
   4 -14   8    4.01    5.30
  14   4  -9    1.09    3.36
 -14  -4   9    5.23    5.13
  -4  14   9    5.92    5.45
  -4  14  -9   -3.97    4.36
   4 -14   9    5.65    5.34
  14   4   9   -2.89    2.86
  14   4 -10   -4.01    4.38
 -14  -4  10    5.82    4.75
 -14  -4  10    6.17    4.61
   4 -14  10    0.63    3.51
  -4  14 -10    9.22    6.26
  -4  14  10    1.64    2.86
  14   4 -11    2.53    4.25
  14   5   0    0.04    3.27
  -5  14   0    2.32    3.50
  14   5   0    2.00    1.94
  14   5   1    1.67    1.02
 -14  -5   1    5.27    2.14
  14   5  -1    3.80    3.92
  -5  14   1    1.98    2.45
  14   5  -1    5.16    3.07
  14   5   1    8.38    4.58
  14   5   1   13.94    5.21
  -5  14  -1    5.62    4.24
  -5  14   1    3.04    2.89
  -5  14   1    8.25    3.90
  14   5   2   14.46    3.53
  14   5  -2   12.44    6.28
  -5  14   2   11.77    4.11
  14   5   2   16.16    5.10
  14   5  -2   12.97    3.76
  14   5   2   12.65    5.08
  -5  14  -2   10.16    4.78
  -5  14   2   12.61    4.85
  -5  14   2   12.14    5.36
 -14  -5   3   41.59    8.93
  -5  14   3   47.45    9.47
 -14  -5   3   40.44    6.97
  14   5  -3   30.17    7.92
  14   5  -3   40.73    5.89
  14   5   3   37.73    6.09
  14   5   3   33.80    7.34
  -5  14  -3   42.60    9.53
  -5  14   3   45.30    8.95
  -5  14   4   13.56    5.43
  14   5   4   24.27    6.40
  14   5   4   23.95    5.42
  -5  14  -4    3.48    3.24
  14   5  -4   14.23    5.36
  -5  14   4   20.09    6.74
 -14  -5   4   17.44    5.19
  -5  14   5   28.08    8.01
  14   5  -5   19.87    6.68
 -14  -5   5   20.82    6.35
  14   5   5   16.64    5.43
  14   5   5   17.85    5.65
  -5  14  -5   17.64    6.84
  -5  14   5   29.93    7.93
  -5  14   6   27.41    7.30
  14   5  -6   20.53    6.87
 -14  -5   6   25.05    7.59
  -5  14   6   33.39    8.70
   5 -14   6   38.53    9.53
  14   5   6   29.21    9.08
  -5  14  -6   31.24    8.93
  14   5   6   28.03    6.52
 -14  -5   6   37.79    8.79
  14   5  -7    1.79    4.10
   5 -14   7    4.75    2.73
  14   5   7   13.54    7.08
  -5  14   7    7.88    4.37
  -5  14  -7   11.37    7.08
 -14  -5   7    3.05    3.22
  14   5  -8    6.91    5.02
  14   5   8    6.82    4.79
  -5  14   8   35.50    9.96
  -5  14  -8   35.93   11.24
   5 -14   8   19.84    7.92
  14   5  -9    8.22    5.07
 -14  -5   9   12.11    7.64
 -14  -5   9    8.58    4.29
  -5  14   9   18.61    8.29
  -5  14  -9   20.72    8.74
   5 -14   9   34.94   10.17
  14   5 -10    6.04    5.98
  14   5  10   -1.42    2.63
 -14  -5  10   -3.05    3.44
   5 -14  10   10.97    6.18
  -5  14 -10    2.74    4.43
  -5  14  10   14.68    7.39
  14   6   0  116.04   14.62
  -6  14   0  128.61   10.07
  14   6   0  113.34   12.94
  -6  14   0  127.24   15.65
  14   6   0  110.12   10.20
  14   6  -1   98.41   13.46
  -6  14   1  109.26   10.34
  14   6   1   84.89   12.18
  14   6  -1  107.33   11.81
  14   6   1   96.08   12.35
  -6  14   1  103.35   13.86
  -6  14  -1   78.99   12.63
  -6  14   1   97.49   12.90
  14   6   1  101.68    9.74
  -6  14   2   80.74   11.69
  14   6  -2   89.85   13.32
  -6  14   2   75.79    9.40
  14   6   2   89.36   12.22
  14   6  -2   78.10    9.38
  -6  14  -2   67.57   12.14
  14   6   2   86.35    9.10
  -6  14   2   95.38   13.22
  -6  14   3   41.92    9.08
  14   6  -3   48.30   10.08
  14   6   3   36.32    6.32
  14   6   3   40.48    9.09
  14   6   3   41.22    8.59
  -6  14  -3   36.98    8.92
  -6  14   3   40.55    8.79
  -6  14   4    5.43    3.71
  14   6  -4    9.28    5.34
 -14  -6   4    5.30    4.81
  14   6   4    8.00    2.95
  14   6   4    6.93    4.92
  14   6   4   18.36    6.67
 -14  -6   4    6.42    3.80
  -6  14  -4    0.70    2.85
  -6  14   4    1.97    2.54
  14   6  -5    6.99    4.33
  -6  14   5    2.76    3.35
  14   6   5   11.40    5.09
  14   6   5    5.95    3.12
  14   6   5   11.31    5.28
 -14  -6   5    4.74    3.12
  -6  14  -5   12.22    6.30
  -6  14   5    1.94    3.04
  -6  14   6   -1.45    2.40
 -14  -6   6    8.02    4.56
  14   6  -6    8.92    5.92
 -14  -6   6    6.57    5.61
  -6  14   6    0.65    2.23
  14   6   6   -1.26    3.61
  -6  14  -6   -0.20    3.43
  14   6   6   -0.20    1.66
   6 -14   6   11.51    5.83
  14   6  -7    8.78    4.89
 -14  -6   7    7.61    4.08
  -6  14   7    1.28    1.83
   6 -14   7   10.53    5.56
  -6  14  -7    5.25    4.82
  14   6   7   11.98    4.38
 -14  -6   7    3.34    1.69
   6 -14   8    1.39    3.73
  14   6  -8   21.48    8.70
  14   6   8   23.93    8.66
  -6  14   8   10.36    5.35
  -6  14  -8   26.86    9.61
 -14  -6   8   19.01    6.33
  14   6  -9   16.14    6.32
  -6  14  -9    4.07    4.43
  -6  14   9   10.35    5.80
 -14  -6   9   16.93    7.36
   6 -14   9   14.09    7.05
  14   6   9   16.25    7.96
  14   6 -10   12.50    6.15
 -14  -6  10   30.61    9.84
   6 -14  10    7.15    4.72
 -14  -6  10   19.34    7.48
  -6  14 -10    7.40    5.45
  -6  14  10   17.45    8.31
  -7  14   0    1.17    1.76
  14   7   0    8.33    4.71
  14   7   0    3.78    3.70
  -7  14   0    0.53    1.95
  -7  14   0    1.56    3.48
  14   7  -1    2.85    5.31
  14   7   1    2.90    3.22
  14   7   1    6.08    4.66
  -7  14  -1    7.45    5.38
  -7  14   1   -1.02    3.50
  -7  14   1   -2.29    1.86
  -7  14   1   -0.24    1.60
  14   7   1    1.78    1.87
  -7  14   2   31.24    7.58
  14   7   2   34.26    6.49
 -14  -7   2   42.64    8.75
  14   7  -2   39.37    9.19
  14   7  -2   48.18    7.64
  14   7   2   44.13    9.52
  14   7   2   30.92    7.97
  -7  14  -2   29.99    8.08
  -7  14   2   37.01    8.45
  14   7  -3  227.89   21.97
  14   7   3  261.53   21.82
 -14  -7   3  230.62   20.67
  -7  14   3  262.25   19.82
  14   7   3  242.41   22.42
  -7  14  -3  215.42   22.10
  -7  14   3  203.43   20.08
  -7  14   3  218.61   19.85
  14   7   3  247.39   17.35
  14   7  -4  218.23   21.88
 -14  -7   4  218.86   20.76
  14   7   4  255.42   21.55
  14   7   4  216.13   21.80
  -7  14  -4  215.41   22.71
  -7  14   4  243.17   22.04
 -14  -7   4  262.86   20.46
  -7  14   4  211.36   20.32
  14   7   4  251.58   18.44
  14   7   5  236.71   18.86
  14   7  -5  226.12   22.86
 -14  -7   5  276.41   24.27
  14   7   5  236.09   20.50
  14   7   5  239.25   24.06
 -14  -7   5  237.43   20.67
  -7  14  -5  208.61   23.06
  -7  14   5  256.90   23.02
  -7  14   5  245.03   22.64
  -7  14   6  178.20   20.26
  14   7  -6  165.35   20.14
  14   7   6  164.49   16.77
  14   7   6  159.12   20.22
 -14  -7   6  169.76   18.64
  -7  14  -6  162.38   21.02
  -7  14   6  164.49   18.83
   7 -14   6  162.10   18.74
  -7  14   7  150.91   19.44
  14   7  -7  125.92   17.73
  14   7   7  119.73   18.59
  14   7   7  139.54   16.37
 -14  -7   7  124.71   17.37
 -14  -7   7  125.36   16.85
  -7  14  -7  131.72   19.63
   7 -14   7  135.06   18.04
  14   7  -8  126.41   18.47
  -7  14   8  127.27   18.63
 -14  -7   8  109.38   16.99
 -14  -7   8  118.17   17.31
  14   7   8   99.58   14.60
  14   7   8  120.62   19.26
  -7  14  -8  131.05   19.99
   7 -14   8  132.66   18.46
  14   7  -9   53.79   12.34
  14   7   9   65.94   15.42
  -7  14  -9   49.30   12.54
  -7  14   9   66.30   14.06
 -14  -7   9   70.26   14.25
   7 -14   9   59.32   12.99
  14   7 -10   37.45   10.66
  -7  14 -10    4.36    4.73
   7 -14  10   30.14    9.92
 -14  -7  10   22.28    7.92
  14   8   0   42.41    8.93
  14   8   0   45.99    8.89
  -8  14   0   47.22   10.21
  -8  14   0   46.02    8.49
  14   8  -1    5.19    3.86
  14   8  -1   11.17    4.98
  14   8   1   -2.84    2.64
  14   8   1    4.77    3.64
  -8  14  -1    1.71    1.94
  -8  14   1   11.26    4.01
  -8  14   1   13.05    5.78
  14   8   1    4.46    2.90
  -8  14   1   10.16    4.39
  -8  14   2   13.99    5.00
  14   8   2    9.73    3.50
  14   8  -2   20.59    7.19
  14   8   2   12.88    6.28
  14   8   2   15.47    6.37
  -8  14   2   11.97    4.01
  -8  14  -2   12.79    5.34
  -8  14   2   15.49    5.79
  -8  14   3   45.63    8.84
  14   8   3   29.26    6.28
  14   8  -3   51.62   10.85
  -8  14   3   63.30    9.93
  14   8   3   47.23   10.18
  14   8   3   33.27    8.28
  -8  14  -3   36.58    9.38
  -8  14   3   57.92   11.05
  -8  14   4    2.48    2.67
 -14  -8   4    2.90    4.10
  14   8  -4    1.60    4.05
  14   8   4    7.61    3.53
  14   8   4    4.25    5.16
  14   8   4    8.69    5.61
  -8  14  -4    5.82    5.94
  -8  14   4    7.88    4.59
  -8  14   5    4.40    5.08
  14   8   5    1.97    3.38
  14   8   5   -1.60    1.87
  14   8  -5    3.04    3.97
  14   8   5    7.18    3.89
 -14  -8   5   10.54    5.02
 -14  -8   5    4.93    4.63
  -8  14  -5   -4.54    3.88
  -8  14   5    0.01    2.70
  -8  14   6    6.64    4.37
  14   8   6    6.18    5.51
  -8  14   6    1.95    2.23
  14   8   6   -0.18    2.55
  -8  14  -6    9.69    6.58
   8 -14   6    6.81    4.61
 -14  -8   6    0.47    2.94
  14   8  -6    5.67    3.86
   8 -14   7   -1.33    2.18
 -14  -8   7    1.71    3.56
  14   8   7   -2.58    3.13
 -14  -8   7   -0.25    2.25
  14   8  -7    3.85    4.02
  -8  14   7   -1.10    1.89
  14   8   7    1.90    2.79
  -8  14  -7    0.70    2.11
 -14  -8   8    7.74    5.23
  14   8  -8    9.94    4.85
 -14  -8   8    2.95    2.77
   8 -14   8    1.26    3.83
  14   8   8   12.68    8.40
  -8  14   8    4.95    3.63
  -8  14  -8    6.75    4.52
  14   8   8   -0.04    1.84
   8 -14   9    3.06    2.08
 -14  -8   9   13.96    7.15
  14   8   9   -5.38    5.16
  14   8  -9    8.10    5.24
  -8  14  -9    7.83    6.73
  -8  14   9    6.11    5.53
  14   8 -10    8.22    6.17
  -8  14 -10    1.80    4.35
   8 -14  10    2.09    4.73
 -14  -8  10    6.00    4.35
  -9  14   0    4.65    3.53
  14   9   0   -1.35    2.53
  -9  14   0   -1.89    2.02
  -9  14   0   -2.04    1.25
  -9  14   1    6.87    3.18
  14   9  -1    7.21    4.92
  14   9   1    0.54    1.93
  -9  14  -1   -2.28    1.56
  -9  14   1    6.40    4.40
  14   9   1    3.63    2.10
  -9  14   1    2.13    2.81
  14   9   2   59.28    9.06
  -9  14   2   71.30   10.75
  -9  14   2   82.70   11.21
  14   9  -2   70.93   12.33
  14   9   2   70.42   12.45
  14   9   2   60.74   11.42
  -9  14  -2   68.41   12.88
  -9  14   2   74.26   12.41
  14   9  -3  123.15   16.75
  14   9   3  131.15   16.16
  -9  14   3  151.60   15.88
  14   9   3  137.25   17.59
  -9  14  -3  132.15   17.85
  -9  14   3  137.17   17.38
  14   9   3  133.92   14.01
  -9  14   3  118.06   14.53
  14   9  -4  196.68   21.72
 -14  -9   4  221.28   20.68
  -9  14   4  196.94   19.32
  14   9   4  201.21   21.92
  -9  14  -4  210.66   23.01
  -9  14   4  211.34   21.68
  14   9   4  231.63   21.96
  -9  14   4  212.13   20.13
  14   9   4  194.71   17.72
  14   9  -5  190.06   21.85
 -14  -9   5  187.41   19.72
  14   9   5  211.88   20.96
  14   9   5  169.08   21.21
  -9  14  -5  190.01   22.13
 -14  -9   5  192.16   19.80
  -9  14   5  187.17   20.61
  -9  14   5  187.20   19.88
  14   9   5  203.18   18.86
  -9  14   6   79.72   14.02
  -9  14   6  105.77   15.71
  14   9   6   82.99   12.89
 -14  -9   6  110.95   15.75
  14   9   6   88.06   15.76
  14   9  -6  104.03   16.28
  -9  14  -6   81.53   15.00
 -14  -9   6   79.77   13.36
  -9  14   7  114.71   16.99
  14   9   7  109.21   15.27
  14   9  -7   87.58   15.45
  14   9   7   98.43   17.20
   9 -14   7   91.53   14.99
  -9  14  -7   90.06   16.49
 -14  -9   7  104.97   16.15
  14   9  -8  106.28   17.39
 -14  -9   8   86.97   15.06
  14   9   8   96.60   18.17
 -14  -9   8   92.63   16.03
   9 -14   8  100.70   16.18
  -9  14   8   93.58   16.31
  -9  14  -8   92.52   17.01
  14   9   8   99.69   15.46
   9 -14   9   29.77    9.30
 -14  -9   9   48.26   12.46
 -14  -9   9   41.28   10.71
  14   9   9   36.28   11.99
  -9  14  -9   49.25   12.81
  -9  14   9   41.99   11.40
  14   9  -9   45.11   12.04
 -14  -9  10    5.94    5.15
  -9  14 -10    7.65    5.36
  14   9 -10    7.98    5.79
   9 -14  10    9.82    5.61
  14  10   0    7.66    4.21
  14  10   0   18.09    6.59
 -10  14   0    6.27    4.95
 -10  14   0   12.19    5.08
 -10  14   1    1.74    2.34
 -10  14   1    0.53    2.03
  14  10  -1   -1.47    2.28
  14  10   1    0.44    2.71
 -10  14  -1    3.14    3.26
 -10  14   1   -3.77    3.72
  14  10   1    2.77    2.69
  14  10   2    0.96    2.35
 -10  14   2    1.15    1.76
  14  10  -2   -0.52    2.39
  14  10   2    4.62    5.52
 -10  14  -2   -0.44    2.49
 -10  14   2   -0.89    1.89
  14  10   3    2.56    3.04
 -10  14   3    7.77    4.66
  14  10  -3    0.26    1.84
  14  10   3    2.79    2.30
  14  10   3    4.18    4.21
 -10  14  -3    2.81    4.54
 -10  14   3    1.29    1.99
  14  10   4    8.82    5.00
 -14 -10   4   11.30    4.85
 -10  14   4    0.63    1.60
  14  10  -4    7.04    3.30
  14  10   4   12.20    5.71
 -10  14  -4    1.67    3.45
 -10  14   4    6.76    5.38
 -10  14   5    6.70    3.70
 -14 -10   5    5.99    3.77
  14  10  -5    6.52    5.55
 -10  14   5   -0.36    1.93
  14  10   5   10.20    5.33
  14  10   5    6.64    5.97
 -10  14   5    0.73    2.33
  14  10   5    2.27    3.55
 -10  14  -5    2.45    3.65
 -14 -10   5    5.13    3.93
 -10  14   6   -1.56    1.76
 -14 -10   6   11.22    5.21
 -14 -10   6    9.14    5.17
  14  10  -6   -3.45    3.89
  14  10   6    4.32    3.43
  14  10   6    8.30    4.43
 -10  14   6    0.73    3.06
  14  10   6    5.29    4.45
 -10  14  -6   -1.06    3.10
 -14 -10   7   -0.11    2.99
 -14 -10   7    1.73    4.40
  14  10  -7   14.61    6.75
  14  10   7    7.62    5.47
  14  10   7    1.85    3.41
  10 -14   7    2.16    2.99
 -10  14   7    2.97    4.29
 -10  14  -7   -3.12    3.14
  10 -14   8   -0.05    1.92
  14  10  -8    0.06    2.55
  14  10   8    3.19    4.30
 -10  14   8    0.22    1.95
 -10  14  -8   -0.25    3.74
 -14 -10   8    6.29    4.92
  14  10  -9   -3.69    4.31
 -10  14  -9   -3.14    2.90
 -10  14   9    0.08    3.64
  14  10 -10    3.62    2.24
  14  11   0   -0.23    3.06
 -11  14   0    1.11    2.37
 -11  14   0    3.44    2.69
 -11  14   1   14.79    4.88
 -11  14   1   20.72    5.97
  14  11   1   18.67    7.00
  14  11  -1   11.65    5.30
 -11  14  -1   12.59    4.23
 -11  14  -1   19.35    7.64
 -11  14   1   29.08    8.39
  14  11   1   19.30    5.93
  14  11   1   17.14    7.69
  14  11   2   10.85    4.96
 -11  14   2    0.37    1.59
  14  11  -2   -0.44    1.76
  14  11   2   -0.53    2.21
 -11  14  -2    7.26    4.64
 -11  14   2    2.28    2.91
  14  11   3   -4.45    3.64
 -11  14   3    0.82    2.41
 -11  14   3    8.42    4.83
  14  11  -3    1.96    3.65
  14  11   3   -2.04    2.82
  14  11   3    0.09    1.94
 -11  14  -3    0.28    2.81
 -11  14   3    6.03    4.36
  14  11   4   -0.13    1.62
 -11  14   4    2.77    2.73
  14  11  -4    2.47    3.41
  14  11   4    5.40    4.13
 -11  14  -4    4.11    4.03
 -11  14   4    0.83    1.58
 -11  14   5    1.90    3.82
 -14 -11   5    4.33    3.56
  14  11   5    4.74    3.23
 -11  14   5    0.81    3.83
 -11  14   5    4.39    3.15
  14  11   5   11.85    7.24
 -11  14  -5    2.21    3.00
  14  11  -5    8.51    4.69
 -14 -11   6    1.19    3.44
 -11  14   6    2.51    4.35
 -14 -11   6    5.26    2.78
 -11  14   6    3.58    3.21
  14  11  -6   -1.23    3.66
 -11  14   6    6.02    4.28
  14  11   6   12.02    5.97
 -11  14  -6    1.24    4.18
  14  11  -7    3.14    3.24
  14  11   7    0.14    2.50
 -11  14   7    5.15    3.54
 -11  14  -7    3.09    4.79
 -14 -11   7    2.74    3.97
 -14 -11   8    1.10    2.03
  14  11  -8   -1.93    3.35
  14  11   8    2.92    3.75
 -11  14   8    5.32    3.33
 -11  14  -8    0.02    4.58
  14  11  -9    6.11    5.53
 -11  14  -9    0.98    5.74
 -11  14   9    2.10    4.01
 -14 -11   9    3.92    4.10
 -12  14   0   42.87    8.36
  14  12   0   53.87   11.70
 -12  14   0   46.37   10.76
 -12  14   0   37.44    7.61
 -12  14   1   12.51    4.41
  14  12  -1   11.41    5.83
  14  12   1   17.45    7.10
 -12  14  -1   17.27    7.24
 -12  14  -1   14.72    4.60
  14  12   1   18.56    6.31
 -12  14   1   15.08    6.96
  14  12   2   10.62    4.46
 -12  14   2    8.10    3.89
  14  12   2   16.96    6.84
  14  12  -2    5.24    4.43
  14  12   2    7.51    5.90
 -12  14  -2   12.86    5.46
 -12  14   2   18.57    8.24
 -12  14   3   15.32    5.29
  14  12   3   12.77    4.74
  14  12   3   13.84    6.86
 -12  14   3   12.81    5.72
  14  12  -3    3.32    2.97
  14  12   3    3.92    3.65
 -12  14  -3    1.05    2.51
 -12  14   3    8.40    5.65
  14  12   4    5.18    3.88
 -12  14   4   10.52    5.32
  14  12  -4    9.44    5.12
  14  12   4    6.68    4.08
 -12  14  -4   11.08    5.97
 -12  14   4   11.16    5.60
 -12  14   5   11.85    6.00
  14  12   5    7.05    3.85
 -12  14   5    4.77    3.79
  14  12  -5    4.47    4.30
  14  12   5    5.61    5.09
 -12  14   5   -1.18    3.02
  14  12   5    2.95    3.59
 -12  14  -5    2.59    3.89
 -12  14   6    5.00    5.03
 -12  14   6   -2.68    3.37
  14  12  -6    5.80    5.21
  14  12   6   -0.06    3.39
  14  12   6    0.29    2.90
 -12  14   6    4.82    4.52
  14  12   6   -1.18    1.92
 -12  14  -6   -2.67    4.46
 -12  14   7    2.77    2.55
  14  12  -7    4.82    3.94
  14  12   7   10.03    5.80
  14  12   7    0.78    3.13
 -12  14   7    2.88    3.56
 -14 -12   7    3.32    4.38
 -12  14  -7   11.78    6.15
  14  12  -8    2.32    3.87
  14  12   8    1.61    5.46
  14  12   8    4.18    4.14
 -12  14  -8    0.07    3.48
 -12  14   8    1.01    2.02
 -14 -12   8    0.44    2.44
 -14 -12   9    1.27    3.13
  14  12  -9    3.28    3.26
 -12  14  -9    6.88    5.63
 -12  14   9   -0.18    3.04
  14  13   0    6.07    5.25
 -13  14   0    8.21    5.14
 -13  14   1    6.54    3.62
  14  13  -1    9.54    6.05
  14  13   1    8.38    6.12
 -13  14  -1    1.97    2.65
  14  13   1    0.89    3.08
 -13  14   1    7.56    5.25
  14  13   2   24.94    7.57
 -13  14   2   26.57    7.43
  14  13  -2   29.93    9.31
  14  13   2   31.04    9.23
 -13  14  -2   17.79    6.08
 -13  14   2   22.17    8.23
  14  13   3   76.56   12.61
 -13  14   3   50.30   10.09
  14  13  -3   62.66   13.14
  14  13   3   67.73   13.93
 -13  14  -3   88.94   15.58
 -13  14   3   59.50   12.78
  14  13   4   80.04   12.97
 -13  14   4   74.74   13.19
  14  13   4   77.12   15.19
  14  13  -4   81.82   15.57
  14  13   4   56.46   12.34
 -13  14  -4   86.05   15.43
 -13  14   4   80.98   14.69
 -13  14   5   69.35   14.17
  14  13   5   74.27   12.96
  14  13   5   72.77   15.38
  14  13  -5   58.98   13.40
 -13  14   5   61.37   13.24
  14  13   5   83.58   15.31
 -13  14  -5   49.05   11.88
 -13  14   6   66.72   14.24
 -13  14   6   56.81   12.44
  14  13   6   53.09   11.61
  14  13   6   66.08   15.20
  14  13  -6   66.92   14.49
 -13  14  -6   66.00   14.43
 -13  14   7   71.31   15.40
  14  13   7   58.89   14.62
  14  13  -7   73.25   15.43
  14  13   7   57.25   12.21
 -14 -13   7   61.72   13.71
 -13  14  -7   49.03   12.33
 -13  14   8   30.10   10.12
  14  13  -8   33.33   10.10
  14  13   8   30.71    9.39
 -14 -13   8   33.66   10.06
 -13  14  -8   39.27   11.44
  14  13  -9   17.19    7.50
 -13  14  -9    4.69    5.64
  14  14   0  196.23   23.80
 -14  14   0  202.23   23.22
 -14  14   1  222.61   21.20
  14  14  -1  226.59   25.43
  14  14   1  222.58   24.80
 -14  14  -1  188.11   22.35
 -14  14   1  200.86   23.27
  14  14   1  211.93   21.11
  14  14  -2  148.99   20.58
 -14  14   2  140.45   17.38
 -14  14  -2  143.11   19.52
  14  14   2  146.73   20.19
 -14  14   2  141.78   19.57
  14  14   2  150.73   17.85
  14  14  -3  153.66   21.23
 -14  14   3  105.11   15.66
  14  14   3  124.42   18.81
  14  14   3  117.90   16.03
 -14  14  -3  110.35   17.49
 -14  14   3   99.20   16.53
 -14  14   4   64.56   14.13
  14  14   4   49.51   10.65
 -14  14   4   43.29   10.54
  14  14   4   85.10   16.37
  14  14  -4   46.00   11.52
 -14  14  -4   64.81   13.61
 -14  14   5   19.97    8.45
  14  14  -5   15.26    7.18
  14  14   5   27.27    8.06
 -14  14   5   20.03    7.19
 -14  14  -5   19.70    8.76
  14  14   6    3.78    5.28
  14  14   6    9.42    5.65
  14  14  -6   -1.07    4.14
  14  14   6    7.17    6.24
 -14  14  -6   10.55    6.31
 -14  14   7    6.59    7.09
  14  14   7   11.61    7.77
  14  14  -7    7.67    5.81
  14  14   7   -1.29    1.87
 -14  14  -7    4.04    4.71
 -14  14   8   15.39    7.08
  14  14  -8   15.69    8.04
  14  14   8   25.20    8.53
 -14  14  -8   29.80   10.58
 -14 -14   8   13.14    6.68
  14  15   0    3.89    5.07
 -15  14   0   -2.12    3.60
  14  15  -1    4.54    5.78
  14  15   1    0.92    3.19
 -15  14   1    5.85    5.14
 -15  14  -1    8.82    5.69
  14  15   1    4.03    3.44
 -15  14   1    5.39    5.85
 -15  14   2   23.42    8.11
  14  15  -2   12.05    6.93
  14  15   2   39.42   11.80
 -15  14  -2   15.44    7.16
 -15  14   2   12.63    5.74
  14  15   2   19.09    6.29
  14  15   3   52.48   11.05
  14  15  -3   41.43   10.95
  14  15   3   52.59   12.49
 -15  14  -3   41.78   11.28
 -15  14   3   51.89   12.39
 -15  14   4   35.21   10.69
  14  15   4   46.09   10.36
  14  15  -4   39.91   11.51
  14  15   4   43.97   12.32
 -15  14  -4   42.13   10.98
 -15  14   5   22.10    8.72
  14  15   5   20.47    7.59
 -15  14   5   35.67   10.12
  14  15  -5   31.54   10.56
  14  15   5   33.95   11.25
 -15  14  -5   36.25    9.89
  14  15   6   27.58    8.86
  14  15  -6   34.37   10.78
  14  15   6   12.22    6.93
 -15  14  -6   11.95    6.06
  14  15  -7    3.91    4.67
 -15  14  -7   16.77    7.69
  14  15   8   10.32    6.85
 -15  14  -8   22.30    8.68
  13  15   0    0.87    2.93
 -15  13   0    3.65    4.70
  13  15  -1   -0.02    3.44
  13  15   1    3.99    3.70
  13  15   1    4.23    4.55
 -15  13  -1    5.22    4.34
 -15  13   1    3.29    4.06
  13  15  -2   -0.39    3.23
  13  15   2   -1.04    4.61
 -15  13  -2   -1.66    3.41
 -15  13   2   -0.25    1.86
  13  15   2   -1.16    2.30
  13  15   3    0.96    1.96
  13  15  -3    3.88    4.08
  13  15   3    3.08    4.35
 -15  13  -3   -3.48    4.93
 -15  13   3    0.35    3.28
 -15  13   4    5.90    4.44
  13  15   4    2.61    4.58
  13  15  -4   -0.35    2.75
  13  15   4    7.65    6.57
 -15  13  -4    6.20    4.23
 -15  13   5    1.38    1.76
  13  15   5    2.08    2.22
  13  15  -5    5.71    6.12
  13  15   5    0.77    2.59
 -15  13  -5    6.77    4.90
  13  15   6    4.22    4.55
  13  15  -6    0.61    3.25
 -15  13  -6    2.07    2.57
  13  15   7   -3.06    3.07
  13  15  -7   -0.52    3.72
 -15  13  -7   -2.82    4.05
  13  15  -8    0.68    3.06
  13  15   8   -1.01    2.91
 -15  13  -8    0.98    2.30
  12  15   0   -2.46    4.02
 -15  12   0    3.50    4.44
 -15  12   1    1.28    2.99
  12  15  -1    5.08    5.09
  12  15   1   -0.05    2.53
  12  15   1    0.89    3.38
 -15  12  -1    2.87    2.92
 -15  12   1    2.00    3.88
  12  15  -2    4.28    5.54
  12  15   2    5.71    3.52
 -15  12  -2    2.87    2.53
  12  15   2    4.80    4.11
 -15  12   2    6.94    5.39
  12  15   3   12.13    5.97
 -15  12   3    5.79    4.66
  12  15  -3    8.29    5.02
  12  15   3    6.45    4.57
 -15  12  -3    8.54    5.30
 -15  12   3    4.25    3.57
 -15  12   4   23.33    8.80
  12  15   4   36.10    9.84
  12  15  -4   28.49    9.68
  12  15   4   27.81    8.46
 -15  12  -4   27.02    8.55
 -15  12   5   34.17   10.85
  12  15   5   46.55   10.89
 -15  12   5   45.16   11.63
  12  15  -5   51.59   12.53
 -15  12  -5   52.97   11.91
  12  15  -6   32.41   11.11
 -15  12  -6   35.57   10.38
  12  15   6   39.21   10.26
 -15  12   7   21.88    8.30
  12  15   7   32.97    9.86
  12  15  -7   57.15   13.27
 -15  12  -7   76.45   16.23
  12  15  -8   25.53    9.04
  12  15   8   25.83    9.19
 -12 -15   8   25.83    9.31
 -15  12  -8   20.57    7.79
  11  15   0    5.14    4.55
 -15  11   0    6.30    4.36
 -15  11   1    9.97    4.99
  11  15  -1   12.45    7.25
  11  15   1   25.38    9.24
  11  15   1    8.07    4.31
 -15  11  -1    8.24    5.04
 -15  11   1   14.19    6.28
  11  15  -2   11.19    5.77
 -15  11   2    6.69    4.25
  11  15   2   12.94    6.33
 -15  11  -2   16.64    6.83
  11  15   2    7.13    4.07
 -15  11   2    5.04    3.80
 -15  11   3    3.12    4.50
  11  15   3   12.06    6.00
 -15  11   3    3.22    3.25
  11  15  -3    4.85    4.93
  11  15   3    2.04    4.37
 -15  11  -3    8.11    5.44
 -15  11   4    3.08    3.62
  11  15   4   -0.47    2.10
 -15  11   4    4.55    4.25
  11  15  -4    3.27    2.39
  11  15   4    3.08    4.75
 -15  11  -4    1.04    1.98
  11  15   5   -2.81    4.06
 -15  11   5    4.48    5.12
  11  15  -5    4.23    5.71
  11  15   5    3.21    4.79
 -15  11  -5    7.56    5.62
  11  15   6    2.10    3.25
 -15  11   6    1.23    4.47
  11  15  -6   -5.14    4.32
 -15  11  -6    1.55    2.42
 -15  11   7   -0.68    2.30
  11  15   7    5.81    4.30
  11  15  -7   -0.78    3.82
 -15  11  -7    6.87    4.47
 -11 -15   8    4.24    3.92
  11  15   8    5.94    4.10
  11  15  -8    5.86    6.29
  15 -11   8    0.80    4.70
  11  15   9   13.64    7.26
  10  15   0    1.76    3.81
  10  15   0   -0.04    3.51
 -15  10   0    1.18    3.80
 -15  10   1   46.06   10.13
  10  15  -1   58.37   12.36
  10  15   1   46.60   11.26
  10  15   1   39.30    7.61
  10  15   1   37.55    9.04
 -15  10  -1   57.01   11.54
 -15  10   1   35.94    9.12
  10  15  -2   82.17   14.86
 -15  10   2   79.85   13.31
  10  15   2   77.48   14.54
 -15  10  -2   77.33   13.73
  10  15   2   73.91   12.73
 -15  10   2   78.20   13.61
  10  15  -3  137.14   19.12
 -15  10   3  132.11   17.64
  10  15   3  123.58   18.05
 -15  10  -3  108.29   15.81
  10  15   3  122.56   16.59
 -15  10   3  113.11   16.74
  10  15  -4  133.13   19.07
 -15  10   4  151.54   19.77
  10  15   4  154.23   20.22
 -15  10  -4  126.85   17.40
  10  15   4  150.22   18.80
 -15  10   4  138.28   19.04
  10  15  -5  157.82   20.76
 -15  10   5  137.67   19.26
 -15  10  -5  158.33   19.37
  10  15   5  155.61   19.81
  10  15  -6  162.00   21.50
 -15  10   6  149.81   20.90
 -15  10  -6  151.13   19.47
  10  15   6  153.59   20.13
 -15  10   7  137.50   21.41
  10  15  -7  121.06   18.70
 -15  10  -7  130.03   18.29
 -10 -15   7  143.05   20.59
  10  15   7  156.99   20.94
 -15  10   8   74.70   15.98
  10  15   8   84.66   16.08
  10  15  -8   78.60   15.77
  15 -10   8   87.05   17.14
 -10 -15   8   74.17   15.57
  10  15   9   41.18   11.95
 -15   9   0  238.94   21.87
   9  15   0  256.73   25.32
   9  15   0  285.78   21.55
 -15   9   0  229.45   22.51
 -15   9   1  129.57   16.45
   9  15   1  113.95   17.03
   9  15   1  138.34   13.95
   9  15  -1  118.13   17.04
 -15   9  -1  127.22   16.60
   9  15   1  118.92   16.07
 -15   9   1  112.69   15.93
 -15   9   2  124.25   16.15
   9  15  -2  132.13   18.18
   9  15   2  121.55   17.83
 -15   9  -2  154.83   18.28
   9  15   2  115.19   15.94
 -15   9   2  136.42   17.76
   9  15  -3  129.59   18.15
 -15   9   3  109.24   15.69
   9  15   3  112.65   17.30
 -15   9  -3  124.77   16.42
   9  15   3  115.44   16.01
 -15   9   3  142.70   18.67
 -15   9   4   35.34    9.58
   9  15   4   14.38    5.84
 -15   9   4   33.12    9.10
   9  15  -4   14.60    6.31
 -15   9  -4   29.63    8.31
 -15   9   5   16.33    7.75
   9  15   5    2.44    2.84
   9  15  -5   12.85    5.45
 -15   9  -5    1.22    1.80
   9  15   6    2.20    3.74
   9  15  -6    3.34    4.85
 -15   9  -6    2.31    3.85
 -15   9   7   -5.24    4.61
   9  15   7    3.31    2.29
   9  15  -7    5.79    5.06
  15  -9   7    6.74    5.10
  -9 -15   7    3.07    4.40
 -15   9  -7    4.74    4.06
  -9 -15   8   11.21    5.85
 -15   9   8    5.81    5.33
   9  15   8    6.41    5.87
   9  15  -8   13.18    7.59
  15  -9   8   16.47    7.68
   9  15   9   25.73    9.24
   8  15   0    1.53    3.95
   8  15   0   -1.55    3.27
 -15   8   0   -1.26    3.21
 -15   8   0    1.92    3.99
 -15   8   1   -1.50    2.17
   8  15  -1    2.48    3.84
   8  15   1    2.35    3.06
   8  15   1    1.01    2.32
   8  15   1   -0.13    2.24
 -15   8  -1    1.24    2.19
 -15   8   1    1.04    2.68
 -15   8   2   37.63    9.86
 -15   8   2   59.01   11.70
   8  15  -2   40.84   10.07
   8  15   2   51.58   11.74
 -15   8  -2   43.43    9.66
   8  15   2   40.46    9.36
   8  15   3   23.83    7.19
 -15   8   3   22.42    7.59
   8  15  -3   25.92    8.34
   8  15   3   23.79    7.92
 -15   8  -3   21.99    7.09
   8  15   4   23.27    7.14
 -15   8   4   32.22    9.19
   8  15  -4   34.84    9.81
   8  15   4   26.44    8.37
 -15   8  -4   22.37    6.46
   8  15   5   30.55    8.69
 -15   8   5   27.28    8.34
 -15   8  -5   40.21    9.47
   8  15  -5   59.33   12.16
   8  15   6   77.15   14.36
   8  15  -6   79.08   14.40
 -15   8  -6   89.51   14.07
 -15   8   7   58.39   13.52
  -8 -15   7   79.73   15.53
   8  15   7   51.22   12.43
   8  15  -7   46.48   10.81
  15  -8   7   66.77   14.46
 -15   8  -7   68.51   12.59
  -8 -15   8   19.21    8.11
 -15   8   8   17.79   10.12
   8  15   8    9.29    5.49
   8  15  -8   19.95    7.69
  15  -8   8   15.00    8.12
  -8 -15   9   48.94   13.36
   8  15   9   24.65    8.80
   7  15   0   26.14    7.15
 -15   7   0   22.88    7.03
   7  15   0    7.76    5.56
 -15   7   0   18.83    6.55
   7  15  -1   15.42    5.50
   7  15  -1   11.42    6.32
   7  15   1   12.65    4.72
   7  15   1   15.06    6.46
 -15   7   1   36.13    9.29
   7  15   1   14.00    6.42
 -15   7  -1   15.93    5.75
 -15   7   1   27.92    8.32
 -15   7   2   -0.81    2.45
 -15   7   2   -1.54    2.86
   7  15  -2    2.44    4.71
   7  15   2    1.74    3.40
   7  15   2    3.21    1.89
 -15   7  -2   10.81    5.83
   7  15   2    4.59    4.02
   7  15   3    1.35    2.10
 -15   7   3    5.73    4.72
   7  15  -3    0.04    3.00
 -15   7  -3    5.48    4.14
   7  15   4    4.27    3.67
 -15   7   4    3.21    3.77
   7  15  -4    0.43    2.03
 -15   7  -4    0.73    2.65
   7  15   5   -0.61    1.78
   7  15  -5    1.10    3.12
 -15   7  -5   -0.60    2.60
   7  15   6   -1.46    2.56
   7  15  -6    4.48    3.86
  -7 -15   6    6.10    3.84
  15  -7   6   -1.22    2.65
 -15   7  -6    4.67    3.67
   7  15   7    3.86    3.44
   7  15  -7    5.34    3.88
  -7 -15   7    1.85    3.21
 -15   7   8   -0.83    2.21
 -15   7   8   -1.97    2.80
   7  15   8    7.91    6.21
  15  -7   8   12.75    7.89
   7  15  -8    0.46    3.88
  -7 -15   8    3.93    4.30
 -15   7   9    4.17    3.89
  -7 -15   9    1.51    3.83
 -15   7   9    5.87    4.96
  15  -7   9    6.63    4.72
   7  15   9    4.74    4.67
 -15   6   0    6.33    4.26
   6  15   0    0.05    3.04
   6  15   0    4.63    4.60
 -15   6   0    1.15    4.18
 -15   6   1    7.51    5.13
   6  15  -1   -3.42    3.99
   6  15  -1   -1.40    4.37
   6  15   1    3.95    1.91
   6  15   1    5.25    5.44
   6  15   1   -3.03    3.49
 -15   6  -1   -2.29    2.25
 -15   6   1    2.52    3.03
 -15   6   2   -1.19    3.04
 -15   6   2    2.68    3.41
   6  15  -2    4.28    4.50
   6  15  -2   -2.05    2.86
   6  15   2    3.79    2.83
   6  15   2    3.55    4.48
 -15   6  -2    0.82    1.73
   6  15   3    5.70    3.78
 -15   6   3    8.97    5.78
  15  -6   3    6.29    2.82
   6  15  -3    2.76    2.17
   6  15   3    2.32    3.20
 -15   6  -3    9.61    4.59
   6  15   4    5.82    4.70
   6  15  -4    3.56    3.83
 -15   6  -4    0.25    1.66
   6  15   5    3.41    3.91
 -15   6   5    1.79    3.43
  15  -6   5    2.75    2.22
   6  15  -5    1.64    5.24
 -15   6  -5    2.80    3.09
   6  15   6   -2.20    2.33
  15  -6   6    9.06    5.59
   6  15  -6    0.66    2.41
  -6 -15   6    5.25    4.27
 -15   6  -6    2.08    3.14
 -15   6   7    1.07    2.15
  -6 -15   7   -2.06    3.23
 -15   6   7    1.24    2.72
   6  15   7   -0.26    3.54
  15  -6   7    9.48    5.50
   6  15  -7    1.07    2.72
 -15   6   8   16.79    7.72
 -15   6   8    7.02    6.70
   6  15   8   -3.96    4.81
  15  -6   8    6.04    4.33
  -6 -15   8    4.52    4.59
  -6 -15   9   -1.30    2.13
   6  15   9   -2.07    3.15
  15  -6   9    4.20    6.12
 -15   5   0   82.62   13.09
   5  15   0   96.39   12.47
   5  15   0   89.42   14.58
 -15   5   0   96.19   13.28
 -15   5   1   58.24   10.79
 -15   5   1   56.62   10.97
   5  15  -1   42.66    8.89
   5  15  -1   52.77   11.31
   5  15   1   59.46    9.31
   5  15   1   51.61   11.02
   5  15   1   62.65   11.24
 -15   5  -1   56.46   10.02
 -15   5   2   71.87   11.92
 -15   5   2   65.45   11.49
   5  15   2   85.43   10.33
   5  15  -2   90.74   13.61
   5  15  -2   77.98   13.13
 -15   5  -2   80.35   12.09
   5  15   2   67.85   11.92
  15  -5   3  118.73   12.15
   5  15  -3  123.31   16.65
   5  15   3  131.85   11.81
 -15   5  -3  117.38   14.25
   5  15   3  105.89   15.20
 -15   5   3  107.31   15.50
   5  15   4   30.64    8.22
 -15   5   4   29.24    8.55
  15  -5   4   34.16    9.35
   5  15  -4   36.47    8.83
 -15   5  -4   43.05    8.67
   5  15   5    3.94    3.82
 -15   5   5    0.69    3.19
  15  -5   5   -2.48    3.05
   5  15  -5    3.35    3.00
 -15   5  -5    9.24    3.99
 -15   5   6    1.94    2.06
   5  15   6    7.23    5.27
  15  -5   6    2.39    3.28
   5  15  -6    8.07    4.24
 -15   5  -6    1.07    2.41
  -5 -15   6   -3.61    4.12
  -5 -15   7    1.12    3.85
 -15   5   7    7.12    6.84
   5  15   7   -0.83    2.36
   5  15  -7    6.77    5.14
 -15   5   8   10.86    7.22
  -5 -15   8    9.57    5.70
  -5 -15   9   30.02   10.21
 -15   5   9   28.00   10.46
  15  -5   9   11.39    7.16
   5  15   9   22.14    9.30
 -15   4   0    1.05    1.54
   4  15   0   11.22    5.52
   4  15   0    5.49    5.42
 -15   4   1   28.09    7.52
 -15   4   1   13.56    6.26
   4  15  -1    4.77    3.65
   4  15  -1   11.76    6.55
   4  15   1   14.15    4.68
   4  15   1   11.03    5.90
   4  15   1   11.11    4.61
 -15   4  -1   16.65    5.89
  15  -4   2    3.93    2.60
   4  15  -2    3.20    4.04
 -15   4   2    1.53    4.76
   4  15  -2   -0.70    4.28
   4  15   2    2.74    3.53
   4  15   2    8.59    5.46
   4  15   2    6.10    4.04
 -15   4  -2    5.46    4.31
   4  15   3    3.38    2.80
  15  -4   3    1.80    2.41
  15  -4   3    2.72    2.21
 -15   4   3   -3.04    2.21
   4  15  -3   11.85    5.72
   4  15  -3    1.05    3.03
   4  15   3    8.56    3.54
 -15   4  -3    5.64    4.34
   4  15   4    3.01    2.70
 -15   4   4    4.72    4.76
  15  -4   4    3.70    3.68
   4  15  -4    5.44    1.97
 -15   4  -4    2.53    2.15
   4  15   5    1.33    5.28
 -15   4   5    3.36    3.49
 -15   4   5    8.30    5.58
  15  -4   5    0.17    2.59
   4  15  -5    9.61    5.89
 -15   4  -5    1.07    2.38
 -15   4   6    2.37    3.55
   4  15   6    4.22    3.52
  -4 -15   6    5.57    3.97
   4  15  -6   13.01    6.44
 -15   4   7    7.40    5.47
   4  15   7    4.31    3.77
  15  -4   7   -0.95    2.95
   4  15  -7    1.99    3.50
  -4 -15   7   -1.70    2.79
 -15   4   8    7.15    6.03
 -15   4   8    2.10    2.11
  -4 -15   8    3.43    4.49
   4  15   8    9.07    5.23
  15  -4   8    3.01    3.48
  -4 -15   9    3.90    2.24
 -15   4   9   -0.02    2.77
 -15   4   9    8.71    6.31
   4  15   9    5.07    5.72
   3  15   0  600.32   36.49
   3  15   0  630.47   32.17
 -15   3   0  667.91   33.49
  15  -3   1  435.05   25.56
 -15   3   1  437.49   29.72
   3  15  -1  441.33   30.90
  15  -3   1  433.47   26.93
   3  15   1  482.48   32.69
   3  15  -1  448.73   28.63
   3  15   1  478.94   26.60
   3  15   1  432.24   29.38
 -15   3  -1  419.58   25.68
 -15   3   1  472.15   28.91
  15  -3   2  380.92   22.99
 -15   3   2  428.48   29.78
   3  15  -2  388.39   28.90
  15  -3   2  393.92   27.02
   3  15  -2  375.49   27.42
   3  15   2  395.96   23.12
   3  15   2  368.77   27.44
 -15   3  -2  391.45   24.49
  15  -3   3  346.42   20.76
 -15   3   3  324.76   26.70
   3  15  -3  331.80   26.36
  15  -3   3  273.10   23.35
   3  15  -3  290.89   25.24
   3  15   3  320.70   19.84
 -15   3  -3  281.20   20.38
   3  15   3  325.53   26.27
  15  -3   4  104.28   10.71
 -15   3   4   87.60   12.11
  15  -3   4   99.02   14.62
   3  15  -4  103.98   15.76
   3  15  -4   91.87   13.96
   3  15   4  110.12   11.05
 -15   3  -4  102.15   12.14
   3  15   4  110.89   15.69
   3  15   5    8.33    4.69
 -15   3   5    5.79    4.90
   3  15  -5    6.16    5.07
 -15   3  -5   12.41    4.98
  -3 -15   6    1.36    2.32
 -15   3   6    2.25    2.63
   3  15   6    7.03    5.37
 -15   3   6    1.74    3.66
  15  -3   6    5.30    4.43
 -15   3   6    0.22    3.20
   3  15  -6    6.31    4.39
 -15   3   7    5.77    6.47
   3  15   7    0.37    2.64
  15  -3   7   -0.25    2.80
 -15   3   7    1.46    1.91
   3  15  -7   -0.23    1.68
  -3 -15   7   -0.93    1.63
 -15   3   8   40.66   10.83
  -3 -15   8   30.79    9.39
 -15   3   8   23.34    8.77
   3  15   8   22.38    8.12
  -3 -15   9   38.09   11.13
 -15   3   9   52.77   13.87
  15  -3   9   59.04   13.91
   3  15   9   34.92   10.18
  15  -3 -10   64.85   14.48
 -15   2   0   -1.24    2.89
  15  -2   0    0.99    2.11
  15  -2   0   -1.12    2.65
   2  15   0    8.32    4.60
   2  15   0   -3.25    4.22
 -15   2  -1   46.07    8.33
  15  -2  -1   44.02    8.67
  15  -2   1   45.70    8.51
  15  -2  -1   36.41    6.80
   2  15  -1   37.85    8.01
   2  15  -1   30.69    8.51
   2  15   1   41.78    8.08
   2  15   1   34.15    8.18
 -15   2   1   45.95    9.67
  15  -2   2   56.70    9.03
  15  -2   2   41.75    8.86
  15  -2  -2   50.54    8.14
   2  15  -2   64.33   11.55
   2  15  -2   64.69   11.52
   2  15   2   53.52    8.83
   2  15   2   50.54   10.53
 -15   2  -2   61.69    9.52
   2  15   3   36.31    8.88
  15  -2   3   34.03    6.61
 -15   2   3   31.59    8.41
  15  -2   3   37.86    8.94
  15  -2  -3   37.78    6.20
   2  15  -3   47.72   10.26
   2  15  -3   43.08    9.88
   2  15   3   46.69    7.54
 -15   2  -3   48.98    8.48
  15  -2   4   66.20    8.66
   2  15   4   53.60   11.33
  15  -2   4   71.55   12.64
   2  15  -4   58.52   12.48
   2  15  -4   59.63   10.85
 -15   2  -4   75.98   10.13
 -15   2   4   80.64    8.79
   2  15   4   54.07    7.93
   2  15   5   58.38   11.57
 -15   2   5   76.92   12.02
 -15   2   5   82.24   14.09
   2  15  -5   64.35   12.85
   2  15  -5   73.43   12.15
 -15   2   5   75.57    9.91
 -15   2  -5   78.56   10.16
  -2 -15   6   25.17    8.29
 -15   2   6   32.67    8.34
   2  15   6   22.68    7.93
  15  -2   6   27.89    9.02
   2  15  -6   46.79   12.05
   2  15  -6   39.86    8.95
 -15   2   6   34.89    7.44
 -15   2   7   24.92    7.68
 -15   2   7   38.36   10.60
   2  15   7   16.89    6.91
 -15   2   7   37.26    8.30
  -2 -15   7   17.20    6.65
  15  -2  -8   41.43   10.75
 -15   2   8   30.43    9.24
  -2 -15   8   10.63    6.06
   2  15   8   24.33    8.31
  15  -2   8   37.00   10.90
 -15   2   8   27.01    7.71
  15  -2  -9   14.34    6.43
 -15   2   9   32.71   10.10
 -15   2   9   22.80   10.12
   2  15   9    4.76    4.39
 -15   2   9   18.34    6.67
  -2 -15   9    5.80    4.10
  15  -2 -10    6.45    3.99
 -15   2  10    0.94    3.45
  15  -1   0   90.55   12.07
   1  15   0  106.51   13.45
  15  -1  -1  134.93   15.32
  15  -1   1  136.83   14.55
   1  15  -1  123.19   16.21
   1  15  -1  115.87   14.45
   1  15   1  115.58   13.28
   1  15   1  121.08   15.34
 -15   1  -1  129.76   13.55
 -15   1  -2   54.71    8.69
  15  -1  -2   32.45    7.74
  15  -1   2   45.62    8.00
  15  -1  -2   51.70    7.61
  15  -1   2   50.84    9.31
 -15   1   2   46.89    9.40
   1  15  -2   49.13    9.77
   1  15  -2   61.66   11.11
   1  15   2   46.47    8.31
   1  15   2   50.57   10.22
   1  15   3   58.09   11.13
  15  -1  -3   39.00    9.24
 -15   1   3   44.98    7.87
  15  -1   3   37.89    7.33
  15  -1  -3   45.87    6.72
  15  -1   3   45.14    9.29
   1  15  -3   37.63    9.61
   1  15  -3   43.73    9.42
   1  15   3   42.16    7.88
 -15   1  -3   37.85    7.16
  15  -1  -4   10.28    6.03
   1  15   4    9.61    4.88
 -15   1   4   10.95    3.48
 -15   1   4   13.17    4.77
  15  -1   4    9.50    5.01
   1  15  -4   11.17    6.77
  15  -1   4   17.91    5.13
   1  15  -4   24.67    7.64
   1  15   4    9.42    4.00
 -15   1  -4   13.56    4.13
  15  -1  -5   -0.42    2.40
   1  15   5    5.62    3.30
  15  -1   5    3.67    3.95
   1  15  -5   -1.90    3.93
 -15   1   5    2.46    4.01
   1  15  -5    2.85    4.67
   1  15   5    5.56    3.00
  15  -1  -6    3.03    3.46
 -15   1   6    2.57    2.77
   1  15   6    3.01    3.02
   1  15  -6    0.80    3.07
   1  15  -6    1.88    3.81
  -1 -15   6   -2.66    2.95
 -15   1   6    5.15    3.74
  15  -1  -7    7.42    5.78
 -15   1   7   12.75    6.56
   1  15   7    6.21    4.70
  15  -1   7    2.48    2.35
   1  15  -7    2.92    5.62
  -1 -15   7    4.81    2.94
 -15   1   7    2.33    1.82
  15  -1  -8    0.30    3.43
  -1 -15   8   14.03    7.08
   1  15   8    0.94    2.88
   1  15  -8   12.20    6.86
 -15   1   8    4.94    3.32
  15  -1  -9   20.04    7.88
 -15   1   9   16.14    7.70
   1  15   9    8.17    6.52
   1  15  -9   21.99    9.07
 -15   1   9   13.68    6.25
  -1 -15   9   25.41    9.03
  15  -1 -10   17.39    7.88
  15   0   0    3.93    4.73
  15   0   0   -0.61    2.03
   0  15   0    7.56    5.28
  15   0  -1    2.90    1.77
  15   0   1   -0.89    1.35
 -15   0   1    3.54    4.15
  15   0  -1   -1.27    1.76
  15   0   1   -0.18    1.58
   0  15  -1    8.61    5.06
   0  15   1    2.73    3.24
   0  15   1    0.85    1.56
 -15   0  -2    3.89    2.89
  15   0  -2    3.43    3.10
  15   0   2    8.99    4.14
 -15   0   2    5.31    4.14
  15   0   2    2.28    2.90
   0  15  -2   -1.01    3.00
   0  15  -2   -1.68    2.32
   0  15   2    8.67    3.88
   0  15   2    4.42    3.24
 -15   0  -3   23.12    5.31
   0  15   3   19.38    6.51
 -15   0   3   18.63    3.86
  15   0  -3   26.04    7.88
  15   0   3   14.17    4.25
 -15   0   3   21.65    7.23
  15   0   3   20.43    6.52
   0  15  -3    8.64    4.75
   0  15  -3   15.49    5.79
   0  15   3   16.90    5.01
  15   0  -4   31.11    9.05
   0  15   4   22.16    7.14
 -15   0   4   39.05    9.68
  15   0   4   36.52    6.29
 -15   0   4   32.44    5.82
   0  15  -4   22.31    7.16
   0  15  -4   32.63    8.02
   0  15   4   34.59    7.11
 -15   0  -4   37.15    6.52
  15   0  -5    9.08    4.21
   0  15   5    8.50    5.87
 -15   0   5    7.55    3.27
 -15   0   5   15.39    5.37
 -15   0   5   11.11    5.27
  15   0   5   13.70    7.13
   0  15  -5   11.77    6.61
   0  15  -5   -0.20    2.11
   0  15   5    1.01    2.30
 -15   0   6    0.58    1.83
  15   0  -6    3.71    3.71
  15   0   6    0.45    3.19
   0  15  -6    7.59    4.66
   0  15   6    2.19    4.08
   0 -15   6   -4.29    4.71
 -15   0   7   10.66    4.53
  15   0  -7   13.45    4.65
   0  15   7    1.92    3.43
   0  15  -7    5.55    4.66
   0 -15   7    8.50    4.69
 -15   0   8   17.19    6.33
  15   0  -8    7.03    4.72
   0 -15   8    3.33    3.25
 -15   0   8   26.77    9.07
   0  15   8   17.72    7.54
   0  15  -8   10.74    6.98
 -15   0   9    6.72    4.55
  15   0  -9   -0.02    2.74
 -15   0   9   16.82    9.56
   0  15   9    8.88    5.49
   0  15  -9    8.85    7.18
   0 -15   9    8.28    4.81
 -15   0  10    6.87    4.67
  15   0 -10    2.48    2.05
 -15   0  10    1.11    4.43
  15   0  10    0.66    3.63
   0  15 -10    3.05    5.82
  15   1   0    6.06    3.80
  15   1   0    4.07    2.97
  -1  15   0    6.13    3.08
  15   1  -1    0.52    1.63
  15   1   1    7.22    4.74
  15   1  -1    1.59    1.52
  15   1   1    4.59    3.64
  -1  15  -1    6.33    4.99
  -1  15   1    1.91    1.81
  -1  15   1    5.47    5.48
  15   1  -2   -1.21    2.32
 -15  -1   2    1.42    0.91
  15   1   2    8.93    4.11
  15   1   2    4.71    4.16
  -1  15  -2    3.35    3.84
  -1  15   2    2.74    1.86
  -1  15   3   28.05    8.03
  15   1  -3   25.36    7.78
 -15  -1   3    0.04    1.98
 -15  -1   3   23.43    7.89
  15   1   3   20.84    5.59
  15   1  -3   18.10    3.92
  15   1   3   15.37    5.45
 -15  -1   3   20.53    4.21
  -1  15  -3   15.51    6.34
  -1  15   3   13.30    4.95
 -15  -1  -4   20.65    4.76
  -1  15   4    9.84    4.37
  15   1  -4   15.77    6.39
  15   1   4   16.04    4.46
  15   1   4   17.91    6.28
  -1  15  -4    5.67    4.41
 -15  -1   4   20.51    4.74
  -1  15   4    6.76    3.61
  15   1  -5    1.91    2.68
  -1  15   5    6.33    5.57
 -15  -1   5    1.41    3.81
 -15  -1   5    1.62    2.07
  -1  15  -5   -3.21    2.77
  -1  15  -5   -0.82    2.36
  -1  15   5    1.35    2.35
  -1  15   6    3.93    3.30
   1 -15   6    1.25    3.36
  15   1  -6    2.56    2.40
 -15  -1   6    9.67    4.11
 -15  -1   6    6.96    3.60
  -1  15   6   -2.46    2.75
 -15  -1   6    9.35    5.84
  -1  15  -6   -1.00    3.06
  -1  15  -6   -0.53    2.14
  15   1  -7    4.45    4.07
 -15  -1   7    9.78    4.95
 -15  -1   7    5.84    4.22
 -15  -1   7    2.89    4.82
  -1  15   7   10.52    5.56
  15   1   7    0.20    2.16
  -1  15  -7    2.33    4.72
   1 -15   7    4.89    4.12
 -15  -1   8    5.73    3.80
  15   1  -8    4.36    3.74
   1 -15   8    3.76    3.36
 -15  -1   8   14.60    6.64
 -15  -1   8   17.48    8.25
  -1  15   8    8.15    5.55
  -1  15  -8   -1.23    3.32
 -15  -1   9    7.89    5.52
  15   1  -9    7.66    4.81
 -15  -1   9    8.62    5.63
  15   1   9   10.23    6.90
  -1  15   9    1.85    2.06
  -1  15  -9    6.27    4.71
   1 -15   9    3.73    4.76
 -15  -1  10   -2.62    5.19
  15   1 -10    5.66    4.89
 -15  -1  10    4.18    4.04
 -15  -1  10    9.68    7.22
  -1  15 -10    7.93    7.17
   1 -15  10    4.53    5.44
  15   2   0   -1.29    2.36
  -2  15   0    0.06    2.75
  15   2   1   90.95   12.02
  15   2  -1   83.66   12.20
  -2  15   1   91.04    7.48
 -15  -2   1   75.83   12.06
  15   2  -1   91.53   10.46
  -2  15  -1   88.07   12.92
  -2  15   1   77.64   11.73
  -2  15   1   78.15   12.09
  15   2   2  121.77   13.42
  15   2  -2   94.90   13.35
 -15  -2   2   99.17   14.22
  -2  15   2   99.07   12.93
  -2  15  -2   87.74   13.53
  -2  15   2   93.97   13.60
  -2  15   3   54.43   10.63
  15   2  -3   43.59    9.76
 -15  -2   3   18.13    4.77
 -15  -2   3   58.90   11.09
  15   2   3   60.27    9.23
  15   2  -3   53.82    6.71
 -15  -2   3   64.46    7.67
  -2  15  -3   50.70   10.93
  -2  15   3   47.26    8.73
  15   2  -4  129.67   16.81
  15   2   4  111.97   12.25
 -15  -2   4  114.86   12.86
 -15  -2   4  103.66   10.95
 -15  -2   4  103.12   15.27
  -2  15  -4  131.50   17.82
  -2  15   4  121.72   13.89
  -2  15   4   99.67   14.65
  15   2  -5  140.37   18.18
 -15  -2   5  138.59   13.90
 -15  -2   5  151.73   15.96
  15   2   5  137.44   17.81
  -2  15  -5  153.71   19.59
  -2  15   5  160.65   15.93
  -2  15   5  143.69   18.35
 -15  -2   6   97.76   12.73
  15   2  -6   72.85   13.43
 -15  -2   6   77.89   12.41
 -15  -2   6   91.54   15.28
  15   2   6   88.03   15.05
  -2  15  -6  106.75   17.43
  -2  15   6  101.21   15.84
  -2  15   6   94.63   12.50
   2 -15   6  106.21   15.97
  15   2  -7   57.72   11.94
  -2  15   7   44.46   10.92
 -15  -2   7   58.19   10.79
  15   2   7   53.14   11.62
  -2  15  -7   61.01   13.74
   2 -15   7   47.49   11.11
  15   2  -8   51.05   11.79
 -15  -2   8   48.24   10.49
   2 -15   8   44.67   11.36
  -2  15   8   32.26    9.79
  -2  15  -8   65.48   14.88
  15   2  -9   17.53    7.37
 -15  -2   9    5.17    6.09
 -15  -2   9   12.77    5.75
 -15  -2   9    4.41    6.24
  -2  15   9   24.58    8.36
  -2  15  -9   25.67    9.21
   2 -15   9   31.34    9.72
  15   2 -10    8.69    5.02
 -15  -2  10   13.92    6.93
  -2  15 -10   19.76    8.66
   2 -15  10    8.81    4.95
 -15  -2  11    7.21    5.65
  15   3   0   15.46    5.31
  15   3   0   12.99    4.73
  -3  15   0   21.94    7.35
  15   3  -1   12.41    4.70
  15   3   1    5.26    4.15
  -3  15   1   11.77    2.94
  -3  15  -1   10.13    4.70
  -3  15   1   13.48    5.51
  -3  15   1    3.90    2.22
 -15  -3   2   12.87    5.11
  15   3  -2   11.34    4.98
  15   3   2   14.99    5.20
  15   3  -2   13.06    3.86
  -3  15  -2   13.88    5.77
  -3  15   2   20.33    5.73
  -3  15   2   13.77    4.95
  -3  15   3   13.95    6.10
  15   3  -3    1.76    3.84
 -15  -3   3    4.12    2.86
 -15  -3   3    9.79    3.45
  15   3   3    7.55    3.71
  -3  15  -3   11.74    5.93
 -15  -3   3   10.98    4.85
  -3  15   3    8.64    4.51
  -3  15   4    6.40    4.54
  15   3  -4   14.28    6.21
 -15  -3   4    2.26    2.17
  15   3   4    4.66    3.16
 -15  -3   4    2.94    2.50
  -3  15  -4    4.71    4.65
 -15  -3   4    4.64    4.63
  -3  15   4    3.44    4.30
  15   3  -5    1.50    2.65
  -3  15   5    0.18    2.60
  15   3   5    6.65    4.68
  -3  15  -5   -2.61    3.74
 -15  -3   5    1.33    1.65
  -3  15   5    5.24    3.52
  -3  15   6    5.42    3.38
  15   3  -6    2.51    3.60
 -15  -3   6   -3.83    4.03
  15   3   6   -2.71    2.81
   3 -15   6   -1.26    2.04
 -15  -3   6    5.60    3.60
  -3  15  -6    1.00    2.49
  15   3  -7   -2.65    3.22
  -3  15   7    3.88    4.25
  15   3   7   -3.02    5.05
 -15  -3   7    1.67    2.70
  -3  15  -7    0.46    3.03
   3 -15   7    1.89    3.57
  15   3  -8    7.29    4.54
   3 -15   8   -0.13    4.23
 -15  -3   8   -2.47    2.73
 -15  -3   8   -2.50    3.83
  -3  15   8    2.49    4.44
  -3  15  -8   -1.08    3.34
   3 -15   9    2.38    3.65
  15   3  -9    0.94    3.85
 -15  -3   9   -2.99    3.73
  -3  15   9   -1.10    3.58
  -3  15  -9   -3.72    6.09
 -15  -3   9    1.91    2.97
  15   3 -10    3.76    4.11
 -15  -3  10   -2.49    3.65
 -15  -3  10    6.16    6.64
  -3  15 -10   -1.73    2.86
   3 -15  10    3.41    2.48
  15   4   0   -3.12    3.66
  -4  15   0    1.72    1.99
  15   4   0    0.04    1.19
  15   4  -1   90.04   13.02
  15   4   1   92.85   12.53
  15   4  -1   91.82   10.74
  -4  15  -1   85.16   13.14
  -4  15   1   81.98   12.61
  15   4   1  101.61    7.80
  -4  15   1   75.25   11.88
  15   4  -2  137.55   16.56
  15   4   2  131.97   14.76
  15   4  -2  152.75   12.90
  -4  15  -2  160.44   18.59
  -4  15   2  143.84   15.83
  15   4   2  150.47   16.61
  -4  15   2  157.26   17.29
  15   4  -3  184.46   19.42
  15   4   3  160.39   15.94
 -15  -4   3  149.22   17.76
  15   4   3  165.42   17.98
  -4  15  -3  185.73   20.70
  -4  15   3  158.55   16.68
  -4  15   3  172.41   18.54
  15   4  -4  254.26   23.50
  15   4   4  287.52   21.09
 -15  -4   4  275.20   24.45
  15   4   4  246.47   23.08
 -15  -4   4  264.07   18.64
  -4  15  -4  236.94   24.02
  -4  15   4  270.09   21.82
  -4  15   4  268.61   23.81
  15   4  -5  207.79   21.92
 -15  -4   5  200.91   17.68
  15   4   5  232.52   18.70
 -15  -4   5  202.85   21.73
  15   4   5  208.56   22.21
  -4  15  -5  231.87   24.72
  -4  15   5  221.59   20.00
  -4  15   5  249.51   23.77
  15   4  -6  225.37   23.58
 -15  -4   6  233.22   20.47
 -15  -4   6  224.74   23.55
  -4  15  -6  240.61   26.03
  -4  15   6  225.80   20.56
  -4  15   6  198.98   22.32
   4 -15   6  193.41   21.57
  15   4  -7  148.54   19.73
 -15  -4   7  163.60   18.26
 -15  -4   7  164.62   20.93
  -4  15  -7  124.45   19.49
   4 -15   7  160.25   20.45
  15   4  -8   66.84   13.76
   4 -15   8   73.96   14.70
  15   4   8   61.34   14.00
  -4  15   8   87.33   16.15
 -15  -4   8   72.66   13.15
  -4  15  -8   55.25   13.15
   4 -15   9   42.52   10.97
  15   4  -9   48.04   11.44
  15   4   9   49.41   12.69
 -15  -4   9   39.05   10.07
  -4  15   9   50.76   12.55
  -4  15  -9   43.07   11.99
  15   4 -10   17.17    7.09
 -15  -4  10   25.99    9.42
 -15  -4  10   30.19    9.84
  -4  15 -10   30.89   10.42
   4 -15  10   20.50    8.44
  15   5   0   12.16    4.84
  -5  15   0    4.89    2.96
  15   5   0   16.12    3.77
  15   5   1   29.55    4.90
  15   5  -1   21.70    6.73
  -5  15   1   14.96    3.68
  15   5   1   31.74    7.83
  15   5  -1   30.98    6.40
  15   5   1   31.64    6.95
  -5  15  -1   15.72    6.47
  -5  15   1    7.57    4.37
  -5  15   1   15.11    6.14
  15   5  -2   26.98    7.92
  15   5   2   24.56    4.54
  -5  15   2   15.43    4.29
  15   5   2   16.76    4.77
  15   5  -2   26.62    5.53
  15   5   2   21.01    6.76
  -5  15  -2   16.11    6.31
  -5  15   2    8.23    3.62
  -5  15   2   18.54    6.49
  -5  15   3   25.14    7.17
  15   5  -3   38.33    9.25
  15   5   3   35.00    8.25
  -5  15  -3   19.76    6.29
  -5  15   3   30.42    7.36
  -5  15   4   18.60    6.26
  15   5  -4   27.78    8.42
 -15  -5   4   37.66    8.76
  15   5   4   34.07    7.74
 -15  -5   4   29.51    6.82
  -5  15  -4   20.63    7.37
  -5  15   4   22.35    6.93
  15   5  -5   -0.03    2.94
  -5  15   5    5.65    4.61
  15   5   5    5.81    4.24
 -15  -5   5    8.50    6.02
 -15  -5   5    2.05    2.36
  15   5   5    9.60    5.25
  -5  15  -5    2.37    4.17
  -5  15   5    2.78    3.85
  -5  15   6    4.34    4.19
 -15  -5   6    5.97    3.61
   5 -15   6    4.73    3.93
  15   5  -6    5.05    4.26
  -5  15   6    3.99    3.55
  15   5   6   13.33    7.92
  -5  15  -6   -1.26    3.09
  15   5  -7    1.04    3.52
   5 -15   7    1.66    1.94
 -15  -5   7    2.41    3.39
  -5  15   7   -0.48    3.15
  15   5   7    2.60    3.78
  -5  15  -7    5.78    5.42
 -15  -5   7    1.46    2.06
  15   5  -8    4.30    4.29
  15   5   8    5.04    5.83
   5 -15   8    7.12    4.65
  -5  15   8    6.98    4.87
  -5  15  -8   -1.66    3.21
 -15  -5   8    0.42    2.13
   5 -15   9    6.16    3.71
  15   5  -9    1.62    4.12
 -15  -5   9   -0.64    1.78
  -5  15   9    1.72    3.76
  -5  15  -9    7.33    5.77
 -15  -5   9    0.68    2.50
  15   5 -10   13.21    7.17
   5 -15  10    4.32    4.73
  15   6   0    1.15    3.88
  15   6   0    0.18    3.28
  -6  15   0    6.70    4.80
  15   6   0    0.94    1.15
  15   6   1    7.22    3.10
  15   6  -1   10.42    6.06
  15   6   1    7.30    4.90
  15   6  -1   10.59    4.25
  15   6   1   12.09    4.42
  -6  15  -1    6.50    3.26
  -6  15   1    5.49    3.68
  -6  15   1   17.08    5.79
  -6  15   2   72.73   11.91
  15   6   2   98.71   13.78
  -6  15   2   95.12   10.75
  15   6  -2   97.93   14.40
 -15  -6   2   81.31   12.66
  -6  15  -2   85.37   13.68
  15   6   2  109.73   10.32
  -6  15   2   77.79   12.30
  -6  15   3   89.31   13.32
  15   6   3  106.20   14.04
  15   6  -3   95.59   14.56
 -15  -6   3   91.50   13.66
  15   6   3   84.53   13.57
  -6  15  -3   80.76   14.12
  -6  15   3   84.02   12.59
  15   6   3   95.55   10.16
  -6  15   4   20.60    6.31
  15   6  -4   29.54    8.44
  15   6   4   26.02    8.05
  15   6   4   26.50    5.73
  15   6   4   31.43    8.55
 -15  -6   4   30.42    7.00
 -15  -6   4   26.27    7.97
  -6  15  -4   23.81    7.60
  -6  15   4   27.96    7.71
  15   6  -5   62.82   12.99
  -6  15   5   62.58   11.81
 -15  -6   5   63.50   12.33
  15   6   5   57.39   12.29
  15   6   5   57.26   10.51
  -6  15  -5   61.27   12.85
 -15  -6   5   65.39   10.67
  -6  15   5   68.77   11.71
  -6  15   6   55.63   11.13
  15   6  -6   39.14   10.33
 -15  -6   6   41.43    8.92
  -6  15   6   49.08   10.81
  15   6   6   36.90   10.72
  -6  15  -6   46.41   11.74
 -15  -6   7   17.56    5.52
  15   6  -7   16.72    7.25
 -15  -6   7   18.55    7.38
  -6  15   7   16.69    6.77
   6 -15   7   20.52    7.69
  -6  15  -7   27.69    9.16
  15   6  -8    2.48    3.54
 -15  -6   8    4.47    5.39
  -6  15   8   22.25    8.13
  -6  15  -8   12.10    7.26
   6 -15   8   12.31    5.74
 -15  -6   8    2.92    4.14
  15   6  -9   15.96    7.81
   6 -15   9   12.24    5.85
  15   6   9    3.01    3.47
  -6  15   9   31.19   10.09
  -6  15  -9   19.64    8.68
 -15  -6   9   16.55    6.58
   6 -15  10   10.30    5.74
  15   6 -10   13.12    6.85
 -15  -6  10    3.87    4.63
 -15  -6  10   -0.14    4.38
  15   7   0    0.33    2.92
  15   7   0    4.70    4.27
  -7  15   0   -0.02    2.21
  -7  15   0   -2.87    1.62
  15   7   0    0.96    1.97
  15   7   1    1.66    2.68
  15   7  -1    3.57    4.28
  -7  15   1    1.97    1.71
  15   7   1    2.05    3.14
  15   7  -1   -0.74    1.93
  15   7   1    0.93    2.05
  -7  15  -1   -3.33    4.83
  -7  15   1    6.31    4.41
  -7  15   1   -2.05    2.25
  -7  15   2   -0.01    3.01
  15   7   2    1.75    1.72
  15   7  -2    0.20    3.37
  15   7  -2    1.81    3.29
  15   7   2    0.21    3.03
  15   7   2    1.35    3.65
  -7  15  -2   -0.19    2.98
  -7  15   2    0.76    2.45
  -7  15   3    8.23    4.29
  15   7  -3    4.75    5.52
  -7  15   3    2.90    2.89
  15   7   3    3.60    3.71
  15   7   3   11.44    5.72
  -7  15  -3    6.26    4.30
  15   7   3    1.11    1.52
  -7  15   3    8.27    5.23
  -7  15   4   12.41    5.47
  15   7  -4   16.86    6.80
 -15  -7   4   15.88    5.96
  15   7   4   23.91    7.27
  15   7   4   31.98    8.39
  -7  15  -4   10.19    5.71
  -7  15   4    9.25    5.56
  15   7  -5    0.96    2.80
  -7  15   5    2.14    4.16
 -15  -7   5   -0.45    2.78
  15   7   5    5.03    4.20
 -15  -7   5    0.02    2.93
  15   7   5    0.50    3.00
  -7  15  -5    3.89    3.34
  -7  15   5    1.58    2.13
  -7  15   6   15.36    5.79
  15   7  -6    1.92    4.10
  -7  15   6   -1.87    3.33
  15   7   6    5.63    4.42
  -7  15  -6    2.39    3.44
 -15  -7   6    4.13    2.83
  15   7  -7   -0.09    2.53
   7 -15   7   -1.67    2.80
 -15  -7   7    4.47    4.92
  15   7   7    4.53    3.73
  -7  15   7    0.60    2.74
  -7  15  -7   -1.19    2.41
 -15  -7   8    4.15    3.26
  15   7  -8    2.00    5.01
 -15  -7   8   -0.17    2.28
  15   7   8   -1.69    5.02
  -7  15   8    3.58    2.45
  -7  15  -8    2.47    3.13
   7 -15   8    9.03    5.86
  15   7  -9    8.78    5.32
 -15  -7   9    2.89    3.39
   7 -15   9   -1.09    2.53
  15   7   9    8.68    6.70
  -7  15   9   -4.75    3.47
  -7  15  -9    1.42    4.19
 -15  -7   9   -2.46    3.26
   7 -15  10   -4.02    2.20
  15   7 -10    0.39    4.20
 -15  -7  10    7.10    4.89
  15   8   0   -1.09    2.43
  15   8   0    4.79    3.52
  15   8   0    5.48    3.28
  -8  15   0   -1.97    2.72
  -8  15   0   -3.13    2.80
  -8  15   1   42.43    7.11
  15   8  -1   19.59    6.83
  15   8   1   33.17    8.49
  15   8   1   47.07    9.76
  -8  15  -1   37.95    9.81
  -8  15   1   38.34    9.40
  -8  15   1   36.32    8.30
  15   8   1   39.91    7.29
  -8  15   2    4.87    2.72
  15   8   2   11.03    4.11
  -8  15   2    3.63    2.34
  15   8  -2    7.89    5.24
  15   8   2    9.56    5.81
  15   8   2   15.26    5.95
  -8  15  -2    5.11    4.18
  -8  15   2    6.95    4.40
  -8  15   3    5.83    3.28
  15   8   3    4.23    3.06
  15   8  -3   11.49    4.67
  15   8   3   11.02    5.77
  15   8   3    2.86    2.25
  -8  15  -3    7.24    4.84
  -8  15   3   12.48    5.66
  -8  15   4   13.00    5.05
  15   8  -4   15.06    6.48
  15   8   4   22.12    5.60
  15   8   4   23.86    8.08
  15   8   4   29.35    8.35
  -8  15  -4   36.67    9.78
  -8  15   4   28.20    8.02
  15   8  -5   10.60    4.74
 -15  -8   5   24.33    7.52
  -8  15   5   13.76    5.90
 -15  -8   5   10.32    4.76
  15   8   5   22.41    8.06
  15   8   5   23.28    6.24
  15   8   5   24.28    7.78
  -8  15  -5   25.14    8.77
  -8  15   5   18.19    7.40
  -8  15   6   19.64    7.58
 -15  -8   6   16.42    5.97
 -15  -8   6   16.79    6.81
  -8  15   6   18.15    6.59
  15   8   6   27.20    9.20
  -8  15  -6   15.79    6.76
  15   8  -6   30.44    9.76
   8 -15   7   16.65    7.36
  15   8  -7   23.09    8.64
 -15  -8   7   16.03    6.74
  15   8   7   30.41   10.24
  -8  15   7   15.03    6.52
 -15  -8   7   18.05    6.92
  -8  15  -7   17.51    7.97
  15   8  -8   14.43    6.94
 -15  -8   8   14.51    6.30
 -15  -8   8   16.23    6.93
  15   8   8   14.70    6.76
  -8  15   8    7.58    4.20
  -8  15  -8    5.20    5.53
   8 -15   8    4.52    4.84
  15   8  -9   26.69    9.65
 -15  -8   9   15.45    7.45
 -15  -8   9   11.79    6.42
   8 -15   9    3.07    3.70
  -8  15   9   -4.01    4.51
  -8  15  -9   17.83    8.84
 -15  -8  10    2.54    4.84
  15   8 -10    3.40    3.85
   8 -15  10   -0.49    2.47
  15   9   0  369.08   28.51
  15   9   0  392.34   26.76
  -9  15   0  330.15   27.65
  15   9   0  391.26   23.32
  -9  15   0  367.81   25.18
  15   9  -1  269.33   25.04
  15   9   1  243.27   22.86
  -9  15   1  257.73   18.41
  15   9  -1  270.66   21.26
  15   9   1  256.39   22.26
  -9  15  -1  226.74   23.22
  -9  15   1  227.00   22.98
  15   9   1  263.19   19.00
  -9  15   1  236.64   20.32
  15   9  -2  204.89   21.84
  15   9   2  174.77   19.49
  -9  15   2  203.58   17.38
  15   9   2  193.58   20.13
  -9  15  -2  168.37   20.05
  -9  15   2  184.50   20.47
  -9  15   2  200.57   18.91
  15   9   2  191.54   16.34
  15   9   3  110.31   15.58
 -15  -9   3   86.80   13.17
  -9  15   3  119.84   14.32
  15   9  -3   96.44   15.47
  15   9   3   92.11   14.63
  -9  15  -3   78.66   14.70
  -9  15   3   82.81   12.54
  15   9   3  102.87   12.13
  -9  15   3   95.77   14.89
  -9  15   4   77.33   12.71
 -15  -9   4   63.00   11.42
  15   9   4   56.53    9.53
  15   9  -4   71.07   13.38
  -9  15   4   64.08   10.94
  15   9   4   60.13   12.63
  15   9   4   64.44   11.65
  -9  15  -4   60.31   12.96
  -9  15   4   59.95   12.06
  -9  15   5   28.37    7.87
 -15  -9   5   23.37    7.38
  15   9  -5   36.80   10.21
  15   9   5   29.00    9.33
  15   9   5   22.33    7.26
  -9  15  -5   14.95    7.17
  -9  15   5   26.10    8.20
  -9  15   6    6.39    5.78
 -15  -9   6    0.31    2.95
  15   9   6    6.03    5.13
  -9  15   6   -0.59    1.99
  -9  15  -6    5.16    5.85
 -15  -9   6    2.95    3.67
  15   9  -6    7.64    5.68
 -15  -9   7    4.28    3.23
  15   9  -7    7.89    5.36
  15   9   7   11.64    6.61
 -15  -9   7    5.73    2.98
  -9  15   7    8.17    5.04
  -9  15  -7    6.25    5.50
  15   9  -8   13.16    7.22
  15   9   8   13.95    7.13
  -9  15   8   12.44    5.94
   9 -15   8   16.95    7.29
 -15  -9   8   13.52    6.56
  -9  15  -8   13.87    7.07
  15   9  -9    9.45    5.38
 -15  -9   9    5.63    4.03
  -9  15  -9   15.24    8.62
  -9  15   9   18.61    7.13
   9 -15   9   21.91    8.61
  15  10   0    5.49    4.95
  15  10   0    0.24    3.96
  15  10   0   -0.11    1.20
 -10  15   0    5.92    4.76
 -10  15   0    6.02    4.14
 -10  15   1    3.38    3.39
  15  10   1    3.13    2.38
  15  10  -1   -0.85    1.97
  15  10   1    7.54    5.36
 -10  15  -1   12.39    6.91
 -10  15   1    9.99    5.11
  15  10   1    5.35    3.83
  15  10   2    3.86    2.97
 -10  15   2    8.39    5.06
 -10  15   2   14.48    4.84
  15  10  -2   -0.58    2.96
  15  10   2   15.17    6.54
 -10  15  -2   12.61    6.55
 -10  15   2    5.18    5.09
  15  10   3    6.14    4.03
 -10  15   3   13.87    5.59
  15  10  -3    3.87    3.64
  15  10   3   23.63    7.90
 -10  15   3   12.58    4.90
 -10  15  -3   16.25    5.81
 -10  15   3   15.45    6.63
 -15 -10   4    0.82    2.36
  15  10   4    3.23    3.32
 -10  15   4    7.60    3.77
 -10  15   4    7.68    4.68
  15  10  -4    4.46    2.79
  15  10   4    8.20    4.57
  15  10   4    9.91    5.37
 -10  15  -4    7.61    5.21
 -10  15   4    9.26    5.40
  15  10  -5   23.21    8.18
 -10  15   5   30.43    8.54
  15  10   5   25.00    7.93
 -10  15   5   29.98    8.23
  15  10   5   23.96    8.57
  15  10   5   25.51    7.94
 -10  15  -5   37.15   11.29
 -10  15   5   25.04    8.45
 -10  15   6   34.38    9.68
 -15 -10   6   35.77    8.85
  15  10  -6   22.91    9.05
  15  10   6   36.30   10.90
 -10  15   6   16.60    6.83
 -15 -10   6   30.72    8.65
 -10  15  -6   30.36    9.67
  15  10  -7    8.81    5.95
  15  10   7   15.10    8.91
 -10  15   7   15.46    6.88
 -15 -10   7    7.08    4.48
 -10  15  -7   21.55    9.01
 -15 -10   8   16.53    7.23
  15  10  -8   13.83    8.16
  15  10   8   21.57    8.97
  10 -15   8   18.85    6.97
 -10  15   8   21.86    8.60
 -10  15  -8   19.77    8.73
  15  10  -9    3.36    3.44
 -10  15  -9   -1.86    3.27
 -10  15   9    7.29    4.85
 -15 -10   9    0.31    3.55
  15  11   0  357.28   29.53
 -11  15   0  315.67   27.91
  15  11   0  296.53   22.45
 -11  15   0  319.83   23.11
 -11  15   1  245.17   19.73
  15  11  -1  255.72   25.54
  15  11   1  237.66   24.38
  15  11   1  260.71   23.80
 -11  15  -1  235.95   24.53
 -11  15   1  221.64   23.51
 -11  15  -1  223.93   19.19
  15  11   1  249.58   20.54
 -11  15   1  261.69   21.20
  15  11  -2  158.10   20.46
  15  11   2  217.69   23.07
 -11  15   2  201.13   18.63
 -11  15  -2  170.23   20.89
 -11  15   2  184.09   21.38
  15  11   2  186.48   18.03
 -11  15   2  178.38   17.72
  15  11  -3  173.40   21.45
 -11  15   3  170.76   18.23
  15  11   3  176.91   21.12
  15  11   3  184.57   21.46
 -11  15  -3  203.51   23.23
 -11  15   3  174.05   20.81
  15  11   3  194.05   18.34
 -11  15   3  197.31   19.39
  15  11  -4  108.98   17.22
 -15 -11   4  111.26   15.03
 -11  15   4  108.53   15.28
  15  11   4  115.43   17.03
 -11  15  -4   83.35   15.16
 -11  15   4  103.29   16.35
  15  11   4  124.43   15.17
 -11  15   4   98.36   14.06
 -11  15   5   12.05    5.64
 -15 -11   5   16.78    6.48
 -11  15   5   10.70    5.70
  15  11   5   10.14    4.80
  15  11  -5   16.48    6.12
  15  11   5   11.83    5.11
 -11  15  -5   -0.83    2.99
 -11  15   6   -1.30    2.30
 -15 -11   6   -7.89    4.61
 -15 -11   6    2.65    2.45
 -11  15   6    5.39    4.86
  15  11  -6    3.54    4.38
  15  11   6   -6.51    5.68
  15  11   6    0.79    1.77
 -11  15   6   -0.33    3.62
 -11  15  -6    1.51    3.58
  15  11  -7    5.40    5.36
  15  11   7    2.14    5.59
 -15 -11   7    7.00    4.95
 -11  15   7   -0.24    2.10
 -11  15  -7    1.19    2.40
  15  11  -8   16.52    7.54
 -15 -11   8   16.73    6.87
 -11  15   8   39.30   10.79
 -11  15  -8   19.95    8.99
 -15 -11   9   29.91   10.26
  15  11  -9   31.39    9.79
 -11  15  -9   27.17   10.02
 -11  15   9   21.25    7.73
  15  12   0    0.12    1.34
 -12  15   0   -2.14    2.08
 -12  15   0    0.88    1.76
 -12  15   1    4.86    4.25
 -12  15   1   10.49    4.82
  15  12  -1   -2.24    1.75
  15  12   1   16.36    7.24
 -12  15  -1   11.68    6.40
 -12  15  -1    7.60    3.67
 -12  15   1   -1.65    1.85
  15  12   1    1.34    2.66
  15  12   2   -0.31    1.33
 -12  15   2    1.52    1.40
 -12  15   2    6.57    3.67
  15  12   2    5.48    3.38
  15  12  -2   -6.81    5.45
  15  12   2    0.18    2.70
 -12  15  -2    4.95    4.11
 -12  15   2    0.15    2.91
  15  12   3   -1.21    1.81
 -12  15   3    1.63    1.84
  15  12   3   -1.53    3.21
  15  12  -3    0.47    2.56
  15  12   3    3.90    4.52
 -12  15  -3    5.36    3.94
 -12  15   3    5.73    3.58
  15  12   4   -0.62    2.30
 -12  15   4    0.35    3.03
 -12  15   4    0.93    1.92
  15  12   4    8.08    5.81
  15  12  -4    4.27    5.30
  15  12   4    3.80    4.54
 -12  15  -4    0.47    2.23
 -12  15   4    0.08    2.17
 -12  15   5    5.55    5.53
  15  12   5   -1.63    3.16
 -12  15   5    0.12    1.74
  15  12  -5   11.31    6.52
  15  12   5   11.57    6.76
 -12  15   5    5.88    5.46
  15  12   5    4.92    5.04
 -12  15  -5   -0.05    2.91
 -12  15   6    3.83    4.12
 -12  15   6    2.39    2.94
  15  12  -6   11.39    6.00
 -12  15   6    0.04    2.18
 -12  15  -6    0.75    2.15
 -15 -12   7   -0.37    1.84
 -12  15   7   -0.22    3.14
  15  12  -7    5.57    4.60
 -12  15   7   -1.74    2.88
 -12  15  -7    4.94    5.75
 -15 -12   8    3.33    3.56
  15  12  -8   -2.29    3.05
 -12  15   8   -7.24    4.76
 -12  15   9    6.59    5.81
  15  13   0   85.85   15.13
  15  13   0   86.10   13.20
 -13  15   0   85.83   15.13
 -13  15   1   76.39   11.90
  15  13  -1   69.10   14.29
  15  13   1   79.34   14.75
 -13  15  -1   68.75   13.82
 -13  15   1   93.28   15.84
  15  13   1   56.35   10.49
  15  13   2   52.78   10.27
 -13  15   2   47.12    9.70
  15  13  -2   47.27   11.91
  15  13   2   41.59   10.90
 -13  15  -2   41.21   10.94
 -13  15   2   43.98   10.96
  15  13   3   38.38    9.10
  15  13   3   36.53   10.37
  15  13  -3   32.68   10.18
  15  13   3   40.20   10.54
 -13  15  -3   35.51   10.66
 -13  15   3   33.36    9.46
  15  13   4   28.75    8.11
 -13  15   4   28.26    8.46
  15  13   4   22.29    8.81
  15  13  -4   11.05    5.94
  15  13   4   19.93    7.64
 -13  15  -4   18.41    7.54
 -13  15   4   32.52    9.55
 -13  15   5    9.22    4.54
  15  13   5    3.40    2.96
  15  13   5   16.40    8.73
  15  13  -5   -3.75    4.46
  15  13   5    6.98    4.62
 -13  15  -5    0.13    3.12
 -13  15   6    7.15    4.78
  15  13  -6    3.97    4.73
 -13  15   6   12.89    7.21
  15  13   6    5.31    6.77
  15  13   6    7.02    4.23
 -13  15  -6    2.41    1.74
 -13  15   7    1.71    2.45
  15  13   7    4.11    6.63
  15  13  -7    6.91    6.86
 -13  15  -7    3.85    5.65
 -13  15   8   12.63    6.70
  15  13  -8    5.41    5.30
 -15 -13   8    8.32    6.61
 -13  15  -8    9.35    5.88
  15  14   0   -0.12    2.20
  15  14   0    5.41    3.66
 -14  15   0   -0.71    3.53
  15  14  -1    9.73    6.13
  15  14   1   16.23    8.04
 -14  15  -1    5.27    3.59
  15  14   1   11.56    5.71
 -14  15   1   21.12    8.60
  15  14   2    1.14    1.80
  15  14  -2    2.20    2.01
  15  14   2    8.99    6.24
 -14  15  -2    9.93    6.46
 -14  15   2    4.44    4.47
  15  14   3   -1.14    1.80
 -14  15   3    1.29    2.81
  15  14  -3   -0.98    2.77
  15  14   3    2.16    4.43
 -14  15  -3    1.91    3.50
 -14  15   3    2.34    4.31
  15  14   4    3.17    1.76
  15  14  -4    0.80    2.50
  15  14   4    7.31    6.06
 -14  15  -4    5.71    6.17
 -14  15   4    6.10    5.93
 -14  15   5   -0.09    3.72
  15  14   5    8.31    4.31
 -14  15   5    1.84    2.05
  15  14   5    0.36    4.49
  15  14  -5   11.05    7.35
  15  14   5   -2.08    4.27
 -14  15  -5    2.55    2.99
 -14  15   6   -1.15    2.60
 -14  15   6    4.97    5.07
  15  14   6    0.20    3.10
  15  14   6    0.47    3.35
  15  14  -6    1.19    2.48
 -14  15  -6   -0.72    3.25
 -14  15   7    5.57    6.06
  15  14  -7   -4.10    3.71
 -14  15  -7    1.47    2.49
 -14  15  -8   11.58    7.75
  15  15   0   88.98   16.99
  15  15   0   78.98   13.40
 -15  15   0   75.12   14.97
  15  15  -1   79.33   15.70
  15  15   1   90.08   17.12
 -15  15  -1   82.79   15.48
  15  15   1   98.12   14.88
 -15  15   1   57.98   13.22
  15  15   2   62.68   11.94
 -15  15   2   67.41   12.36
  15  15  -2   56.83   13.72
  15  15   2   71.59   14.91
 -15  15  -2   68.06   14.30
 -15  15   2   97.11   16.77
  15  15   3   36.57    9.26
 -15  15   3   35.19    9.58
  15  15  -3   40.03   11.61
  15  15   3   53.19   13.25
 -15  15  -3   28.99    9.36
 -15  15   3   54.97   12.57
 -15  15   4    9.94    6.61
  15  15   4   12.32    5.18
 -15  15   4    9.36    4.58
  15  15  -4   19.31    8.41
  15  15   4   10.53    5.60
 -15  15  -4   13.56    6.43
 -15  15   5    3.61    2.67
  15  15   5    0.24    3.02
 -15  15   5    7.37    5.78
  15  15  -5   -1.53    3.12
  15  15   5   -1.90    4.21
 -15  15  -5    6.95    7.48
 -15  15   6   -1.80    2.39
  15  15   6    2.38    3.02
  15  15  -6   -3.40    2.79
  15  15   6   -5.07    6.23
 -15  15  -6    3.32    4.76
 -15  15   7   -1.30    3.80
 -15  15  -7    7.68    5.55
  15  16   0    1.92    2.68
  15  16   0   -1.92    2.18
 -16  15   0    3.90    6.12
  15  16  -1    9.47    6.10
  15  16   1    3.33    6.10
 -16  15  -1    6.55    4.64
  15  16   1    2.14    1.44
 -16  15   1    2.52    2.94
  15  16   2   33.69    9.01
 -16  15   2   28.74    8.09
  15  16  -2   38.00   11.82
  15  16   2   37.48   11.80
 -16  15  -2   33.28   10.15
 -16  15   2   39.86   11.66
  15  16   3   67.32   12.85
 -16  15   3   82.23   14.50
  15  16  -3   97.25   18.13
  15  16   3   97.46   18.10
 -16  15  -3   79.20   15.69
 -16  15   3   73.85   15.63
 -16  15   4   83.65   16.49
  15  16   4   80.41   14.36
 -16  15   4   69.08   13.83
  15  16  -4   89.96   17.63
  15  16   4   86.10   17.41
 -16  15  -4   87.22   16.71
 -16  15   5   51.80   13.17
  15  16   5   56.62   12.39
  15  16  -5   63.90   15.10
  15  16   5   44.03   11.86
 -16  15  -5   41.70   11.37
 -16  15   6   32.37   10.17
  15  16   6   43.50   11.22
  15  16  -6   44.46   12.75
  15  16   6   45.16   11.92
 -16  15  -6   50.59   13.41
  14  16   0  107.27   18.51
  14  16   0   92.62   15.23
 -16  14   0  116.66   18.37
  14  16  -1   82.96   16.14
  14  16   1   84.86   16.72
 -16  14  -1   76.80   15.11
  14  16   1   75.98   13.49
 -16  14   1   80.18   15.43
  14  16  -2   81.76   16.36
  14  16   2   65.59   14.38
 -16  14  -2   74.98   14.74
 -16  14   2   60.29   13.53
  14  16   2   84.76   14.34
  14  16   3   63.49   12.44
  14  16  -3   58.01   13.79
  14  16   3   36.27   10.80
 -16  14   3   54.86   11.80
 -16  14  -3   54.87   12.78
 -16  14   3   61.33   13.83
 -16  14   4   30.96    9.91
  14  16   4   25.20    7.71
 -16  14   4   23.66    7.87
  14  16  -4   25.38    9.63
  14  16   4   25.61    9.70
 -16  14  -4   34.61   10.44
 -16  14   5   15.85    7.79
  14  16   5   14.75    6.52
  14  16  -5   14.18    7.77
  14  16   5   25.87    9.54
 -16  14  -5   18.01    7.49
 -16  14   6    4.37    5.33
  14  16   6   -3.60    4.22
  14  16  -6   11.71    6.77
 -16  14  -6    2.02    2.49
  14  16   7    9.25    7.07
  14  16  -7    7.48    5.34
 -16  14  -7    3.72    5.30
  14  16   8   17.47    6.87
  13  16   0    9.90    7.25
 -16  13   0   -1.32    4.48
  13  16  -1    2.41    4.43
  13  16   1    8.04    5.93
  13  16   1   -4.55    3.18
 -16  13  -1    1.73    2.11
 -16  13   1    4.68    4.07
 -16  13   1   -1.15    2.93
 -16  13   2   12.02    5.42
  13  16  -2   16.24    7.99
  13  16   2    1.55    3.73
 -16  13  -2   11.51    5.30
 -16  13   2   13.68    6.65
  13  16   2   16.93    6.62
  13  16   3   58.00   11.96
 -16  13   3   50.51   11.21
  13  16  -3   49.61   12.24
  13  16   3   50.75   12.74
 -16  13  -3   52.68   12.81
 -16  13   3   56.12   12.91
 -16  13   4   34.54   10.65
  13  16   4   53.15   11.74
  13  16  -4   48.90   12.75
  13  16   4   39.45   11.63
 -16  13  -4   37.18   10.30
 -16  13   5   45.09   11.57
  13  16   5   39.70   10.40
 -16  13   5   49.64   11.70
  13  16  -5   71.49   15.23
 -16  13  -5   41.57   11.03
  13  16   6   38.03   10.79
 -16  13   6   27.47    9.33
  13  16  -6   45.63   13.06
 -16  13  -6   36.62   10.57
  13  16   7   32.99   10.29
  13  16  -7   45.20   12.85
 -16  13  -7   41.65   11.31
  13  16   8   36.73   10.99
  13  16  -8   35.18   11.12
  12  16   0  223.17   25.64
 -16  12   0  177.64   21.75
 -16  12   1  126.25   16.75
  12  16  -1  125.64   19.43
  12  16   1  105.02   17.73
  12  16   1  107.18   16.15
 -16  12   1  132.07   18.80
 -16  12  -1  112.25   17.14
  12  16  -2  108.87   17.87
  12  16   2  102.74   17.35
 -16  12  -2  113.67   17.23
 -16  12   2  106.58   16.09
  12  16   2  100.79   15.92
 -16  12   2  102.24   16.49
 -16  12   3  107.39   17.53
 -16  12   3  107.08   16.35
  12  16  -3   92.88   16.68
  12  16   3  123.20   19.29
  12  16   3  107.76   16.37
 -16  12  -3  112.55   17.21
 -16  12   4   35.82   10.38
  12  16   4   44.74   10.98
 -16  12   4   46.04   11.18
  12  16  -4   37.66   10.72
  12  16   4   36.62   10.48
 -16  12  -4   55.25   12.38
  12  16   5   11.16    5.79
 -16  12   5   12.81    6.92
  12  16  -5    5.57    3.50
  12  16   5    5.41    5.94
 -16  12  -5    7.57    5.22
  12  16   6    0.49    2.63
 -16  12   6    0.53    3.24
  12  16  -6    6.85    5.35
 -16  12  -6    0.51    4.71
  12  16   7    4.14    1.70
  12  16  -7    3.58    5.10
 -16  12  -7    5.25    4.29
  12  16   8    9.16    5.55
  12  16  -8   23.95    9.56
  11  16   0    0.24    1.57
 -16  11   0   -0.63    2.21
  11  16  -1    1.36    5.11
  11  16   1    1.35    5.36
  11  16   1   -1.01    3.04
 -16  11  -1    1.73    2.89
 -16  11   1    6.03    5.08
 -16  11   2   -1.14    2.89
  11  16  -2    2.76    5.61
  11  16   2   -0.40    2.62
 -16  11  -2   -0.16    2.50
  11  16   2   -0.92    2.90
 -16  11   2    7.45    6.14
 -16  11   3    4.31    4.17
  11  16   3    4.41    4.65
 -16  11   3    4.41    4.78
  11  16  -3   -0.21    5.24
  11  16   3    2.01    3.79
 -16  11  -3   -1.03    2.21
 -16  11   4   -3.29    3.14
  11  16   4    1.51    1.90
 -16  11   4    4.45    5.28
  11  16  -4    0.84    2.66
  11  16   4    4.31    3.82
 -16  11  -4   -3.11    2.27
  11  16   5    4.68    2.76
 -16  11   5    1.93    2.85
  11  16  -5    3.43    3.95
  11  16   5    6.15    5.57
 -16  11  -5    6.55    4.60
  11  16   6    5.95    3.45
 -16  11   6   -4.44    4.20
  11  16  -6    8.14    5.29
 -16  11  -6    1.68    3.77
 -16  11   7    1.46    2.79
  11  16   7    1.28    4.05
  11  16  -7    1.96    2.93
 -16  11  -7   10.82    7.34
  11  16   8    3.30    3.94
  11  16  -8    6.50    4.37
  10  16   0   -0.91    4.13
 -16  10   0    1.42    3.68
  10  16  -1    3.57    3.97
  10  16   1    0.86    4.46
  10  16   1   -3.64    3.63
 -16  10  -1    6.05    3.79
 -16  10   1   -2.05    3.18
 -16  10   2   10.31    5.60
  10  16  -2    5.45    4.22
  10  16   2    5.02    5.28
 -16  10  -2    8.64    5.60
  10  16   2    4.55    3.97
 -16  10   2    6.50    6.06
 -16  10   3   -1.41    4.02
  10  16   3    0.66    2.61
  10  16  -3    4.85    5.34
  10  16   3   -1.20    2.34
 -16  10  -3   -2.85    2.27
 -16  10   4    9.84    5.88
  10  16   4   -0.92    2.53
  10  16  -4    0.23    2.91
 -16  10  -4    4.61    5.21
  10  16   5   -0.12    2.49
  10  16  -5   10.72    6.95
 -16  10  -5   14.93    6.38
 -16  10   5    9.11    5.73
  10  16   6    1.74    2.74
  10  16  -6   -1.00    2.16
 -16  10  -6    6.65    5.04
 -16  10   7    7.28    6.30
  10  16   7    1.77    2.37
  10  16  -7    8.39    7.32
  16 -10   7    0.16    2.47
 -16  10  -7   -0.54    2.51
 -10 -16   8    0.14    2.13
 -16  10   8    6.21    5.44
  10  16   8    8.54    5.65
  10  16  -8    2.93    4.18
   9  16   0    3.11    3.72
   9  16   0    3.28    4.80
 -16   9   0   -0.37    2.99
 -16   9   1    0.54    3.54
   9  16  -1   -1.08    3.10
   9  16  -1    0.47    5.50
   9  16   1    3.94    2.45
   9  16   1    0.75    4.87
   9  16   1    2.70    4.01
 -16   9  -1   -1.97    3.23
 -16   9   1   10.97    6.04
 -16   9   2    0.04    2.82
   9  16  -2    4.32    3.44
   9  16   2    3.78    4.16
 -16   9  -2   -1.88    3.67
   9  16   2    0.55    2.80
   9  16   3   -1.90    2.83
 -16   9   3    5.69    4.98
   9  16  -3    2.82    3.93
   9  16   3    4.00    4.08
 -16   9  -3   15.47    7.03
 -16   9   4    0.03    3.39
   9  16   4   -3.99    3.79
   9  16  -4    2.96    3.50
   9  16   4    9.14    5.94
 -16   9  -4    1.93    2.92
   9  16   5   19.03    7.15
 -16   9   5   17.75    8.09
   9  16  -5   12.40    7.15
 -16   9  -5   12.50    5.47
   9  16   6   19.00    7.70
   9  16  -6   12.97    6.54
 -16   9  -6   11.85    5.81
   9  16   7    3.88    4.51
   9  16  -7    4.03    3.63
  16  -9   7   11.03    6.80
 -16   9   8    6.43    7.56
   9  16  -8   12.33    5.97
  -9 -16   8    2.65    3.83
   8  16   0  262.23   25.93
   8  16   0  272.93   21.80
 -16   8   0  238.83   23.00
 -16   8   1  173.12   19.47
   8  16  -1  197.41   22.56
   8  16   1  198.95   23.09
   8  16  -1  203.03   19.65
   8  16   1  219.54   18.15
   8  16   1  210.16   22.01
 -16   8  -1  194.57   20.35
 -16   8   1  205.99   21.74
   8  16  -2  192.05   22.65
   8  16   2  179.87   21.98
 -16   8  -2  175.42   19.33
   8  16   2  177.32   20.18
 -16   8   2  189.38   21.08
   8  16  -3  156.69   20.31
   8  16   3  183.90   22.41
 -16   8  -3  176.36   19.40
   8  16   3  175.54   20.46
 -16   8   3  160.91   20.04
   8  16   4   51.46   11.33
   8  16  -4   48.35   11.54
 -16   8  -4   46.47   10.03
   8  16   5    4.26    4.11
 -16   8   5    1.39    3.30
   8  16  -5    5.55    4.12
 -16   8  -5    1.70    3.03
   8  16   6   -1.57    1.59
   8  16  -6   -1.47    4.20
  16  -8   6   -1.20    5.39
 -16   8  -6   -2.41    2.86
   8  16   7    9.99    4.89
  16  -8   7    3.86    4.26
   8  16  -7    6.81    4.75
  -8 -16   8   27.60    9.52
 -16   8   8   17.03    8.84
  16  -8   8   25.23   10.28
   8  16  -8   17.27    7.72
   7  16   0    4.80    3.45
   7  16   0   -1.01    2.90
 -16   7   0    5.96    4.75
 -16   7   1   31.88    8.80
   7  16  -1   28.50    7.91
   7  16  -1   23.83    9.31
   7  16   1   16.10    5.66
   7  16   1   10.94    6.79
   7  16   1   11.36    5.21
 -16   7  -1   11.57    5.37
 -16   7   1   30.51    8.53
 -16   7   2   47.16   10.37
   7  16  -2   54.72   10.84
   7  16   2   63.07    9.06
   7  16  -2   60.05   12.75
   7  16   2   52.23   12.15
   7  16   2   64.10   11.71
 -16   7  -2   70.74   12.13
   7  16   3   58.14   12.13
 -16   7   3   71.71   13.05
   7  16  -3   77.45   13.86
   7  16   3   62.17   13.23
 -16   7  -3   86.16   12.97
   7  16   4   72.74   13.28
   7  16  -4   58.48   11.88
 -16   7  -4   73.80   12.22
   7  16   5   65.38   12.84
 -16   7   5   76.57   14.55
   7  16  -5   83.00   14.84
 -16   7  -5   80.81   13.03
   7  16   6   75.43   14.23
  16  -7   6   73.09   14.24
   7  16  -6   83.33   14.99
 -16   7  -6   82.12   13.26
  -7 -16   7   21.63    8.03
   7  16   7   43.13   11.12
  16  -7   7   33.55   10.08
   7  16  -7   26.71    9.08
 -16   7   8   12.47    7.66
  -7 -16   8   15.98    7.00
 -16   7   9    9.69    6.57
   6  16   0  152.05   19.64
   6  16   0  185.87   17.83
 -16   6   0  182.62   19.22
 -16   6   1  233.63   22.46
   6  16  -1  242.78   24.66
   6  16   1  245.42   24.82
   6  16  -1  249.59   21.71
   6  16   1  247.52   19.46
   6  16   1  222.23   22.24
 -16   6  -1  226.21   20.84
 -16   6   1  241.48   22.44
   6  16  -2  141.51   18.54
   6  16   2  125.60   17.92
   6  16  -2  130.69   16.58
   6  16   2  129.98   13.12
 -16   6  -2  112.56   14.60
   6  16   2  146.28   18.33
 -16   6   2  140.29   17.54
  16  -6   3   99.94   11.74
   6  16  -3  104.66   16.19
 -16   6  -3   99.21   13.53
   6  16   3  107.56   15.81
   6  16   4   26.48    8.21
   6  16  -4   36.01    8.58
 -16   6  -4   31.53    8.10
   6  16   5    4.89    4.08
 -16   6   5    3.16    3.95
  16  -6   5    0.76    3.86
   6  16  -5   10.51    5.42
 -16   6  -5   -0.27    3.26
   6  16   6    3.12    4.29
   6  16  -6    5.38    5.48
 -16   6  -6    5.07    3.97
  -6 -16   7   12.64    6.99
 -16   6   7   18.76    7.17
   6  16   7   16.52    6.28
  16  -6   7   24.65    9.16
   6  16  -7   15.78    6.31
 -16   6   8   17.99    7.73
 -16   6   8   13.89    7.14
  -6 -16   8   16.46    7.83
  16  -6   8   17.10    8.02
 -16   6   9    7.92    5.29
   6  16   9   27.57   10.79
   5  16   0    5.97    4.47
   5  16   0   11.40    6.38
 -16   5   0    0.72    3.83
 -16   5   1   24.76    7.64
   5  16  -1   21.15    6.86
   5  16  -1   15.09    6.31
   5  16   1   20.77    5.85
   5  16   1   16.59    5.99
   5  16   1    9.76    4.82
 -16   5  -1   12.22    5.82
 -16   5   2   66.09   11.96
  16  -5   2   56.32    9.30
   5  16  -2   57.51   11.07
   5  16  -2   72.78   12.92
   5  16   2   49.98   11.24
   5  16   2   66.47    9.61
   5  16   2   67.06   12.42
 -16   5  -2   54.57   10.26
   5  16   3   66.47   12.16
  16  -5   3   67.99    9.59
   5  16  -3   75.98   13.37
   5  16  -3   75.03   13.39
 -16   5  -3   62.72   10.63
   5  16   4   91.74   14.84
  16  -5   4  109.96   16.65
   5  16  -4  114.39   16.41
 -16   5  -4   97.99   13.14
   5  16   5   76.21   13.92
 -16   5   5   94.43   16.21
   5  16  -5   89.29   14.63
 -16   5  -5  105.07   13.85
 -16   5   6   90.45   14.57
   5  16   6   60.02   12.97
  16  -5   6   85.55   15.67
   5  16  -6   80.46   14.08
 -16   5   7   32.45    9.64
   5  16   7   23.29    9.17
  -5 -16   7   22.07    8.75
   5  16  -7   14.61    5.86
  -5 -16   8   14.30    7.16
 -16   5   8   22.03    8.84
   5  16   8    4.80    4.43
  16  -5   8   31.42   10.08
   5  16   9   18.39    7.94
  -5 -16   9   23.83    8.84
 -16   4   0    5.64    3.62
   4  16   0    6.30    3.86
   4  16   0   14.10    5.90
 -16   4   1    3.19    3.92
  16  -4   1    3.31    3.14
   4  16  -1    7.81    4.56
   4  16  -1    1.40    2.70
   4  16   1    2.42    1.55
   4  16   1    2.44    3.70
 -16   4  -1    4.93    4.25
  16  -4   2    2.89    2.25
 -16   4   2    1.35    3.77
  16  -4   2    6.72    4.25
   4  16  -2    1.79    3.32
   4  16  -2    3.96    3.64
   4  16   2    7.94    3.97
   4  16   2    9.79    5.54
 -16   4  -2    2.68    2.10
   4  16   3   17.98    6.53
  16  -4   3    5.16    3.80
  16  -4   3    7.28    4.62
   4  16  -3    9.86    5.84
   4  16  -3    5.29    4.07
   4  16   3   10.55    3.93
 -16   4  -3    9.18    4.80
   4  16   4    3.20    4.38
 -16   4   4    0.97    3.88
   4  16  -4    6.91    3.13
   4  16  -4    7.94    5.88
 -16   4  -4    0.57    1.73
   4  16   5   -2.10    3.92
 -16   4   5    4.68    3.79
 -16   4   5    0.77    3.25
  16  -4   5    6.54    5.53
   4  16  -5   -1.90    2.49
 -16   4  -5    6.66    3.84
 -16   4   6    3.01    2.35
   4  16   6    2.89    2.74
  16  -4   6   -4.03    5.07
   4  16  -6    0.65    2.05
  -4 -16   7    8.36    5.00
 -16   4   7    3.56    4.68
   4  16   7   -0.93    2.72
   4  16  -7    4.69    3.47
  -4 -16   8   -2.83    3.58
 -16   4   8   11.63    7.13
  16  -4   8    6.44    5.72
 -16   4   9    2.07    3.34
  16  -4   9    3.12    5.02
   4  16   9   13.62    6.51
  -4 -16   9    9.85    7.16
 -16   3   0    0.33    2.98
  16  -3   0    2.10    2.94
  16  -3   0    3.24    3.00
   3  16   0    4.11    4.56
 -16   3  -1    9.28    4.67
  16  -3   1   14.35    5.41
  16  -3   1    9.97    3.88
  16  -3  -1   11.92    4.64
   3  16  -1    8.90    5.19
   3  16  -1   15.58    7.04
   3  16   1    4.07    2.49
   3  16   1   18.54    6.51
  16  -3   2   -0.03    2.30
 -16   3   2    4.21    4.59
  16  -3   2    0.88    2.96
  16  -3  -2   -0.68    2.04
   3  16  -2   -4.06    4.08
   3  16  -2    2.99    4.13
   3  16   2    0.06    2.39
   3  16   2   -2.77    3.32
 -16   3  -2    3.07    3.74
   3  16   3    1.42    2.27
  16  -3   3    0.66    2.03
 -16   3   3    3.27    4.04
  16  -3   3    2.15    2.79
  16  -3  -3   -0.23    0.99
   3  16  -3    2.05    3.64
   3  16  -3    0.79    3.86
   3  16   3    0.02    1.97
 -16   3  -3   -0.75    2.76
   3  16   4   13.79    6.26
  16  -3   4   10.26    5.41
   3  16  -4   16.18    7.21
   3  16  -4    7.95    4.19
 -16   3   4    2.85    3.50
 -16   3  -4    8.32    3.63
   3  16   5    4.61    4.04
 -16   3   5   14.43    5.80
 -16   3   5    2.81    3.94
  16  -3   5    8.16    5.03
   3  16  -5   10.13    5.05
   3  16  -5    3.45    4.23
 -16   3  -5    3.53    2.41
   3  16   6   23.23    7.74
 -16   3   6   20.27    8.69
   3  16  -6   47.49   12.48
   3  16  -6   41.50    9.94
 -16   3   7   15.18    5.51
 -16   3   7   19.91    8.03
   3  16   7   16.50    7.19
  16  -3   7   20.11    9.17
  -3 -16   7   15.08    6.82
 -16   3   8    9.88    7.04
  -3 -16   8    9.66    6.15
  16  -3  -9   -8.41    5.38
  -3 -16   9    2.50    4.01
  16  -3   9    7.45    6.07
   3  16   9    8.51    5.55
 -16   2   0    6.60    3.67
  16  -2   0   14.78    5.79
  16  -2   0   13.18    5.23
   2  16   0   17.85    5.62
   2  16   0    8.64    4.40
 -16   2  -1    0.98    1.58
  16  -2  -1    1.16    2.54
  16  -2   1    4.56    3.30
 -16   2   1   -1.82    1.75
  16  -2   1    1.62    2.32
  16  -2  -1    1.88    3.09
   2  16  -1    5.19    4.61
   2  16   1    3.01    3.91
   2  16   1    3.37    3.24
 -16   2  -2    2.57    2.10
  16  -2  -2    1.39    2.41
  16  -2   2    2.58    1.79
 -16   2   2   -1.04    2.37
  16  -2   2   -2.86    2.96
  16  -2  -2    4.50    2.21
   2  16  -2   -3.33    3.53
   2  16  -2    4.57    3.35
   2  16   2    1.26    1.88
   2  16   2    1.07    2.47
   2  16   3   10.11    5.79
  16  -2   3   12.33    4.23
 -16   2   3    4.72    4.08
  16  -2  -3   11.03    3.79
   2  16  -3   14.76    6.59
   2  16  -3   13.86    5.83
   2  16   3   10.39    3.86
 -16   2  -3   17.78    5.28
   2  16   4    4.35    3.82
 -16   2   4   -0.78    1.95
  16  -2   4   -7.74    4.36
   2  16  -4    2.59    3.69
   2  16  -4    3.00    3.58
   2  16   4    2.45    2.64
 -16   2  -4   -0.60    1.02
   2  16   5    1.74    3.73
  16  -2   5    0.93    2.53
   2  16  -5    1.79    2.31
   2  16  -5    7.95    6.13
 -16   2   6   -0.71    2.18
   2  16   6    2.63    4.45
 -16   2   6    1.82    3.86
  16  -2   6   -1.07    1.87
   2  16  -6    1.29    4.33
   2  16  -6   -2.36    3.38
  16  -2  -7   -0.62    2.72
 -16   2   7    2.06    3.31
   2  16   7    1.26    3.22
   2  16  -7    0.56    3.34
  -2 -16   7    1.85    4.29
 -16   2   7    3.88    4.33
  16  -2  -8   -5.01    4.45
 -16   2   8    2.73    3.85
  16  -2   8    1.04    4.09
   2  16  -8    4.57    4.95
  -2 -16   8    5.65    4.41
  16  -2  -9    2.34    3.34
 -16   2   9   -5.61    4.94
 -16   2   9    0.17    5.01
  -2 -16   9    8.91    7.49
   2  16   9   -3.92    4.50
   2  16  -9   -0.62    4.33
 -16   2  10    2.13    3.25
  16  -1   0    1.82    3.39
  16  -1   0    0.87    2.13
   1  16   0    0.21    1.90
 -16   1  -1   22.06    5.89
  16  -1  -1   20.48    6.92
  16  -1   1   21.50    6.22
  16  -1  -1   28.36    6.42
  16  -1   1   23.08    6.51
   1  16  -1   20.06    6.91
   1  16   1   38.93    8.46
   1  16   1   20.30    6.77
  16  -1   2   73.30   10.44
  16  -1  -2   69.41   11.90
  16  -1   2   62.90   11.12
   1  16  -2   88.86   13.89
   1  16  -2   72.28   12.74
   1  16   2   73.84   10.83
 -16   1  -2   74.15   10.56
   1  16   2   84.02   13.11
   1  16   3   81.21   13.52
  16  -1  -3   95.25   14.74
  16  -1   3   87.86   11.16
 -16   1   3   88.14   14.29
  16  -1   3   88.40   13.57
   1  16  -3  109.79   16.05
   1  16   3   93.30   11.68
   1  16  -3   96.63   14.20
 -16   1  -3   97.59   11.41
  16  -1  -4  153.87   18.80
  16  -1   4  174.86   14.96
  16  -1   4  157.69   18.81
   1  16  -4  188.20   20.23
   1  16  -4  183.32   21.48
   1  16   4  181.19   16.02
   1  16   4  171.26   20.18
 -16   1  -4  171.38   15.04
  16  -1  -5  274.01   26.00
 -16   1   5  268.39   26.28
   1  16  -5  300.41   25.48
   1  16  -5  302.31   28.39
   1  16   5  261.26   25.29
  16  -1  -6  216.44   23.68
 -16   1   6  203.76   23.89
  16  -1   6  231.87   24.72
   1  16  -6  236.28   22.26
   1  16  -6  231.48   26.08
   1  16   6  227.87   24.51
  16  -1  -7  154.77   20.73
 -16   1   7  135.93   18.06
  16  -1   7  130.82   19.36
   1  16  -7  150.54   21.82
  -1 -16   7  143.36   20.12
   1  16   7  138.83   19.84
  16  -1  -8   83.89   15.98
 -16   1   8   84.78   15.32
   1  16  -8  118.65   20.22
  -1 -16   8  102.00   17.96
  16  -1  -9   60.54   13.85
 -16   1   9   62.89   13.56
 -16   1   9   57.59   14.58
  -1 -16   9   71.07   15.44
  16  -1   9   56.23   13.62
   1  16   9   64.20   14.66
   1  16  -9   72.83   16.28
  16  -1 -10   24.75    9.41
 -16   1  10   29.52   10.01
  16   0   0  201.96   18.77
  16   0   0  213.84   17.97
   0  16   0  211.63   19.85
  16   0  -1  112.40   14.62
  16   0   1  113.22   13.67
  16   0   1   98.19   12.99
   0  16   1  104.06   13.51
   0  16  -1   89.83   13.36
   0  16   1   88.62   13.54
  16   0  -2   70.78   11.88
  16   0   2   69.03   10.42
 -16   0   2   65.27   11.89
  16   0  -2   68.76    9.01
  16   0   2   66.31   11.26
   0  16   2   77.61   11.32
   0  16  -2   56.31   11.21
   0  16   2   55.25   10.83
   0  16   3   37.82    9.52
 -16   0  -3   47.68    7.78
  16   0  -3   46.67    9.90
 -16   0   3   47.28    7.87
  16   0   3   54.07    8.56
 -16   0   3   43.95   10.10
   0  16  -3   47.97   10.38
   0  16  -3   50.45   10.31
   0  16   3   42.43    8.37
 -16   0  -4   28.42    5.83
   0  16   4   16.66    6.85
  16   0  -4   30.51    7.92
 -16   0   4   29.67    7.10
  16   0   4   25.47    5.73
   0  16  -4   28.32    8.98
   0  16  -4   33.03    8.56
 -16   0   4   24.02    8.81
   0  16   4   31.33    7.05
  16   0  -5    3.50    3.23
   0  16   5    0.88    3.20
 -16   0   5    1.11    3.01
  16   0   5    4.22    3.93
   0  16  -5   12.64    6.41
   0  16   5    2.68    2.80
  16   0  -6   -1.05    2.62
 -16   0   6    2.62    2.94
 -16   0   6    5.35    5.91
   0  16   6   -0.83    1.67
   0  16  -6    0.26    3.51
   0  16  -6    3.27    2.59
  16   0  -7   -5.55    4.15
   0  16   7    8.79    6.02
   0  16  -7   -6.47    4.91
   0 -16   7    6.74    4.49
  16   0  -8   -0.35    2.56
 -16   0   8   12.85    7.38
   0  16   8   16.38    7.54
  16   0   8   15.21    7.31
   0  16  -8   25.46   10.07
   0 -16   8   17.88    7.53
  16   0  -9    9.28    5.96
 -16   0   9    5.03    5.37
   0 -16   9    7.40    5.86
   0  16   9   15.01    8.24
   0  16  -9   14.25    8.00
  16   0 -10   11.80    6.46
  16   1   0    1.00    2.58
  16   1   0    2.57    3.93
  -1  16   0    1.12    2.33
  16   1  -1    3.82    2.19
  16   1   1    4.53    3.51
 -16  -1   1    7.26    5.20
  16   1   1   10.23    4.44
  -1  16  -1    5.69    2.96
  -1  16   1   10.05    4.54
  -1  16   1    7.66    4.66
  16   1  -2   32.74    8.60
  16   1   2   37.91    7.71
 -16  -1   2   40.98    9.45
  16   1  -2   31.28    6.08
  16   1   2   34.71    8.61
  -1  16  -2   42.12    9.72
  -1  16   2   49.33    9.31
  -1  16   2   35.38    8.66
  -1  16   3   89.71   14.13
  16   1  -3  107.33   15.20
  16   1   3   97.00   11.99
 -16  -1   3   80.03   13.54
  16   1   3   87.92   13.21
  -1  16  -3   91.01   14.81
  -1  16   3   93.23   12.41
  16   1  -4  109.00   15.71
  -1  16   4   91.65   14.45
  16   1   4   99.33   11.63
 -16  -1   4  105.54   12.62
 -16  -1   4  104.12   16.05
  -1  16  -4   79.99   14.21
  -1  16   4  105.29   12.93
  16   1  -5  149.68   19.12
  -1  16  -5  194.51   23.03
  -1  16   5  181.24   16.92
  -1  16   5  157.34   19.48
  16   1  -6  194.43   22.38
 -16  -1   6  200.53   23.33
  -1  16  -6  214.31   25.24
  -1  16   6  195.37   22.63
  16   1  -7  142.95   19.82
 -16  -1   7  157.63   20.88
  16   1   7  173.40   22.07
  -1  16  -7  177.36   23.72
   1 -16   7  181.04   22.44
  -1  16   7  168.74   21.72
  16   1  -8   75.45   15.01
 -16  -1   8   99.68   16.33
 -16  -1   8   82.11   16.20
  -1  16   8   86.36   16.22
  -1  16  -8   91.03   17.46
   1 -16   8   77.64   15.20
  16   1  -9   45.86   11.97
 -16  -1   9   29.63    9.82
   1 -16   9   33.02   11.10
  16   1   9   21.26    8.59
  -1  16   9   30.50    9.96
  -1  16  -9   44.44   12.93
  16   1 -10    6.94    5.44
  16   2   0  184.98   18.08
  16   2   0  186.58   16.65
  -2  16   0  149.68   17.02
  16   2  -1  153.42   17.24
  16   2   1  167.62   16.89
  -2  16  -1  173.81   18.96
  -2  16   1  164.18   17.42
  -2  16   1  138.44   16.86
  16   2   2   80.66   11.22
  16   2  -2   78.39   12.65
 -16  -2   2   88.08   14.02
  16   2  -2   88.55    9.95
  -2  16  -2   61.42   11.49
  -2  16   2   74.27   11.33
  -2  16   2   60.30   11.34
  -2  16   3   33.56    8.77
  16   2  -3   25.84    7.55
  16   2   3   35.99    7.54
  -2  16  -3   32.05    9.20
  -2  16   3   11.88    4.15
  -2  16   4   14.16    5.92
  16   2  -4   20.89    7.47
  16   2   4   20.42    5.85
  -2  16  -4   15.52    7.10
  -2  16   4   17.26    5.58
  16   2  -5    8.72    4.21
  -2  16   5    3.77    5.14
 -16  -2   5    7.05    5.43
  16   2   5   -1.19    3.63
  -2  16  -5   10.00    5.76
  -2  16   5    7.75    3.92
  -2  16   6   10.02    4.06
  16   2  -6   11.94    5.70
 -16  -2   6   17.53    6.48
  -2  16   6    5.83    4.56
 -16  -2   6   16.29    8.20
  16   2   6   11.11    5.50
  -2  16  -6   13.12    7.46
   2 -16   7    6.24    4.58
  16   2  -7    9.39    6.48
 -16  -2   7   -1.91    2.24
 -16  -2   7    7.21    6.20
  -2  16   7    4.78    4.62
  16   2   7    1.29    5.58
  -2  16  -7    3.01    4.81
  16   2  -8    9.84    6.10
 -16  -2   8   17.95    7.11
  -2  16   8   18.12    7.59
  -2  16  -8   26.74   10.03
   2 -16   8   15.25    6.47
  16   2  -9    1.60    2.54
 -16  -2   9   10.96    4.47
   2 -16   9    7.84    6.08
  -2  16   9    9.17    6.12
  -2  16  -9    5.13    5.06
  16   2 -10   19.96    8.75
 -16  -2  10    3.19    2.89
  16   3   0    7.55    4.60
  -3  16   0    4.70    4.34
  16   3  -1    7.35    4.83
  16   3   1    6.41    4.27
  16   3   1   -4.63    3.47
  -3  16  -1    0.74    1.59
  -3  16   1    4.75    4.34
  -3  16   1   -2.17    1.77
  16   3  -2   -2.93    3.53
  16   3   2    3.73    2.88
  16   3  -2    1.35    1.73
  -3  16  -2    2.10    3.61
  -3  16   2   -1.97    3.45
  -3  16   2    3.75    3.84
  -3  16   3    3.74    3.94
  16   3  -3   -2.17    1.89
  16   3   3    0.14    1.42
  -3  16  -3   -1.13    4.41
 -16  -3   3    4.81    4.07
  -3  16   3    1.78    2.15
  -3  16   4    6.11    4.26
  16   3  -4   11.05    5.98
 -16  -3   4   10.50    4.78
 -16  -3   4   14.74    6.40
  16   3   4    8.99    3.64
  16   3   4   10.07    5.79
  -3  16  -4    6.96    3.78
  -3  16   4    6.39    3.90
  16   3  -5    2.14    2.57
  -3  16   5    4.60    3.91
  16   3   5    7.64    6.20
  -3  16  -5    6.26    5.47
  -3  16   5    5.53    3.41
  -3  16   6    4.35    3.69
  16   3  -6    2.15    2.72
  -3  16   6    9.40    5.02
  16   3   6    4.50    5.71
  -3  16  -6    2.66    4.90
  16   3  -7   -0.18    2.83
   3 -16   7   13.52    6.52
 -16  -3   7    3.86    3.47
  -3  16   7   13.24    5.88
  16   3   7    1.20    2.69
  -3  16  -7    8.67    6.46
   3 -16   8   19.98    8.06
  16   3  -8   -0.43    2.64
  -3  16   8    9.06    6.05
  -3  16  -8   14.24    8.08
  16   3  -9    1.36    4.05
 -16  -3   9   11.68    6.84
   3 -16   9    3.28    4.31
  -3  16   9   22.26    9.48
  -3  16  -9    6.44    5.43
  16   3 -10    7.14    6.05
  16   4   0   19.07    6.25
  -4  16   0   18.11    6.08
  16   4  -1    3.31    3.86
  16   4   1    1.33    2.01
  16   4  -1    3.04    2.51
  -4  16  -1    7.57    4.58
  -4  16   1   10.75    5.33
  -4  16   1    0.37    1.62
  16   4  -2   19.41    6.60
  16   4   2   22.65    7.44
  -4  16   2   15.71    4.32
  16   4  -2   14.98    4.42
  16   4   2   19.95    6.39
  -4  16  -2   21.43    7.38
  -4  16   2   16.82    6.53
  -4  16   2   19.90    6.31
  -4  16   3   15.08    5.79
  16   4  -3    3.22    3.15
 -16  -4   3    5.05    2.72
  16   4   3   10.28    3.98
  16   4   3    5.87    4.87
  -4  16  -3    3.03    3.39
  -4  16   3    9.33    5.31
  -4  16   4    7.35    4.58
  16   4  -4    0.43    2.20
  16   4   4    0.24    1.31
  16   4   4    9.00    5.09
  -4  16  -4    1.73    4.13
  -4  16   4    5.53    3.93
 -16  -4   4    7.61    4.82
  16   4  -5   -2.25    2.63
  -4  16   5    9.64    5.21
 -16  -4   5    4.38    4.37
 -16  -4   5    5.48    2.95
  -4  16  -5    4.65    3.90
  -4  16   5    4.81    3.19
  -4  16   6    2.31    2.40
 -16  -4   6    0.05    1.31
  16   4  -6   -0.06    2.50
  -4  16   6    1.17    3.67
  -4  16  -6    5.61    6.36
  16   4  -7    1.04    2.55
 -16  -4   7   -1.01    3.40
  -4  16   7    1.10    2.46
   4 -16   7    0.56    2.93
  -4  16  -7    1.86    3.60
 -16  -4   7   -0.68    1.50
  16   4  -8    4.13    4.18
   4 -16   8    5.22    4.59
 -16  -4   8   10.52    6.66
  16   4   8    8.36    7.35
  -4  16   8    4.92    4.40
  -4  16  -8    5.47    5.27
  16   4  -9    7.19    4.40
  16   4   9   10.24    6.75
  -4  16   9    5.15    3.68
   4 -16   9   17.81    7.70
  -4  16  -9   15.29    7.92
  16   4 -10    4.50    4.64
  16   5   0    1.02    2.92
  -5  16   0   -0.03    4.10
  16   5  -1   17.79    6.57
  16   5   1   25.74    7.55
  16   5  -1   27.66    6.51
  16   5   1   21.70    6.50
  -5  16  -1   22.32    7.91
  -5  16   1   20.35    7.39
  -5  16   1   33.05    8.29
  16   5  -2   -4.30    4.45
  -5  16   2    1.10    2.27
  16   5   2   -1.10    2.99
  16   5  -2    1.78    2.45
  16   5   2   -3.17    2.79
  -5  16  -2    3.24    3.86
  -5  16   2   -0.24    2.43
  -5  16   2    3.06    3.76
  -5  16   3    3.81    3.30
  16   5  -3    6.68    4.91
 -16  -5   3    0.08    2.02
  16   5   3    2.96    3.36
  16   5   3    4.50    2.61
  -5  16  -3    5.10    5.44
  -5  16   3    5.67    4.87
  -5  16   4    5.65    3.92
  16   5  -4    8.16    4.36
 -16  -5   4    9.81    5.34
  16   5   4    5.80    3.44
 -16  -5   4    6.63    3.10
  -5  16  -4    9.33    5.25
  -5  16   4   20.11    6.56
  16   5  -5    9.29    5.32
  -5  16   5    3.57    4.67
  16   5   5    7.14    5.63
  -5  16  -5    7.05    5.83
 -16  -5   5    7.40    4.17
  -5  16   5    3.92    3.79
  -5  16   6   11.18    4.91
  16   5  -6   17.66    6.84
 -16  -5   6   16.85    5.38
  -5  16   6   27.06    8.47
  16   5   6   31.50    9.59
  -5  16  -6   15.28    6.82
 -16  -5   6   19.13    7.52
 -16  -5   7   10.41    5.38
  16   5  -7   17.69    7.63
 -16  -5   7   11.37    6.04
   5 -16   7    4.50    3.27
  16   5   7   19.22    8.29
  -5  16  -7   12.66    6.74
  16   5  -8    2.30    3.92
 -16  -5   8   -0.54    3.33
   5 -16   8   -2.22    2.80
  16   5   8   -0.97    6.23
  -5  16   8    1.21    2.77
  -5  16  -8   -2.21    2.54
 -16  -5   8    3.74    3.10
  16   5  -9    8.33    5.66
 -16  -5   9   14.54    8.13
  -5  16   9    4.90    4.58
  -5  16  -9    1.83    4.16
   5 -16   9   11.74    7.35
  16   6   0  424.07   29.53
  16   6   0  468.23   27.81
  -6  16   0  388.98   29.37
  -6  16   0  441.01   28.97
  16   6  -1  455.68   31.10
  16   6   1  397.40   28.18
  16   6  -1  439.59   25.65
  16   6   1  438.67   28.43
  -6  16  -1  439.76   31.67
  -6  16   1  451.37   31.18
  -6  16   1  456.69   29.93
  16   6  -2  304.12   25.93
  16   6   2  331.13   25.35
  -6  16  -2  349.10   28.80
  -6  16   2  334.67   26.42
  -6  16   2  316.61   25.23
  16   6  -3  210.09   22.12
 -16  -6   3  231.22   22.41
  16   6   3  194.62   19.15
  -6  16   3  208.62   17.22
  16   6   3  192.92   20.61
  -6  16  -3  222.72   23.66
  -6  16   3  174.69   19.24
  -6  16   3  195.01   20.26
  -6  16   4   74.78   12.92
  16   6   4   96.75   13.34
  16   6  -4   81.94   14.03
  16   6   4   75.89   13.72
  -6  16  -4   88.55   15.65
 -16  -6   4   65.58   11.95
  -6  16   4   79.31   12.77
  16   6  -5   12.16    6.81
  -6  16   5    8.94    5.20
 -16  -6   5   16.23    7.31
 -16  -6   5   13.85    5.19
  16   6   5   12.21    6.23
  16   6   5   16.27    5.77
  -6  16  -5   17.72    7.66
  -6  16   5    6.64    3.04
  -6  16   6    1.05    3.29
  16   6  -6    4.95    3.84
 -16  -6   6   -1.98    3.13
  -6  16   6    4.94    4.34
  16   6   6    6.65    5.93
 -16  -6   6    1.20    1.66
  -6  16  -6   10.65    6.47
  16   6  -7   15.68    7.33
 -16  -6   7   14.21    5.70
   6 -16   7    7.51    4.09
  -6  16   7   10.58    4.96
  -6  16  -7   15.63    6.36
 -16  -6   8   23.09    7.39
  16   6  -8   35.39   10.87
 -16  -6   8   22.95    9.11
  -6  16   8   21.83    8.95
  -6  16  -8   25.87    9.26
   6 -16   8   24.28    8.79
  16   6  -9   31.42   10.14
 -16  -6   9   30.13    9.51
  -6  16   9   37.73   11.04
  -6  16  -9   36.17   11.21
 -16  -6   9   39.00   10.63
   6 -16   9   32.47   10.35
 -16  -6  10   31.84   11.22
  16   7   0    6.80    4.42
  16   7   0    3.40    3.59
  -7  16   0    4.56    3.23
  -7  16   0    1.94    2.22
  16   7  -1    2.24    4.31
  16   7   1    2.76    3.30
  16   7  -1   -0.47    3.23
  16   7   1    2.94    4.36
  -7  16  -1    0.82    1.91
  -7  16   1   -2.21    3.35
  -7  16   1    2.31    2.89
  -7  16   2   18.69    6.48
  -7  16   2   23.76    5.94
  16   7  -2   19.48    5.14
  16   7   2   34.70    9.12
  16   7   2   13.38    5.26
  16   7  -2   25.35    8.11
  -7  16  -2   13.66    5.81
  -7  16   2    8.37    4.52
  -7  16   3   29.88    7.89
 -16  -7   3   29.09    8.00
  16   7  -3   33.35    9.39
  -7  16   3   24.35    6.18
  16   7   3   39.78    9.43
  16   7   3   41.21    9.59
  -7  16  -3   17.45    7.50
  -7  16   3   26.47    8.12
  -7  16   4   25.59    7.52
  16   7  -4   31.82    8.93
  16   7   4   27.71    9.10
  16   7   4   39.75    9.13
  -7  16  -4   22.12    8.33
  -7  16   4   33.50    8.62
  16   7  -5   14.19    7.04
  -7  16   5   -1.06    2.27
 -16  -7   5    8.24    5.35
 -16  -7   5    8.23    4.09
  16   7   5    4.19    5.17
  16   7   5    1.36    4.17
  -7  16  -5   -2.95    3.82
  -7  16   5   12.88    6.36
  -7  16   6    8.10    5.50
 -16  -7   6    0.46    1.31
  16   7  -6    0.43    2.77
  -7  16   6    4.68    4.50
  16   7   6    4.44    3.96
  -7  16  -6   -0.02    2.93
  16   7  -7    0.95    2.72
 -16  -7   7    3.25    3.90
  16   7   7    2.25    2.51
  -7  16   7    3.88    3.49
 -16  -7   7   -3.05    2.20
  -7  16  -7    3.18    4.29
   7 -16   8    5.43    3.76
  16   7  -8    9.85    4.74
 -16  -7   8    5.31    4.22
  16   7   8    7.32    5.40
  -7  16   8    0.02    1.64
  -7  16  -8    3.98    4.26
 -16  -7   9    2.11    3.58
   7 -16   9    0.89    2.11
  16   7  -9    5.15    3.21
 -16  -7   9   -2.59    5.04
  -7  16   9    0.38    2.68
  -7  16  -9    4.32    6.50
 -16  -7  10    3.76    4.85
  16   8   0  287.81   25.41
  -8  16   0  266.59   24.97
  -8  16   0  278.49   22.88
  16   8  -1  279.18   25.29
  16   8   1  258.33   23.88
  16   8  -1  303.68   22.39
  16   8   1  297.59   24.47
  -8  16  -1  296.72   26.67
  -8  16   1  276.02   25.06
  -8  16   1  283.57   23.47
  16   8  -2  236.77   23.63
  16   8   2  258.16   23.71
  -8  16   2  267.82   19.29
  16   8   2  241.32   22.76
  -8  16  -2  259.88   25.49
  -8  16   2  261.37   24.41
  -8  16   2  258.52   22.52
  16   8   3  112.83   15.46
  -8  16   3  120.59   14.07
  16   8   3   94.45   14.77
  16   8  -3   95.29   15.72
  -8  16  -3   99.47   16.11
  -8  16   3  125.56   15.90
  -8  16   3   87.78   14.12
  -8  16   4   42.43    9.52
  -8  16   4   36.34    8.33
  16   8   4   36.44   10.13
  16   8   4   40.65    9.41
  16   8  -4   36.03    9.73
  -8  16  -4   47.66   11.17
 -16  -8   4   31.81    8.83
  -8  16   4   42.86   10.01
 -16  -8   5   17.11    5.99
  16   8  -5   11.76    5.74
  -8  16   5   12.43    5.44
  16   8   5   13.09    7.46
  16   8   5   11.24    5.23
  -8  16  -5   11.39    6.49
  -8  16   5   13.63    5.70
  -8  16   6    7.05    5.55
  16   8  -6   -0.24    2.20
 -16  -8   6    3.28    4.41
  -8  16   6   -1.53    2.77
  16   8   6   -0.97    2.64
 -16  -8   6    4.21    3.21
  -8  16  -6    5.62    4.97
  16   8  -7    8.73    5.38
 -16  -8   7    5.42    4.21
  16   8   7    7.69    5.80
  -8  16   7   13.02    6.03
  -8  16  -7    8.53    5.57
 -16  -8   7    6.09    4.09
   8 -16   8   18.53    7.95
  16   8  -8   15.29    7.47
  16   8   8   12.97    7.58
  -8  16   8   11.03    6.10
 -16  -8   8    8.98    4.75
  -8  16  -8   16.34    8.08
  16   8  -9   17.97    8.35
 -16  -8   9   11.25    5.36
 -16  -8   9    6.94    3.79
   8 -16   9   11.03    4.21
  -8  16   9    9.27    5.93
  -8  16  -9   17.81    8.64
  16   9   0    5.34    5.02
  16   9   0    0.08    3.13
  -9  16   0    0.48    2.08
  16   9   0    1.93    1.53
  -9  16   0    4.92    4.23
  16   9  -1   -1.22    2.94
  16   9  -1    3.32    3.75
  16   9   1    2.10    3.59
  16   9   1    2.63    4.25
  -9  16  -1    3.15    3.74
  -9  16   1    2.16    4.27
  -9  16   1    3.71    3.03
  -9  16   2   13.90    5.68
  16   9  -2   19.09    7.76
  16   9   2   20.82    7.14
  16   9   2    9.77    5.30
  -9  16  -2   16.40    6.44
  -9  16   2   12.43    5.42
  -9  16   3   26.30    7.61
  16   9  -3   36.41    9.56
  16   9   3   32.69    9.56
  16   9   3   25.51    7.65
  -9  16  -3   27.44    8.20
  -9  16   3   28.24    8.57
  -9  16   4   21.24    6.77
  16   9  -4   26.92    8.33
  -9  16   4   36.91    8.96
  16   9   4   25.09    9.39
  16   9   4   22.83    7.28
  -9  16  -4   37.40   10.12
  -9  16   4   15.13    6.58
 -16  -9   5   17.34    6.70
  16   9  -5   19.27    7.42
  -9  16   5   10.83    5.29
  -9  16   5   16.81    6.92
  16   9   5   13.46    5.83
  16   9   5    7.49    3.83
  -9  16  -5   12.96    6.63
  -9  16   5   14.26    5.95
  -9  16   6    7.89    4.65
 -16  -9   6   11.33    5.99
  16   9  -6   25.04    9.50
  16   9   6   14.41    7.17
 -16  -9   6    7.88    4.92
  -9  16  -6   16.35    8.34
  16   9  -7    2.15    3.27
  16   9   7   14.50    8.41
 -16  -9   7    7.78    4.85
  -9  16   7    8.61    5.99
  -9  16  -7    2.74    3.65
  16   9  -8    8.91    5.57
  -9  16   8   10.58    5.92
  -9  16  -8   -1.96    2.07
 -16  -9   8    7.65    5.08
   9 -16   9    4.27    2.94
 -16  -9   9    9.26    4.82
  -9  16   9    2.65    2.83
  16  10   0    4.60    5.05
  16  10   0    6.16    3.81
 -10  16   0    3.37    2.98
  16  10   0    2.96    2.67
 -10  16   0    0.85    1.60
 -10  16   1    0.65    1.81
  16  10   1    8.38    6.84
  16  10  -1    1.04    2.38
  16  10   1    9.37    6.35
 -10  16  -1    2.53    3.85
 -10  16   1   -1.52    2.55
  16  10   1    4.72    2.12
 -10  16   2    6.83    4.14
 -10  16   2    8.33    3.87
  16  10  -2   10.52    6.48
  16  10   2    7.94    5.96
 -10  16  -2    5.72    4.68
 -10  16   2    1.58    2.94
 -10  16   3    2.10    2.43
 -10  16   3    1.17    3.12
  16  10  -3    0.42    2.94
  16  10   3    3.45    5.15
 -10  16  -3    2.81    3.64
 -10  16   3    4.12    3.13
 -10  16   4    2.35    1.88
  16  10  -4    1.20    1.85
  16  10   4   -1.14    3.76
 -10  16  -4   -4.92    5.03
 -10  16   4    0.67    1.59
 -16 -10   5    8.38    4.77
  16  10  -5   14.59    7.57
 -10  16   5   12.96    6.31
 -10  16   5   -0.44    1.57
  16  10   5   -0.38    4.18
  16  10   5   -4.93    4.77
 -10  16  -5    3.84    4.80
 -10  16   5   -1.13    3.32
 -10  16   6    4.51    4.54
  16  10  -6    6.47    5.48
 -16 -10   6    3.79    4.34
  16  10   6    2.52    5.47
 -10  16   6    3.80    3.71
 -16 -10   6    4.39    4.83
 -10  16  -6   -2.71    4.40
 -16 -10   7    1.32    1.53
  16  10  -7    7.73    5.62
  16  10   7    7.11    5.73
 -10  16   7    9.93    5.67
 -10  16  -7    2.30    4.98
 -16 -10   7   -1.11    3.45
  16  10  -8   -3.68    2.61
 -16 -10   8    4.38    3.90
 -10  16   8    5.10    4.96
 -10  16  -8    5.03    5.66
 -16 -10   9    6.01    4.84
  16  11   0    1.84    3.42
  16  11   0   -0.71    1.86
 -11  16   0   -0.16    3.66
 -11  16   0    1.58    1.80
 -11  16   1   10.98    4.63
  16  11   1    4.26    4.33
  16  11  -1    4.27    4.08
  16  11   1   15.33    7.54
 -11  16  -1   17.57    7.40
 -11  16  -1    2.71    2.72
 -11  16   1   17.42    7.01
  16  11   1    8.89    4.45
 -11  16   2    2.57    1.82
  16  11   2   18.94    7.81
  16  11  -2   21.99    8.24
  16  11   2   21.86    8.32
 -11  16  -2   11.00    5.94
 -11  16   2    9.45    4.92
 -11  16   3    4.57    4.11
 -11  16   3    7.26    4.71
  16  11  -3   11.36    6.26
  16  11   3   11.03    6.42
 -11  16  -3    7.32    4.84
 -11  16   3   12.99    5.72
 -11  16   4   38.37    8.94
  16  11  -4   23.61    8.44
  16  11   4   16.55    7.42
 -11  16  -4   19.52    8.40
 -11  16   4   30.09    9.62
 -11  16   5   10.02    5.15
 -11  16   5   17.67    7.08
  16  11  -5   30.16    9.12
  16  11   5    9.01    5.61
 -11  16   5   21.47    7.21
  16  11   5   13.07    6.05
 -11  16  -5   14.77    7.55
 -11  16   6   10.31    5.76
 -11  16   6   19.46    7.90
  16  11  -6    9.06    5.53
  16  11   6    5.53    4.73
 -11  16   6   15.79    6.39
 -11  16  -6   11.83    6.41
  16  11  -7   19.52    8.11
 -11  16   7   14.24    7.00
  16  11   7    5.45    8.10
 -16 -11   7   20.39    7.30
 -11  16   7   20.05    7.38
 -11  16  -7   26.27    9.82
 -16 -11   8   13.23    6.52
  16  11  -8   10.30    7.14
 -11  16   8    4.36    3.76
 -11  16  -8    9.81    5.76
 -16 -11   9   -3.13    5.37
  16  12   0   12.67    6.68
  16  12   0   24.24    6.98
 -12  16   0   17.03    6.28
 -12  16   1   57.94   10.17
  16  12  -1   53.66   12.51
  16  12   1   47.29   11.57
 -12  16  -1   37.93   10.25
 -12  16   1   41.12   11.00
  16  12   1   36.21    8.12
  16  12   2   44.18    9.30
 -12  16   2   48.89    9.52
  16  12   2   41.41   10.37
  16  12  -2   43.57   11.02
  16  12   2   36.55   10.22
 -12  16  -2   57.66   12.73
 -12  16   2   60.21   12.82
 -12  16   3    5.53    4.34
  16  12  -3   11.81    6.11
 -12  16  -3    1.34    4.54
 -12  16   3    2.79    2.82
 -12  16   4    3.21    3.45
 -12  16   4   -0.29    1.79
  16  12   4   -0.78    3.12
  16  12  -4    1.61    2.38
  16  12   4    2.75    3.59
 -12  16  -4    6.74    5.50
 -12  16   4    8.25    6.31
 -12  16   5   -0.78    3.91
  16  12  -5    4.08    4.64
  16  12   5   12.99    6.91
 -12  16   5    1.39    2.48
  16  12   5   15.47    7.22
 -12  16  -5   -3.35    3.59
 -12  16   6    4.57    4.87
  16  12  -6    0.50    4.10
  16  12   6   -5.13    3.62
 -12  16   6    2.38    3.79
 -12  16  -6    5.90    7.96
 -12  16   7    7.82    4.65
  16  12  -7    8.51    5.29
  16  12   7    5.89    5.30
 -12  16   7    6.75    5.20
 -12  16  -7    9.57    5.15
 -16 -12   8   29.44    9.90
 -12  16   8   20.13    9.28
 -12  16   8    0.81    3.85
  16  13   0   -1.15    2.29
  16  13   0   -1.74    1.49
 -13  16   0    3.91    3.34
  16  13  -1   13.27    6.14
  16  13   1   21.26    8.10
 -13  16  -1   13.79    6.41
 -13  16   1   23.15    8.09
  16  13   1   10.07    4.82
  16  13  -2  123.55   19.05
  16  13   2  113.13   18.47
  16  13   2  115.19   15.25
 -13  16  -2  106.47   17.80
 -13  16   2  118.43   18.39
  16  13  -3  154.04   21.70
 -13  16   3  176.67   19.90
  16  13   3  165.47   21.72
  16  13   3  178.57   22.78
 -13  16  -3  153.78   21.39
 -13  16   3  167.92   22.10
  16  13  -4  213.69   25.71
 -13  16   4  192.83   21.47
  16  13   4  189.98   23.31
  16  13   4  177.01   23.41
 -13  16  -4  183.78   23.95
 -13  16   4  159.75   21.85
  16  13  -5  185.27   24.21
  16  13   5  163.83   23.38
  16  13   5  179.31   22.65
 -13  16  -5  178.30   23.96
 -13  16   5  163.80   22.31
  16  13  -6  157.35   22.79
 -13  16  -6  137.04   21.44
 -13  16   6  146.71   21.37
  16  13  -7  111.61   19.41
 -13  16  -7   97.75   18.26
  16  14   0    6.72    5.84
  16  14   0    8.45    4.93
 -14  16   0    3.41    3.78
  16  14  -1    2.49    4.30
  16  14   1    7.64    6.33
 -14  16  -1    7.40    7.70
 -14  16   1   -1.10    3.99
  16  14   1   -0.72    3.25
  16  14   2    2.32    3.70
  16  14  -2    0.94    3.97
  16  14   2    0.75    2.37
 -14  16  -2    5.28    4.97
 -14  16   2    3.42    4.56
  16  14  -3   14.98    8.67
  16  14   3    4.62    4.90
 -14  16  -3   -2.05    3.79
 -14  16   3    6.01    5.77
  16  14  -4    0.34    3.14
  16  14   4   -6.77    4.12
 -14  16  -4    0.11    3.22
 -14  16   4    7.45    5.46
 -14  16   5    1.21    4.25
 -14  16   5    6.85    4.29
  16  14   5    3.27    5.68
  16  14  -5   -0.81    3.64
  16  14   5   12.85    8.33
 -14  16  -5    0.41    1.80
 -14  16   6    2.47    4.04
  16  14   6    1.73    5.41
  16  14  -6    5.08    4.94
 -14  16  -6    0.08    1.74
 -14  16  -7   -0.23    4.63
  16  15   0    1.96    4.21
  16  15   0    2.38    3.16
 -15  16   0    4.65    5.50
  16  15  -1   19.64    8.15
  16  15   1   15.15    7.39
 -15  16  -1   19.12    7.74
 -15  16   1   15.39    6.73
  16  15   1   19.06    6.93
  16  15   2   36.53    9.56
  16  15  -2   62.60   14.15
  16  15   2   60.40   14.29
 -15  16  -2   51.15   12.95
 -15  16   2   55.25   13.55
 -15  16   3   71.77   13.41
  16  15  -3   84.18   17.03
  16  15   3   69.32   14.53
 -15  16  -3   79.81   15.86
 -15  16   3   79.27   16.14
  16  15  -4  107.14   18.66
  16  15   4  102.36   18.28
 -15  16  -4  103.13   18.25
 -15  16   4  112.60   18.87
 -15  16   5  100.40   18.17
  16  15  -5   99.75   19.14
  16  15   5   85.00   16.92
 -15  16  -5  114.55   19.26
 -15  16   5  108.52   17.79
 -15  16   6   48.60   12.69
 -15  16   6   79.11   15.67
 -15  16  -6   65.10   14.63
  16  16   0   15.20    8.55
  16  16   0   18.62    7.25
 -16  16   0    8.48    5.78
  16  16  -1    5.85    7.31
  16  16   1   -2.69    4.06
 -16  16  -1    6.23    5.67
 -16  16   1    6.73    5.02
  16  16   1    3.11    4.30
  16  16   2    2.90    2.94
  16  16  -2    5.61    6.57
  16  16   2   10.28    7.46
 -16  16  -2    1.17    4.42
 -16  16   2   16.30    8.17
  16  16  -3    9.93    5.87
  16  16   3    5.75    5.03
 -16  16  -3    0.54    2.68
 -16  16   3   10.63    6.65
 -16  16   4    4.65    4.08
  16  16  -4    6.61    6.57
  16  16   4    5.44    4.85
 -16  16  -4   16.57    8.36
 -16  16   5   -1.81    3.46
  16  16   5    3.25    4.66
 -16  16  -5    2.54    2.63
 -16  16   6    1.47    2.88
  16  17   0   11.93    7.59
  16  17   0    9.61    7.03
 -17  16   0    0.22    2.17
  16  17  -1    1.45    3.61
  16  17   1    4.46    3.77
 -17  16  -1    2.61    2.24
 -17  16   1   -3.92    5.36
  16  17   1   11.45    5.95
  16  17   2   12.70    5.93
  16  17  -2    0.54    4.60
  16  17   2   -0.24    2.93
 -17  16  -2    3.53    5.85
 -17  16   2   -1.23    4.38
  16  17  -3    8.22    6.57
  16  17   3   -4.58    3.17
 -17  16  -3    0.71    2.45
 -17  16   3   -1.30    4.20
 -17  16   4    4.46    4.05
  16  17   4   -0.21    3.06
 -17  16  -4    3.31    6.02
 -17  16   5   -2.45    3.91
  16  17   5   -0.33    3.79
  15  17   0   82.58   17.02
  15  17   0   89.79   15.30
 -17  15   0   91.36   16.77
  15  17  -1   79.61   16.86
  15  17   1   70.39   15.61
 -17  15  -1   90.81   17.15
  15  17   1   58.30   12.26
 -17  15   1   67.25   14.89
  15  17   2   39.60   10.17
 -17  15   2   47.95   11.48
  15  17  -2   62.47   14.95
  15  17   2   39.94   12.02
 -17  15  -2   55.56   13.17
 -17  15   2   63.90   15.03
  15  17   3   25.51    8.41
 -17  15   3   19.01    7.51
  15  17  -3   22.19    8.51
  15  17   3   36.55   11.47
 -17  15  -3   31.29   10.35
 -17  15   3   36.87   11.83
 -17  15   4   13.40    7.67
  15  17   4    2.03    2.98
 -17  15   4   23.23    8.68
  15  17  -4   11.41    8.08
  15  17   4   12.74    6.99
 -17  15  -4   -0.77    5.04
  15  17   5    0.53    2.44
  15  17   5    4.43    5.66
 -17  15  -5    3.94    4.42
  15  17   6    5.57    6.07
 -17  15  -6    3.77    4.92
  14  17   0    6.23    6.27
  14  17   0    2.32    3.98
 -17  14   0    1.41    3.30
 -17  14   1   -2.11    3.23
  14  17  -1    0.52    5.58
  14  17   1   -0.74    2.85
  14  17   1    7.76    4.25
 -17  14  -1    1.28    5.27
 -17  14   1   -0.55    2.43
 -17  14   2    1.46    2.64
  14  17  -2   -5.89    5.05
  14  17   2    1.73    5.21
 -17  14  -2   -3.27    4.36
 -17  14   2    2.72    5.22
  14  17   2    8.72    5.50
 -17  14   3    0.49    2.71
  14  17   3    3.14    3.54
  14  17  -3   -4.98    4.64
  14  17   3    8.19    6.24
 -17  14  -3   -0.89    2.03
 -17  14   4    4.39    4.01
  14  17   4   11.98    6.51
  14  17  -4    2.42    2.66
  14  17   4    3.28    3.54
 -17  14  -4    2.60    3.42
 -17  14   5   15.97    8.19
  14  17   5   -0.86    4.23
 -17  14   5    3.20    3.89
  14  17  -5    4.93    5.45
 -17  14  -5    5.60    7.47
  14  17   6    2.35    3.71
 -17  14   6    1.85    2.22
  14  17  -6    9.92    8.21
 -17  14  -6   10.23    5.94
  14  17   7    0.53    2.17
 -17  14  -7   -0.78    2.87
  13  17   0   44.77   12.39
  13  17   0   19.73    6.90
 -17  13   0   29.70    9.39
  13  17  -1   45.21   11.78
  13  17   1   68.04   14.66
  13  17   1   42.02   10.33
 -17  13  -1   41.82   11.12
 -17  13   1   39.47   10.83
 -17  13   2   26.39    8.60
  13  17  -2   36.13   11.03
  13  17   2   41.89   11.38
 -17  13  -2   30.16   10.03
 -17  13   2   27.03    9.41
  13  17   2   27.18    8.74
 -17  13   3   12.79    6.24
  13  17   3    8.03    4.05
 -17  13   3    7.35    4.73
  13  17  -3   24.96    9.86
  13  17   3   23.64    8.88
 -17  13  -3   17.96    6.40
 -17  13   4    9.34    6.54
  13  17   4    7.58    5.10
 -17  13   4   15.04    6.35
  13  17  -4    7.15    6.35
  13  17   4   10.50    4.90
 -17  13  -4   21.46    8.47
  13  17   5   -1.99    3.65
  13  17  -5   -2.07    2.52
  13  17   5    4.03    2.64
 -17  13  -5    3.53    4.71
  13  17   6    3.66    3.83
 -17  13   6    3.01    3.65
  13  17  -6    9.00    7.43
 -17  13  -6    1.27    4.24
  13  17   7    6.05    4.53
  13  17  -7   -2.11    3.88
 -17  13  -7   -4.69    4.22
  12  17   0   -4.85    5.54
 -17  12   0    0.49    3.07
  12  17  -1   30.07   10.07
  12  17   1   28.88    9.82
  12  17   1   18.84    6.71
 -17  12  -1   37.02   10.13
 -17  12   1   26.73    8.79
  12  17  -2   26.16    9.86
  12  17   2   29.35   10.61
 -17  12  -2   19.18    7.62
  12  17   2   20.73    7.62
 -17  12   2   22.61    8.97
 -17  12   3   18.70    7.63
  12  17   3   14.92    6.79
 -17  12   3    5.29    3.21
  12  17  -3   25.49    9.81
  12  17   3    8.97    5.04
 -17  12  -3   12.94    5.81
 -17  12   4   20.62    8.40
  12  17   4   36.19   10.14
 -17  12   4   28.31    9.09
  12  17  -4   35.30   10.84
  12  17   4   18.34    7.28
 -17  12  -4   39.43   10.96
  12  17   5   36.01   10.34
  12  17  -5   43.14   12.21
  12  17   5   43.89   12.07
 -17  12  -5   27.68    9.16
  12  17   6   71.68   15.18
 -17  12   6   57.48   13.57
  12  17  -6   59.68   14.57
 -17  12  -6   41.05   11.51
 -17  12   7   21.07    9.01
  12  17   7   42.65   11.96
  12  17  -7   41.65   11.96
 -17  12  -7   37.84   10.94
  12  17  -8   12.76    6.43
  11  17   0  129.18   19.94
 -17  11   0  113.86   17.12
  11  17  -1  162.72   25.20
  11  17   1  136.62   20.55
  11  17  -1  172.21   18.95
 -17  11  -1  116.48   17.69
  11  17   1  139.29   18.66
 -17  11   1  124.08   18.33
  11  17  -2   77.09   15.52
  11  17   2  105.09   17.96
 -17  11  -2   86.94   15.16
  11  17   2   64.85   13.01
 -17  11   2   97.14   16.39
 -17  11   3   16.58    6.66
  11  17   3   19.21    6.37
 -17  11   3   21.50    8.17
  11  17  -3   25.15    8.65
  11  17   3   24.15    8.79
 -17  11  -3   21.36    7.29
 -17  11   4   31.23   10.15
  11  17   4   14.11    6.01
 -17  11   4   19.92    7.33
  11  17  -4   16.23    7.22
 -17  11  -4   27.11    8.55
  11  17   5    3.23    2.87
  11  17  -5    6.21    5.18
 -17  11  -5   15.67    6.64
  11  17   6    4.94    4.30
  11  17  -6   -5.59    5.66
 -17  11  -6    3.11    3.76
 -17  11   6    4.14    5.19
 -17  11   7   15.60    8.15
  11  17   7    3.24    3.69
  11  17  -7   12.54    7.98
  11  17  -8   18.65    8.51
  10  17   0    3.75    3.28
  10  17   0   -3.11    3.79
 -17  10   0    1.40    1.75
 -17  10   1   32.96    8.91
  10  17  -1   20.94    6.44
  10  17  -1   28.46    9.20
  10  17   1   17.99    7.70
  10  17   1   34.09    9.27
 -17  10  -1   29.25    9.10
 -17  10   1   24.88    7.68
 -17  10   2   36.63   10.21
  10  17  -2   53.31   11.94
  10  17   2   44.52   11.62
 -17  10  -2   49.09   11.46
  10  17   2   42.22   10.29
 -17  10   3   74.04   14.51
  10  17   3   72.81   13.68
 -17  10   3   76.97   14.30
  10  17  -3   90.31   16.33
  10  17   3   90.96   16.42
 -17  10  -3   76.90   13.80
 -17  10   4   83.38   15.60
  10  17   4   90.19   15.42
 -17  10   4   91.55   15.82
  10  17  -4   99.91   16.90
  10  17   4   75.57   15.42
 -17  10  -4   97.93   15.96
  10  17  -5  156.01   21.72
 -17  10  -5  157.67   20.12
  10  17   5  174.94   22.02
 -17  10   6  213.69   26.55
  10  17  -6  170.30   22.91
 -17  10  -6  188.79   22.40
  10  17   6  178.73   22.90
  10  17  -7  115.21   19.27
  17 -10   7  152.32   22.71
  10  17   7  119.67   19.43
  10  17  -8   70.10   15.42
   9  17   0   40.71    8.70
   9  17   0   34.66   10.42
 -17   9   0   32.96    9.34
 -17   9   1   31.23    9.05
   9  17  -1   31.61    8.52
   9  17  -1   26.33    9.08
   9  17   1   26.50    9.08
   9  17   1   28.34    8.23
 -17   9  -1   49.41   11.18
 -17   9   1   29.51    8.67
 -17   9   2    1.75    2.82
 -17   9   2   -2.69    2.52
   9  17  -2   -0.11    3.54
   9  17  -2    4.14    5.42
   9  17   2   -1.76    2.86
 -17   9  -2   -3.45    2.06
   9  17   2   -0.20    2.58
   9  17   3    1.49    2.73
 -17   9   3    9.63    5.50
 -17   9   3    8.31    5.75
   9  17  -3   11.30    6.80
   9  17   3    6.11    2.23
 -17   9  -3   13.20    6.63
   9  17   4    0.99    2.81
 -17   9   4    0.59    2.40
   9  17  -4   -0.64    3.33
   9  17   4    1.63    3.72
 -17   9  -4    3.85    3.90
   9  17   5   12.24    6.95
   9  17  -5    9.20    5.06
 -17   9  -5    6.38    5.00
   9  17   6    0.02    2.42
 -17   9   6   -1.74    4.57
  17  -9   6    4.27    6.87
   9  17  -6   -5.07    4.38
 -17   9  -6    5.65    5.18
   9  17   7   14.41    7.46
  17  -9   7    1.69    2.47
   9  17  -7    6.42    5.18
   9  17  -8    7.67    6.79
   8  17   0    1.79    1.92
   8  17   0   -1.49    3.47
 -17   8   0    4.54    3.11
 -17   8   1   -0.43    2.21
   8  17  -1    3.63    3.45
   8  17  -1    3.69    4.45
   8  17   1    1.19    1.36
   8  17   1   10.37    5.64
   8  17   1   -1.27    3.07
 -17   8  -1    5.91    4.20
 -17   8   1    6.26    4.12
 -17   8   2    4.86    3.35
 -17   8   2    4.56    4.54
   8  17  -2    1.47    3.01
   8  17  -2    6.42    4.91
   8  17   2   11.56    7.28
   8  17   2   -1.05    2.60
 -17   8  -2    3.49    2.80
   8  17   3    3.21    4.40
 -17   8   3   10.90    5.88
   8  17  -3   -0.36    2.42
 -17   8   3   -1.79    2.90
 -17   8  -3    9.75    6.83
   8  17   4   14.53    6.59
   8  17  -4   19.58    7.94
 -17   8  -4   38.17    9.91
   8  17   5   52.39   11.86
   8  17  -5   73.85   14.39
 -17   8  -5   60.61   11.92
   8  17   6   61.44   13.30
 -17   8   6   65.83   14.79
  17  -8   6   85.70   16.14
   8  17  -6   63.72   13.27
 -17   8  -6   66.74   12.48
   8  17   7   44.49   12.01
   8  17  -7   32.91    8.89
   8  17   8    1.65    2.47
   7  17   0    3.37    3.71
   7  17   0   -1.63    3.30
 -17   7   0    5.65    4.72
 -17   7   1    7.12    5.26
   7  17  -1    4.30    4.00
   7  17  -1    5.03    3.05
   7  17   1    4.78    3.73
   7  17   1   -2.26    4.42
   7  17   1    4.08    3.32
 -17   7   1    1.71    2.88
 -17   7  -1    2.40    3.26
 -17   7   2    3.70    3.98
 -17   7   2    0.86    3.44
   7  17  -2   -0.02    4.65
   7  17  -2   -2.95    2.22
   7  17   2   10.98    6.65
   7  17   2    0.20    3.94
 -17   7  -2    3.81    2.92
   7  17   3    1.62    1.79
 -17   7   3   -1.52    3.76
   7  17  -3    2.27    2.25
   7  17  -3   10.21    6.36
   7  17   3    4.58    4.09
 -17   7  -3    3.10    2.90
   7  17   4   -0.48    2.57
   7  17  -4    3.36    3.91
 -17   7  -4    3.91    4.60
   7  17   5    9.97    5.80
  17  -7   5    5.18    4.72
   7  17  -5    2.48    4.70
 -17   7  -5    1.47    2.69
   7  17   6    1.53    4.39
 -17   7   6   15.05    7.53
  17  -7   6    7.36    5.35
   7  17  -6    5.04    4.52
   7  17   7    2.54    3.47
  17  -7   7   -0.85    3.79
   7  17  -7    2.24    4.47
 -17   7   8    1.65    4.91
  -7 -17   8    1.21    2.16
   7  17   8   -0.16    1.64
  17  -7   8    3.56    3.89
   6  17   0   -1.63    2.22
   6  17   0    4.55    5.12
 -17   6   0    3.35    3.92
 -17   6   1   42.79    9.70
 -17   6   1   42.92   10.24
   6  17  -1   44.54    9.78
   6  17  -1   40.90   10.14
   6  17   1   54.30    9.58
   6  17   1   49.30   11.57
   6  17   1   36.85    9.76
 -17   6  -1   51.73   10.68
 -17   6   2   15.66    6.11
 -17   6   2   21.89    7.86
   6  17  -2   18.77    6.56
   6  17  -2   24.62    7.89
   6  17   2   21.37    8.18
   6  17   2   22.48    5.86
   6  17   2   27.60    8.20
 -17   6  -2   11.04    4.98
   6  17   3   62.23   12.34
  17  -6   3   62.64    9.67
 -17   6   3   47.06   11.40
   6  17  -3   59.53   12.15
   6  17  -3   62.48   13.04
 -17   6  -3   53.20   10.57
   6  17   4   69.36   13.52
 -17   6   4   95.54   15.85
  17  -6   4   75.33   14.14
   6  17  -4   80.05   14.86
   6  17  -4   88.26   15.69
 -17   6  -4   80.55   12.83
   6  17   5   52.46   12.22
  17  -6   5   69.79   13.44
   6  17  -5   56.10   12.96
 -17   6  -5   40.29    9.06
   6  17   6   33.59   10.38
 -17   6   6   54.25   13.22
  17  -6   6   46.62   11.52
   6  17  -6   49.47   11.50
   6  17   7   60.44   13.38
   6  17  -7   65.25   13.25
 -17   6   8   22.42    8.69
  -6 -17   8   28.90    9.96
 -17   6   8   26.79   10.31
   6  17   8   26.92    9.57
 -17   6   9   -4.10    4.81
 -17   5   0   15.84    5.99
   5  17   0   17.52    6.79
   5  17   0   19.04    8.01
 -17   5   1   17.18    6.56
 -17   5   1   19.20    7.26
   5  17  -1    9.99    5.29
   5  17  -1    7.77    4.61
   5  17   1   10.48    4.98
   5  17   1    3.57    4.14
   5  17   1    5.60    3.50
 -17   5  -1   11.15    5.21
  17  -5   2   22.80    6.08
 -17   5   2   31.82    9.27
   5  17  -2   23.94    7.03
   5  17  -2   30.36    8.63
   5  17   2   40.43    7.79
   5  17   2   32.64    9.40
 -17   5  -2   32.24    8.38
   5  17   3   24.25    7.87
  17  -5   3   31.59    6.77
  17  -5   3   30.81    8.58
   5  17  -3   35.34    9.64
   5  17  -3   25.88    8.64
 -17   5   3   38.16   10.29
 -17   5  -3   29.12    7.71
   5  17   4    0.88    1.83
 -17   5   4    7.51    8.07
  17  -5   4    2.85    2.92
   5  17  -4    8.55    5.02
   5  17  -4    2.80    3.05
 -17   5  -4    2.55    2.67
   5  17   5    2.50    2.27
  17  -5   5   -2.44    1.97
   5  17  -5    0.15    4.93
   5  17  -5    0.60    2.63
 -17   5  -5    1.23    1.63
   5  17   6    7.22    5.14
 -17   5   6   14.17    7.33
  17  -5   6   -3.53    2.25
   5  17  -6    2.38    4.48
 -17   5   7    2.85    2.85
   5  17   7   11.00    6.22
  17  -5   7    4.78    5.29
   5  17  -7    2.73    2.91
 -17   5   8    7.49    5.78
 -17   5   8   15.13    8.08
   5  17   8   23.73   10.46
  17  -5   8   17.98    8.03
  -5 -17   8   17.42    7.98
 -17   5   9   10.14    6.03
 -17   4   0   -0.66    1.81
   4  17   0    0.41    2.78
   4  17   0    5.52    4.77
 -17   4  -1   45.98    9.23
 -17   4   1   63.21   11.47
  17  -4   1   62.04   10.60
  17  -4   1   51.65   10.59
   4  17  -1   64.92   12.16
   4  17  -1   63.89   12.82
   4  17   1   62.13   10.17
   4  17   1   49.39   11.73
   4  17   1   68.53   12.64
  17  -4   2   68.65   10.57
  17  -4   2   65.20   11.68
   4  17  -2   66.87   12.13
   4  17  -2   63.08   12.91
   4  17   2   62.34    9.84
   4  17   2   51.81   11.09
 -17   4  -2   65.63   10.92
   4  17   3   89.12   14.63
  17  -4   3   87.19   11.53
 -17   4   3  103.01   16.12
  17  -4   3   91.03   14.52
   4  17  -3   87.54   14.68
   4  17   3   97.64   11.63
   4  17  -3   75.92   14.00
 -17   4  -3   88.66   12.58
 -17   4   4  200.31   23.10
   4  17  -4  199.13   22.64
  17  -4   4  213.55   22.92
   4  17  -4  189.74   22.37
 -17   4  -4  220.79   19.67
   4  17   4  187.62   21.73
   4  17  -5  229.02   23.74
   4  17  -5  212.09   24.45
   4  17   5  191.58   22.53
 -17   4   6  143.81   18.40
 -17   4   6  126.22   19.53
   4  17  -6  145.58   18.93
  17  -4   6  128.53   19.09
   4  17  -6  141.78   21.15
   4  17   6  124.16   18.86
 -17   4   7   97.11   15.90
   4  17   7  119.31   19.01
  17  -4   7  124.74   19.37
   4  17  -7  113.63   19.78
   4  17  -7   98.13   15.96
 -17   4   8   48.11   13.25
  -4 -17   8   59.47   14.05
   4  17   8   47.87   12.57
  17  -3   0  233.03   20.81
  17  -3   0  232.55   20.17
   3  17   0  209.38   22.99
   3  17   0  214.69   20.21
 -17   3   0  235.11   21.42
  17  -3  -1  291.48   24.33
  17  -3   1  274.13   22.01
  17  -3  -1  268.38   20.61
   3  17  -1  278.45   26.14
   3  17  -1  295.60   24.39
   3  17   1  276.36   21.86
   3  17   1  249.69   23.98
 -17   3  -1  302.49   23.47
  17  -3   2  247.51   20.01
  17  -3   2  201.42   20.52
  17  -3  -2  222.63   17.74
   3  17  -2  248.62   24.51
   3  17  -2  229.66   22.62
   3  17   2  210.93   18.12
   3  17   2  220.10   22.52
 -17   3  -2  236.40   20.30
  17  -3   3  176.65   16.07
 -17   3   3  190.58   22.02
   3  17  -3  165.47   19.65
  17  -3   3  164.71   19.21
   3  17  -3  158.60   19.65
   3  17   3  162.18   15.32
   3  17   3  169.81   20.33
 -17   3  -3  179.41   17.44
   3  17   4   63.87   12.75
 -17   3   4   83.48   14.97
   3  17  -4   65.53   13.16
   3  17  -4   62.76   12.68
 -17   3  -4   84.37   11.71
   3  17   5   -2.28    4.79
 -17   3   5   11.78    5.13
  17  -3   5    7.00    4.94
   3  17  -5    0.72    4.15
   3  17  -5    6.08    4.08
 -17   3   6    2.27    3.66
   3  17   6    2.16    2.89
 -17   3   6    4.21    4.43
  17  -3   6    7.37    4.77
   3  17  -6   10.41    6.13
   3  17  -6    2.14    3.75
 -17   3   7    9.86    6.95
   3  17   7    7.92    6.28
   3  17  -7   13.31    7.04
  17  -3  -8   36.39   11.06
  -3 -17   8   27.34    9.51
 -17   3   8   17.53    7.86
 -17   3   8   20.31    9.45
   3  17   8   35.25   10.45
  17  -3   8   22.85    8.86
   3  17  -8   27.50    9.79
  17  -3  -9   28.38    9.46
 -17   3   9   29.90    9.69
  17  -2   0   -1.44    1.74
  17  -2   0    1.74    1.96
   2  17   0    1.88    3.20
 -17   2  -1   -2.11    2.15
  17  -2  -1   -0.47    3.83
  17  -2   1    1.71    2.80
  17  -2   1   -2.26    2.90
  17  -2  -1    1.73    2.90
   2  17  -1   11.83    5.63
   2  17   1    1.62    3.22
   2  17  -1    6.22    4.67
   2  17   1   -0.39    2.36
 -17   2  -2    9.91    4.76
  17  -2  -2    6.61    3.73
  17  -2   2    4.69    2.98
 -17   2   2    7.36    5.01
   2  17  -2    4.43    3.84
   2  17  -2    0.77    3.23
   2  17   2    4.20    2.83
   2  17   2    4.01    4.38
   2  17   3   18.61    6.50
  17  -2  -3   20.40    7.03
  17  -2   3   28.20    6.41
 -17   2   3   23.41    7.80
  17  -2   3   17.45    5.60
   2  17  -3   18.69    6.88
   2  17  -3   32.12    8.39
   2  17   3   21.04    5.51
 -17   2  -3   34.03    7.36
  17  -2  -4   24.52    8.35
   2  17   4   26.47    8.14
 -17   2   4   28.44    8.22
   2  17  -4   32.12    9.57
   2  17  -4   28.68    8.88
 -17   2  -4   38.04    7.76
  17  -2  -5   40.61   10.11
   2  17   5   36.04    9.88
 -17   2   5   36.53    9.00
  17  -2   5   32.08    9.11
   2  17  -5   57.93   13.28
   2  17  -5   43.97   10.13
  17  -2  -6   56.28   12.28
   2  17   6   59.51   13.03
 -17   2   6   58.61   13.43
   2  17  -6   48.26   11.85
   2  17  -6   56.82   11.77
  17  -2  -7   14.16    6.50
 -17   2   7   16.44    6.95
 -17   2   7    6.91    5.36
   2  17   7   23.47    8.09
  17  -2   7   16.74    7.51
   2  17  -7   20.94    8.25
  -2 -17   7   20.49    8.24
  -2 -17   8   25.97    9.25
  17  -2  -8    2.38    2.85
   2  17   8   10.52    5.41
  17  -2   8    6.95    5.75
   2  17  -8   18.46    9.03
  17  -2  -9    8.92    6.13
 -17   2   9    3.50    2.17
  17  -1   0    6.57    4.01
   1  17   0    5.81    3.32
  17  -1  -1   17.81    6.46
  17  -1   1   24.25    6.45
  17  -1  -1   30.94    7.04
   1  17  -1   20.53    6.87
   1  17   1   21.06    6.52
   1  17   1   26.53    7.86
 -17   1  -2   62.51   10.07
  17  -1  -2   65.41   11.97
  17  -1   2   60.31    9.97
 -17   1   2   66.62   12.67
  17  -1  -2   66.23    9.28
  17  -1   2   66.94   11.65
   1  17  -2   62.42   11.96
   1  17  -2   66.48   12.45
   1  17   2   62.50   10.51
   1  17   2   48.76   10.35
   1  17   3   20.43    7.91
 -17   1  -3   21.43    5.78
  17  -1  -3   15.45    6.27
  17  -1   3   17.83    5.31
 -17   1   3   20.02    7.35
  17  -1   3   14.06    6.59
   1  17  -3    4.79    5.07
   1  17  -3    8.18    5.29
   1  17   3   19.59    6.19
   1  17   4    2.18    4.85
  17  -1  -4   14.94    6.45
 -17   1   4    4.92    1.76
  17  -1   4    9.51    5.11
   1  17  -4    8.72    5.24
   1  17  -4    2.30    3.24
   1  17   4    7.08    3.33
  17  -1  -5    4.85    3.09
   1  17   5    4.05    3.40
 -17   1   5    1.02    2.28
   1  17  -5   -1.22    3.89
   1  17  -5    4.16    4.43
  17  -1  -6    3.86    1.80
   1  17   6   -4.76    4.74
 -17   1   6   15.58    7.17
  17  -1   6   10.85    6.98
   1  17  -6  -10.34    5.77
   1  17  -6    3.45    2.49
  17  -1  -7    5.32    5.22
  -1 -17   7    9.69    6.54
 -17   1   7   -2.04    4.24
   1  17   7    4.82    5.35
   1  17  -7   14.85    8.40
  17  -1  -8   13.51    7.26
 -17   1   8    1.72    3.23
   1  17   8    7.12    4.88
   1  17  -8    4.66    4.77
  -1 -17   8    3.21    3.51
  17  -1  -9    1.00    2.58
  -1 -17   9   13.43    7.64
 -17   1   9   10.15    5.65
 -17   1   9   14.09    7.18
  17   0   0    1.95    1.86
   0  17   0    5.26    4.30
  17   0  -1    0.34    2.65
  17   0   1    1.70    4.47
 -17   0   1   -4.23    3.49
  17   0  -1    2.19    1.73
   0  17  -1    8.74    5.28
   0  17   1   -0.95    3.66
   0  17   1   -1.79    2.73
  17   0  -2    0.83    3.19
  17   0   2    4.43    3.86
 -17   0   2    6.54    4.55
  17   0  -2    3.32    2.85
   0  17  -2    0.34    3.05
   0  17   2    0.30    1.42
   0  17   2   -0.93    2.76
   0  17   3    3.18    3.75
 -17   0  -3    1.20    2.43
  17   0  -3    1.65    2.83
 -17   0   3   -2.85    2.58
  17   0   3    5.98    3.72
   0  17  -3    0.69    2.07
   0  17   3    4.69    3.10
   0  17   4    1.64    2.94
  17   0  -4    2.25    3.60
 -17   0   4    6.00    5.76
  17   0   4   12.40    6.31
   0  17  -4   -2.13    5.17
   0  17  -4    4.83    3.11
   0  17   4    6.08    3.62
  17   0  -5    1.94    3.40
   0  17   5    4.34    4.51
 -17   0   5    1.59    4.28
  17   0   5    0.09    4.55
   0  17  -5   -3.24    2.24
   0  17  -5    5.08    3.77
  17   0  -6   -3.05    2.99
 -17   0   6   -0.37    1.62
   0  17   6    5.35    3.19
 -17   0   6    4.93    5.21
   0  17  -6    2.04    4.74
   0  17  -6    2.47    1.94
  17   0  -7    6.85    5.32
 -17   0   7    2.77    2.80
 -17   0   7    3.33    5.16
   0  17   7    1.97    3.75
   0 -17   7    6.30    4.09
   0  17  -7    5.47    5.51
  17   0  -8    5.59    4.84
 -17   0   8    9.11    5.35
  17   0   8    5.10    4.56
   0  17  -8   12.43    6.85
   0 -17   8    4.27    4.64
  17   0  -9    8.62    6.55
   0 -17   9    4.83    4.61
 -17   0   9    5.76    5.59
 -17   0   9    3.87    4.33
  17   1   0   48.03    9.97
  -1  17   0   69.16   11.83
  17   1  -1  113.17   15.18
  17   1   1  116.92   14.23
  17   1   1  113.11   14.18
  -1  17  -1  130.22   16.77
  -1  17   1  134.08   15.91
  -1  17   1  121.03   16.38
  17   1  -2  145.84   17.79
  17   1   2  160.31   16.35
 -17  -1   2  181.28   20.53
  17   1  -2  185.75   15.11
  17   1   2  170.23   18.19
  -1  17  -2  172.12   20.14
  -1  17   2  171.10   17.83
  -1  17   2  169.14   19.75
  -1  17   3   84.99   14.05
  17   1   3   85.52   11.74
  17   1  -3   81.50   13.84
 -17  -1   3   77.41    9.92
 -17  -1   3   79.59   13.97
  -1  17  -3   84.15   14.43
  -1  17   3  108.12   14.01
  -1  17   4   15.15    6.19
  17   1  -4   20.70    7.23
 -17  -1   4   12.47    6.16
  17   1   4   15.18    4.81
  -1  17  -4   21.85    7.42
  -1  17   4   14.55    4.85
  17   1  -5    3.65    2.70
  -1  17   5    4.30    4.60
 -17  -1   5    3.07    4.31
  -1  17  -5    5.39    4.28
  -1  17   5    7.86    4.42
  17   1  -6   -0.38    2.01
  -1  17   6    0.23    1.88
  17   1  -7    3.76    3.52
 -17  -1   7    6.75    6.45
  -1  17   7   10.06    4.96
  17   1   7    5.94    4.53
  -1  17  -7    6.29    5.42
   1 -17   8   19.20    8.47
  17   1  -8   24.74    9.49
 -17  -1   8   20.95    8.62
  17   1   8   23.80    8.97
  -1  17  -8   13.22    7.63
  17   1  -9    9.90    5.58
   1 -17   9   19.92    8.17
  17   2   0   -3.83    3.92
  17   2   0   -1.24    3.26
  -2  17   0   -1.72    2.73
  17   2  -1    3.92    3.90
  17   2   1    1.82    3.14
  17   2  -1    3.58    3.15
  -2  17  -1   -2.93    3.25
  -2  17   1    3.01    4.89
  -2  17   1   -1.98    3.19
  17   2  -2   -1.21    1.83
 -17  -2   2    2.56    4.06
  17   2   2    4.05    2.92
  -2  17  -2   -2.91    3.94
  -2  17   2    0.16    2.19
  -2  17   2   -1.83    2.26
  -2  17   3    8.48    4.81
  17   2  -3   16.83    6.68
 -17  -2   3   13.88    6.32
  17   2   3   12.83    5.05
  -2  17  -3    5.25    4.32
  -2  17   3   15.30    6.26
  -2  17   4   16.31    5.79
  17   2  -4   39.34    9.64
 -17  -2   4   32.11    6.98
 -17  -2   4   47.00   11.03
  17   2   4   29.72    6.69
  17   2   4   31.97    9.31
  -2  17  -4   30.30    9.66
  -2  17   4   28.57    7.07
  17   2  -5   24.35    8.10
  -2  17   5   19.81    7.55
  17   2   5   30.77    9.01
 -17  -2   5   15.82    6.68
  -2  17  -5   22.36    7.89
  -2  17   5   26.08    6.92
  17   2  -6   -1.57    3.10
  -2  17  -6    0.20    2.16
  17   2  -7   18.69    8.01
 -17  -2   7   17.84    7.46
  -2  17   7   22.96    8.34
  17   2   7   29.56    9.59
  -2  17  -7   21.87    8.32
  17   2  -8    4.90    5.31
   2 -17   8    5.93    4.71
 -17  -2   8   13.60    5.81
 -17  -2   8    6.42    6.80
  -2  17   8   18.07    7.11
  -2  17  -8    0.71    3.07
  17   2  -9    3.15    6.16
 -17  -2   9    5.69    4.87
   2 -17   9    1.09    2.25
  17   3   0  230.37   21.31
  -3  17   0  238.68   22.52
  17   3  -1  322.93   26.06
  17   3   1  322.88   24.67
  17   3   1  346.38   24.90
  -3  17  -1  340.60   27.87
  -3  17   1  347.88   26.69
  -3  17   1  359.75   27.99
  17   3  -2  331.17   27.09
  17   3   2  379.64   26.25
  17   3  -2  359.32   21.27
  17   3   2  346.17   26.31
  -3  17  -2  353.86   29.10
  -3  17   2  368.04   27.00
  -3  17   2  306.68   25.96
  17   3  -3  212.05   22.18
  17   3   3  236.53   20.15
  17   3   3  204.62   21.10
  -3  17  -3  224.07   23.71
  -3  17   3  190.60   19.14
  -3  17   3  183.98   20.60
  -3  17   4   64.63   12.41
  17   3  -4   52.29   11.09
 -17  -3   4   69.29   13.07
  17   3   4   62.23   10.36
  17   3   4   43.47   10.39
  -3  17  -4   60.58   12.33
  -3  17   4   60.13   10.85
  17   3  -5    2.46    2.31
  -3  17   5   10.15    6.48
 -17  -3   5    3.44    2.21
  17   3   5    0.86    2.27
  -3  17  -5   14.34    7.76
  -3  17   5   10.67    5.07
  -3  17   6    4.11    3.64
  -3  17   6   10.74    8.26
  17   3  -6    1.15    2.60
 -17  -3   6    1.79    3.21
 -17  -3   6   -2.48    4.90
  -3  17  -6    1.75    5.13
  17   3  -7    4.81    4.74
 -17  -3   7    6.27    4.95
 -17  -3   7   13.88    7.75
  -3  17   7    9.33    5.61
  17   3   7    9.65    5.93
  -3  17  -7    4.52    4.78
  17   3  -8   15.96    7.51
 -17  -3   8   17.74    7.05
 -17  -3   8   16.10    8.26
   3 -17   8   22.78    8.29
  -3  17   8   16.42    6.62
  -3  17  -8   17.67    7.98
  17   3  -9   39.59   11.75
 -17  -3   9   47.27   12.08
 -17  -3   9   43.99   13.07
   3 -17   9   52.86   13.30
  17   4   0    5.14    4.27
  17   4   0   -0.77    1.28
  -4  17   0    5.49    4.07
  17   4  -1   10.25    4.95
  17   4   1    8.37    5.12
  17   4  -1    4.47    2.23
  -4  17  -1   17.25    6.99
  -4  17   1    7.54    3.99
  -4  17   1    9.75    5.10
  17   4  -2   58.12   11.40
  17   4   2   67.67   11.21
  17   4  -2   56.09    8.21
  -4  17  -2   45.35   10.89
  -4  17   2   68.46   12.11
  -4  17   2   56.43   11.03
  -4  17   3   58.47   11.78
  17   4  -3   75.34   13.13
 -17  -4   3   82.51   13.81
  17   4   3   85.57   12.25
  17   4   3   90.10   14.01
  -4  17  -3   82.20   14.25
  -4  17   3   59.41   10.72
  17   4   4  126.55   15.01
  17   4  -4  102.63   15.73
  17   4   4   95.44   14.99
  -4  17  -4  100.41   16.59
  -4  17   4   92.29   14.01
  -4  17   4  107.71   16.03
  17   4  -5   84.87   15.11
  -4  17   5   59.64   12.46
 -17  -4   5   73.19   13.91
  -4  17  -5   70.74   14.25
  -4  17   5   81.57   12.69
  -4  17   6   70.64   12.25
  -4  17   6   56.06   12.41
  -4  17  -6   77.80   15.58
  17   4  -7   71.37   14.69
  -4  17   7   69.99   14.25
  -4  17  -7   81.47   16.35
  17   4  -8   42.37   11.69
 -17  -4   8   30.66   10.14
  17   4   8   55.10   13.48
  -4  17   8   40.31   11.92
  -4  17  -8   17.01    7.20
   4 -17   8   39.74   11.00
  17   4  -9   17.38    7.35
 -17  -4   9   16.03    7.11
   4 -17   9    6.36    5.66
  17   5   0   54.43   10.79
  -5  17   0   57.20   12.07
  17   5  -1   55.64   10.93
  17   5   1   56.88   10.87
  17   5  -1   61.12    9.45
  17   5   1   46.77    9.72
  -5  17  -1   60.14   12.64
  -5  17   1   77.34   13.01
  -5  17   1   53.13   10.82
  17   5  -2   82.61   13.89
 -17  -5   2   79.58   13.61
  17   5   2   59.77   11.27
  17   5   2   82.38   13.03
  -5  17  -2   65.40   12.80
  -5  17   2   84.66   13.39
  -5  17   2   68.60   12.37
  -5  17   3   46.16   10.55
  17   5  -3   25.55    7.92
 -17  -5   3   42.59    9.78
  17   5   3   28.25    7.41
  17   5   3   23.97    7.55
  -5  17  -3   39.35   10.19
  -5  17   3   35.97    8.72
  -5  17   4   28.53    8.08
  17   5  -4   10.93    4.79
 -17  -5   4   19.47    7.49
  17   5   4   10.83    5.09
  17   5   4   23.29    6.87
  -5  17  -4   19.03    6.97
  -5  17   4   33.84    8.49
  17   5  -5    5.47    4.09
  -5  17   5    3.72    4.19
 -17  -5   5    1.11    3.54
  17   5   5    2.35    5.14
  -5  17  -5    2.74    4.77
  -5  17   5    4.59    3.98
  -5  17   6   -0.54    1.97
  17   5  -6    9.87    5.96
 -17  -5   6    3.37    2.49
  -5  17   6   -0.41    2.42
  17   5   6    3.18    4.53
  -5  17  -6    2.54    4.01
  17   5  -7    1.38    3.45
 -17  -5   7   -1.74    2.82
  -5  17   7    1.87    4.68
  -5  17  -7    1.79    2.80
  17   5  -8    5.02    3.04
 -17  -5   8   16.21    8.89
  17   5   8    6.53    5.02
  -5  17   8   16.89    8.09
   5 -17   8    8.05    5.07
  -5  17  -8   13.74    8.39
  17   5  -9   20.47    8.81
 -17  -5   9   22.73    9.70
   5 -17   9   11.62    6.60
  17   6   0   -3.29    3.73
  17   6   0   -0.30    2.12
  -6  17   0   -1.20    2.23
  -6  17   0   -1.05    2.69
  17   6  -1   22.37    7.66
  17   6   1    9.89    5.50
  17   6  -1   10.69    4.64
  17   6   1    8.57    4.57
  -6  17  -1   11.52    6.85
  -6  17   1    4.16    3.35
  -6  17   1    9.14    4.81
  -6  17   2    9.53    4.91
  17   6  -2    1.55    2.15
  17   6   2   11.70    5.42
  -6  17  -2    9.11    4.19
  -6  17   2   12.61    5.34
  -6  17   3   11.18    4.73
  17   6  -3    8.25    4.89
 -17  -6   3   -1.55    2.62
  17   6   3    6.20    4.77
  17   6   3   14.18    7.05
  -6  17  -3   -3.41    4.23
  -6  17   3   -2.07    3.61
  -6  17   4    7.18    4.79
  17   6  -4    9.14    5.64
  17   6   4   12.49    6.03
  17   6   4   22.37    6.98
  -6  17  -4   12.82    6.33
  -6  17   4   10.62    5.00
  17   6  -5   12.58    5.64
  -6  17   5   16.32    6.68
 -17  -6   5   15.43    6.94
  17   6   5    8.68    6.31
  -6  17  -5   13.65    7.96
  -6  17   5    7.19    4.93
  -6  17   6    1.46    4.48
  17   6  -6    9.47    4.53
  -6  17   6    4.02    3.78
  -6  17  -6   10.30    7.98
  -6  17   7   -3.01    4.42
  17   6  -7   11.50    7.02
  -6  17  -7    1.27    4.06
  17   6  -8   10.51    6.51
  -6  17   8    4.35    5.56
  -6  17  -8   10.11    7.76
   6 -17   8    3.54    5.29
   6 -17   9    1.98    3.11
  17   6  -9    1.28    4.17
 -17  -6   9    1.75    3.86
  17   7   0   10.23    5.35
  17   7   0    7.37    4.77
  -7  17   0   13.03    5.46
  -7  17   0    4.51    2.84
  17   7  -1    1.82    3.68
  17   7   1    1.32    2.33
  17   7   1    6.06    4.99
  -7  17  -1    1.31    2.80
  -7  17   1    0.24    1.99
  -7  17   1    5.32    3.83
  -7  17   2    3.79    4.18
  17   7  -2    5.02    2.09
  17   7   2    5.49    4.73
  17   7   2   11.43    5.60
  -7  17  -2    5.06    3.93
  -7  17   2    7.29    5.83
  -7  17   3   13.98    5.56
  17   7  -3   13.44    5.90
  17   7   3   17.71    7.01
  17   7   3   27.56    7.49
  -7  17  -3   32.80    9.67
  -7  17   3   21.11    7.43
  -7  17   4    6.24    4.31
  17   7  -4    5.71    3.93
 -17  -7   4    0.06    2.76
  17   7   4   -1.59    3.38
  17   7   4    5.77    3.55
  -7  17  -4    5.62    3.35
  -7  17   4    4.29    3.97
  17   7  -5   -2.07    3.68
  -7  17   5    3.83    4.14
 -17  -7   5   -0.46    2.15
  17   7   5    6.47    5.67
  -7  17  -5    4.08    2.83
  -7  17   5    6.31    4.15
  -7  17   6   16.93    6.65
  17   7  -6    1.25    4.61
 -17  -7   6    5.92    5.23
  -7  17   6   -3.20    2.67
  17   7   6    9.04    4.55
  -7  17  -6   13.18    7.43
  17   7  -7   -4.86    5.67
 -17  -7   7   -3.04    3.43
  -7  17   7    4.52    3.51
  17   7   7   -1.48    2.98
  -7  17  -7   -4.07    2.11
  17   7  -8   -1.96    3.64
 -17  -7   8    7.30    7.22
  17   7   8   -3.82    3.15
  -7  17   8    7.71    5.52
  -7  17  -8   -3.22    5.49
   7 -17   9    3.89    3.80
  17   8   0   -0.39    2.23
  -8  17   0   -0.47    1.95
  17   8  -1   20.91    7.11
  17   8  -1   18.38    6.17
  17   8   1   10.92    6.16
  17   8   1   17.92    6.99
  -8  17  -1    9.66    5.72
  -8  17   1    9.00    5.38
  -8  17   1   15.69    5.82
  -8  17   2   23.25    7.23
  17   8  -2   13.97    6.63
  17   8   2   27.13    8.37
  17   8   2   18.22    7.04
  -8  17  -2   23.00    7.91
  -8  17   2   15.72    6.49
  -8  17   3   38.80    9.43
 -17  -8   3   45.21   10.05
  17   8  -3   36.62    9.68
  17   8   3   49.36   11.47
  17   8   3   32.17    8.96
  -8  17  -3   44.82   11.04
  -8  17   3   44.84   10.70
  -8  17   4   51.57   11.07
  17   8  -4   62.10   12.83
  17   8   4   82.60   14.92
  17   8   4   67.78   12.41
  -8  17  -4   57.98   13.58
  -8  17   4   61.40   12.34
 -17  -8   5  105.29   16.38
  17   8  -5   68.21   14.10
  -8  17   5   85.71   14.80
  17   8   5   95.60   16.94
  -8  17  -5   88.85   16.39
  -8  17   5  103.24   16.24
  -8  17   6   82.97   14.51
  17   8  -6   77.83   15.10
 -17  -8   6   76.63   14.10
  -8  17   6   92.73   15.90
  17   8   6   90.37   16.72
  -8  17  -6  117.69   19.37
  17   8  -7   98.72   17.36
  -8  17   7  102.38   16.55
  17   8   7  101.64   18.19
  -8  17   7   84.03   15.36
  -8  17  -7  102.69   18.65
  17   8  -8   72.23   15.28
 -17  -8   8   64.47   14.61
  -8  17   8   87.12   16.51
  -8  17  -8   79.54   17.23
   8 -17   9   32.21   10.26
 -17  -8   9   19.12    7.57
  17   9   0   -0.20    2.80
  17   9   0    1.36    4.30
  -9  17   0    1.24    3.59
  -9  17   0    0.12    3.22
  17   9  -1   -2.17    2.94
  17   9  -1   11.50    5.06
  17   9   1    7.01    5.30
  17   9   1    5.16    4.47
  -9  17  -1    1.17    3.88
  -9  17   1   -2.33    2.94
  -9  17   1    1.96    1.39
  -9  17   2    3.55    3.61
  17   9  -2   -2.13    3.53
  17   9   2    4.47    6.21
  17   9   2    4.01    4.02
  -9  17  -2    1.52    3.03
  -9  17   2    1.83    2.76
  -9  17   3   -1.34    1.55
  17   9  -3    0.08    1.97
  17   9   3    5.50    4.11
  -9  17  -3   -0.12    3.55
  -9  17   3   -1.65    1.91
  -9  17   4    4.67    3.77
  17   9  -4    2.17    4.28
  17   9   4   10.09    6.28
  17   9   4   -1.94    3.41
  -9  17  -4    2.14    4.40
  -9  17   4    0.03    4.01
 -17  -9   5   12.64    7.09
  17   9  -5    5.46    4.51
  -9  17   5    2.35    3.25
  -9  17   5    3.34    2.60
  17   9   5    7.27    6.83
  17   9   5   13.00    6.05
  -9  17  -5   -0.23    3.92
  -9  17   5    3.41    4.78
  -9  17   6    6.23    4.72
 -17  -9   6    5.82    5.67
  17   9  -6   -2.23    4.67
  -9  17   6   -2.22    3.19
  17   9   6    1.76    4.31
  -9  17  -6   -4.65    5.79
 -17  -9   7   13.00    6.76
  17   9  -7   10.19    6.58
  17   9   7   19.79    9.98
  -9  17   7   12.36    6.27
  -9  17  -7   11.22    7.35
  17   9  -8    2.61    4.59
  -9  17   8   -1.29    2.27
  -9  17  -8   -1.92    2.25
  17  10   0   -1.40    2.67
  17  10   0    3.84    4.27
 -10  17   0   -1.25    1.91
 -10  17   0    3.72    3.46
 -10  17   1   12.17    5.53
  17  10  -1    6.82    5.57
  17  10   1    6.39    2.97
  17  10   1    3.87    3.77
 -10  17  -1   13.54    6.66
 -10  17  -1    1.95    3.13
 -10  17   1    4.58    2.79
 -10  17   2   37.62    8.93
  17  10  -2   26.86    8.48
  17  10   2   44.46   10.93
 -10  17  -2   38.46   11.07
 -10  17   2   30.60    8.86
 -10  17   3   74.93   12.70
  17  10  -3  112.88   17.84
  17  10   3   93.92   15.59
 -10  17  -3  107.78   17.59
 -10  17   3   88.86   15.40
  17  10  -4  139.19   19.86
 -17 -10   4  164.81   19.73
  17  10   4  148.72   19.36
  17  10   4  144.23   20.68
 -10  17  -4  150.25   21.23
 -10  17   4  154.63   20.32
 -10  17   4  165.63   19.48
  17  10  -5  181.30   23.49
 -10  17   5  175.48   20.34
  17  10   5  177.47   21.05
  17  10   5  181.35   23.59
 -10  17  -5  210.32   25.95
 -10  17   5  163.73   21.20
 -10  17   5  182.69   21.20
 -10  17   6  163.10   20.77
  17  10  -6  162.30   22.35
 -10  17   6  168.20   20.80
  17  10   6  159.09   22.89
 -10  17  -6  171.46   23.99
 -10  17   6  157.44   21.01
 -10  17   7  193.32   23.46
  17  10  -7  156.04   22.66
 -17 -10   7  183.21   22.64
  17  10   7  132.14   21.49
 -10  17  -7  188.13   25.44
 -10  17   8  123.39   19.70
  17  11   0   34.54   10.17
 -11  17   0   36.94   10.46
 -11  17   0   35.37    8.82
 -11  17   1   20.29    6.83
  17  11   1   30.59    8.60
  17  11  -1   35.06    9.75
  17  11   1   41.99   11.69
 -11  17  -1   30.03    9.14
 -11  17  -1   21.01    6.21
 -11  17   1   26.47    8.45
 -11  17   2   25.88    7.21
  17  11   2   21.78    7.63
  17  11  -2    2.86    3.64
  17  11   2   19.95    8.04
 -11  17  -2    4.05    4.53
 -11  17   2    7.59    4.92
 -11  17   3   -1.55    2.49
  17  11  -3   11.17    5.44
  17  11   3   12.10    5.38
 -11  17  -3   11.39    6.00
 -11  17   3    3.75    4.07
 -11  17   4    9.24    4.90
  17  11  -4   18.07    7.83
  17  11   4   19.98    7.84
 -11  17  -4   15.81    7.95
 -11  17   4   10.33    5.46
 -11  17   5   -0.59    1.85
  17  11  -5    3.62    3.72
 -11  17   5    2.98    3.19
  17  11   5   10.92    6.23
 -11  17  -5    1.42    2.43
 -11  17   5    5.82    4.41
 -11  17   6    9.49    5.58
 -11  17   6    2.37    2.63
  17  11  -6    8.00    5.40
  17  11   6    2.99    4.32
 -11  17   6    0.48    2.80
 -11  17  -6    4.03    5.00
 -11  17   7    4.84    5.35
  17  11  -7    4.90    5.78
 -11  17   7   10.75    6.20
 -11  17  -7    5.45    4.45
 -11  17   8   -6.16    4.65
  17  12   0   -0.40    3.12
 -12  17   0    6.56    5.68
  17  12  -1    5.54    4.88
  17  12   1    8.78    8.08
 -12  17  -1    5.92    5.89
 -12  17   1    8.25    6.07
  17  12   2    5.41    5.14
  17  12  -2    0.60    4.78
  17  12   2    0.56    5.11
 -12  17  -2   11.95    6.59
 -12  17   2    0.89    2.51
 -12  17   3   17.27    6.15
  17  12  -3   18.06    6.47
  17  12   3   22.43    8.57
 -12  17  -3   12.06    6.29
 -12  17   3   14.03    6.61
 -12  17   4   34.11    9.28
  17  12  -4   49.05   12.39
  17  12   4   50.94   12.54
  17  12   4   21.56    8.78
 -12  17  -4   37.41   10.73
 -12  17   4   22.72    8.65
 -12  17   5   34.63    9.82
  17  12  -5   34.25   10.44
  17  12   5   39.59   11.13
 -12  17   5   24.33    7.83
  17  12   5   43.82   11.14
 -12  17  -5   45.79   12.75
 -12  17   6   35.76   10.34
 -12  17   6   40.56   10.62
  17  12  -6   15.03    6.03
 -12  17  -6   35.43   10.98
 -12  17   7   22.45    9.18
 -12  17  -7   20.89    9.19
 -12  17   8   35.01   10.59
  17  13   0   25.55    9.73
 -13  17   0   14.41    6.67
  17  13  -1    2.34    3.94
  17  13   1    0.60    2.38
 -13  17   1    5.10    5.41
  17  13  -2    4.32    3.97
  17  13   2    6.24    5.44
 -13  17  -2    4.62    4.79
 -13  17   2    2.97    4.26
  17  13   3    0.40    3.74
  17  13  -3   -5.02    4.77
  17  13   3    3.24    5.03
 -13  17  -3    1.86    1.91
 -13  17   3    6.34    6.26
  17  13   4    7.24    5.09
  17  13  -4   -0.88    3.34
  17  13   4   -1.58    3.61
 -13  17  -4    3.45    4.10
 -13  17   4    0.26    2.23
 -13  17   5    4.33    4.03
  17  13   5    6.71    6.77
  17  13  -5    3.12    3.77
  17  13   5   -1.55    3.00
 -13  17  -5    0.92    5.83
 -13  17   6    3.04    2.44
 -13  17   6    6.16    5.70
  17  13  -6   -0.62    4.62
 -13  17  -6    5.86    6.57
 -13  17   7    3.72    5.44
  17  14   0    8.97    6.09
 -14  17   0    6.05    4.90
  17  14  -1   -0.88    2.60
  17  14   1    2.44    2.88
 -14  17  -1    7.27    7.23
 -14  17   1   -1.61    2.50
  17  14  -2    7.84    5.61
  17  14   2    5.61    4.21
 -14  17  -2    3.77    4.02
 -14  17   2    6.51    4.91
  17  14  -3    5.58    6.39
  17  14   3    6.20    5.56
 -14  17  -3    9.40    6.52
 -14  17   3    7.18    5.67
  17  14   4   17.81    8.72
  17  14  -4   13.28    7.39
  17  14   4   11.74    7.46
 -14  17  -4    1.85    3.11
 -14  17   4   17.48    8.44
 -14  17   5    6.07    6.19
  17  14   5    8.23    5.45
  17  14  -5    5.25    2.32
  17  14   5    0.84    3.71
 -14  17  -5    2.43    2.26
 -14  17   6    7.08    7.28
 -14  17  -6    8.91    7.37
 -14  17   7    7.87    5.33
  17  15   0  162.92   23.31
 -15  17   0  138.24   21.10
  17  15  -1  154.77   22.64
  17  15   1  168.27   23.51
 -15  17  -1  140.35   21.34
 -15  17   1  129.99   20.82
  17  15  -2  139.38   22.14
  17  15   2  117.01   19.99
 -15  17   2  139.20   21.28
 -15  17  -2  110.23   19.00
  17  15  -3   61.35   14.50
  17  15   3   68.15   15.04
 -15  17  -3   60.76   14.30
 -15  17   3   86.15   17.09
  17  15   4   30.66   10.74
 -15  17  -4   11.35    5.45
 -15  17   4   24.86    9.23
 -15  17   5   16.27    8.52
  17  15   5   17.93    8.45
 -15  17  -5   13.25    7.05
  17  16   0    7.15    7.13
 -16  17   0   -1.60    3.29
  17  16  -1    2.44    6.67
  17  16   1    0.35    3.12
 -16  17  -1   -1.32    3.01
 -16  17   1   -0.92    3.48
  17  16  -2   -0.17    2.67
 -16  17  -2   -1.43    2.72
 -16  17   2    1.81    3.38
  17  16  -3    9.00    8.24
  17  16   3    3.73    4.85
 -16  17  -3    2.50    3.79
 -16  17   3   -1.18    1.74
  17  16   4    4.79    4.70
 -16  17  -4    2.98    3.74
  17  16   5   -0.08    5.61
  17  17   0  272.87   31.88
 -17  17   0  230.23   28.27
  17  17   1  151.77   23.55
  17  17  -1  164.40   24.45
 -17  17  -1  148.45   22.86
 -17  17   1  179.97   25.20
  17  17   2  135.36   22.29
 -17  17  -2  129.88   21.42
  17  17   3  109.50   20.37
  17  17   4   21.42    8.87
  17  17   5   -1.28    3.90
  16  18   0   30.65   11.21
  16  18   0   34.25   10.59
 -18  16   0   19.68    8.61
  16  18  -1   31.61   11.44
  16  18   1   29.65   11.39
 -18  16  -1   38.56   11.68
  16  18   1   34.41    9.91
 -18  16   1   24.55    8.65
  16  18   2   17.13    6.46
  16  18   2   15.01    7.41
 -18  16  -2   23.01    9.15
  16  18   3    6.04    5.20
  16  18   4    2.69    4.31
  16  18   5    6.77    4.87
  15  18   0   -0.47    3.37
  15  18   0    7.21    4.70
 -18  15   0    1.84    3.26
  15  18  -1   21.85    9.71
  15  18   1   27.79   10.31
 -18  15  -1   21.25    9.46
  15  18   1    6.41    4.06
 -18  15   1   13.10    6.06
  15  18   2   31.52    9.29
 -18  15   2   72.98   14.10
  15  18  -2   44.15   12.53
  15  18   2   36.41   11.84
 -18  15  -2   31.70   10.40
 -18  15   2   31.51   10.57
 -18  15   3  100.90   18.75
  15  18   3  101.33   16.70
  15  18  -3   84.05   17.48
  15  18   3  119.65   20.99
 -18  15  -3   87.33   17.57
  15  18   4   86.36   16.08
 -18  15   4   98.67   17.49
  15  18   4  145.09   23.38
 -18  15  -4  108.73   19.43
  15  18   5  121.56   19.23
 -18  15   5  123.02   20.09
 -18  15  -5  134.52   21.61
  14  18   0   15.68    8.97
  14  18   0    5.56    5.00
 -18  14   0    1.97    2.87
  14  18  -1   19.58    9.10
  14  18   1   24.63    9.60
  14  18   1   14.18    6.71
 -18  14  -1    9.15    6.99
 -18  14   1   21.17    8.88
  14  18   2   21.01    7.34
  14  18  -2   14.05    7.60
  14  18   2   25.22    9.74
 -18  14  -2   23.33    9.44
 -18  14   2    5.54    5.75
 -18  14   3    3.85    4.59
  14  18   3    9.28    6.28
 -18  14   3   13.85    7.53
  14  18  -3    8.51    6.09
  14  18   3    5.76    5.28
 -18  14  -3    7.28    6.75
 -18  14   4   11.56    7.61
  14  18   4   -3.67    2.42
 -18  14   4   -2.08    4.05
  14  18  -4    8.64    7.36
  14  18   4    0.66    5.72
 -18  14  -4    7.71    4.04
  14  18   5   -0.05    2.76
 -18  14   5    1.23    3.89
  14  18   5    6.83    5.72
 -18  14  -5    5.06    6.05
  14  18   6   -3.67    3.86
 -18  14  -6    1.51    3.60
  13  18   0    3.01    5.21
  13  18   0    5.77    5.35
 -18  13   0    2.34    3.98
 -18  13   1    7.23    5.33
  13  18  -1   10.43    7.06
  13  18   1   10.02    7.53
  13  18   1   15.84    6.64
 -18  13  -1   13.38    6.72
 -18  13   1   12.53    7.98
 -18  13   2   52.30   12.21
  13  18  -2   86.53   17.03
  13  18   2   74.34   16.54
 -18  13  -2   73.43   15.25
  13  18   2   63.02   13.19
 -18  13   2   61.88   13.83
 -18  13   3  101.55   18.20
 -18  13   3  107.78   17.86
  13  18  -3  114.49   20.24
  13  18   3  110.05   19.68
  13  18   3  107.86   17.69
 -18  13  -3   89.68   16.63
 -18  13   4  108.15   18.98
  13  18   4   95.66   16.58
 -18  13   4   96.38   17.12
  13  18  -4  131.94   21.50
  13  18   4   77.58   16.05
 -18  13  -4   74.27   15.30
  13  18   5   73.79   15.03
 -18  13   5  107.39   19.10
  13  18  -5   98.26   18.35
  13  18   5   92.68   18.02
 -18  13  -5   87.92   16.33
  13  18   6   82.29   16.05
  13  18  -6  112.82   20.36
 -18  13  -6   87.94   16.69
  12  18   0    7.50    6.14
  12  18   0    9.02    5.15
 -18  12   0    0.69    3.46
 -18  12   1    2.87    3.43
  12  18  -1    6.36    6.59
  12  18   1    5.89    5.06
  12  18   1    6.46    3.81
 -18  12  -1    9.37    5.78
  12  18  -2    7.80    5.76
  12  18   2    8.07    6.05
 -18  12   2    9.24    4.78
 -18  12  -2    4.00    3.35
  12  18   2    2.70    3.86
 -18  12   2    0.48    4.97
 -18  12   3    3.82    5.14
  12  18   3   10.25    7.15
  12  18  -3   -0.53    2.80
  12  18   3    7.61    6.98
 -18  12  -3    4.65    3.20
 -18  12   4    1.72    6.35
  12  18   4   -2.28    2.28
 -18  12   4    4.00    4.48
  12  18  -4    1.21    4.95
 -18  12  -4    4.63    5.71
  12  18   5    0.39    2.05
 -18  12  -5    4.44    3.99
  12  18   6    6.59    5.65
  12  18  -6    0.94    3.03
 -18  12  -6    7.71    6.34
  12  18   7    8.14    5.95
  12  18  -7   -2.25    4.70
  11  18   0    0.55    2.79
 -18  11   0    3.91    3.95
  11  18  -1    5.82    4.78
  11  18  -1    5.48    5.47
  11  18   1    5.04    5.29
  11  18   1    4.80    4.89
 -18  11  -1    0.36    4.18
 -18  11   1   -2.75    2.10
 -18  11   2    4.69    4.65
 -18  11   2    9.08    5.19
  11  18  -2    5.59    5.63
  11  18   2    3.29    4.06
 -18  11  -2   14.43    6.44
  11  18   2   -2.44    2.72
 -18  11   3   12.76    6.93
  11  18   3    6.30    4.17
  11  18  -3    0.95    3.90
  11  18   3    2.27    3.85
 -18  11  -3   15.82    7.94
 -18  11   4    8.46    6.25
  11  18   4   -1.20    1.68
 -18  11   4    8.36    6.33
  11  18  -4   -0.22    2.48
  11  18   4    2.28    3.92
 -18  11  -4    1.54    2.38
  11  18   5   -0.46    3.96
  11  18  -5    5.41    4.11
 -18  11  -5    8.47    6.37
  11  18   6   -0.25    2.51
  11  18  -6    5.40    5.94
 -18  11  -6    0.48    2.42
  11  18   7   -1.19    3.47
  11  18  -7    6.28    5.47
  11  18  -8   -2.29    3.35
  10  18   0   23.90    9.27
 -18  10   0   12.42    6.29
  10  18  -1   26.37    7.87
  10  18  -1    8.26    5.95
  10  18   1   17.21    8.16
  10  18   1   11.89    5.89
 -18  10  -1   13.84    6.46
 -18  10   1    9.60    6.43
 -18  10   2    7.10    7.28
 -18  10   2    0.85    3.03
  10  18  -2    5.31    3.80
  10  18  -2    2.07    3.12
  10  18   2    0.88    2.46
 -18  10  -2    4.86    3.19
  10  18   2    7.79    5.15
 -18  10   3   17.16    7.21
  10  18   3    8.02    5.39
 -18  10   3   17.60    7.61
  10  18  -3   28.12    9.77
  10  18   3   18.82    8.68
 -18  10  -3    7.77    4.38
  10  18   4    6.41    4.53
  10  18  -4    9.83    7.11
  10  18   4    2.57    2.70
 -18  10  -4    1.55    3.52
  10  18   5    7.43    5.35
 -18  10   5   -3.36    3.92
  10  18  -5    6.32    4.49
 -18  10  -5    2.34    3.26
  10  18   6    0.50    2.93
 -18  10   6    3.49    5.68
  10  18  -6   -2.75    4.15
 -18  10  -6    3.71    4.16
  10  18   7    6.42    5.66
  10  18  -7    3.83    3.62
   9  18   0    2.94    3.47
   9  18   0    2.53    4.16
 -18   9   0    2.61    3.35
   9  18  -1    2.66    2.49
   9  18  -1    0.94    3.39
   9  18   1    0.51    3.97
   9  18   1   -0.60    2.74
 -18   9  -1    3.49    5.20
 -18   9   1   -4.12    3.50
 -18   9   2    6.51    5.11
 -18   9   2    1.18    2.86
   9  18  -2   18.63    7.26
   9  18  -2   13.97    7.04
   9  18   2   10.22    6.23
 -18   9  -2   11.53    6.09
   9  18   2    7.56    4.60
   9  18   3   24.32    8.22
 -18   9   3   35.82   10.84
 -18   9   3   43.20   10.65
   9  18  -3   57.77   13.61
 -18   9  -3   47.33   10.94
   9  18   4   44.73   11.40
   9  18  -4   40.71   10.66
 -18   9  -4   32.58    9.62
   9  18   5   26.46    9.20
 -18   9   5   44.94   12.05
   9  18  -5   44.73   11.86
 -18   9  -5   54.34   11.67
   9  18   6   77.25   15.47
 -18   9   6   41.32   11.65
  18  -9   6   70.23   15.49
   9  18  -6   58.99   13.79
 -18   9   7   50.07   14.31
   9  18   7    7.13    3.96
   9  18  -7   37.85   11.77
   8  18   0  276.61   28.76
   8  18   0  274.34   23.12
 -18   8   0  267.11   25.60
   8  18  -1  244.54   26.88
   8  18   1  234.86   26.52
   8  18  -1  225.89   22.55
   8  18   1  231.90   24.45
 -18   8  -1  214.17   22.69
 -18   8   1  229.20   24.20
 -18   8   2  200.63   23.03
   8  18  -2  199.47   24.21
   8  18   2  199.47   24.38
   8  18  -2  197.79   21.86
   8  18   2  191.11   22.34
 -18   8  -2  198.44   21.65
 -18   8   2  179.50   21.89
 -18   8   3  125.65   18.57
 -18   8   3  131.45   19.16
   8  18  -3  129.68   18.12
   8  18  -3  120.14   18.80
   8  18   3  122.73   19.45
   8  18   3  132.03   18.95
 -18   8  -3  100.48   15.38
   8  18   4   20.24    7.71
   8  18  -4   36.75   11.03
 -18   8  -4   23.95    8.29
   8  18   5   19.50    8.39
 -18   8   5   14.10    6.38
  18  -8   5   10.62    5.34
   8  18  -5    1.95    3.24
 -18   8  -5   10.04    5.73
   8  18   6   -3.44    3.51
 -18   8   6    1.97    3.42
   8  18  -6    8.47    7.00
 -18   8   7   -1.03    3.68
   8  18   7   12.00    6.14
  18  -8   7    5.21    4.62
   8  18  -7    0.64    3.60
   7  18   0    2.35    4.15
   7  18   0    0.16    4.55
 -18   7   0    1.98    3.30
 -18   7   1   21.44    7.65
   7  18  -1    4.52    3.33
   7  18  -1    7.64    5.93
   7  18   1   11.40    4.84
   7  18   1   10.97    5.35
   7  18   1   11.59    6.32
 -18   7  -1    3.51    4.18
 -18   7   2   38.55   10.08
 -18   7   2   36.82   10.22
   7  18  -2   40.73   10.08
   7  18  -2   35.96   10.02
   7  18   2   43.33   10.82
 -18   7  -2   30.01    8.43
   7  18   3   10.27    5.46
 -18   7   3    8.89    5.90
   7  18  -3    7.92    6.08
   7  18  -3   12.17    5.89
 -18   7  -3    8.81    4.80
   7  18   4   31.04    9.68
  18  -7   4   22.45    8.66
   7  18  -4   30.67    9.37
   7  18  -4   49.84   12.39
 -18   7  -4   28.25    8.08
   7  18   5   14.42    7.17
 -18   7   5   22.86    8.58
  18  -7   5   22.26    8.71
   7  18  -5   35.30   10.65
 -18   7  -5   15.52    6.15
   7  18   6   39.93   11.00
 -18   7   6   42.76   12.25
   7  18  -6   50.38   12.84
   7  18   7   30.24    9.30
 -18   7   7   30.87   10.57
  18  -7   7   20.85    8.82
   7  18  -7   24.93    8.86
   6  18   0  176.59   22.41
   6  18   0  195.39   19.59
 -18   6   0  226.13   22.62
   6  18  -1  218.71   24.70
   6  18   1  187.46   23.19
   6  18  -1  240.50   22.86
   6  18   1  221.72   19.69
   6  18   1  195.74   22.31
 -18   6  -1  259.17   23.93
 -18   6   1  275.05   25.35
 -18   6   2  183.52   21.61
  18  -6   2  166.17   17.35
 -18   6   2  169.49   20.97
   6  18  -2  161.70   21.14
   6  18  -2  183.54   20.85
   6  18   2  180.87   22.74
   6  18   2  149.03   19.49
 -18   6  -2  165.63   18.69
   6  18   3   52.93   11.84
 -18   6   3   57.59   12.41
  18  -6   3   55.44   12.28
   6  18  -3   60.90   12.85
   6  18  -3   59.08   13.19
 -18   6  -3   70.56   12.32
   6  18   4   13.97    6.44
  18  -6   4   19.92    7.88
   6  18  -4   12.74    6.03
   6  18  -4   16.89    7.06
 -18   6  -4   15.55    6.25
   6  18   5   -1.02    2.82
 -18   6   5   -3.02    3.75
   6  18  -5    5.36    4.83
   6  18  -5    4.24    4.71
 -18   6  -5   -1.88    2.99
   6  18   6    6.40    5.05
 -18   6   6   -3.06    3.54
   6  18  -6    9.27    5.38
   6  18   7    2.84    4.66
 -18   6   7    9.66    7.36
  18  -6   7    0.51    2.89
   6  18  -7   12.50    6.67
 -18   5   0    0.87    1.86
   5  18   0    2.50    3.75
   5  18   0   -2.77    4.39
 -18   5  -1   -0.30    2.89
 -18   5   1    0.21    2.81
  18  -5   1   -0.29    1.58
   5  18  -1    5.90    4.85
   5  18  -1   -5.26    5.44
   5  18   1    0.74    2.93
   5  18   1   -2.76    4.76
   5  18   1   -1.18    3.00
  18  -5   2   -2.27    2.31
 -18   5   2    3.55    5.23
  18  -5   2   10.80    6.47
   5  18  -2    0.44    3.89
   5  18  -2   -1.32    2.89
   5  18   2   -0.08    2.22
   5  18   2   -0.47    3.15
 -18   5  -2    1.41    2.59
   5  18   3   -1.31    1.97
 -18   5   3    4.01    4.05
  18  -5   3    4.59    3.68
   5  18  -3    1.19    2.76
   5  18  -3    9.04    4.00
 -18   5  -3   -0.69    3.09
   5  18   4    3.51    1.86
   5  18  -4   -0.02    2.21
   5  18  -4   -0.41    2.79
 -18   5  -4    7.91    4.45
   5  18   5    1.64    1.88
 -18   5   5    7.14    5.75
  18  -5   5    9.21    4.58
   5  18  -5    8.63    5.28
   5  18  -5   13.07    7.36
   5  18   6    7.03    5.71
 -18   5   6    0.12    3.78
  18  -5   6    5.51    5.98
   5  18  -6    4.14    4.98
   5  18  -6    4.57    4.78
   5  18   7   11.02    6.77
 -18   5   7    3.53    5.06
   5  18  -7    9.22    6.24
   5  18  -7    0.88    2.21
 -18   5   8    1.74    1.82
   5  18   8    0.55    2.12
   5  18  -8    4.03    4.10
 -18   5   9    3.85    2.45
 -18   4   0    5.40    3.60
  18  -4   0    7.15    4.20
  18  -4   0    8.00    4.80
   4  18   0   19.10    6.76
   4  18   0   14.83    7.87
 -18   4  -1    3.68    3.43
  18  -4   1    1.94    3.09
  18  -4   1   -1.13    2.51
  18  -4  -1    7.37    4.33
   4  18  -1    2.73    1.98
   4  18  -1    2.23    4.53
   4  18   1   11.25    4.84
   4  18   1    8.99    5.00
  18  -4   2   18.28    6.20
 -18   4   2   13.51    6.60
  18  -4   2   11.74    5.60
  18  -4  -2   13.89    5.52
   4  18  -2   13.75    6.53
   4  18  -2   15.28    7.58
   4  18   2   16.04    5.49
   4  18   2    6.36    3.98
 -18   4  -2   19.28    6.23
   4  18   3    8.55    5.65
  18  -4   3    4.63    3.25
  18  -4   3   -2.00    3.88
   4  18  -3   -0.15    2.46
   4  18  -3    5.93    4.07
 -18   4  -3   -1.38    1.83
   4  18   4    1.29    1.76
  18  -4   4    2.48    3.68
   4  18  -4    6.52    5.75
   4  18  -4   -1.29    3.01
 -18   4  -4    0.51    1.25
   4  18   5    7.02    4.82
  18  -4   5    1.14    4.32
   4  18  -5    9.41    5.79
   4  18  -5    3.99    6.39
   4  18   6    9.02    5.99
 -18   4   6    0.22    2.53
   4  18  -6   -1.54    4.41
   4  18  -6    4.49    5.34
 -18   4   7    5.55    4.09
   4  18   7    7.16    6.18
 -18   4   7    2.88    5.92
  18  -4   7    6.21    6.02
   4  18  -7   -0.81    3.98
 -18   4   8   -4.55    5.03
 -18   4   8   -2.98    4.69
   4  18   8    2.91    4.34
   4  18  -8    8.41    7.60
 -18   4   9    1.05    2.89
 -18   3   0    2.09    4.41
  18  -3   0    1.61    2.15
  18  -3   0    1.36    2.30
   3  18   0    2.06    2.56
 -18   3  -1   17.99    5.44
  18  -3  -1   18.97    6.23
  18  -3   1   16.83    5.68
 -18   3   1   30.00    9.11
  18  -3   1   26.58    7.51
  18  -3  -1   21.48    6.49
   3  18  -1   17.64    6.72
   3  18   1   17.16    5.61
   3  18   1   24.64    8.21
 -18   3  -2    2.19    2.92
  18  -3  -2   -0.72    3.13
  18  -3   2    9.18    4.39
 -18   3   2    2.10    5.79
  18  -3   2   -0.50    2.95
  18  -3  -2    6.85    4.08
   3  18  -2    0.73    3.02
   3  18  -2   -2.44    4.31
   3  18   2    1.67    3.66
   3  18   2    5.78    4.84
   3  18   3    2.54    4.08
  18  -3  -3   -1.57    2.67
  18  -3   3    1.17    2.17
   3  18  -3    3.55    3.61
   3  18  -3    1.70    3.65
   3  18   3    7.44    4.03
 -18   3  -3    0.09    1.79
   3  18   4    4.25    4.69
 -18   3   4   11.85    6.37
  18  -3   4    9.94    6.13
   3  18  -4    9.75    6.28
   3  18  -4   10.67    6.76
 -18   3  -4    9.75    3.40
   3  18   5   11.29    5.32
   3  18  -5   27.13   10.20
   3  18  -5   12.91    6.60
  18  -3  -6   10.72    6.91
 -18   3   6   10.10    5.32
   3  18   6   14.86    6.81
  18  -3   6    2.11    2.98
   3  18  -6    9.82    6.96
   3  18  -6    9.13    5.98
  18  -3  -7    2.20    2.42
 -18   3   7   -0.43    1.68
   3  18   7   13.32    7.00
 -18   3   7    8.47    7.81
   3  18  -7   14.95    8.83
  18  -3  -8    3.34    4.33
 -18   3   8    3.15    2.20
   3  18   8    5.58    4.07
  18  -3   8    2.84    3.98
   3  18  -8    8.26    5.73
  18  -2   0  290.29   24.23
  18  -2   0  296.35   23.08
   2  18   0  331.88   25.96
 -18   2  -1  246.10   21.36
  18  -2  -1  233.79   22.48
  18  -2   1  235.00   21.04
 -18   2   1  231.96   23.96
  18  -2  -1  274.90   21.18
  18  -2   1  230.67   21.30
   2  18  -1  286.24   25.09
   2  18   1  278.92   23.09
   2  18   1  282.34   26.10
  18  -2  -2  105.02   15.58
  18  -2   2   93.90   12.90
 -18   2   2  114.23   17.16
  18  -2  -2  121.99   13.34
  18  -2   2  104.38   15.02
   2  18  -2  119.99   17.59
   2  18  -2  127.60   17.54
   2  18   2  140.78   15.50
   2  18   2  128.97   18.05
 -18   2  -2  109.43   14.00
   2  18   3   36.69    9.48
 -18   2  -3   39.65    8.42
  18  -2  -3   41.46   10.14
  18  -2   3   42.99    8.46
 -18   2   3   41.59   11.10
   2  18  -3   19.94    7.12
   2  18  -3   39.51   10.19
   2  18   3   41.65    8.47
   2  18   4   46.18   11.39
  18  -2  -4   37.45   10.11
  18  -2   4   50.99   11.57
   2  18  -4   66.14   13.71
   2  18  -4   59.90   12.51
  18  -2  -5   12.42    4.44
   2  18   5   16.34    7.14
 -18   2   5   19.68    6.31
  18  -2   5   13.05    6.46
   2  18  -5   13.97    7.26
   2  18  -5   20.89    7.68
  18  -2  -6   -2.52    4.25
   2  18   6   -2.97    3.37
   2  18  -6    1.96    3.62
   2  18  -6    4.36    4.35
  18  -2  -7    5.62    4.66
 -18   2   7   16.21    9.31
   2  18   7   13.89    7.66
  18  -2   7   -0.82    2.08
   2  18  -7   -0.35    2.68
  18  -2  -8    9.41    4.95
 -18   2   8    8.85    5.50
 -18   2   8   13.04    7.09
   2  18   8   26.49    9.82
   2  18  -8   11.09    7.16
 -18   2   9   22.12    8.62
  18  -1   0    0.69    1.70
  18  -1   0    3.42    2.60
   1  18   0   -0.86    3.04
  18  -1  -1    8.30    5.48
  18  -1   1    6.43    3.54
 -18   1   1   14.42    7.23
  18  -1  -1    9.10    4.10
  18  -1   1   15.39    5.57
   1  18  -1    6.91    4.84
   1  18   1   11.19    5.56
   1  18   1    3.07    2.85
  18  -1  -2   22.09    7.19
  18  -1   2   20.70    6.41
 -18   1   2   41.95   10.21
  18  -1   2   24.06    7.00
   1  18  -2   18.79    6.76
   1  18   2   22.98    6.73
   1  18   2   24.08    8.23
   1  18   3   17.84    7.00
 -18   1  -3   24.29    6.21
  18  -1  -3   23.12    7.52
  18  -1   3   29.63    7.15
 -18   1   3   37.09    9.79
  18  -1   3   20.86    7.02
   1  18  -3   30.25    8.87
   1  18  -3   15.98    5.73
   1  18   3   25.48    6.75
   1  18   4   82.42   14.89
  18  -1  -4   71.87   14.06
 -18   1   4   69.88   14.07
   1  18  -4   69.16   13.93
   1  18  -4   85.04   14.77
  18  -1  -5  128.28   18.70
 -18   1   5  125.69   15.75
 -18   1   5  152.39   21.11
  18  -1   5  106.23   17.15
   1  18  -5  117.79   18.50
   1  18   5  119.99   18.23
  18  -1  -6   72.31   14.54
   1  18   6   90.18   16.49
  18  -1   6   77.10   15.09
   1  18  -6   73.04   15.47
  18  -1  -7   81.91   16.12
 -18   1   7   89.72   15.19
 -18   1   7  100.07   18.02
   1  18   7   84.03   16.22
   1  18  -7   87.50   17.54
  18  -1  -8   61.26   14.21
 -18   1   8   41.33   10.68
 -18   1   8   62.84   14.95
   1  18   8   43.39   11.84
   1  18  -8   67.31   15.93
 -18   1   9   39.36   11.16
  18   0   0  197.76   20.01
  18   0   0  208.61   18.97
   0  18   0  196.31   20.37
  18   0  -1  206.69   21.21
  18   0   1  187.33   18.79
  18   0  -1  188.91   17.17
  18   0   1  216.21   20.31
   0  18  -1  219.46   22.28
   0  18   1  205.26   20.10
   0  18   1  171.70   20.35
  18   0  -2  171.67   19.90
  18   0   2  201.22   18.91
  18   0   2  196.61   20.23
   0  18  -2  204.84   22.13
   0  18   2  193.62   19.08
   0  18   2  213.90   22.86
   0  18   3   56.81   12.48
  18   0  -3   66.13   12.62
  18   0   3   51.68    9.18
 -18   0   3   54.53   11.88
  18   0   3   64.87   12.33
   0  18  -3   72.33   13.88
   0  18   3   47.12    8.97
   0  18   4    7.23    4.98
  18   0  -4   13.78    6.48
 -18   0   4    9.89    3.94
 -18   0   4   17.16    8.43
  18   0   4   15.37    6.75
   0  18  -4   18.38    7.53
   0  18   4   25.49    6.89
  18   0  -5    1.08    3.59
   0  18   5    0.04    1.91
 -18   0   5   -2.90    2.23
   0  18  -5   -1.60    4.29
  18   0  -6    0.80    2.55
   0  18   6    4.34    4.33
 -18   0   6   -1.60    3.03
   0  18  -6   -3.18    4.39
  18   0  -7   -0.76    2.74
 -18   0   7    2.93    2.21
   0  18   7    1.51    2.16
   0  18  -7    7.51    6.04
  18   0  -8   -2.46    4.74
 -18   0   8   -0.40    2.47
 -18   0   8   10.23    7.65
   0  18   8   -0.71    4.00
  18   0   8   -1.81    2.97
   0  18  -8    7.20    6.72
 -18   0   9    6.03    2.08
  18   1   0    2.40    2.03
  -1  18   0   -0.41    2.20
  18   1  -1    3.65    4.01
  18   1   1    0.32    3.41
  -1  18  -1    2.42    3.97
  -1  18   1    0.01    2.65
  -1  18   1    5.07    4.58
  18   1  -2   56.36   11.37
  18   1   2   52.66    9.91
 -18  -1   2   60.88   12.20
  -1  18  -2   43.10   10.48
  -1  18   2   50.23    9.81
  -1  18   2   49.58   11.71
  -1  18   3   37.66   10.00
  18   1  -3   31.33    8.54
  18   1   3   36.72    7.84
  -1  18  -3   47.82   11.41
  -1  18   3   42.31    9.11
  -1  18   4   38.61    9.68
  18   1  -4   48.55   11.49
 -18  -1   4   65.47   13.35
  -1  18  -4   57.22   12.84
  -1  18   4   59.62   10.29
  18   1  -5  114.12   17.49
  -1  18   5  102.62   16.73
  -1  18  -5  128.73   19.74
  18   1  -6  104.80   17.38
 -18  -1   6  122.26   16.11
  -1  18   6  111.05   17.72
 -18  -1   6  108.84   18.09
  18   1   6  114.80   18.22
  -1  18  -6  105.57   18.34
  18   1  -7   80.03   15.88
 -18  -1   7   82.22   14.31
  -1  18   7   67.20   14.23
  18   1   7   89.96   16.74
  -1  18  -7   69.22   15.46
  18   1  -8   40.04   11.15
 -18  -1   8   33.51   10.07
 -18  -1   8   49.08   13.40
  18   1   8   47.03   13.11
  -1  18  -8   28.36   10.33
  18   2   0   17.98    6.54
  -2  18   0   14.97    5.96
  18   2  -1    9.91    4.75
  18   2   1   19.42    6.50
  18   2  -1   19.18    5.87
  18   2   1    8.35    3.93
  -2  18  -1   26.51    7.57
  -2  18   1   25.86    7.79
  -2  18   1   22.22    7.18
  18   2  -2   26.57    7.99
  18   2   2   34.08    7.90
  18   2   2   22.69    7.05
  -2  18  -2   30.29    9.10
  -2  18   2   17.95    6.47
  -2  18   2   32.62    9.19
  -2  18   3    1.25    4.53
  18   2  -3    4.51    4.88
 -18  -2   3    7.48    4.08
  18   2   3    4.00    3.60
  18   2   3    1.54    2.72
  -2  18  -3   13.35    7.21
  -2  18   3    7.32    4.39
  -2  18   4    9.53    6.03
  18   2  -4    2.67    3.42
  18   2   4    0.98    2.59
  -2  18  -4   -3.39    3.87
  -2  18   4    4.06    4.02
  18   2  -5    3.98    5.26
  -2  18   5    3.37    5.05
 -18  -2   5   -2.98    3.88
  18   2   5    2.77    3.63
  -2  18  -5    0.45    3.25
  -2  18   5    0.41    2.44
  18   2  -6   -1.35    4.44
  -2  18   6    6.95    5.20
  18   2   6   -3.34    2.71
  -2  18  -6    9.19    4.99
  18   2  -7    6.33    5.51
  -2  18   7    2.17    4.21
  18   2   7   -2.51    2.59
  -2  18  -7   -1.53    2.17
  18   2  -8    7.34    6.28
 -18  -2   8    0.95    2.77
  18   2   8    3.05    5.32
  -2  18  -8    3.07    4.87
  18   3   0    8.43    4.35
  18   3   0    2.17    3.29
  -3  18   0    3.06    2.77
  18   3  -1    5.60    4.82
  18   3   1    7.83    5.56
  18   3   1    5.60    4.18
  -3  18  -1    7.32    5.62
  -3  18   1    1.07    3.87
  -3  18   1    7.64    6.21
  18   3  -2    8.90    5.70
  18   3   2    4.92    4.69
  18   3   2    2.22    1.88
  -3  18  -2    1.91    2.94
  -3  18   2    0.91    3.91
  -3  18   2    4.21    4.09
  -3  18   3   14.61    6.62
  18   3  -3   14.01    7.09
 -18  -3   3   17.81    7.50
  18   3   3   15.98    5.22
  18   3   3   20.69    7.41
  -3  18  -3   20.68    7.63
  -3  18   3   14.07    5.54
  -3  18   4   13.17    6.00
  18   3  -4   26.16    7.80
 -18  -3   4   15.99    7.66
  18   3   4   16.08    5.35
  18   3   4   13.47    5.57
  -3  18  -4   13.94    7.15
  -3  18   4   23.82    6.97
  18   3  -5    2.55    1.90
  -3  18   5    5.72    4.95
 -18  -3   5    5.37    4.61
  18   3   5    7.27    5.93
  -3  18  -5   11.48    7.36
  -3  18   5   12.57    5.49
  18   3  -6    0.53    2.25
  -3  18   6   -3.14    3.79
 -18  -3   6   -2.69    4.48
  -3  18  -6    2.84    5.43
  18   3  -7    6.39    4.40
 -18  -3   7    4.35    4.68
  -3  18   7    7.66    5.78
  -3  18  -7    7.10    6.67
  18   3  -8    4.20    5.07
 -18  -3   8    3.03    4.43
 -18  -3   8    1.99    5.69
  -3  18   8    4.09    3.92
  -3  18  -8    7.86    5.30
 -18  -3   9   -4.64    4.76
  18   4   0    5.94    4.66
  18   4   0    4.19    2.97
  -4  18   0   -3.88    3.77
  18   4  -1   18.43    7.16
  18   4   1   13.96    6.28
  -4  18  -1   12.54    6.11
  -4  18   1   20.14    6.70
  -4  18   1   22.94    7.44
  18   4  -2   25.17    8.01
 -18  -4   2   23.46    7.32
  18   4   2   20.79    7.40
  -4  18  -2   12.75    6.44
  -4  18   2   18.05    6.91
  -4  18   2   17.38    6.56
  -4  18   3    3.41    3.83
  18   4  -3    5.03    4.96
  18   4   3   -0.90    2.28
  -4  18  -3    8.70    5.39
  -4  18   3   -1.24    1.98
  -4  18   4    3.97    5.01
  18   4  -4    5.16    5.52
 -18  -4   4    4.30    5.92
  18   4   4    4.27    3.76
  -4  18  -4    0.89    4.69
  -4  18   4    1.46    1.51
  18   4  -5    3.43    4.57
  -4  18   5   -0.36    2.18
 -18  -4   5    5.52    4.70
  -4  18  -5   10.70    6.96
  -4  18   5    3.49    3.48
  18   4  -6    3.19    4.70
  -4  18   6    6.63    5.81
  -4  18  -6    0.49    4.79
  18   4  -7    0.91    2.16
 -18  -4   7    3.06    4.36
  -4  18   7    3.30    2.91
  -4  18  -7   -0.25    3.40
  18   4  -8    4.96    4.94
 -18  -4   8    8.65    5.30
  -4  18   8    0.26    1.97
  18   4   8   17.32    8.92
  -4  18  -8   11.61    7.99
 -18  -4   9    2.71    3.92
  18   5   0    8.41    5.40
  -5  18   0   -0.27    1.94
  -5  18   0    3.96    3.58
  18   5  -1   11.37    5.00
  18   5   1   18.73    7.23
  18   5  -1   10.29    4.21
  18   5   1   16.51    5.72
  -5  18  -1   10.76    6.50
  -5  18   1   14.36    5.64
  -5  18   1   15.26    6.39
  18   5  -2   64.54   12.51
  18   5   2   44.51    9.02
  18   5   2   49.79   10.57
  -5  18  -2   59.88   12.78
  -5  18   2   60.76   11.47
  -5  18   2   65.94   12.37
  18   5  -3  132.57   18.31
  18   5   3  115.03   15.29
 -18  -5   3  121.16   17.48
  18   5   3   97.08   15.02
  -5  18  -3  134.45   19.13
  -5  18   3  112.36   15.67
  -5  18   3  117.71   16.93
  -5  18   4  109.58   16.37
  18   5   4  118.71   15.63
  18   5  -4  105.32   16.88
  18   5   4  109.39   16.75
  -5  18  -4  123.39   19.17
  -5  18   4  119.97   16.51
  18   5  -5  114.00   18.08
 -18  -5   5  116.08   17.89
  18   5   5  131.15   19.21
  -5  18  -5  113.80   18.68
  -5  18   5  128.05   17.18
  -5  18   5  128.88   18.43
  18   5  -6  143.40   20.49
 -18  -5   6  136.04   20.20
  18   5   6  151.77   21.71
  -5  18  -6  142.07   21.63
  -5  18   6  106.91   15.63
  -5  18   6  124.82   18.67
  18   5  -7   68.32   14.58
 -18  -5   7   89.81   17.28
  -5  18   7   70.09   14.42
  18   5   7   60.56   13.91
  -5  18  -7   73.07   16.32
  18   5  -8   42.54   12.07
 -18  -5   8   35.78   10.98
  -5  18   8   51.48   12.72
  -5  18  -8   34.80   11.18
 -18  -5   9   35.06   10.63
  18   6   0  129.98   17.54
  18   6   0  131.80   15.79
  -6  18   0  125.32   17.54
  -6  18   0  114.75   16.33
  18   6   1  118.55   16.20
  18   6  -1   98.41   15.37
  18   6  -1  117.91   14.13
  18   6   1  106.08   14.59
  -6  18   1  102.66   15.98
  -6  18  -1  101.41   16.12
  -6  18   1   93.23   14.62
  -6  18   2   39.05    9.43
  18   6  -2   47.50   10.95
  18   6   2   39.74    9.66
  -6  18  -2   41.94   11.32
  -6  18   2   42.53   10.24
  -6  18   3   44.92   10.54
  18   6  -3   49.41   11.05
  18   6   3   63.89   13.11
  -6  18  -3   53.28   11.89
  -6  18   3   51.25   11.00
  -6  18   4   25.93    8.01
  18   6  -4   36.12   10.32
 -18  -6   4   27.04    8.58
  18   6   4   32.26    9.73
  18   6   4   42.20    9.66
  -6  18  -4   36.95   10.64
  -6  18   4   24.01    7.82
  18   6  -5    7.02    6.08
  -6  18   5    0.93    2.78
 -18  -6   5    7.49    6.24
  18   6   5   10.06    5.76
  -6  18  -5    0.75    4.02
  -6  18   5    8.30    5.55
  -6  18   6    4.76    4.60
  18   6  -6    5.87    4.99
 -18  -6   6    9.01    5.91
  -6  18   6   -1.16    3.81
  -6  18  -6   -2.50    2.90
  18   6  -7   14.74    7.38
 -18  -6   7    9.02    4.95
  -6  18   7    5.64    4.54
  -6  18  -7   11.10    6.75
  18   6  -8   20.92    9.13
  -6  18   8    6.74    4.88
  18   7   0    1.73    3.09
  18   7   0    4.95    4.10
  -7  18   0    1.91    3.89
  -7  18   0    2.70    3.67
  18   7  -1   10.21    4.99
  18   7   1   13.33    6.19
  18   7   1    8.44    5.39
  -7  18  -1   10.17    5.73
  -7  18   1   16.75    7.38
  -7  18   1    7.34    3.81
  -7  18   2   23.27    7.62
  18   7  -2   32.98    9.50
  18   7   2   28.16    8.52
  18   7   2   34.55    9.20
  -7  18  -2   44.14   11.77
  -7  18   2   29.93    9.20
  -7  18   3   55.58   11.76
 -18  -7   3   54.43   12.03
  18   7  -3   60.41   12.71
  18   7   3   38.76   10.36
  18   7   3   46.01   10.49
  -7  18   3   42.73   10.40
  -7  18   4   59.46   12.23
  18   7  -4   90.36   16.21
  18   7   4   60.63   12.92
  18   7   4   70.03   12.73
  -7  18  -4   61.19   13.79
  -7  18   4   70.10   13.05
  -7  18   5   85.74   15.22
  18   7  -5   88.81   16.38
  18   7   5   86.58   15.80
  -7  18  -5  105.50   18.17
  -7  18   5   84.54   14.58
  -7  18   6  106.32   16.32
  18   7  -6   76.71   15.40
 -18  -7   6   71.14   14.26
  -7  18   6   86.68   15.92
  18   7   6   82.71   15.93
  -7  18  -6   94.19   18.15
  -7  18   7   52.91   11.97
  18   7  -7   37.58   11.23
 -18  -7   7   22.34    8.33
  18   7   7   45.06   12.40
  -7  18  -7   68.70   15.24
 -18  -7   8   10.50    6.71
  -7  18   8   15.74    6.91
 -18  -7   9   19.13    9.69
  18   8   0  103.34   16.12
  -8  18   0   91.72   14.28
  -8  18   0  100.38   16.14
  18   8  -1   80.74   14.58
  18   8  -1   76.26   11.63
  18   8   1   72.57   13.17
  18   8   1   84.85   13.97
  -8  18  -1   74.54   14.27
  -8  18   1   72.63   13.52
  -8  18   1   59.84   11.60
  -8  18   2   23.63    7.54
  18   8  -2   18.76    7.16
  18   8   2   36.83    9.64
  18   8   2   35.97    9.90
  -8  18  -2   20.28    7.46
  -8  18   2   19.01    6.98
  -8  18   3   12.35    5.02
  18   8  -3   37.16   10.66
  18   8   3    7.36    5.98
  18   8   3   35.44    9.73
  -8  18  -3   15.91    6.14
  -8  18   3    5.01    3.83
  -8  18   4    7.25    4.60
 -18  -8   4   17.25    6.68
  18   8  -4    9.55    5.73
  18   8   4    9.63    5.40
  18   8   4   21.62    8.28
  -8  18  -4   10.11    6.77
  -8  18   4   11.87    5.99
 -18  -8   5    5.96    2.96
  -8  18   5    5.19    5.13
  18   8  -5    7.67    5.51
  18   8   5   -0.40    3.67
  -8  18  -5    4.40    6.06
  -8  18   5    4.85    4.21
  -8  18   6   -1.67    2.71
  18   8  -6   -1.33    3.53
 -18  -8   6    5.11    5.81
  -8  18   6    4.77    5.09
  18   8   6    3.14    6.11
  -8  18  -6    3.74    5.34
  -8  18   7   19.92    7.83
  18   8  -7   27.09   10.23
 -18  -8   7   16.30    7.34
  18   8   7   11.36    6.92
  -8  18   7   13.36    7.02
  -8  18  -7   20.97    8.79
  -8  18   8   11.44    7.09
 -18  -8   9   -2.56    4.83
  18   9   0   -0.08    2.66
  18   9   0    5.46    4.42
  -9  18   0    1.13    3.90
  -9  18   0   -2.09    2.74
  18   9  -1    4.42    3.72
  18   9  -1    3.34    3.86
  18   9   1   -1.38    3.92
  -9  18  -1   -1.20    2.57
  -9  18  -1    0.25    2.42
  -9  18   1    5.04    4.33
  -9  18   1    7.21    5.39
  -9  18   2    2.95    2.75
  18   9  -2    8.92    6.31
  18   9   2    4.78    4.53
  18   9   2    1.67    3.13
  -9  18  -2    3.92    3.52
  -9  18   2    3.74    4.93
  -9  18   3    6.49    3.86
  18   9  -3    3.02    4.91
  18   9   3    6.21    5.57
  18   9   3    2.95    5.46
  -9  18  -3    2.19    2.44
  -9  18   3    1.30    2.64
  -9  18   4    9.55    5.81
  18   9  -4    7.22    4.17
  18   9   4    7.73    5.62
  18   9   4   21.28    8.02
  -9  18  -4   11.87    6.30
  -9  18   4    3.23    3.50
 -18  -9   5    6.17    5.61
  -9  18   5    3.87    3.49
  18   9  -5    6.66    5.73
  18   9   5    8.21    5.82
  -9  18  -5    0.51    2.00
  -9  18   5    2.61    2.31
  -9  18   6    6.09    3.83
  18   9  -6   13.85    8.31
  -9  18   6    5.30    4.82
  18   9   6    2.60    4.96
  -9  18  -6    0.62    3.08
  -9  18   7    7.99    5.89
 -18  -9   7   17.27    7.51
  18   9  -7    5.58    5.57
  -9  18   7   11.81    7.21
  -9  18  -7   14.04    8.72
 -18  -9   8    3.98    2.95
  -9  18   8   10.56    6.89
  18  10   0   12.59    6.14
  18  10   0   12.84    5.46
 -10  18   0   14.94    7.36
 -10  18   0   14.69    5.53
 -10  18   1   22.91    7.52
  18  10  -1   27.46    9.37
  18  10   1   35.75    9.18
  18  10   1   22.92    7.67
 -10  18  -1   23.38    8.57
 -10  18  -1   15.33    6.20
 -10  18   1   33.66    9.85
 -10  18   2   28.06    7.98
  18  10  -2   26.27    9.55
  18  10   2   29.71    9.06
  18  10   2   20.54    8.14
 -10  18  -2   16.28    7.66
 -10  18   2   20.77    8.03
 -10  18   3   25.90    7.68
  18  10  -3   17.52    8.22
  18  10   3   24.11    8.44
 -10  18  -3   27.99    9.53
 -10  18   3   30.13    9.26
 -10  18   4   10.49    4.73
  18  10  -4   10.36    4.98
  18  10   4    9.86    6.01
  18  10   4    9.61    5.21
 -10  18  -4   13.52    7.79
 -10  18   4    8.60    5.50
 -18 -10   5    0.66    2.69
  18  10  -5    1.84    4.38
 -10  18   5   11.03    6.20
  18  10   5    5.88    6.40
 -10  18  -5    4.08    2.22
 -10  18   5    5.76    5.06
 -10  18   6   -1.60    4.56
 -18 -10   6    4.12    3.73
  18  10  -6    6.54    7.00
  18  10   6   -2.89    3.97
 -10  18  -6    7.67    4.80
 -10  18   7    3.83    3.31
 -18 -10   7   -1.01    3.10
 -10  18   7    7.38    5.98
 -10  18   8    7.58    5.70
  18  11   0   -3.10    4.81
 -11  18   0    2.15    2.46
 -11  18   0    3.03    2.82
 -11  18   1    1.01    2.52
  18  11   1    1.67    3.60
  18  11  -1   -0.29    4.14
  18  11   1   13.25    7.25
 -11  18  -1   -0.62    5.05
 -11  18  -1    3.64    3.50
 -11  18   1   -0.53    3.49
 -11  18   2    4.75    2.52
  18  11   2    5.61    4.34
  18  11  -2   -0.25    4.50
  18  11   2    0.41    2.54
 -11  18  -2    0.95    2.77
 -11  18   2   11.27    6.04
 -11  18   3   -1.40    3.49
  18  11  -3   -0.28    4.01
  18  11   3    2.84    5.11
 -11  18  -3   13.06    8.96
 -11  18   3    0.25    1.61
 -11  18   4    2.12    4.01
  18  11  -4    6.37    4.81
  18  11   4    0.97    2.63
 -11  18  -4    9.95    7.87
 -11  18   4    3.34    3.21
 -18 -11   5    3.96    3.57
  18  11  -5    8.48    6.54
 -11  18   5    6.04    3.84
  18  11   5   -0.47    1.88
 -11  18  -5    1.42    2.21
 -11  18   5    1.70    3.31
 -11  18   6    0.95    2.44
  18  11  -6    1.73    5.75
  18  11   6    4.71    7.39
 -11  18   6   -0.80    2.96
 -11  18  -6    1.62    4.43
 -11  18   7   -1.53    3.63
  18  12   0  312.95   30.83
 -12  18   0  241.83   27.07
  18  12  -1  272.37   29.01
  18  12   1  219.89   25.79
 -12  18  -1  246.31   27.32
 -12  18   1  224.26   26.14
  18  12   2  150.53   20.98
  18  12   2  130.35   19.16
  18  12  -2  129.15   20.18
 -12  18   2  121.48   19.06
 -12  18  -2  115.36   18.96
  18  12  -3   80.75   15.93
  18  12   3   71.22   14.80
 -12  18  -3   69.04   14.95
 -12  18   3   59.95   13.38
  18  12  -4   69.48   15.16
  18  12   4   43.73   12.14
  18  12   4   62.81   13.88
 -12  18  -4   69.35   15.30
 -12  18   4   52.60   12.47
  18  12  -5   16.32    6.94
  18  12   5   27.22   10.20
 -12  18  -5   18.16    9.22
 -12  18   5    7.96    5.79
 -12  18   6    4.32    4.15
 -12  18  -6   -0.84    3.17
  18  13   0   -3.34    3.78
 -13  18   0   -1.73    3.94
  18  13  -1    1.49    2.43
  18  13   1    5.32    4.20
 -13  18  -1    7.88    5.70
 -13  18   1   10.24    6.87
  18  13  -2    4.64    3.93
  18  13   2   10.93    6.07
 -13  18  -2    0.67    3.50
 -13  18   2   12.35    7.14
  18  13   3   19.25    6.92
  18  13  -3   11.53    5.69
  18  13   3   22.22    7.96
 -13  18  -3   34.92   11.19
 -13  18   3   18.64    8.62
  18  13   4   44.84   13.06
  18  13  -4   40.55   12.27
  18  13   4   28.82   10.02
 -13  18  -4   22.17    8.72
 -13  18   4   24.78    8.81
 -13  18   5   24.19    8.65
  18  13  -5   59.43   14.54
 -13  18  -5   36.54   12.06
 -13  18   6   26.10    9.16
  18  14   0  158.13   23.14
 -14  18   0  145.75   21.71
  18  14  -1  116.26   19.90
  18  14   1  111.02   19.12
 -14  18   1  120.21   20.28
 -14  18  -1  122.27   19.85
  18  14  -2   80.17   16.41
  18  14   2   80.71   16.49
 -14  18  -2   61.01   14.78
 -14  18   2   91.95   16.95
  18  14  -3   48.02   12.82
  18  14   3   54.50   13.80
 -14  18  -3   59.70   14.42
 -14  18   3   48.46   12.88
  18  14   4   26.35   10.23
  18  14  -4   28.46   10.14
  18  14   4   37.15   10.76
 -14  18  -4   22.36    8.82
 -14  18   4   53.47   13.29
 -14  18   5   16.48    6.17
  18  14   5    7.45    6.91
  18  15   0    1.42    3.36
 -15  18   0    3.34    6.76
  18  15  -1    0.92    2.49
  18  15   1    9.81    6.87
 -15  18  -1    8.88    7.10
 -15  18   1    5.83    4.66
  18  15  -2   13.37    8.56
  18  15   2    1.78    4.25
 -15  18  -2    3.31    4.37
 -15  18   2    0.27    2.97
  18  15  -3   13.03    8.61
  18  15   3    6.00    4.17
 -15  18  -3   -3.60    5.30
 -15  18   3   -0.05    5.10
  18  15   4    5.57    3.13
  18  15   5   19.44    8.70
  18  16   0   -0.06    3.33
 -16  18   0   -1.34    2.31
  18  16  -1    4.52    5.97
  18  16   1   -0.59    3.53
 -16  18  -1    5.23    5.48
 -16  18   1    0.99    3.47
  18  16   2   -2.53    5.75
  18  16   3   -4.06    3.90
  18  16   4   -3.11    3.66
  18  16   5    3.71    4.12
  18  17   2   -2.86    7.21
  18  17   3    7.31    8.20
  16  19   0    5.62    3.50
  16  19  -1    4.50    4.09
  16  19   1   -7.10    4.94
  16  19   2   11.51    6.77
  15  19   0    3.60    4.38
  15  19   0   12.65    6.87
 -19  15   0   18.99    8.32
  15  19  -1   22.56   10.79
  15  19   1    9.95    5.80
 -19  15  -1   11.03    6.85
  15  19   1    2.41    3.54
 -19  15   1   14.89    7.38
  15  19   2    8.50    5.97
  15  19   2    2.49    4.66
 -19  15  -2    5.00    4.28
  15  19   3    0.30    2.93
 -19  15   3    6.85    6.10
  15  19   3    0.80    3.95
  15  19   4    5.59    4.91
  15  19   5   -3.93    3.93
  14  19   0   -3.03    3.77
  14  19   0   -0.95    2.21
 -19  14   0   -1.10    3.27
  14  19  -1    5.04    4.90
  14  19   1    8.14    6.52
  14  19   1    1.79    2.51
 -19  14  -1   -1.56    4.20
 -19  14   1    5.14    5.87
  14  19   2   26.18    8.77
  14  19  -2   15.81    7.66
  14  19   2    5.28    5.76
 -19  14  -2   24.52    9.12
 -19  14   2    6.79    4.10
  14  19   3    7.63    5.50
 -19  14   3   10.84    5.28
  14  19  -3   -2.29    5.44
  14  19   3    0.97    3.61
 -19  14  -3   11.49    6.72
  14  19   4    0.28    4.65
 -19  14   4    6.31    4.93
  14  19   4   12.80    7.03
 -19  14  -4   13.11    7.05
  14  19   5    6.56    5.08
 -19  14   5    6.71    6.27
 -19  14  -5   10.00    7.02
  13  19   0   97.93   18.58
  13  19   0  101.40   16.92
 -19  13   0   91.38   17.13
  13  19  -1  106.46   19.21
  13  19   1  109.33   20.00
  13  19   1   96.74   16.69
 -19  13  -1   86.08   16.63
 -19  13   1   89.30   17.11
 -19  13   2   58.95   14.02
 -19  13   2   67.15   13.84
  13  19  -2   60.88   14.74
  13  19   2   63.56   15.40
 -19  13  -2   66.97   14.67
  13  19   2   83.54   15.57
 -19  13   3   47.70   12.57
  13  19   3   47.46   12.02
  13  19  -3   60.33   15.38
  13  19   3   55.72   14.37
 -19  13  -3   49.79   12.75
  13  19   4   37.77   11.40
 -19  13   4   23.21    8.06
  13  19  -4   35.53   11.94
 -19  13  -4   28.67   10.13
  13  19   5    8.05    5.78
 -19  13  -5    2.20    4.31
  13  19   6   -0.02    2.23
 -19  13  -6    6.84    4.91
  12  19   0    0.34    5.75
  12  19   0   11.85    7.28
 -19  12   0    0.43    2.23
  12  19  -1   -1.69    4.64
  12  19   1    1.93    2.04
 -19  12  -1    0.37    2.49
 -19  12   1    5.38    4.96
 -19  12   2   -1.90    2.25
  12  19  -2    4.72    3.99
  12  19  -2    5.28    5.38
  12  19   2   10.71    6.64
 -19  12  -2    4.22    3.82
  12  19   2    5.24    4.71
 -19  12   3   16.28    7.73
  12  19   3   14.52    6.36
 -19  12   3   21.07    8.52
  12  19  -3   18.25    9.24
  12  19   3   16.00    7.39
 -19  12  -3   10.61    6.21
 -19  12   4   13.96    8.12
  12  19   4   18.75    7.23
 -19  12   4   20.17    7.64
  12  19  -4   27.36   10.24
  12  19   4   14.41    7.78
 -19  12  -4   16.46    7.20
  12  19   5   10.26    5.72
 -19  12   5    7.36    5.45
  12  19  -5   18.92    9.19
 -19  12  -5   11.17    6.72
  12  19   6   -0.58    2.93
 -19  12  -6    4.31    4.41
  11  19   0  234.49   28.27
  11  19   0  236.40   25.85
 -19  11   0  248.11   27.01
  11  19  -1  304.97   31.93
  11  19   1  261.17   30.27
  11  19   1  238.62   26.22
 -19  11  -1  269.24   27.98
 -19  11   1  295.91   29.69
  11  19  -2  187.82   25.28
  11  19   2  237.03   28.43
  11  19  -2  228.32   24.34
 -19  11  -2  220.11   25.17
  11  19   2  219.96   25.20
 -19  11   2  214.41   25.87
 -19  11   3   96.82   17.87
  11  19   3  101.51   17.23
 -19  11   3  101.19   17.18
  11  19  -3   84.99   17.38
  11  19   3  121.94   20.43
 -19  11  -3   91.79   16.37
  11  19   4   31.92   10.06
 -19  11   4   49.09   12.55
  11  19  -4   35.32   11.37
  11  19   4   23.15    9.03
 -19  11  -4   34.43   10.03
  11  19   5    7.76    4.04
 -19  11   5   18.03    8.54
  11  19  -5   27.65   10.90
 -19  11  -5   13.94    6.60
  11  19   6    4.32    4.46
  11  19  -6   -5.91    3.50
  11  19  -7   17.57    7.08
  10  19   0    4.76    6.06
 -19  10   0   -0.15    3.41
 -19  10   1    8.37    6.72
 -19  10   1    1.03    2.45
  10  19  -1    5.46    4.10
  10  19  -1   10.77    6.11
  10  19   1   10.80    7.22
  10  19   1   16.27   13.10
 -19  10  -1    7.14    6.39
 -19  10   2    1.96    2.23
 -19  10   2    4.38    4.31
  10  19  -2    3.20    3.62
  10  19  -2   10.55    6.94
  10  19   2    6.74    5.02
 -19  10  -2   10.52    6.81
  10  19   2    4.01    3.92
  10  19   3    3.31    3.69
 -19  10   3    0.77    2.70
 -19  10   3    3.64    3.50
  10  19  -3   -0.39    4.62
  10  19  -3    2.03    4.00
 -19  10  -3   -0.06    2.74
  10  19   4   -0.91    2.26
 -19  10   4    0.02    2.72
  10  19  -4   -1.28    2.52
 -19  10  -4    2.08    3.13
  10  19   5    4.51    4.12
 -19  10   5    1.53    3.53
  10  19  -5    9.94    6.31
 -19  10  -5    1.15    1.90
  10  19   6   10.19    6.21
 -19  10   6   14.07    7.79
  10  19  -6   18.50    8.79
  10  19  -7    5.97    3.82
   9  19   0  124.71   20.59
 -19   9   0  141.70   19.39
 -19   9   1  100.45   16.86
 -19   9   1  108.58   17.12
   9  19  -1  120.00   16.75
   9  19  -1  132.58   20.35
   9  19   1  108.93   18.85
   9  19   1  109.70   17.48
 -19   9  -1  109.26   16.80
 -19   9   2   49.38   11.96
 -19   9   2   58.28   12.84
   9  19  -2   52.96   11.64
   9  19  -2   49.35   12.96
   9  19   2   36.62   10.67
   9  19   2   41.38   11.39
 -19   9  -2   44.00   11.17
   9  19   3    7.86    5.19
 -19   9   3   23.66    9.21
 -19   9   3   26.86    9.92
   9  19  -3   19.20    7.51
   9  19  -3   10.45    5.10
   9  19   3   15.10    6.95
 -19   9  -3   10.44    5.79
   9  19   4   14.03    6.88
 -19   9   4   23.03    9.48
   9  19  -4   30.32   10.01
   9  19  -4   26.04    9.52
 -19   9  -4   24.25    8.24
   9  19   5    3.28    3.59
 -19   9   5   17.24    7.66
  19  -9   5    3.02    4.10
   9  19  -5   15.10    7.06
 -19   9  -5    8.63    5.70
   9  19   6    5.18    3.93
  19  -9   6    4.35    5.49
   9  19  -6    7.38    6.88
   9  19  -7    6.74    6.43
   8  19   0    3.54    2.99
   8  19   0   -1.43    2.93
 -19   8   0   -0.94    3.47
 -19   8   1    1.71    2.40
 -19   8   1    5.99    5.28
   8  19  -1   -3.13    2.59
   8  19  -1    1.00    2.68
   8  19   1    3.45    5.05
   8  19   1   -1.75    2.30
 -19   8  -1   -0.04    4.14
 -19   8   2    1.29    3.58
 -19   8   2    0.86    3.81
   8  19  -2    3.50    3.91
   8  19  -2    2.84    3.11
   8  19   2    1.41    3.35
 -19   8  -2    0.22    2.39
   8  19   3    2.83    5.52
 -19   8   3    4.83    5.20
   8  19  -3    1.88    5.02
   8  19  -3    2.17    4.87
 -19   8  -3    0.83    1.96
   8  19   4   10.40    6.15
 -19   8   4    2.37    2.45
  19  -8   4   -1.57    2.44
   8  19  -4    3.13    4.33
   8  19  -4   -3.28    5.04
 -19   8  -4   -0.73    2.22
   8  19   5   -0.70    2.55
 -19   8   5   -2.68    3.91
  19  -8   5    0.47    4.23
   8  19  -5    2.03    4.44
   8  19  -5    7.79    5.60
 -19   8  -5   -2.34    1.94
   8  19   6    0.32    2.40
   8  19  -6   -1.57    4.73
   8  19   7    1.29    1.77
   8  19  -7    6.50    6.18
 -19   7   0   21.08    7.52
   7  19   0   34.64    8.63
   7  19   0   32.79   10.05
 -19   7   1    8.13    6.41
 -19   7   1    3.99    5.19
   7  19  -1    7.51    4.02
   7  19  -1    6.79    4.04
   7  19   1    9.97    5.76
   7  19   1    5.76    4.38
 -19   7  -1    1.62    2.11
 -19   7   2   13.11    5.98
  19  -7   2    8.16    4.39
 -19   7   2    9.94    5.47
   7  19  -2   12.84    6.52
   7  19  -2   12.97    7.10
   7  19   2    3.19    4.44
   7  19   2    8.99    5.08
 -19   7  -2   14.05    6.83
   7  19   3   12.11    6.19
 -19   7   3    9.58    7.71
  19  -7   3    9.86    5.27
   7  19  -3   20.14    8.18
   7  19  -3   15.62    7.29
 -19   7  -3    7.58    4.79
   7  19   4   -0.94    3.16
 -19   7   4    0.83    2.67
  19  -7   4    5.97    4.68
   7  19  -4   11.58    6.21
   7  19  -4    8.02    5.54
 -19   7  -4    1.34    3.68
   7  19   5    5.21    4.11
 -19   7   5    4.70    4.67
  19  -7   5    0.22    3.32
   7  19  -5    9.47    6.51
   7  19  -5    3.83    5.21
   7  19   6    7.35    5.12
  19  -7   6    0.74    2.16
   7  19  -6    1.64    5.60
   7  19  -6    1.76    4.83
   7  19   7    5.01    3.56
   7  19  -7    1.10    3.91
 -19   6   0   -3.03    2.36
   6  19   0    1.13    3.16
 -19   6  -1   21.57    6.92
 -19   6   1   18.62    7.33
  19  -6   1    5.18    3.83
 -19   6   1   13.18    7.00
   6  19  -1    9.80    5.78
   6  19  -1   23.54    9.04
   6  19   1    8.12    3.90
   6  19   1   14.98    7.54
   6  19   1   12.80    6.07
  19  -6   2   24.58    7.13
 -19   6   2   22.44    8.03
  19  -6   2   32.57    8.32
   6  19  -2   33.04    9.12
   6  19  -2   20.03    7.79
   6  19   2   26.10    8.02
 -19   6  -2   38.68    9.72
   6  19   3   53.10   12.68
 -19   6   3   47.41   11.56
  19  -6   3   27.21    8.70
   6  19  -3   66.05   13.30
   6  19  -3   50.12   12.43
 -19   6  -3   55.87   11.40
   6  19   4   82.54   15.58
 -19   6   4   84.92   16.07
  19  -6   4   68.57   14.04
   6  19  -4   54.78   12.63
   6  19  -4   88.40   16.41
 -19   6  -4   86.80   13.93
   6  19   5   44.24   11.32
 -19   6   5   50.80   12.91
  19  -6   5   64.17   13.95
   6  19  -5   61.50   14.17
   6  19  -5   47.53   11.92
   6  19   6   50.89   13.16
   6  19  -6   59.26   14.43
   6  19  -6   57.73   13.39
   6  19   7   39.36   11.72
 -19   6   7   30.53   10.56
  19  -6   7   46.09   12.91
   6  19  -7   40.14   12.43
 -19   5   0   22.99    7.41
  19  -5   0   23.93    7.46
  19  -5   0   25.45    7.69
   5  19   0   37.62    9.31
 -19   5  -1   26.24    8.18
 -19   5   1   43.14   10.06
  19  -5   1   38.10    9.11
 -19   5   1   27.00    8.41
  19  -5   1   42.79    9.60
  19  -5  -1   29.21    7.78
   5  19  -1   32.85    8.68
   5  19  -1   36.00   10.40
   5  19   1   37.72    8.82
   5  19   1   36.58    9.92
   5  19   1   41.76   10.51
  19  -5   2   24.74    7.05
 -19   5   2   28.55    9.63
  19  -5   2   27.88    8.62
   5  19  -2   24.86    8.18
   5  19  -2   30.73    9.96
   5  19   2   11.27    5.80
 -19   5  -2   25.58    7.59
   5  19   3   30.72    9.18
 -19   5   3   28.30    9.03
   5  19  -3   18.93    7.63
   5  19  -3   20.46    8.09
 -19   5  -3   22.01    6.74
   5  19   4   22.61    8.03
 -19   5   4   31.64   10.22
  19  -5   4   30.76    8.73
   5  19  -4   20.29    8.52
   5  19  -4   24.91    8.13
 -19   5  -4   23.65    7.05
   5  19   5   13.52    7.15
 -19   5   5    7.69    6.38
   5  19  -5   13.50    6.95
   5  19  -5   15.77    7.20
   5  19   6    1.63    4.74
  19  -5   6   -2.05    2.86
   5  19  -6    6.43    7.43
   5  19  -6    0.76    4.01
   5  19   7   15.99    8.46
 -19   5   7    8.68    7.19
  19  -5   7   10.14    5.76
   5  19  -7    5.79    4.75
 -19   4   0   -1.64    2.28
  19  -4   0    1.36    2.52
  19  -4   0    5.45    3.83
   4  19   0   -0.84    1.88
   4  19   0    4.75    5.65
 -19   4  -1   24.88    7.52
  19  -4  -1   24.74    7.49
  19  -4   1   19.46    6.46
 -19   4   1   25.05    9.07
  19  -4  -1   30.37    7.73
   4  19  -1   19.99    7.00
   4  19   1   29.18    8.18
   4  19   1   16.12    6.57
  19  -4  -2   83.72   14.50
  19  -4   2   97.29   13.56
 -19   4   2   86.78   15.31
  19  -4   2   91.09   14.63
   4  19   2  100.71   13.36
   4  19  -2   73.47   13.58
   4  19  -2   94.52   16.33
 -19   4  -2   94.64   13.88
   4  19   2   76.68   14.47
 -19   4   3  117.84   18.03
  19  -4   3  107.97   16.32
   4  19  -3  112.14   17.49
   4  19  -3  117.32   18.38
   4  19   3  121.10   18.47
 -19   4  -3  106.12   14.61
 -19   4   4  150.67   21.21
   4  19  -4  145.64   20.12
   4  19  -4  162.47   21.91
   4  19   4  146.95   20.76
 -19   4   5  161.91   22.78
  19  -4   5  144.99   20.77
   4  19  -5  145.08   20.22
   4  19  -5  147.84   21.58
   4  19   5  123.41   19.24
 -19   4   6  194.76   25.50
  19  -4   6  162.13   22.81
   4  19  -6  134.12   19.56
   4  19  -6  150.12   22.81
   4  19   6  166.60   22.99
  19  -4  -7  114.81   19.50
   4  19   7  129.35   20.72
 -19   4   7  112.78   20.00
  19  -4   7  143.65   21.88
   4  19  -7  149.91   23.99
 -19   4   8   52.33   12.44
  19  -3   0    3.24    3.90
  19  -3   0    4.97    4.36
   3  19   0    9.33    5.27
 -19   3  -1    8.80    4.91
  19  -3  -1    5.87    5.17
  19  -3   1    0.81    2.27
  19  -3   1    2.24    2.91
  19  -3  -1    4.52    3.66
   3  19  -1    0.19    3.99
   3  19   1   -0.25    2.03
   3  19  -1    2.74    3.56
   3  19   1   -2.90    3.29
 -19   3  -2   -1.88    2.83
  19  -3  -2    1.97    1.97
  19  -3   2    0.22    1.28
   3  19  -2    0.57    4.97
   3  19   2    4.83    2.33
   3  19   2    1.18    2.27
 -19   3  -3    1.57    2.71
   3  19   3    5.94    5.81
  19  -3  -3    3.19    3.34
 -19   3   3    6.76    6.86
  19  -3   3    5.34    5.03
   3  19  -3    3.45    3.17
   3  19  -3   -1.71    4.37
   3  19   4    2.96    3.39
  19  -3  -4    1.28    4.39
 -19   3   4    6.08    5.54
   3  19  -4    8.30    5.54
   3  19  -4    6.08    4.85
  19  -3  -5    2.07    4.69
   3  19   5   -1.15    4.57
 -19   3   5    3.68    5.52
  19  -3   5    9.43    5.98
   3  19  -5    1.71    3.15
   3  19  -5   -3.61    2.16
  19  -3  -6    1.21    3.66
   3  19   6   -2.13    1.91
 -19   3   6    2.10    3.78
   3  19  -6    1.55    3.73
   3  19  -6    4.75    5.33
  19  -3  -7   10.15    5.91
 -19   3   7   -2.14    3.28
   3  19   7    5.76    5.14
 -19   3   7   12.46    9.01
  19  -3   7   -2.75    4.39
   3  19  -7    5.93    6.75
 -19   3   8   -6.83    6.99
  19  -2   0    0.62    2.95
   2  19   0    8.69    5.19
  19  -2  -1    1.55    2.35
  19  -2   1    0.92    3.05
   2  19  -1    7.25    5.10
   2  19   1    2.28    2.95
   2  19   1    4.69    4.59
 -19   2  -2    9.22    3.69
  19  -2  -2    5.77    3.72
  19  -2   2    6.90    4.07
   2  19  -2   19.29    7.34
   2  19  -2    8.53    6.36
   2  19   2    6.36    3.30
   2  19   2    3.26    2.10
   2  19   3   10.04    5.74
 -19   2  -3    9.31    4.15
  19  -2  -3   11.76    5.81
  19  -2   3   15.90    5.24
  19  -2   3   14.39    5.64
   2  19  -3   13.81    6.95
   2  19  -3   14.93    6.85
   2  19   3   20.18    6.05
   2  19   4   15.94    7.51
  19  -2  -4   24.16    8.16
 -19   2   4   18.16    6.93
  19  -2   4   16.40    6.60
   2  19  -4   18.54    7.18
  19  -2  -5   17.65    8.39
   2  19   5   16.51    7.52
   2  19  -5   12.73    6.90
   2  19  -5   24.11    7.64
  19  -2  -6    0.12    3.62
 -19   2   6   13.66    6.38
   2  19   6    2.57    2.80
  19  -2   6    9.50    6.12
   2  19  -6   18.79    8.21
   2  19  -6   10.44    5.77
  19  -2  -7   14.78    7.49
   2  19   7   40.72   11.87
  19  -2   7   24.66   10.33
   2  19  -7   20.23    8.78
  19  -1   0    3.40    2.57
   1  19   0    1.67    2.83
  19  -1  -1    8.40    5.40
  19  -1   1    4.88    2.83
  19  -1   1   -0.48    1.60
   1  19  -1   -0.29    2.83
   1  19   1   -1.21    1.97
   1  19   1    3.74    3.57
  19  -1  -2   -3.04    3.02
  19  -1   2    1.08    1.82
 -19   1   2    6.13    6.09
   1  19  -2    8.00    4.62
   1  19   2    9.17    5.11
   1  19   2    6.11    4.17
   1  19   3   16.08    7.22
  19  -1  -3   15.08    7.04
  19  -1   3   16.06    5.61
   1  19  -3    6.14    3.26
   1  19   3   18.81    5.75
   1  19   4    9.19    6.04
  19  -1  -4    5.47    3.93
 -19   1   4    6.07    6.46
   1  19  -4    7.35    4.34
  19  -1  -5    6.15    5.50
   1  19   5    7.05    5.15
  19  -1   5    1.41    4.07
   1  19  -5   -3.08    3.02
   1  19  -5   10.88    4.96
  19  -1  -6   -0.85    2.26
   1  19   6    9.16    5.76
  19  -1   6   11.99    6.90
   1  19  -6    3.07    4.34
  19  -1  -7    6.91    6.21
   1  19   7    1.07    2.43
   1  19  -7   -1.26    4.17
 -19   1   8    5.09    3.17
 -19   1   9    0.52    3.85
  19   0   0   -1.11    1.77
  19   0   0    1.58    2.77
   0  19   0   -1.24    3.98
  19   0  -1    6.26    4.48
  19   0   1   -2.97    3.20
  19   0   1    1.37    2.09
   0  19  -1    1.70    1.86
   0  19   1   -2.98    3.58
  19   0  -2   19.53    7.41
  19   0   2   28.07    7.48
  19   0   2   24.90    7.65
   0  19  -2   28.34    8.86
   0  19   2   24.46    7.05
   0  19   2   28.98    8.84
   0  19   3   14.48    7.23
  19   0  -3   34.68    9.54
 -19   0   3   21.62    7.97
  19   0   3   18.04    6.36
  19   0   3   27.61    8.70
   0  19  -3   28.77    8.90
   0  19   3   20.20    6.48
   0  19   4   23.39    8.51
  19   0  -4   18.70    7.41
  19   0   4   21.87    8.07
   0  19  -4   21.84    7.99
  19   0  -5   34.66    9.97
   0  19   5   45.37   12.03
 -19   0   5   42.99   11.43
   0  19  -5   45.96   11.65
  19   0  -6   59.77   13.73
   0  19   6   42.53   11.29
 -19   0   6   58.19   14.22
   0  19  -6   58.90   14.13
  19   0  -7   21.37    8.83
 -19   0   7   36.79    9.82
   0  19   7   34.20   10.71
  19   0   7   33.96   10.22
   0  19  -7   23.36    8.52
 -19   0   8   22.43    8.32
 -19   0   9   20.01    8.37
  19   1   0   80.78   13.00
  -1  19   0   87.62   14.44
  19   1  -1  112.62   16.12
  19   1   1  118.22   15.65
  19   1  -1  120.57   14.12
  -1  19  -1  119.89   16.90
  -1  19   1  103.49   14.91
  -1  19   1   86.62   14.56
  19   1  -2  121.52   16.94
  19   1   2  116.53   15.26
  -1  19   2  100.12   14.55
  -1  19  -2  102.94   16.23
  -1  19   2  107.86   16.72
  -1  19   3   29.27    9.12
  19   1  -3   34.56    9.32
 -19  -1   3   33.17    9.95
  19   1   3   40.28    8.81
  -1  19  -3   33.84   10.36
  -1  19   3   35.87    8.49
  -1  19   4   21.58    8.11
  19   1  -4    5.12    3.92
 -19  -1   4   11.38    6.68
  -1  19  -4   18.33    7.55
  -1  19   4   12.93    5.54
  19   1  -5   -3.90    3.84
  -1  19   5   -1.85    3.83
 -19  -1   5    3.83    6.37
  -1  19  -5    7.59    6.36
  19   1  -6    8.91    4.08
  -1  19   6    3.32    2.64
 -19  -1   6    2.58    2.66
  19   1   6   -4.45    6.11
  -1  19  -6    9.94    5.44
  19   1  -7   -0.18    2.69
 -19  -1   7   -2.13    2.61
  -1  19   7    6.75    5.61
  -1  19  -7   -0.57    2.75
 -19  -1   8   10.89    5.35
 -19  -1   9   27.19    9.54
  19   2   0    4.32    3.61
  19   2   0   -1.68    2.24
  -2  19   0    2.69    3.03
  19   2  -1    9.56    4.63
  19   2   1   15.28    6.10
  19   2   1    5.58    3.22
  -2  19  -1   18.19    7.44
  -2  19   1   22.34    7.50
  -2  19   1    9.92    5.75
  19   2  -2   29.71    8.59
 -19  -2   2   56.26   12.45
  19   2   2   34.43    8.30
  19   2   2   32.60    8.61
  -2  19  -2   44.18   10.55
  -2  19   2   44.49   10.14
  -2  19   2   33.01    9.35
  -2  19   3   52.32   11.56
  19   2  -3   30.54    8.39
 -19  -2   3   36.52   10.12
  19   2   3   47.95   10.08
  19   2   3   34.88    9.32
  -2  19  -3   60.63   12.89
  -2  19   3   59.55   11.56
  -2  19   4   56.38   12.30
  19   2  -4   62.75   13.93
 -19  -2   4   69.24   14.59
  19   2   4   48.03   11.04
  -2  19  -4   87.32   16.22
  -2  19   4   63.20   11.36
  19   2  -5   90.66   16.34
  -2  19   5   77.61   14.73
 -19  -2   5  102.24   17.51
  -2  19  -5   89.29   16.87
  19   2  -6   81.99   16.05
  -2  19   6   63.91   13.83
  19   2   6   63.74   14.62
  -2  19  -6   98.28   18.28
  19   2  -7   58.44   13.97
  -2  19   7   53.75   13.25
  -2  19  -7   65.74   15.40
  19   3   0  170.90   19.51
  -3  19   0  134.51   18.12
  19   3  -1  196.01   21.64
  19   3   1  222.95   22.17
  19   3  -1  226.66   19.35
  -3  19  -1  184.07   21.61
  -3  19   1  194.62   21.11
  -3  19   1  197.24   22.17
  19   3  -2  192.48   21.89
  19   3   2  218.52   21.25
  19   3   2  226.52   22.42
  -3  19  -2  239.94   25.24
  -3  19   2  236.24   22.88
  -3  19   2  193.37   22.40
  -3  19   3   93.42   15.53
  19   3  -3  141.15   19.15
  19   3   3   99.84   14.09
  19   3   3   99.59   15.56
  -3  19   3  102.58   14.90
  -3  19  -3  100.37   17.17
  -3  19   4   22.16    8.18
  19   3  -4   31.84    9.64
  19   3   4   18.93    6.63
  -3  19  -4   17.49    8.02
  -3  19   4   29.58    8.10
  19   3  -5   -2.83    4.14
  -3  19   5   -2.19    2.34
 -19  -3   5    1.59    2.12
  -3  19  -5    4.46    6.03
  -3  19   5    5.52    4.91
  19   3  -6    0.75    3.87
  -3  19   6    3.68    2.32
 -19  -3   6   12.41    8.45
  19   3   6    0.51    2.39
  -3  19  -6    2.97    5.20
  19   3  -7   -1.61    3.43
 -19  -3   7    7.94    5.04
  -3  19   7   -4.34    4.12
  -3  19  -7    6.37    6.86
 -19  -3   8   10.23    6.24
  19   4   0   -0.74    2.20
  19   4   0   -0.05    1.64
  -4  19   0    2.31    4.75
  -4  19   0    2.13    3.35
  19   4  -1   -1.07    2.33
  19   4   1    4.89    3.54
  -4  19  -1    3.19    2.50
  -4  19   1    5.31    4.95
  -4  19   1    3.42    4.70
  19   4  -2    0.98    4.64
  19   4   2    9.25    5.69
  -4  19  -2    9.94    6.25
  -4  19   2    4.37    2.79
  -4  19   2    2.50    3.15
  -4  19   3    7.89    5.99
  19   4  -3   -0.53    3.11
 -19  -4   3    3.72    3.05
  19   4   3    6.75    3.50
  -4  19   3    2.11    1.76
  -4  19   4    2.25    3.54
  19   4  -4    2.11    3.20
 -19  -4   4    5.60    5.39
  -4  19  -4    3.08    2.44
  -4  19   4   10.07    5.65
  -4  19   5   18.94    7.82
  19   4  -5    8.05    6.25
  -4  19  -5    8.11    4.85
  -4  19   5   10.39    5.08
  19   4  -6    6.19    5.99
  -4  19   6   11.99    6.40
 -19  -4   6    5.31    6.45
  19   4  -7    7.92    6.08
 -19  -4   7    2.50    5.14
  -4  19   7    3.92    2.29
  19   4   7   12.17    8.90
  -4  19  -7   18.55    8.58
  19   5   0    4.28    3.61
  -5  19   0   10.37    6.29
  -5  19   0   11.03    5.45
  19   5  -1   18.34    6.81
  19   5   1   18.80    7.74
  19   5  -1   15.66    5.63
  19   5   1   20.21    6.80
  -5  19  -1   21.44    8.08
  -5  19   1   12.34    5.77
  -5  19   1   22.74    7.49
  19   5  -2   19.15    7.08
  19   5   2   15.15    5.64
  19   5   2   17.33    6.65
  -5  19  -2   14.27    6.54
  -5  19   2   11.37    5.87
  -5  19   2   11.14    5.30
  -5  19   3    6.20    5.48
  19   5  -3    7.89    4.97
  19   5   3   23.96    6.96
  19   5   3   12.64    6.60
  -5  19  -3    7.70    5.42
  -5  19   3    8.41    4.63
  -5  19   4   -2.65    3.27
  19   5  -4    3.37    3.48
 -19  -5   4    0.65    4.21
  19   5   4    3.70    3.44
  -5  19  -4   -2.65    2.25
  -5  19   4    8.00    4.66
  -5  19   5    1.14    3.71
  19   5  -5    3.57    4.86
 -19  -5   5    2.40    3.30
  19   5   5   -1.49    4.03
  -5  19  -5    0.20    3.79
  -5  19   5    4.09    4.50
  19   5  -6   -0.54    2.09
 -19  -5   6   -0.23    4.01
  -5  19   6   -1.59    2.33
  19   5   6    4.50    3.56
  19   5  -7    3.64    4.45
  -5  19   7    0.74    2.81
  19   5   7   -1.20    2.92
  -5  19  -7    6.01    5.05
 -19  -5   8   -0.29    2.48
  19   6   0    2.53    1.84
  19   6   0    6.73    4.68
  -6  19   0    4.66    5.62
  -6  19   0    5.34    4.33
  19   6   1    6.11    5.54
  19   6   1   -2.48    2.64
  -6  19  -1    4.64    2.60
  -6  19   1    1.30    2.67
  -6  19   1    2.73    4.02
  -6  19   2   14.01    6.77
  19   6  -2   16.43    6.84
  19   6   2   17.47    6.74
  -6  19  -2    5.61    5.52
  -6  19   2    4.09    2.54
  -6  19   3    2.38    4.23
 -19  -6   3   -1.12    2.41
  19   6  -3   -1.00    2.88
  19   6   3    8.55    5.17
  -6  19  -3   11.70    7.24
  -6  19   3   -0.52    1.82
  -6  19   4    1.64    4.57
  19   6  -4   10.58    6.56
  19   6   4    9.26    5.45
  -6  19  -4    2.73    3.79
  -6  19   4   -3.15    3.72
  -6  19   5    8.21    5.30
  19   6  -5    9.79    5.95
  -6  19  -5    8.23    5.69
  -6  19   5   -4.94    4.23
  -6  19   6    3.83    3.96
  19   6  -6    2.46    2.30
 -19  -6   6    6.74    5.25
  -6  19   6    6.04    3.94
  -6  19  -6    3.53    5.06
  19   6  -7   -0.49    3.13
 -19  -6   7    1.71    2.23
  -6  19   7    1.56    2.97
  -6  19  -7    0.28    3.96
 -19  -6   8    5.92    6.25
  19   7   0  137.70   18.65
  19   7   0  111.24   15.27
  -7  19   0  108.95   16.10
  -7  19   0  116.38   17.64
  19   7  -1  101.56   16.16
  19   7   1   99.65   15.13
  19   7   1   92.44   15.00
  -7  19  -1  119.34   18.39
  -7  19   1  104.89   16.70
  -7  19   1   92.95   14.85
  -7  19   2   80.52   13.98
  19   7  -2  106.55   17.11
  19   7   2   81.43   14.39
  19   7   2   92.87   15.13
  -7  19  -2   82.47   15.63
  -7  19   2  107.50   16.49
  -7  19   3   40.41   10.49
  19   7  -3   39.77   11.14
  19   7   3   39.17   10.42
  19   7   3   43.35   10.12
  -7  19  -3   39.68   10.92
  -7  19   3   50.69   11.35
  -7  19   4    4.26    3.38
 -19  -7   4   11.69    6.42
  19   7  -4   10.67    7.21
  19   7   4    4.73    5.76
  19   7   4   13.41    6.29
  -7  19  -4   15.14    7.36
  -7  19   4   -0.73    2.85
  -7  19   5    2.28    3.87
  19   7  -5    4.51    4.26
 -19  -7   5    5.64    3.95
  19   7   5    1.76    2.38
  -7  19  -5   -0.50    4.10
  -7  19   5   -3.43    3.00
  -7  19   6   -3.53    3.93
  19   7  -6    5.38    5.94
 -19  -7   6   -0.80    3.06
  -7  19   6    2.52    4.03
  19   7   6    6.14    5.70
  -7  19  -6    6.28    5.33
  19   7  -7   10.03    6.74
 -19  -7   7    3.76    5.34
  -7  19   7    9.65    6.17
  -7  19  -7    6.15    5.72
 -19  -7   8    0.08    2.61
  19   8   0   -3.24    2.00
  -8  19   0    0.95    4.24
  19   8  -1   -2.15    4.14
  19   8   1   10.38    5.42
  19   8   1    7.50    5.84
  -8  19  -1    6.85    4.36
  -8  19   1    0.53    2.80
  -8  19   1    7.07    6.03
  -8  19   2   28.15    8.29
  19   8  -2   36.39   10.22
  19   8   2   27.61    8.47
  19   8   2   40.50   10.31
  -8  19  -2   24.57    9.22
  -8  19   2   40.23   10.84
  -8  19   3   34.49    9.89
  19   8  -3   17.85    7.78
  19   8   3   27.32    8.99
  19   8   3   37.22   10.07
  -8  19  -3   28.00    9.66
  -8  19   3   19.61    7.62
  -8  19   4   25.73    8.35
  19   8  -4   44.70   11.76
  19   8   4   45.33   11.00
  19   8   4   46.28   11.24
  -8  19  -4   27.60    9.81
  -8  19   4   23.29    7.99
 -19  -8   5   41.87   11.24
  -8  19   5   40.26   10.63
  19   8  -5   41.54   12.25
  19   8   5   46.85   12.18
  -8  19  -5   22.62    8.34
  -8  19   5   48.71   11.84
  -8  19   6   58.05   12.68
  19   8  -6   63.14   14.64
  -8  19   6   53.27   12.78
  19   8   6   85.23   17.25
  -8  19  -6   77.83   16.71
  -8  19   7   48.50   12.57
 -19  -8   8   18.54    8.18
  19   9   0  186.05   22.45
  19   9   0  167.34   19.24
  -9  19   0  171.52   22.13
  -9  19   0  169.84   19.94
  19   9  -1  156.86   20.91
  19   9   1  153.53   20.53
  -9  19  -1  192.48   23.87
  -9  19   1  150.12   20.54
  -9  19  -1  176.84   20.19
  -9  19   1  177.70   20.38
  19   9   2  128.20   18.76
  19   9  -2  106.54   17.58
  19   9   2  109.93   16.65
  -9  19   2  147.83   20.59
  -9  19  -2  114.87   18.61
  -9  19   2  129.54   17.91
  -9  19   3   54.54   12.01
  19   9  -3   35.30   10.00
  19   9   3   44.61   11.52
  19   9   3   30.53    9.32
  -9  19  -3   59.05   13.18
  -9  19   3   41.02   10.78
  -9  19   4   10.96    6.20
  19   9  -4   11.71    6.14
  19   9   4   16.46    6.90
  19   9   4    6.53    5.35
  -9  19  -4    3.92    3.77
  -9  19   4   20.25    8.08
 -19  -9   5    5.16    4.22
  -9  19   5   15.29    8.48
  19   9  -5    6.94    5.95
  19   9   5    3.31    5.69
  -9  19  -5    0.89    3.48
  -9  19   5    7.67    5.30
  -9  19   6    0.57    2.37
 -19  -9   6    4.53    4.64
  19   9  -6    0.39    3.59
  -9  19   6    2.16    4.20
  19   9   6    4.30    5.45
  -9  19  -6    2.36    3.65
  -9  19   7    4.48    5.64
 -19  -9   7    3.16    5.23
  -9  19   7    2.73    4.74
 -19  -9   8    9.54    6.75
  19  10   0    4.63    5.35
  19  10   0    1.70    2.84
 -10  19   0    3.48    5.00
 -10  19   0    3.56    2.97
 -10  19   1   18.67    6.82
  19  10  -1   19.91    7.81
  19  10   1   15.21    6.75
  19  10   1   10.36    6.09
 -10  19  -1   15.91    7.88
 -10  19  -1   11.04    5.64
 -10  19   1   12.40    6.08
 -10  19   2   16.16    6.78
  19  10  -2   19.60    7.46
  19  10   2   27.73    9.01
  19  10   2   15.68    6.69
 -10  19  -2   30.46    9.92
 -10  19   2   17.31    6.97
 -10  19   3   38.00    9.70
  19  10  -3   43.90   11.18
  19  10   3   41.02   10.58
 -10  19  -3   43.04   12.00
 -10  19   3   46.25   11.52
 -10  19   4   63.69   12.75
  19  10  -4   72.98   15.36
  19  10   4   88.01   16.35
  19  10   4   62.50   13.20
 -10  19  -4   68.91   15.66
 -10  19   4   66.54   13.71
 -10  19   5   57.26   12.48
  19  10  -5   94.99   17.61
  19  10   5   65.38   14.79
 -10  19  -5   79.56   16.89
 -10  19   5   59.67   13.50
 -10  19   6   58.86   13.25
 -19 -10   6   62.85   13.81
  19  10  -6   79.52   16.68
 -10  19   6   50.00   12.18
 -10  19  -6   79.36   17.08
 -10  19   7   51.72   12.75
 -10  19   7   33.07   10.05
  19  11   0    7.64    4.83
 -11  19   0   12.99    6.96
 -11  19   0   16.64    6.04
 -11  19   1   27.50    8.18
  19  11   1   16.38    7.22
  19  11  -1   28.94   10.29
  19  11   1    7.30    3.79
 -11  19  -1   17.27    8.29
 -11  19  -1   10.93    5.41
 -11  19   1   23.81    8.72
 -11  19   2   13.50    6.42
  19  11   2   22.15    8.60
  19  11  -2   21.41    9.96
  19  11   2    2.68    2.40
 -11  19  -2   15.23    6.73
 -11  19   2   16.41    8.39
 -11  19   3   -0.49    1.86
  19  11  -3    3.15    3.68
  19  11   3   11.44    5.93
 -11  19  -3   13.30    7.54
 -11  19   3    5.64    4.72
  19  11  -4   -0.31    2.64
  19  11   4   -1.79    3.93
 -11  19  -4    2.03    4.05
 -11  19   4   -3.06    2.74
  19  11  -5   -0.31    2.42
 -11  19   5   -1.77    3.71
  19  11   5   -1.83    3.67
 -11  19  -5   -4.26    4.40
 -11  19   5    5.42    5.87
 -11  19   6    7.77    5.09
 -11  19   6    1.08    2.85
 -11  19   7    1.46    2.18
 -11  19   7   -2.17    3.23
  19  12   0    0.65    3.02
 -12  19   0    2.05    6.21
  19  12   1    6.65    6.01
  19  12  -1   -4.38    3.29
  19  12   1    9.73    6.11
 -12  19  -1   -3.63    3.23
 -12  19   1    4.33    4.87
  19  12   2   -3.93    2.78
  19  12  -2    0.28    4.09
  19  12   2    2.75    4.78
 -12  19  -2    7.64    5.64
 -12  19   2    2.58    3.27
  19  12  -3    5.87    2.83
  19  12   3    4.02    5.90
 -12  19  -3   -3.29    4.38
 -12  19   3    2.55    2.85
  19  12  -4    7.19    6.19
  19  12   4    4.66    5.60
  19  12   4    7.63    6.71
 -12  19  -4   14.27    7.73
 -12  19   4    7.11    4.95
  19  12   5   15.93    9.96
 -12  19   5    1.42    2.66
 -12  19   6    0.86    5.19
  19  13   0   14.96    6.88
 -13  19   0    4.46    3.95
  19  13  -1    3.55    5.77
  19  13   1    9.92    7.49
 -13  19  -1    0.17    2.57
 -13  19   1   -0.79    1.97
 -13  19  -2   -1.95    3.66
 -13  19   2    0.17    2.28
  19  13   3    1.97    4.87
  19  13  -3    5.96    6.52
  19  13   3    0.65    3.65
 -13  19  -3   -1.67    5.80
 -13  19   3   -0.96    3.57
  19  13   4    0.56    5.45
  19  13  -4   -2.01    3.65
  19  13   4    2.20    4.17
 -13  19  -4    4.21    4.10
 -13  19   4   11.95    8.05
 -13  19   5   -2.66    1.97
  19  14   0    3.59    4.29
 -14  19   0    1.17    3.74
  19  14  -1   23.28    9.30
  19  14   1   11.84    7.35
 -14  19  -1   27.56   10.22
 -14  19   1   25.98    9.61
  19  14  -2   24.09    9.39
  19  14   2   42.72   12.38
 -14  19  -2   25.84    9.82
 -14  19   2   37.80   11.23
  19  14  -3   38.43   12.24
  19  14   3   80.05   16.35
 -14  19  -3   58.01   14.18
 -14  19   3   61.10   14.56
  19  14   4   86.86   17.70
  19  14   4   74.01   15.89
  19  15   0   53.77   13.89
 -15  19   0   53.07   13.97
  19  15  -1   52.33   14.51
  19  15   1   45.92   12.33
 -15  19  -1   26.99    9.55
 -15  19   1   43.71   12.59
  19  15   2   30.35   10.69
  19  15   3   26.48   10.03
  19  15   4    6.77    5.54
  19  16   2   26.73   11.22
  19  16   3   54.88   14.02
  19  16   4   70.10   15.95
  16  20   0  185.98   24.17
  16  20   1  146.21   21.45
  16  20  -1  130.93   20.44
  15  20   0    5.24    4.58
  15  20  -1   14.04    6.67
  15  20   1   -1.74    3.48
  15  20   2    4.93    4.84
  15  20   3    6.56    4.38
 -20  15   3    8.18    5.88
  15  20   4   16.93    7.01
  14  20   0   87.74   16.67
 -20  14   0   79.74   16.66
  14  20   1   94.12   17.19
 -20  14  -1  106.62   19.60
  14  20   2   63.36   14.09
 -20  14  -2   55.27   13.82
  14  20   3   26.65    9.31
 -20  14   3   41.58   11.30
 -20  14  -3   39.53   12.05
  14  20   4   29.86    9.85
 -20  14   4   31.52   10.59
  13  20   0    7.26    8.84
  13  20   0    5.29    5.23
 -20  13   0    3.05    2.02
  13  20  -1   -1.93    3.79
  13  20   1    7.66    7.35
  13  20   1   -0.01    2.87
 -20  13  -1    1.76    5.79
 -20  13   1    7.38    5.97
 -20  13   2    8.84    5.85
  13  20  -2    3.18    5.27
  13  20   2    4.49    3.38
 -20  13  -2    4.83    3.66
  13  20   2    4.91    4.44
  13  20   3   -0.37    2.15
 -20  13   3    7.31    5.41
  13  20   3    8.95    6.62
 -20  13  -3   12.13    6.64
  13  20   4    5.94    3.13
 -20  13   4    6.61    5.09
  13  20   4    6.65    4.84
 -20  13  -4    9.70    7.31
 -20  13  -5    6.55    4.51
  12  20   0   12.48    7.56
  12  20   0   11.91    7.27
 -20  12   0   16.14    7.73
  12  20  -1    5.40    6.57
  12  20   1    6.52    3.99
  12  20   1   -1.79    2.44
 -20  12  -1    3.51    2.82
 -20  12   1    2.12    3.34
  12  20   2   -1.33    4.00
 -20  12  -2    3.70    2.22
  12  20   2   -1.00    2.59
 -20  12   3    3.06    4.95
  12  20   3    1.91    3.83
 -20  12   3    5.69    4.83
  12  20  -3   -4.77    4.40
  12  20  -3   14.04    8.75
  12  20   3   13.21    9.72
 -20  12  -3    6.85    5.24
  12  20   4    0.16    2.29
  12  20   4   -1.41    3.40
 -20  12  -4    0.93    3.11
  12  20   5   -2.41    5.35
 -20  12  -5   -2.29    3.32
  11  20   0   -0.57    2.92
  11  20   0   -2.20    4.01
 -20  11   0    1.89    4.50
 -20  11   1   -2.54    4.53
  11  20  -1    2.64    5.49
  11  20   1   -2.10    4.00
  11  20   1    7.64    6.74
 -20  11  -1   -1.14    1.83
 -20  11   2    9.77    7.54
 -20  11   2   12.50    6.32
  11  20  -2    6.93    5.70
  11  20  -2    7.20    6.48
  11  20   2   19.65    8.46
 -20  11  -2   12.83    6.35
  11  20   2    7.76    5.49
 -20  11   3    5.51    5.31
  11  20   3   21.09    8.06
 -20  11   3   19.20    8.13
  11  20  -3    6.14    4.80
  11  20  -3    5.33    5.93
 -20  11  -3    5.92    4.16
  11  20   4   30.74   10.14
  11  20  -4   24.16    9.21
  11  20  -4   28.42   10.31
 -20  11  -4   12.56    7.43
  11  20   5    5.63    4.33
 -20  11   5   14.41    7.54
  11  20  -5   29.77   10.98
 -20  11  -5   20.48    8.33
  10  20   0    1.45    2.68
  10  20   0    7.83    4.92
 -20  10   0   11.65    5.02
 -20  10   1   11.69    6.25
  10  20  -1    4.42    5.85
  10  20   1    7.03    3.03
  10  20   1   11.71    6.72
 -20  10  -1    7.77    5.52
 -20  10   2    5.56    4.01
 -20  10   2    9.61    4.48
  10  20  -2    6.37    3.37
  10  20  -2    3.23    3.88
  10  20   2   11.83    7.52
 -20  10  -2    3.88    3.09
  10  20   2    8.04    5.84
  10  20   3    7.26    4.52
 -20  10   3    3.42    3.15
 -20  10   3   -7.00    6.44
  10  20  -3    4.17    5.28
  10  20  -3   12.14    7.91
  10  20   3   -1.03    3.05
 -20  10  -3   -1.18    3.66
  10  20   4    4.91    4.34
 -20  10   4   10.25    7.36
  10  20  -4    4.87    4.44
  10  20  -4    2.54    4.18
 -20  10  -4    2.88    2.46
  10  20   5    1.86    2.88
 -20  10   5    8.97    6.14
  10  20  -5    3.40    3.54
 -20  10  -5    1.90    4.19
  10  20  -6   -5.64    4.59
 -20   9   0   -3.12    5.40
   9  20   0    4.79    5.62
   9  20   0   11.34    6.12
 -20   9   1    2.83    3.71
   9  20  -1    3.19    2.90
   9  20  -1   13.33    7.72
   9  20   1   11.34    7.38
   9  20   1    9.91    5.32
 -20   9  -1    1.87    2.37
 -20   9   2   39.41   11.07
 -20   9   2   23.72    8.67
   9  20  -2   36.07    9.72
   9  20  -2   32.27   10.01
   9  20   2   40.99   11.47
 -20   9  -2   42.82   11.10
   9  20   3  102.17   17.73
   9  20  -3   99.83   17.12
   9  20  -3   83.64   17.13
 -20   9  -3   78.16   14.84
 -20   9   4  141.04   21.45
   9  20  -4  169.32   23.60
   9  20  -4  129.71   20.91
 -20   9  -4  127.34   18.74
   9  20   4  167.52   23.13
 -20   9   5  178.37   24.65
   9  20  -5  205.22   26.44
  20  -9   5  184.82   25.52
   9  20  -5  194.09   25.84
   9  20   5  156.10   22.49
   9  20   6  124.77   20.73
   9  20  -6  149.91   23.64
   9  20  -6  121.51   20.30
   9  20  -7   92.19   18.22
 -20   8   0    1.71    3.72
   8  20   0    0.10    5.01
 -20   8   1   -0.73    3.14
   8  20  -1    9.97    6.36
   8  20  -1   11.10    7.40
   8  20   1    6.76    4.53
   8  20   1    5.84    3.54
 -20   8  -1    7.41    5.86
 -20   8   2   16.33    6.95
 -20   8   2   21.76    8.56
   8  20  -2   21.25    7.66
   8  20  -2    8.46    5.21
   8  20   2   25.73    9.82
   8  20   2   11.88    5.80
 -20   8  -2   18.38    7.32
   8  20   3    2.80    3.08
   8  20  -3    6.56    5.11
   8  20  -3    4.28    6.03
 -20   8  -3    0.29    2.59
   8  20   4    7.26    5.11
 -20   8   4    2.30    4.85
  20  -8   4   -2.26    4.86
   8  20  -4   11.33    7.65
   8  20  -4   14.22    7.57
 -20   8  -4    6.10    4.64
   8  20   5    2.58    4.50
 -20   8   5    9.25    6.84
  20  -8   5    2.46    3.70
   8  20  -5    6.87    4.21
   8  20  -5    3.49    4.06
   8  20   6    5.06    5.02
   8  20  -6    4.10    4.62
   8  20  -6    2.89    4.01
   8  20  -7  -11.43    6.61
 -20   7   0    1.00    4.25
   7  20   0    8.77    5.56
   7  20   0   -0.25    2.89
 -20   7  -1   12.66    4.92
 -20   7   1   21.90    8.04
  20  -7   1   13.34    5.38
   7  20  -1   15.10    5.91
   7  20  -1    8.56    6.30
   7  20   1    7.05    4.59
 -20   7   2   56.88   13.14
  20  -7   2   45.87   10.87
   7  20  -2   41.55   11.10
   7  20  -2   50.97   13.81
   7  20   2   47.61   11.87
 -20   7  -2   45.33   10.85
   7  20   3   85.49   15.90
  20  -7   3   57.61   13.14
   7  20  -3   78.37   15.39
   7  20  -3  108.65   18.65
 -20   7  -3   76.39   13.99
   7  20   4   74.98   14.99
 -20   7   4   61.52   14.56
  20  -7   4   65.43   14.07
   7  20  -4   79.63   16.31
   7  20  -4   93.35   17.34
 -20   7  -4   85.52   14.51
   7  20   5  122.45   19.56
 -20   7   5  169.42   23.82
  20  -7   5  131.13   20.76
   7  20  -5  147.37   22.67
   7  20  -5  152.20   22.25
 -20   7   6  119.62   20.62
  20  -7   6  122.29   20.26
   7  20  -6  142.87   22.95
   7  20  -6  120.86   19.84
   7  20   6  160.49   23.18
 -20   6   0    1.72    4.08
  20  -6   0    5.10    4.55
  20  -6   0    6.76    4.10
   6  20   0    6.35    4.29
 -20   6  -1    6.42    4.55
 -20   6   1    6.74    4.52
  20  -6   1    4.46    2.60
  20  -6   1    7.33    5.20
   6  20  -1    6.28    4.13
   6  20  -1    1.99    5.46
   6  20   1    9.95    5.99
   6  20   1   16.52    6.53
  20  -6   2   24.86    7.83
 -20   6   2   12.78    6.50
  20  -6   2   14.16    6.18
   6  20  -2   11.99    5.78
   6  20  -2   16.89    7.73
   6  20   2   10.94    5.91
 -20   6  -2   19.47    7.40
   6  20   3   15.37    7.04
  20  -6   3    9.60    5.71
   6  20  -3    1.01    3.01
   6  20  -3    8.90    6.38
 -20   6  -3    6.69    3.91
   6  20   4    0.07    3.44
 -20   6   4   -2.46    2.70
  20  -6   4    0.20    2.30
   6  20  -4   -1.40    4.43
   6  20  -4   -0.16    4.85
 -20   6  -4    0.46    2.50
   6  20   5    2.67    3.75
 -20   6   5    2.47    3.97
  20  -6   5   -1.20    2.77
   6  20  -5    6.39    4.90
   6  20  -5    2.77    3.96
   6  20   6   -0.46    4.04
 -20   6   6    2.82    2.56
  20  -6   6   -0.18    3.36
   6  20  -6    5.29    7.16
   6  20  -6    0.38    4.51
 -20   5   0   -2.32    3.05
  20  -5   0   -3.62    2.83
  20  -5   0    2.58    2.47
   5  20   0    0.38    2.17
   5  20   0    3.17    3.85
 -20   5  -1    5.25    4.48
  20  -5  -1    8.32    6.09
  20  -5   1   -0.21    1.46
  20  -5   1    0.83    2.80
  20  -5  -1    7.36    4.66
   5  20  -1    8.06    5.15
   5  20  -1    0.06    4.19
   5  20   1   -0.06    2.27
   5  20   1    1.00    2.80
 -20   5  -2    1.34    1.89
  20  -5   2    1.73    2.01
 -20   5   2    1.83    3.22
   5  20  -2    1.39    4.51
   5  20  -2   -2.02    3.25
   5  20   2   -0.46    2.30
   5  20   3    3.00    5.30
  20  -5   3    4.89    2.64
   5  20  -3   -0.72    2.78
   5  20  -3    2.36    5.31
 -20   5  -3   -0.96    2.52
   5  20   4    1.86    2.13
 -20   5   4    5.18    5.44
  20  -5   4    1.43    4.34
   5  20  -4    6.88    6.43
   5  20   5   -0.31    2.85
 -20   5   5    5.02    5.37
  20  -5   5   -2.41    3.66
   5  20  -5   -2.84    4.09
   5  20  -5   -0.73    3.72
   5  20   6   -1.07    2.16
   5  20  -6   -0.70    3.45
   5  20  -6   -3.60    2.17
  20  -4   0   66.86   12.63
  20  -4   0   71.46   12.21
   4  20   0   72.95   12.81
 -20   4  -1   34.91    9.03
  20  -4  -1   38.03    9.78
  20  -4   1   45.26   10.24
  20  -4   1   44.56   10.76
  20  -4  -1   34.13    8.54
   4  20  -1   36.24    9.94
   4  20  -1   34.77   10.24
   4  20   1   48.95   10.01
   4  20   1   42.78   10.96
 -20   4  -2   17.44    6.30
  20  -4  -2    8.53    4.85
  20  -4   2   15.15    6.09
 -20   4   2   24.13    8.48
  20  -4   2   20.12    7.52
   4  20  -2   16.56    6.94
   4  20   2   27.97    8.78
 -20   4  -3   11.15    4.43
   4  20   3   15.46    6.73
  20  -4  -3   15.91    7.00
 -20   4   3   11.98    6.94
   4  20  -3   14.70    6.51
   4  20  -3   13.89    6.88
  20  -4  -4    0.64    3.21
   4  20   4   12.59    6.24
  20  -4   4    9.32    7.32
   4  20  -4   15.26    7.83
   4  20  -4   10.93    6.84
  20  -4  -5   -1.33    1.93
   4  20   5   11.55    6.06
 -20   4   5   12.01    7.67
   4  20  -5    8.94    6.82
   4  20  -5    6.75    4.60
  20  -4  -6   -0.96    4.23
   4  20   6    0.09    3.39
 -20   4   6    6.96    5.82
  20  -4   6    6.57    6.77
   4  20  -6    0.46    3.14
   4  20  -6    2.51    3.15
  20  -3   0   -1.75    2.24
  20  -3   0   -1.75    3.04
   3  20   0    0.41    2.38
  20  -3  -1   -2.71    3.06
  20  -3   1    2.48    2.38
  20  -3  -1   -1.47    2.58
  20  -3   1    2.26    3.88
   3  20  -1    2.30    4.92
   3  20   1    1.85    2.80
   3  20   1   -0.53    1.60
 -20   3  -2    9.68    5.47
  20  -3  -2   14.85    6.47
  20  -3   2   14.05    5.97
  20  -3   2    2.88    3.80
   3  20  -2    8.42    4.72
   3  20  -2    7.84    6.01
   3  20   2   13.48    5.16
   3  20   2   17.10    7.21
   3  20   3   14.52    6.50
 -20   3  -3    6.38    4.54
  20  -3  -3    7.15    4.99
 -20   3   3    5.96    6.47
   3  20  -3   16.68    7.18
   3  20   4    6.63    5.00
  20  -3  -4    6.65    4.53
  20  -3   4   16.80    7.58
   3  20  -4   18.49    6.62
   3  20  -4    8.19    3.91
  20  -3  -5   27.63    9.39
   3  20   5   26.53    9.91
 -20   3   5   13.35    7.69
  20  -3   5   16.35    6.97
   3  20  -5   25.27   10.38
   3  20  -5   14.60    6.57
  20  -3  -6   36.14   10.78
   3  20   6   27.37    9.66
 -20   3   6   35.13   11.57
   3  20  -6   23.29    9.39
   3  20  -6   28.92    8.48
   3  20  -7   10.80    5.18
 -20   3   8    4.54    3.83
  20  -2   0  195.90   21.18
  20  -2   0  205.96   20.44
   2  20   0  247.33   23.85
  20  -2  -1  265.75   25.47
  20  -2   1  261.24   23.84
  20  -2  -1  274.89   22.40
  20  -2   1  262.19   24.19
   2  20  -1  258.62   25.36
   2  20   1  298.15   25.41
   2  20   1  256.50   26.71
  20  -2  -2  197.78   22.69
  20  -2   2  223.49   21.24
  20  -2   2  216.11   22.94
   2  20  -2  202.45   23.16
   2  20   2  220.66   20.99
   2  20   2  195.02   23.43
   2  20   3   91.72   15.91
  20  -2  -3  104.53   16.88
 -20   2   3  109.60   18.03
  20  -2   3  107.24   16.85
   2  20  -3  118.72   18.33
   2  20   4   48.95   12.17
  20  -2  -4   50.13   12.28
 -20   2   4   60.45   13.60
   2  20  -4   49.74   12.29
   2  20  -4   50.28   12.31
  20  -2  -5    4.31    3.34
   2  20   5   11.08    6.56
 -20   2   5   13.96    8.78
   2  20  -5    8.84    5.50
   2  20  -5    4.07    3.58
  20  -2  -6    2.42    4.82
   2  20   6   -1.55    4.48
 -20   2   6    1.29    1.93
  20  -2   6    2.67    2.99
   2  20  -6   -3.45    4.59
  20  -2  -7   20.14    8.55
   2  20  -7    5.41    2.90
  20  -1   0   -0.84    2.90
   1  20   0   -3.36    3.16
  20  -1  -1    2.89    3.08
  20  -1   1    5.20    4.53
  20  -1  -1    0.35    1.28
   1  20  -1   -1.15    2.58
   1  20   1   -1.24    2.84
   1  20   1   -1.22    2.23
  20  -1  -2   -0.86    2.75
  20  -1   2    4.00    3.58
   1  20  -2   11.02    5.52
   1  20   2    2.38    2.16
   1  20   2    9.20   10.45
   1  20   3    4.40    3.80
  20  -1  -3    7.44    4.99
 -20   1   3   10.74    6.35
  20  -1   3    4.64    3.80
   1  20  -3   11.39    6.56
   1  20   3    3.80    3.35
   1  20   4    9.93    5.54
  20  -1  -4   -4.00    4.69
 -20   1   4    3.53    8.28
  20  -1   4   19.01    8.47
   1  20  -4    4.88    3.84
  20  -1  -5    4.55    4.86
   1  20   5    5.57    6.91
 -20   1   5    2.62    5.74
  20  -1   5    2.38    2.60
   1  20  -5   11.53    7.16
  20  -1  -6   -1.95    3.75
   1  20   6   -2.79    3.49
 -20   1   6    5.14    4.96
   1  20  -6   -0.32    3.02
  20  -1  -7    4.91    5.18
   1  20   7    3.44    5.15
   1  20  -7    0.55    2.40
  20   0   0   93.97   14.57
   0  20   0   98.06   15.31
  20   0  -1  151.67   19.24
  20   0   1  148.01   17.81
  20   0   1  141.34   17.46
   0  20  -1  141.08   19.03
   0  20   1  127.33   16.90
   0  20   1  137.79   19.11
  20   0   2  108.06   14.84
  20   0  -2   93.41   15.58
 -20   0   2  120.62   18.47
  20   0   2   90.20   14.78
   0  20   2  103.27   14.69
   0  20  -2   92.50   16.16
   0  20   2   90.47   15.90
   0  20   3   47.85   11.91
  20   0  -3   57.07   12.68
 -20   0   3   58.65   13.59
   0  20  -3   56.71   12.91
   0  20   3   42.84    9.30
   0  20   4   11.30    7.13
  20   0  -4   21.16    8.03
 -20   0   4   19.82    7.48
   0  20  -4   26.51    9.41
  20   0  -5   -2.61    2.42
   0  20   5    1.12    3.19
 -20   0   5    8.30    5.46
   0  20  -5   -1.10    4.04
  20   0  -6    3.46    5.96
   0  20   6    7.71    5.64
   0  20  -6   -0.91    5.26
  20   0  -7    5.38    3.88
   0  20   7    0.38    3.46
  20   0   7    7.04    6.02
   0  20  -7   15.34    8.79
  20   1   0    2.02    3.86
  20   1   0    0.10    2.97
  -1  20   0    2.02    4.24
  20   1  -1    4.42    3.13
  20   1   1    7.38    4.34
  -1  20  -1    1.75    3.76
  -1  20   1    2.72    2.44
  -1  20   1    2.76    3.08
  20   1  -2    2.90    2.40
 -20  -1   2    7.17    4.83
  20   1   2    3.04    3.61
  -1  20  -2    4.30    2.90
  -1  20   2    0.27    2.85
  -1  20   2    1.08    2.68
  -1  20   3    4.63    4.79
  20   1  -3    4.72    5.99
  20   1   3    3.06    2.63
  -1  20  -3   12.44    6.87
  -1  20   3   -0.13    3.04
  -1  20   4   -0.71    2.26
  20   1  -4    0.71    3.79
  -1  20  -4    1.98    5.12
  20   1  -5    4.64    2.06
  -1  20   5    5.26    4.80
 -20  -1   5    5.88    5.81
  20   1   5    6.01    5.49
  -1  20  -5   -3.43    2.47
  20   1  -6   15.05    8.94
  -1  20   6   31.00   10.44
 -20  -1   6   19.90    9.18
  20   1   6    8.09    5.12
  -1  20  -6   10.99    7.48
  20   1  -7   -3.32    3.97
 -20  -1   7   12.67    7.84
  -1  20   7   -1.35    3.67
  20   1   7   -0.22    3.16
  -1  20  -7   11.22    8.79
  20   2   0   23.92    8.50
  20   2   0    6.76    4.27
  -2  20   0    6.11    4.34
  -2  20   0   12.68    5.88
  20   2  -1   12.55    5.81
  20   2   1    5.37    3.97
  20   2   1   10.58    4.99
  -2  20  -1    8.78    4.66
  -2  20   1    4.42    4.16
  -2  20   1    7.15    5.11
  20   2  -2   23.81    8.65
  20   2   2   22.16    7.12
  -2  20  -2   12.77    6.83
  -2  20   2   17.41    6.75
  -2  20   2   23.40    8.31
  -2  20   3   10.60    6.42
  20   2  -3    1.25    2.74
 -20  -2   3    0.41    2.34
  20   2   3    3.59    2.08
  -2  20  -3    8.52    6.03
  -2  20   3    6.60    4.74
  -2  20   4    3.86    4.88
  20   2  -4    3.76    5.02
 -20  -2   4   14.06    8.00
  -2  20  -4    5.66    6.16
  -2  20   4    4.91    3.02
  20   2  -5    5.74    7.13
  -2  20   5    2.48    4.17
  20   2   5    2.61    4.25
  -2  20  -5    0.85    3.48
  20   2  -6    0.09    2.29
  -2  20   6    3.22    3.31
 -20  -2   6    4.56    4.83
  20   2   6    0.99    4.22
  -2  20  -6    0.44    2.71
  20   2  -7    5.02    5.64
 -20  -2   7    0.75    3.60
  -2  20   7    2.73    2.46
  20   3   0   -0.47    1.71
  -3  20   0   10.27    6.17
  -3  20   0    4.32    5.29
  20   3  -1    1.80    2.06
  20   3   1   11.11    5.93
  20   3   1    0.34    2.59
  -3  20  -1    6.83    5.02
  -3  20   1    5.74    5.18
  -3  20   1    5.67    4.26
  20   3  -2   11.12    5.31
  20   3   2   20.68    7.13
  -3  20  -2   12.48    5.97
  -3  20   2   27.62    8.50
  -3  20   2   12.59    6.07
  -3  20   3   26.87    8.91
  20   3  -3   28.80    8.85
  20   3   3   30.53    7.83
  -3  20  -3   30.99   10.38
  -3  20   3   24.66    7.63
  -3  20   4   32.11    9.79
  20   3  -4   37.40   10.76
 -20  -3   4   45.07   12.62
  -3  20  -4   39.43   11.57
  -3  20   4   46.11   10.19
  -3  20   5   26.96    8.96
  20   3  -5   21.94    7.96
 -20  -3   5   13.91    7.03
  20   3   5   18.23    6.91
  -3  20  -5   40.69   12.13
  20   3  -6   10.56    6.52
  -3  20   6   16.01    7.48
 -20  -3   6   18.33    8.22
  -3  20  -6   29.40   10.23
  20   3  -7   16.21    7.32
  -3  20   7   21.47    8.74
  20   4   0   18.57    6.92
  20   4   0   30.59    8.47
  -4  20   0   35.77    9.54
  -4  20   0   35.13    9.88
  20   4  -1   50.28   11.58
  20   4   1   36.86    9.71
  20   4   1   34.35    8.70
  -4  20  -1   39.34   10.27
  -4  20   1   54.88   11.95
  -4  20   1   55.73   12.19
  20   4  -2   68.65   14.02
  20   4   2   83.91   13.67
  -4  20  -2   98.28   16.77
  -4  20   2  107.71   15.96
  -4  20   2   90.46   15.51
  -4  20   3   46.75   11.47
  20   4  -3   53.01   11.99
  20   4   3   55.39   10.96
  -4  20  -3   56.83   13.70
  -4  20   3   55.02   11.49
  -4  20   4   19.94    7.54
  20   4  -4    9.81    6.06
 -20  -4   4   33.83   10.37
  -4  20  -4   20.67    8.58
  -4  20   4   23.17    7.70
  -4  20   5    2.03    2.61
  20   4  -5    8.21    4.73
 -20  -4   5   10.77    6.74
  -4  20  -5    8.19    3.77
  -4  20   5   11.99    5.63
  20   4  -6    8.94    6.67
  -4  20   6   -2.96    3.82
 -20  -4   6    1.54    3.91
  -4  20  -6   -1.50    3.47
 -20  -4   7    2.15    5.86
  -4  20   7    0.90    2.29
  20   5   0   -6.63    4.32
  20   5   0    1.28    2.88
  -5  20   0   -6.02    4.24
  -5  20   0    0.19    3.79
  20   5  -1   13.55    6.97
  20   5   1   23.31    7.83
  -5  20  -1    3.27    3.02
  -5  20   1   17.26    6.75
  -5  20   1   22.14    8.00
  -5  20   2   44.71   10.73
  20   5  -2   50.29   12.15
  20   5   2   53.45   11.01
  20   5   2   59.28   12.23
  -5  20  -2   49.44   12.08
  -5  20   2   53.22   11.07
  -5  20   3   83.84   15.13
  20   5  -3   64.14   13.88
 -20  -5   3   99.47   16.94
  20   5   3   85.93   14.06
  20   5   3  104.94   16.51
  -5  20  -3  102.78   17.98
  -5  20   3  106.60   16.27
  20   5  -4  191.35   23.97
  20   5   4  157.64   21.63
  -5  20  -4  180.10   23.90
  -5  20   4  167.65   20.28
  -5  20   4  146.43   20.59
  20   5  -5  123.69   19.87
  20   5   5  121.19   19.21
  -5  20  -5  142.81   22.17
  -5  20   5  152.30   19.31
  -5  20   5  130.20   19.60
  20   5  -6  137.45   21.33
  -5  20   6  128.07   20.17
  20   5   6  135.88   21.13
  -5  20  -6  139.17   22.41
 -20  -5   7  118.29   19.96
  -5  20   7  130.33   20.84
  20   6   0    0.24    3.07
  20   6   0    2.64    3.15
  -6  20   0   -0.96    3.92
  -6  20   0    9.21    5.61
  20   6  -1   10.33    6.45
  20   6   1    6.26    4.33
  20   6   1   10.01    5.82
  -6  20  -1   22.47    8.34
  -6  20   1   10.32    5.32
  -6  20   1   15.63    6.59
  -6  20   2   24.81    8.47
  20   6  -2   23.64    8.21
  20   6   2   22.76    8.65
  20   6   2   20.52    7.20
  -6  20  -2   10.02    5.77
  -6  20   2   27.76    8.72
  -6  20   3   14.45    7.39
  20   6  -3   10.69    7.09
  20   6   3   11.79    5.64
  -6  20  -3    9.16    5.96
  -6  20   3    7.22    4.71
  -6  20   4   -0.43    3.88
  20   6  -4    4.63    5.86
  -6  20  -4   16.42    8.01
  -6  20   4    2.47    3.10
  -6  20   5   17.53    8.58
  20   6  -5    1.52    3.71
 -20  -6   5    0.43    2.82
  -6  20  -5    4.65    4.61
  -6  20   5    7.39    5.86
  20   6  -6   -1.58    3.03
 -20  -6   6    2.19    3.88
  -6  20   6   -0.05    1.88
  -6  20  -6    8.12    6.14
 -20  -6   7    8.83    6.45
  -6  20   7    1.31    1.95
  20   7   0    1.06    2.89
  20   7   0    0.85    3.19
  -7  20   0    1.35    2.25
  -7  20   0    1.55    4.37
  20   7  -1    6.54    4.89
  20   7   1    1.32    2.66
  20   7   1   12.28    6.82
  -7  20  -1    2.90    2.33
  -7  20   1   11.07    7.02
  -7  20   1    8.97    5.40
  -7  20   2   27.97    8.81
  20   7  -2   26.31    9.64
  20   7   2   23.01    8.69
  20   7   2   11.22    5.79
  -7  20  -2    5.87    4.49
  -7  20   2   32.35    9.58
  -7  20   3   51.50   11.91
  20   7  -3   63.18   13.93
  20   7   3   63.56   13.40
  20   7   3   47.13   11.15
  -7  20  -3   37.67   11.02
  -7  20   3   49.29   11.87
  -7  20   4   37.09   10.16
  20   7  -4   62.45   13.99
  20   7   4   36.03   10.58
  -7  20  -4   57.62   14.05
  -7  20   4   40.20   11.27
  -7  20   5   58.83   13.41
 -20  -7   5   79.59   15.84
  20   7  -5   77.06   15.96
  20   7   5   58.47   13.53
  -7  20  -5   74.56   16.49
  -7  20   5   51.84   12.03
  -7  20   6   53.69   11.92
  20   7  -6   60.27   14.28
  -7  20   6   64.50   14.19
  20   7   6   75.50   16.26
  -7  20  -6   77.07   16.55
  -7  20   7   62.04   14.36
  20   8   0   19.33    7.57
  -8  20   0    7.45    4.29
  -8  20   0    5.10    4.47
  20   8  -1    2.97    4.84
  20   8   1    0.69    3.46
  20   8   1    5.40    3.08
  -8  20  -1   -4.07    4.62
  -8  20  -1    6.29    5.24
  -8  20   1   -1.22    4.52
  -8  20   1    3.42    3.86
  -8  20   2    7.44    5.29
  20   8  -2    6.21    4.91
  20   8   2    4.71    4.73
  20   8   2   10.00    6.31
  -8  20  -2   -4.16    3.49
  -8  20   2   11.53    6.21
  -8  20   3    6.40    4.96
  20   8  -3    2.51    4.60
  20   8   3    0.97    2.53
  20   8   3   -0.66    2.00
  -8  20  -3   -4.87    5.39
  -8  20   3    9.85    6.05
  -8  20   4    2.74    5.03
 -20  -8   4    2.33    2.38
  20   8  -4    2.74    2.10
  20   8   4    0.38    3.00
  -8  20  -4    5.28    4.66
  -8  20   4    8.99    4.42
 -20  -8   5    0.36    4.10
  -8  20   5    2.86    2.86
  20   8  -5    4.67    4.84
  20   8   5    3.86    6.03
  -8  20  -5    7.14    5.68
  -8  20   5   -1.05    3.95
  -8  20   6    0.16    2.57
 -20  -8   6    5.98    3.23
  -8  20   6    4.82    4.69
 -20  -8   7    6.13    6.38
  20   9   0   -2.69    2.89
  20   9   0    5.62    4.85
  -9  20   0    4.24    2.11
  -9  20   0    1.60    2.16
  20   9  -1    4.19    3.75
  20   9   1    4.93    4.57
  20   9   1   -0.93    1.79
  -9  20  -1    4.33    6.20
  -9  20  -1   -0.10    2.96
  -9  20   1    6.30    4.83
  -9  20   1    4.05    4.15
  -9  20   2    6.33    4.40
  20   9  -2    0.40    2.05
  20   9   2   11.97    6.65
  20   9   2    8.89    5.45
  -9  20  -2   14.68    7.83
  -9  20   2    4.64    3.77
  -9  20   3   16.77    6.80
  20   9  -3    7.53    5.61
  20   9   3   10.55    7.77
  20   9   3   11.41    6.83
  -9  20  -3   11.75    6.97
  -9  20   3    5.15    4.66
  -9  20   4   15.51    6.39
  20   9  -4   17.27    7.77
  20   9   4   19.98    8.19
  -9  20  -4   35.77   11.30
  -9  20   4   17.88    7.29
  -9  20   5   10.60    6.17
  20   9  -5   16.76    8.05
  20   9   5   14.27    7.18
  -9  20  -5    7.61    4.03
  -9  20   5   13.68    7.16
  -9  20   6    8.22    4.14
 -20  -9   6    8.71    6.00
  -9  20   6    5.98    3.92
  20  10   0   40.20   11.60
 -10  20   0   25.40    8.93
 -10  20   0   24.11    8.08
 -10  20   1   32.66    9.49
  20  10  -1   21.87    8.99
  20  10   1   38.19   11.17
  20  10   1   25.71    9.21
 -10  20  -1   32.45   11.23
 -10  20  -1   25.37    8.04
 -10  20   1   30.07    9.74
 -10  20   2   12.08    5.60
  20  10  -2   14.85    6.28
  20  10   2   19.17    7.92
 -10  20  -2   23.39    9.05
 -10  20   2   19.13    7.91
 -10  20   3    4.20    2.57
  20  10  -3    5.54    4.81
  20  10   3    9.88    6.30
 -10  20  -3   21.45    9.18
 -10  20   3    8.48    5.69
 -10  20   4    2.79    3.51
  20  10  -4   -1.70    2.68
  20  10   4   10.90    8.50
  20  10   4    0.04    3.26
 -10  20  -4    0.68    5.49
 -10  20   4    0.04    3.57
 -20 -10   5    3.71    3.50
 -10  20   5   -0.75    2.29
  20  10   5    4.14    5.73
 -10  20   6    0.14    2.27
 -20 -10   6   -2.62    3.74
 -10  20   7   -3.07    2.48
  20  11   0   -3.19    2.08
 -11  20   0   -2.66    2.11
  20  11   1   26.84    9.02
  20  11  -1   23.89    9.22
  20  11   1   19.61    8.18
 -11  20  -1   22.61    8.45
 -11  20   1   41.34   11.59
 -11  20   2   48.77   12.74
  20  11   2   47.59   11.38
  20  11  -2   23.08    8.39
  20  11   2   40.61   10.81
 -11  20  -2   60.17   14.42
 -11  20   2   51.84   13.49
 -11  20   3   65.72   12.97
  20  11  -3   78.09   16.73
  20  11   3   77.28   15.72
 -11  20  -3   80.95   16.40
 -11  20   3   69.49   14.70
 -11  20   4   96.52   16.36
  20  11  -4   84.98   17.02
  20  11   4  115.72   18.73
 -11  20  -4   95.15   18.85
 -11  20   4  107.86   18.37
 -11  20   5  107.56   17.60
 -11  20   5  125.65   20.02
 -11  20   6   78.87   16.26
  20  12   0  196.65   25.59
 -12  20   0  186.50   24.93
  20  12   1  128.41   19.02
  20  12  -1  139.59   21.58
  20  12   1  104.29   18.04
 -12  20   1  152.75   22.25
 -12  20  -1  114.57   19.48
  20  12   2  103.58   17.76
  20  12  -2  100.88   18.54
  20  12   2   80.76   16.60
 -12  20  -2   63.00   14.70
 -12  20   2   98.51   17.67
  20  12  -3   51.15   13.66
  20  12   3   47.96   12.17
 -12  20  -3   58.21   14.54
 -12  20   3   63.87   14.70
  20  12   4   44.53   12.66
  20  12   4   40.02   11.34
 -12  20   4   27.65    9.53
 -12  20   5    3.35    4.11
  20  13   0    4.62    5.60
 -13  20   0    6.72    5.16
  20  13  -1   15.29    8.73
  20  13   1    6.60    5.91
 -13  20  -1   14.08    7.36
 -13  20   1    0.79    1.94
  20  13  -2   18.48    8.40
  20  13   2   27.60   10.71
 -13  20  -2   21.52    8.97
 -13  20   2   11.94    5.56
  20  13   3   27.42    9.58
  20  13   3   32.11    9.81
 -13  20   3   23.20    8.52
  20  13   4   27.82   11.12
  20  13   4    6.91    5.03
  20  14   0   22.26    8.73
  20  14  -1   30.36   10.52
  20  14   1   49.20   13.32
  20  14   2   37.92   11.53
  20  14   3   26.74   10.42
  20  14   4   20.08    8.35
  20  15   2    7.91    7.27
  20  15   3   -4.11    6.24
  20  15   4   -1.89    2.93
  16  21   0    4.68    4.37
  15  21   0    6.75    5.68
  15  21  -1   -0.09    2.51
  15  21   1    4.90    3.47
  15  21   2   -2.25    2.79
  14  21   0    4.92    5.26
  14  21  -1    4.41    3.53
  14  21   1    9.67    5.96
  14  21   2   19.31    7.70
  14  21   3   43.57   11.95
  13  21   0   12.51    7.01
  13  21   1    9.93    6.02
 -21  13  -1    8.40    7.01
  13  21   2   15.97    7.25
 -21  13   2   10.40    5.34
 -21  13  -2    6.61    5.34
  13  21   3   12.94    7.33
 -21  13  -3    9.00    6.83
  13  21  -4    0.16    2.77
  12  21   0    6.94    5.11
  12  21   0   -0.76    2.39
 -21  12   0    3.56    6.74
 -21  12   1    4.00    5.00
  12  21  -1   -0.66    4.22
  12  21   1    9.05    7.62
  12  21   1    0.48    5.88
 -21  12  -1   -1.26    3.91
 -21  12   2   64.76   14.70
  12  21   2   56.89   15.28
 -21  12  -2   58.40   13.66
  12  21   2   57.09   13.63
  12  21   3  110.99   19.44
 -21  12   3   85.49   16.66
 -21  12  -3   91.99   17.27
  12  21   4   91.37   17.74
  12  21  -4   90.54   17.77
 -21  12  -4  113.66   19.14
 -21  12  -5   88.51   17.45
  11  21   0   46.06   14.25
  11  21   0   29.63    9.88
 -21  11   0   37.35   11.35
 -21  11   1   71.70   15.59
  11  21  -1   62.45   15.80
  11  21   1   65.36   16.07
  11  21   1   51.09   12.89
 -21  11  -1   50.69   13.30
 -21  11   2   42.05   12.34
  11  21  -2   32.71   10.90
  11  21   2   34.73   11.80
 -21  11  -2   42.37   12.02
  11  21   2   38.70   11.36
  11  21   3   11.02    5.76
 -21  11   3    8.54    5.08
  11  21  -3    8.33    5.44
  11  21  -3   12.12    7.64
  11  21   3    1.29    2.84
 -21  11  -3    8.62    5.74
  11  21   4   10.15    6.20
 -21  11   4    1.01    2.12
  11  21  -4    4.39    3.21
 -21  11  -4   10.13    6.45
  11  21  -5    5.34    5.63
 -21  10   0   -0.88    3.13
  10  21   0    5.77    6.73
  10  21   0    4.07    3.90
 -21  10   1    8.01    5.98
  10  21  -1   -2.73    3.70
  10  21   1    4.73    5.92
  10  21   1    2.24    1.95
 -21  10   2   11.40    7.58
  10  21  -2    7.62    5.13
  10  21  -2   16.74    8.04
 -21  10  -2   13.58    7.29
  10  21   2   12.21    6.79
  10  21   3   19.40    7.46
 -21  10   3   29.08   10.03
  10  21  -3   26.10    9.60
  10  21  -3   21.48    9.23
 -21  10  -3   23.52    8.34
  10  21   4   32.01   10.33
 -21  10   4   27.73    9.42
  10  21  -4   30.38   10.02
  10  21  -4   24.85    9.59
 -21  10  -4   20.52    7.48
  10  21  -5    8.61    7.38
  10  21  -5   23.39    8.72
 -21   9   0    4.10    3.85
   9  21   0   -1.91    3.76
   9  21   0   -0.29    2.30
 -21   9   1    5.81    5.79
   9  21  -1   -6.12    5.02
   9  21   1   -8.27    6.60
   9  21   1   -3.07    3.30
 -21   9  -1   -3.98    4.95
 -21   9   2    8.66    6.28
   9  21  -2    4.12    4.01
   9  21  -2    7.23    6.08
   9  21   2    0.46    3.34
   9  21   2    1.38    3.00
 -21   9  -2   11.66    5.03
   9  21   3    5.17    6.26
 -21   9   3    5.43    6.06
   9  21  -3    3.17    4.83
   9  21  -3    0.34    5.12
 -21   9  -3    0.82    3.43
   9  21   4    1.46    2.98
 -21   9   4    6.66    5.78
  21  -9   4    1.98    3.33
   9  21  -4    8.60    6.80
   9  21  -4   -2.37    3.58
 -21   9  -4    3.89    3.79
   9  21   5   14.45    7.18
   9  21  -5    6.79    6.76
   9  21  -5   13.21    7.65
   9  21  -6   -4.27    3.96
 -21   8   0    1.31    4.39
   8  21   0   -0.23    2.23
   8  21   0   -0.46    2.85
 -21   8  -1    0.28    2.39
 -21   8   1    4.82    4.64
  21  -8   1    2.47    2.21
   8  21  -1   -1.41    3.42
   8  21  -1    3.10    4.62
   8  21   1    3.32    5.33
  21  -8   2    1.81    2.05
   8  21  -2   -6.31    5.41
   8  21  -2    5.56    6.29
   8  21   2   -2.18    1.81
 -21   8  -2    2.65    3.07
   8  21   3    1.15    4.58
 -21   8   3    2.30    6.20
  21  -8   3   -1.38    3.97
   8  21  -3    3.96    4.80
   8  21  -3    3.39    5.30
 -21   8  -3    3.99    3.37
   8  21   4    2.34    1.82
 -21   8   4   -0.05    4.94
  21  -8   4    0.74    3.81
   8  21  -4    4.22    4.67
   8  21  -4    0.41    2.34
 -21   8  -4    5.72    4.33
   8  21   5    8.65    6.10
   8  21  -5    9.00    6.32
   8  21  -5   -2.41    3.93
   8  21  -6    2.05    3.72
  21  -7   0  201.36   22.90
  21  -7   0  219.55   23.53
   7  21   0  216.63   27.35
   7  21   0  185.22   24.10
 -21   7   0  200.82   23.80
 -21   7   1  154.38   20.93
  21  -7   1  172.70   20.51
  21  -7   1  187.57   22.45
   7  21  -1  174.71   24.48
   7  21  -1  217.64   23.50
   7  21   1  169.58   24.08
   7  21   1  211.20   25.28
 -21   7  -1  168.62   21.70
  21  -7   2  124.89   18.91
   7  21  -2  116.03   18.15
   7  21  -2  140.02   21.90
   7  21   2  139.07   20.63
 -21   7  -2  119.87   17.66
   7  21   3   80.71   16.02
 -21   7   3   79.96   16.43
  21  -7   3   76.90   15.49
   7  21  -3   72.67   15.00
   7  21  -3   52.70   13.02
 -21   7  -3   81.56   14.58
   7  21   4   72.62   15.45
 -21   7   4   41.39   12.13
  21  -7   4   37.38   10.98
   7  21  -4   49.64   13.20
   7  21  -4   49.30   13.21
   7  21   5   37.97   10.92
 -21   7   5   22.58   10.27
  21  -7   5   16.65    7.38
   7  21  -5   27.40   10.10
   7  21  -5    3.05    4.60
   7  21  -6    4.91    3.92
 -21   6   0    3.43    4.12
  21  -6   0   -0.27    2.52
  21  -6   0   -2.96    3.26
   6  21   0    0.84    3.16
   6  21   0    6.11    5.42
 -21   6  -1    2.35    3.42
  21  -6  -1    8.23    6.18
  21  -6   1    0.08    2.16
  21  -6   1   -2.81    3.51
  21  -6  -1    4.80    2.97
   6  21  -1    0.44    4.29
   6  21  -1    1.47    3.72
   6  21   1   -3.65    2.55
 -21   6  -2    4.87    3.03
   6  21  -2   -3.95    5.26
   6  21  -2   -2.60    2.59
   6  21   2    4.70    5.85
   6  21   3   -3.75    4.19
 -21   6   3    3.92    5.08
  21  -6   3   -2.60    2.80
   6  21  -3    1.00    2.80
   6  21  -3   -0.20    4.94
 -21   6  -3    5.49    3.67
   6  21   4   -2.38    4.35
 -21   6   4   -2.98    3.25
  21  -6   4    9.94    7.15
   6  21  -4    0.14    3.81
   6  21  -4   15.33    7.53
   6  21   5    1.02    3.32
   6  21  -5    1.44    4.27
   6  21  -5    0.95    2.56
   6  21  -6   -1.05    5.25
   6  21  -6    0.95    4.69
  21  -5   0  177.37   21.11
  21  -5   0  223.38   22.75
   5  21   0  212.99   22.43
  21  -5  -1  239.14   25.09
  21  -5   1  235.29   23.46
  21  -5   1  208.27   22.80
   5  21  -1  212.47   26.56
   5  21  -1  203.20   23.10
   5  21   1  195.43   24.46
 -21   5  -1  271.32   25.94
  21  -5  -2  148.08   20.62
  21  -5   2  167.66   21.02
   5  21  -2  135.27   19.33
   5  21  -2  145.00   21.62
   5  21   2  157.75   21.67
 -21   5  -2  127.78   17.48
   5  21   3  118.11   19.06
  21  -5  -3  115.73   18.76
 -21   5   3  103.60   18.40
  21  -5   3  103.47   17.21
   5  21  -3  115.88   18.73
   5  21  -3  121.06   19.73
 -21   5  -3  117.08   16.51
  21  -5  -4   55.53   13.20
   5  21   4   61.05   13.86
 -21   5   4   62.44   15.06
  21  -5   4   64.51   14.13
   5  21  -4   60.71   14.20
   5  21  -4   51.16   13.23
  21  -5  -5   17.90    8.56
   5  21   5    6.15    4.26
 -21   5   5   16.38    7.81
   5  21  -5   18.47    8.05
   5  21  -5   14.32    6.78
   5  21  -6    6.16    8.11
   5  21  -6    4.05    3.25
  21  -4   0    0.43    2.08
   4  21   0    2.85    4.31
 -21   4  -1   -1.47    1.84
  21  -4  -1   -1.05    3.58
  21  -4   1    2.59    2.30
   4  21  -1    4.32    3.18
   4  21   1    4.91    4.46
   4  21   1   -0.60    2.46
 -21   4  -2   17.40    5.93
  21  -4  -2    9.68    5.72
  21  -4   2   13.32    4.78
  21  -4   2   15.08    6.61
   4  21  -2   19.06    8.90
   4  21  -2   26.96   10.01
   4  21   2   15.27    7.26
   4  21   3   25.42    8.93
  21  -4  -3   18.05    6.39
 -21   4   3   36.83   10.73
  21  -4   3   13.07    6.91
   4  21  -3   19.45    7.02
   4  21   4   17.33    7.61
  21  -4  -4   13.49    6.63
 -21   4   4   34.49   10.33
   4  21  -4   16.84    7.27
   4  21  -4   20.59    9.65
  21  -4  -5   25.91    9.77
   4  21   5   31.45   10.15
 -21   4   5   36.44   11.06
  21  -4   5   44.37   12.46
   4  21  -5   23.74    9.45
   4  21  -5   34.22   10.20
   4  21  -6   52.74   14.32
   4  21  -6   26.57    9.12
  21  -3   0   12.34    5.55
   3  21   0   16.08    6.06
  21  -3  -1   27.19    8.31
  21  -3   1   25.21    8.01
   3  21  -1   20.94    8.08
   3  21   1   22.16    7.18
   3  21   1   27.97    9.00
  21  -3  -2   25.73    8.26
  21  -3   2   29.54    7.89
  21  -3   2   48.22   11.07
   3  21  -2   35.19   10.02
   3  21   2   28.48    9.97
   3  21   3    7.19    4.07
  21  -3  -3    8.84    5.52
 -21   3   3    8.47    5.83
  21  -3   3   16.71    7.66
   3  21  -3   11.39    6.36
   3  21  -3   14.53    8.20
   3  21   4   12.87    6.39
  21  -3  -4   13.01    7.35
 -21   3   4    3.18    6.02
  21  -3   4    9.77    6.27
   3  21  -4   -0.74    2.08
   3  21  -4    8.72    5.10
  21  -3  -5    1.00    4.30
   3  21   5    4.84    5.72
 -21   3   5    4.53    4.78
   3  21  -5   -0.01    3.14
  21  -3  -6   -0.34    2.04
   3  21   6    4.40    5.00
  21  -3   6   10.87    7.50
   3  21  -6   -2.59    3.35
  21  -2   0   -3.38    3.75
  21  -2   0    4.87    3.97
   2  21   0    2.20    2.38
  21  -2  -1    3.92    2.58
  21  -2   1    9.91    5.35
  21  -2   1    7.74    5.07
   2  21  -1   11.81    5.90
   2  21   1    8.69    5.25
   2  21   1   11.36    6.54
  21  -2  -2   -1.30    2.15
  21  -2   2   -2.48    1.65
 -21   2   2   -1.55    3.23
   2  21  -2    4.38    5.26
   2  21   2   -1.08    2.17
   2  21   2   -2.24    2.55
   2  21   3   -1.54    1.81
  21  -2  -3    0.47    2.77
 -21   2   3   -1.75    3.27
   2  21  -3    7.50    6.46
   2  21   4   -0.42    2.25
  21  -2  -4    1.26    2.16
   2  21  -4    2.45    3.78
  21  -2  -5    0.16    1.72
   2  21   5   11.01    5.56
 -21   2   5    9.04    6.89
  21  -2   5   14.18    7.83
   2  21  -5    3.72    4.01
  21  -2  -6    1.81    5.11
   2  21   6   -1.62    3.74
 -21   2   6   -1.12    4.34
  21  -2   6   -5.25    4.30
   2  21  -6    0.25    3.29
  21  -1   0   32.68    8.78
  21  -1   0   49.73   10.51
   1  21   0   40.40   10.25
  21  -1  -1   30.48    9.13
  21  -1   1   50.32   10.74
  21  -1   1   39.01    9.95
   1  21  -1   41.56   10.97
   1  21   1   45.29   10.92
   1  21   1   34.38   10.08
  21  -1  -2    7.65    4.82
  21  -1   2    2.34    2.10
 -21   1   2    7.94    6.54
  21  -1   2    7.10    4.78
   1  21  -2    5.38    3.67
   1  21   2    8.76    5.34
   1  21   2    5.43    4.56
   1  21   3    1.05    2.55
  21  -1  -3    4.66    4.87
  21  -1   3    1.56    2.86
   1  21  -3    3.00    4.30
   1  21   4    9.54    5.77
  21  -1  -4   10.09    5.34
  21  -1   4    3.74    3.04
   1  21  -4   10.40    7.24
  21  -1  -5    4.06    5.56
   1  21   5    1.26    4.85
   1  21  -5   -2.38    3.77
  21  -1  -6   -1.06    3.55
   1  21   6   -3.70    5.73
 -21   1   6    6.29    4.87
   1  21  -6    7.81    7.17
  21   0   0   -1.77    2.65
   0  21   0    0.80    1.96
   0  21   0    1.25    1.89
  21   0  -1    8.37    6.31
  21   0   1    9.44    5.34
   0  21  -1   12.20    6.92
   0  21   1    4.24    4.74
   0  21   1   10.28    5.57
  21   0  -2   39.78   10.72
  21   0   2   42.59    9.90
   0  21  -2   40.20   10.85
   0  21   2   35.52    9.48
   0  21   2   33.89   10.53
   0  21   3   64.77   14.01
  21   0  -3   73.54   14.94
 -21   0   3   76.09   15.66
   0  21  -3   68.79   14.78
   0  21   3   66.92   12.15
   0  21   4   65.65   14.48
  21   0  -4   69.73   14.49
 -21   0   4   57.84   13.43
   0  21  -4   70.68   15.39
  21   0  -5  150.44   22.04
   0  21   5  126.14   20.04
   0  21  -5  137.96   22.03
  21   0  -6  119.98   20.43
   0  21   6  104.53   18.85
 -21   0   6   91.83   18.15
  21   0   6  115.33   19.84
   0  21  -6  115.36   20.80
  21   1   0   17.23    7.44
  21   1   0   13.75    5.85
  -1  21   0   13.06    6.24
  -1  21   0   12.92    6.18
  21   1  -1    4.68    2.90
  21   1   1    4.68    4.45
  21   1   1    3.10    2.95
  -1  21  -1   11.39    5.79
  -1  21   1    8.37    5.63
  -1  21   1    3.12    4.10
  21   1  -2    1.35    3.39
  21   1   2    6.73    5.23
  21   1   2    5.00    4.06
  -1  21  -2   12.77    6.70
  -1  21   2   12.37    6.02
  -1  21   2   13.92    6.87
  -1  21   3   10.44    5.72
  21   1  -3    7.60    6.26
  21   1   3    3.39    3.99
  -1  21  -3    9.33    5.85
  -1  21   3    3.22    3.23
  -1  21   4    3.68    4.23
  21   1  -4   18.18    8.60
 -21  -1   4   -1.80    3.41
  21   1   4   11.42    6.41
  -1  21  -4    6.16    6.34
  -1  21   5    2.26    2.85
  21   1  -5    7.23    5.65
 -21  -1   5   19.98    8.22
  21   1   5    7.91    7.72
  -1  21  -5    7.92    5.65
  21   1  -6    4.62    4.12
  -1  21   6    0.66    4.26
 -21  -1   6   -0.71    2.82
  -1  21  -6    7.11    6.03
  21   2   0    0.64    2.86
  -2  21   0    4.55    4.40
  -2  21   0   -2.85    4.92
  21   2  -1   13.41    6.68
  21   2   1   19.60    6.85
  21   2   1   17.94    6.75
  -2  21  -1   29.35    9.26
  -2  21   1   23.92    8.45
  -2  21   1   35.65   11.07
  21   2   2   97.40   15.03
  21   2  -2   62.97   13.34
  21   2   2   78.41   13.81
  -2  21  -2   82.36   15.98
  -2  21   2   66.05   12.65
  -2  21   2  102.34   17.05
  -2  21   3  103.17   17.41
  21   2  -3  132.35   19.79
  21   2   3  116.23   17.59
  -2  21  -3  134.90   20.68
  -2  21   3  141.00   18.17
  21   2  -4  192.67   24.44
 -21  -2   4  179.83   23.71
  21   2   4  177.56   22.57
  -2  21  -4  213.42   26.55
  -2  21   4  161.35   22.21
  21   2  -5  212.91   26.30
 -21  -2   5  197.68   25.69
  21   2   5  221.03   26.40
  -2  21  -5  213.17   27.60
  -2  21   5  223.70   26.61
  21   2  -6  156.25   23.26
  -2  21   6  117.64   19.81
 -21  -2   6  117.26   20.32
  -2  21  -6  143.04   23.10
  21   3   0    3.99    3.25
  -3  21   0    5.00    3.99
  21   3  -1   14.02    6.30
  21   3   1   16.93    7.52
  -3  21  -1    0.51    3.58
  -3  21   1   24.56    8.03
  -3  21   1   13.92    5.72
  21   3  -2    9.81    5.27
  21   3   2   11.98    5.86
  21   3   2    7.05    3.50
  -3  21  -2    8.11    6.63
  -3  21   2    9.20    5.75
  -3  21   2    2.00    4.19
  -3  21   3    3.74    4.25
  21   3  -3    6.53    5.07
 -21  -3   3   17.62    8.54
  21   3   3    1.69    2.70
  21   3   3    6.26    3.79
  -3  21  -3    3.35    5.44
  -3  21   3   -1.49    1.84
  -3  21   4    3.86    4.99
  21   3  -4   11.35    6.09
  21   3   4   10.12    5.44
  -3  21  -4   15.00    7.76
  -3  21   4   15.24    6.44
  -3  21   5   -5.31    4.04
  21   3  -5    2.94    4.04
  21   3   5   -0.02    3.59
  -3  21  -5   -3.66    3.06
  21   3  -6    6.30    5.30
  -3  21   6    0.33    2.57
  -3  21  -6   -0.52    3.64
  21   4   0    3.18    5.06
  21   4   0    0.01    3.26
  -4  21   0    7.34    6.54
  -4  21   0    1.06    3.93
  21   4  -1   11.36    6.01
  21   4   1   14.60    7.60
  21   4   1    8.84    5.13
  -4  21  -1   10.71    6.13
  -4  21   1    8.86    4.91
  -4  21   1    7.88    4.36
  21   4  -2   10.43    5.93
  21   4   2   15.42    7.33
  21   4   2    6.05    4.59
  -4  21  -2    9.49    6.09
  -4  21   2    9.85    4.99
  -4  21   2   10.47    5.05
  -4  21   3   10.47    6.26
  21   4  -3   18.45    8.90
 -21  -4   3   10.65    6.94
  21   4   3    7.19    3.87
  -4  21  -3   11.68    6.21
  -4  21   3    9.48    4.65
  -4  21   4   14.01    6.69
  21   4  -4   15.78    7.55
 -21  -4   4   27.01    9.70
  -4  21  -4   20.99    8.37
  -4  21   4   26.32    8.27
  -4  21   5   32.86   10.06
  21   4  -5   19.47    8.72
 -21  -4   5   16.12    7.53
  -4  21  -5   12.21    7.34
  -4  21   6   29.85   10.52
 -21  -4   6   19.24    7.88
  21   4   6   20.45    9.15
  21   5   0    0.75    2.44
  21   5   0   -1.82    2.12
  -5  21   0    7.01    6.48
  -5  21   0   -2.03    2.93
  21   5  -1    7.27    5.82
  21   5   1   -1.76    3.14
  -5  21  -1   -0.45    3.03
  -5  21   1    4.63    4.52
  -5  21   1    0.83    1.80
  -5  21   2    3.02    6.99
  21   5  -2   11.90    6.78
  21   5   2   -0.92    3.45
  21   5   2    0.35    2.76
  -5  21  -2    2.04    2.45
  -5  21   2    3.86    3.64
  -5  21   3   13.29    6.59
  21   5  -3    4.46    2.49
  21   5   3    9.09    4.36
  21   5   3    6.71    5.12
  -5  21  -3   14.10    7.71
  -5  21   3    0.18    3.08
  -5  21   4    9.23    6.05
  21   5  -4    3.53    4.07
  21   5   4   -2.19    3.59
  -5  21  -4   -0.21    3.35
  -5  21   4   10.89    5.56
  -5  21   5    2.81    4.30
  21   5  -5   -4.45    5.15
 -21  -5   5   -2.58    4.43
  21   5   5    4.53    5.35
  -5  21  -5   12.64    6.58
 -21  -5   6    3.42    4.42
  -5  21   6    5.44    3.99
  21   6   0    7.26    6.63
  -6  21   0    2.14    1.98
  -6  21   0    7.72    4.58
  21   6  -1    7.96    5.96
  21   6   1    5.51    3.95
  21   6   1   -2.74    2.49
  -6  21  -1    3.61    4.08
  -6  21   1    3.10    4.10
  -6  21   1   11.70    6.34
  -6  21   2    7.39    4.89
  21   6  -2   -0.22    2.75
  21   6   2    5.40    4.58
  21   6   2    6.37    5.08
  -6  21  -2    4.87    5.82
  -6  21   2    7.32    5.14
  -6  21   3   23.99    8.87
  21   6  -3   52.11   12.90
  21   6   3   31.80    9.10
  -6  21  -3   49.55   12.80
  -6  21   3   24.11    8.16
  -6  21   4   39.61   11.22
  21   6  -4   57.71   13.42
  -6  21  -4   26.41    9.61
  -6  21   4   45.27   11.10
  -6  21   5   25.69    9.23
  21   6  -5   29.55    9.54
  -6  21  -5   53.66   14.44
  -6  21   5   26.79    8.77
 -21  -6   6   29.26   10.05
  -6  21   6   31.75   10.57
  21   7   0  146.77   20.50
  -7  21   0  155.02   21.56
  -7  21   0  149.34   20.24
  21   7  -1  167.51   22.40
  21   7   1  172.95   22.38
  21   7   1  175.54   20.62
  -7  21  -1  153.21   21.74
  -7  21   1  146.04   20.63
  -7  21  -1  142.92   19.95
  -7  21   1  145.76   20.13
  -7  21   2   96.18   16.45
  21   7   2  125.25   18.74
  21   7  -2   89.56   16.61
  21   7   2  110.21   17.32
  -7  21  -2  108.28   18.68
  -7  21   2   94.57   16.48
  -7  21   3   56.22   13.10
  21   7  -3   68.36   15.10
  21   7   3   55.29   12.20
  21   7   3   52.10   11.91
  -7  21  -3   66.72   15.01
  -7  21   3   50.71   12.06
  -7  21   4   32.62   10.22
 -21  -7   4   19.82    8.25
  21   7  -4   35.17   11.01
  21   7   4   33.42   10.43
  -7  21  -4   26.72    9.75
  -7  21   4   33.64   10.56
  -7  21   5   10.94    5.71
 -21  -7   5   13.78    7.67
  21   7  -5    5.73    3.32
  21   7   5   23.68   10.41
  -7  21  -5    8.54    6.45
  -7  21   5    8.88    5.85
 -21  -7   6    6.94    6.33
  -7  21   6   -1.88    4.83
  21   8   0    7.34    5.21
  -8  21   0    1.63    2.88
  -8  21   0    5.38    4.20
  21   8  -1    5.75    7.07
  21   8   1    4.29    3.57
  21   8   1   -1.71    3.62
  -8  21  -1    4.79    3.75
  -8  21  -1    6.28    3.30
  -8  21   1   13.79    7.54
  -8  21   1    3.78    3.26
  -8  21   2   18.11    7.53
  21   8  -2   11.76    6.94
  21   8   2   20.14    9.20
  21   8   2   17.20    6.95
  -8  21  -2   19.48    7.86
  -8  21   2   24.05    8.75
  -8  21   3   20.71    7.92
  21   8  -3   14.87    8.32
  21   8   3   10.58    5.74
  21   8   3   19.98    7.41
  -8  21  -3   29.54   10.38
  -8  21   3   16.93    7.36
  -8  21   4   27.05    8.45
  21   8  -4   32.34   11.03
  21   8   4   28.44   10.11
  -8  21  -4   24.66    9.53
  -8  21   4   32.24    9.65
  -8  21   5   36.86   10.76
  21   8   5   35.28   12.05
  -8  21   5   44.24   11.62
  -8  21   6   13.29    6.51
  21   9   0  280.30   29.27
  -9  21   0  292.20   30.46
  -9  21   0  293.21   27.88
  21   9  -1  224.03   26.39
  21   9   1  186.18   24.24
  21   9   1  219.68   24.21
  -9  21  -1  197.24   25.53
  -9  21   1  180.85   23.56
  -9  21  -1  195.81   22.82
  -9  21   1  202.88   23.12
  -9  21   2   91.59   15.83
  21   9  -2  113.64   19.33
  21   9   2   96.30   16.50
  21   9   2  111.84   18.62
  -9  21  -2  103.73   18.79
  -9  21   2   94.38   17.14
  -9  21   3   64.26   13.51
  21   9  -3   72.71   15.54
  21   9   3   50.90   12.37
  21   9   3   58.85   13.19
  -9  21  -3   75.42   16.13
  -9  21   3   67.11   14.47
  -9  21   4   50.32   12.83
  21   9  -4   44.87   12.41
  21   9   4   43.98   12.16
  -9  21  -4   51.34   13.89
  -9  21   4   39.42   11.39
 -21  -9   5   12.60    6.71
  -9  21   5   20.34    7.93
  -9  21   5    9.98    6.10
  -9  21   6    8.44    5.98
 -21  -9   6   -6.34    5.51
  -9  21   6   -6.53    5.03
  21  10   0   -5.27    4.15
 -10  21   0    1.23    3.27
 -10  21   0    2.84    4.51
 -10  21   1   14.67    6.98
  21  10  -1    7.45    6.92
  21  10   1    6.85    5.26
  21  10   1   12.57    8.77
 -10  21  -1    2.70    6.41
 -10  21   1   -2.68    3.56
 -10  21  -1   -0.58    1.57
 -10  21   2    3.57    3.25
  21  10  -2    3.66    6.18
  21  10   2    7.73    5.66
 -10  21  -2   -1.45    1.99
 -10  21   2   -1.43    3.57
 -10  21   3   -1.30    3.78
  21  10  -3    2.83    3.59
 -10  21  -3    1.72    3.71
 -10  21   3    1.65    4.34
 -10  21   4    4.97    4.87
  21  10   4    3.49    4.26
 -10  21   4   10.02    6.38
 -10  21   5    3.94    4.77
 -10  21   5    2.68    2.25
 -10  21   6   -3.90    3.27
 -10  21   6    7.44    5.77
  21  11   0   17.76    8.24
 -11  21   0    6.81    4.71
  21  11   1    4.50    3.74
  21  11  -1    8.42    5.87
  21  11   1    6.70    6.20
 -11  21  -1   10.35    6.54
 -11  21   1    9.76    5.30
  21  11   2    4.97    5.40
  21  11  -2   -1.64    2.35
  21  11   2    2.11    3.94
 -11  21  -2    5.40    5.65
 -11  21   2    0.16    3.79
  21  11   3   -1.14    3.57
 -11  21   3    2.91    4.43
 -11  21   4   -3.12    2.68
 -11  21   5    5.06    4.35
  21  12   0    3.41    3.00
 -12  21   0    4.85    5.57
  21  12  -1    1.89    5.30
  21  12   1   10.74    8.77
 -12  21  -1   11.45    7.75
 -12  21   1    4.80    4.24
  21  12   2    0.45    4.50
  21  12   2    2.10    3.86
 -12  21   2    0.81    3.68
  21  12   3    1.00    2.60
 -12  21   3   -3.00    4.24
  21  13   0   56.25   14.49
  21  13   1   55.10   14.12
  21  13   2   23.98    9.16
  21  13   3   30.33   12.52
  21  13   3   49.49   13.79
  21  14   2   16.75    7.65
  21  14   3   28.11    9.53
  12  22   0    9.32    4.76
  12  22   1   21.66    9.15
 -22  12  -2   12.40    6.05
  12  22  -4   -6.94    5.43
 -22  11   0   -2.93    4.21
  11  22   0    4.43    4.23
 -22  11   1    4.42    5.89
  11  22   1    6.73    5.85
 -22  11  -1    1.85    4.94
 -22  11  -2   -7.15    5.32
  11  22   2   -4.62    5.62
 -22  11  -3    1.93    4.53
  11  22  -4   -0.39    3.21
 -22  11  -4   -2.08    4.07
  10  22   0  180.14   26.73
  10  22   0  152.47   22.77
 -22  10   0  158.74   22.66
  10  22  -1  208.60   28.36
  10  22   1  196.05   27.85
  10  22   1  199.82   26.14
 -22  10  -1  208.57   25.84
 -22  10   1  187.27   25.39
 -22  10   2  186.03   25.15
 -22  10   2  150.41   22.74
  10  22  -2  183.06   26.96
  10  22   2  145.75   22.07
 -22  10  -2  164.20   22.55
  10  22   3   71.79   16.12
  10  22  -3   58.55   13.40
 -22  10  -3   61.50   13.77
  10  22  -4   33.03   11.51
 -22  10  -4   21.86    9.04
 -22   9   0    7.70    5.88
   9  22   0   -0.67    3.04
   9  22   0    1.47    4.04
 -22   9  -1    1.45    2.93
 -22   9   1   11.65    7.72
   9  22  -1   10.11    6.84
   9  22   1   -3.01    2.83
 -22   9   2   17.81    9.00
  22  -9   2   20.89    7.71
   9  22  -2   17.69    7.73
   9  22  -2   21.15    9.24
   9  22   2    8.20    5.50
 -22   9  -2   21.73    8.88
   9  22   3   26.80   10.10
  22  -9   3   30.93   10.69
   9  22  -3   37.03   10.88
   9  22  -3   31.25   10.96
 -22   9  -3   37.06   10.72
   9  22  -4   24.11    9.20
   9  22  -4   28.38   12.01
 -22   8   0   66.44   13.98
  22  -8   0   71.33   14.09
   8  22   0   85.03   16.45
 -22   8  -1   72.99   14.84
 -22   8   1   86.47   16.44
  22  -8   1   80.47   15.14
   8  22  -1   76.36   17.23
   8  22   1   52.45   14.35
   8  22   1   78.97   16.19
 -22   8  -2   91.88   16.54
 -22   8   2   91.16   17.93
  22  -8   2   83.30   15.72
   8  22  -2   82.52   15.75
   8  22  -2  102.78   19.38
   8  22   2  107.81   18.73
   8  22   3   65.95   15.24
  22  -8   3   61.29   13.73
   8  22  -3   58.45   13.80
   8  22  -3   66.80   16.15
 -22   8  -3   51.72   12.25
   8  22  -4   30.05   11.46
   8  22  -4   17.02    8.82
   8  22  -5    5.09    5.23
   8  22  -5    5.23    3.90
 -22   7   0   -4.54    3.60
  22  -7   0    3.44    3.88
  22  -7   0   -2.19    3.56
   7  22   0    8.53    7.14
   7  22   0    4.88    5.47
 -22   7  -1    7.68    2.94
  22  -7  -1    0.61    3.04
  22  -7   1    1.23    2.44
  22  -7   1   -3.48    4.79
   7  22  -1   10.91    5.78
   7  22  -1    4.88    4.26
   7  22   1   -0.98    2.44
 -22   7  -2   23.45    7.94
 -22   7   2   10.42    6.41
  22  -7   2   15.73    6.89
   7  22  -2   17.78    7.40
   7  22  -2   16.28    8.60
   7  22   2   18.06    7.58
   7  22   3   14.94    7.61
  22  -7   3   10.04    5.10
   7  22  -3   21.45    8.70
   7  22  -3   15.42    7.13
 -22   7  -3   21.60    8.15
   7  22   4   16.08    7.95
  22  -7   4   25.67    9.45
   7  22  -4   18.31    7.63
   7  22  -4   10.31    5.20
   7  22  -5   18.82    9.49
   7  22  -5   21.34    9.68
   7  22  -6    7.69    5.85
  22  -6   0    1.35    3.41
   6  22   0   -0.18    2.58
 -22   6  -1   -0.32    2.82
  22  -6  -1   -5.68    4.20
  22  -6   1    0.16    1.86
  22  -6   1    1.52    2.56
   6  22  -1    8.64    5.97
   6  22  -1    5.47    4.43
   6  22   1    1.11    2.37
 -22   6  -2    4.57    4.53
  22  -6  -2  -10.17    5.74
 -22   6   2    7.74    6.99
  22  -6   2    4.65    4.63
   6  22  -2    0.43    2.79
   6  22  -2    1.49    5.25
   6  22   2   15.08    8.07
  22  -6  -3   -1.29    2.82
  22  -6   3    1.02    2.94
   6  22  -3    2.49    4.57
   6  22  -3    2.87    3.41
  22  -6  -4   -0.55    2.40
   6  22   4    0.81    4.07
   6  22  -4   -0.70    4.90
   6  22  -4   -5.97    5.97
   6  22  -5    7.08    7.60
   6  22  -5   -3.16    5.14
   6  22  -6    1.64    4.46
  22  -5   0    1.18    3.51
  22  -5   0    0.39    2.87
   5  22   0   -0.91    2.37
   5  22   0   -1.62    1.89
 -22   5  -1   -0.54    3.09
  22  -5  -1    0.55    2.44
  22  -5   1    2.53    2.92
  22  -5   1   -0.60    1.54
   5  22  -1    8.63    6.10
   5  22  -1   -1.21    4.33
   5  22   1    0.90    4.55
 -22   5  -2    4.86    5.22
  22  -5  -2    2.64    3.15
 -22   5   2   12.38    6.92
   5  22  -2   13.40    6.22
   5  22  -2    0.69    5.62
   5  22   2   16.19    7.72
   5  22   3   35.79   11.23
  22  -5  -3   26.32    8.79
  22  -5   3   34.00   10.35
   5  22  -3   27.13    9.92
   5  22   4   30.25   10.54
  22  -5  -4   20.29    8.13
  22  -5   4   38.25   11.41
   5  22  -4   33.40   11.28
   5  22  -4   25.79    9.91
   5  22  -5    6.67    5.80
   5  22  -5   18.97    8.40
   5  22  -6   14.38    8.35
  22  -4   0    5.76    4.34
  22  -4   0   -0.59    2.68
   4  22   0    4.67    3.55
   4  22   0    1.95    3.77
  22  -4  -1   -0.51    2.32
  22  -4   1   -0.55    2.99
  22  -4   1    4.91    4.34
   4  22  -1    7.91    5.59
   4  22   1    7.23    6.65
 -22   4  -2   -0.83    2.15
  22  -4  -2   -1.56    4.03
 -22   4   2   -2.88    4.27
   4  22  -2    4.50    5.14
   4  22   2   12.71    6.93
   4  22   3   -1.53    3.90
  22  -4  -3    3.20    4.81
  22  -4   3   -2.58    3.17
   4  22  -3   -3.35    2.52
   4  22  -3    2.66    5.71
   4  22   4    2.20    3.03
  22  -4  -4   -0.38    2.24
 -22   4   4    8.85    7.67
  22  -4   4    0.37    2.74
   4  22  -4   -0.21    2.96
   4  22  -4    0.10    4.90
  22  -4  -5    3.50    3.41
  22  -4   5    7.43    5.24
   4  22  -5    6.03    5.73
  22  -3   0    0.45    3.00
  22  -3   0   -0.31    1.46
   3  22   0    3.23    3.07
   3  22   0   -0.54    2.55
  22  -3  -1   26.10    8.18
  22  -3   1   31.37    8.89
  22  -3   1   35.95   10.05
   3  22  -1   40.09   11.13
   3  22   1   22.52    7.26
   3  22   1   35.51   10.49
  22  -3  -2   81.00   15.71
  22  -3   2   89.07   15.46
   3  22  -2   78.85   15.64
   3  22   2   84.27   16.32
   3  22   3  104.65   18.16
  22  -3  -3  114.52   18.98
 -22   3   3  121.64   20.05
  22  -3   3  108.50   17.78
   3  22  -3  120.81   19.79
  22  -3  -4  174.04   23.97
 -22   3   4  161.11   23.76
   3  22  -4  160.96   23.47
   3  22   4  180.86   24.40
  22  -3  -5  144.48   22.51
   3  22  -5  157.33   24.20
   3  22  -5  134.99   20.91
   3  22   5  148.72   22.41
  22  -2   0   29.58    8.93
   2  22   0   57.68   12.90
   2  22   0   42.09   11.30
  22  -2  -1   44.13   11.17
  22  -2   1   52.55   11.25
   2  22  -1   37.26   10.17
   2  22   1   51.63   11.46
   2  22   1   32.37   10.22
  22  -2  -2   24.76    8.13
   2  22  -2   20.66    7.92
   2  22   2   22.12   17.32
   2  22   3   21.38    8.19
  22  -2  -3   34.15   10.86
 -22   2   3   32.94   11.02
  22  -2   3   21.87    8.36
   2  22  -3   25.80    9.17
   2  22   4    1.20    4.21
  22  -2  -4    3.10    3.15
 -22   2   4    8.32    7.34
  22  -2   4   16.10    7.79
   2  22  -4    2.07    4.42
  22  -2  -5   -2.92    3.70
   2  22   5   -1.69    1.74
 -22   2   5    2.83    3.76
  22  -2   5    8.23    5.90
   2  22  -5    0.36    2.96
  22  -1   0    0.50    2.01
   1  22   0    0.76    4.83
   1  22   0    2.79    3.71
  22  -1  -1   17.10    6.86
  22  -1   1   18.51    6.91
  22  -1   1   14.32    6.60
   1  22  -1   20.34    7.72
   1  22   1    6.01    4.74
   1  22   1   14.38    6.96
  22  -1  -2   47.14   11.30
  22  -1   2   48.10   10.52
  22  -1   2   36.58    9.98
   1  22  -2   68.08   14.64
   1  22   2   50.25   10.91
   1  22   2   61.75   13.80
   1  22   3   51.90   13.11
  22  -1  -3   56.93   13.37
  22  -1   3   67.63   14.18
   1  22  -3   64.94   14.73
   1  22   4  115.78   19.43
  22  -1  -4   77.79   15.80
 -22   1   4   99.50   18.91
   1  22  -4  100.01   18.61
  22  -1  -5   75.18   15.76
   1  22   5   80.01   16.55
 -22   1   5   87.11   18.04
   1  22  -5   93.79   18.88
  22   0   0   34.63    9.77
   0  22   0   39.36    9.83
   0  22   0   30.07    9.71
  22   0  -1   31.12    9.64
  22   0   1   32.50    8.79
   0  22  -1   38.92   11.14
   0  22   1   22.70    8.02
   0  22   1   35.46   10.66
  22   0  -2   21.68    8.11
  22   0   2   42.65    9.84
   0  22  -2   18.33    8.63
   0  22   2   19.78    7.65
   0  22   2   25.09    9.35
   0  22   3   14.77    6.99
  22   0  -3   23.40    8.07
   0  22  -3   12.08    7.83
   0  22   4    9.74    6.55
  22   0  -4    4.25    4.58
 -22   0   4    1.26    4.31
   0  22  -4    6.85    5.68
  22   0  -5    1.36    2.70
   0  22   5    0.28    2.12
 -22   0   5   -0.34    4.04
  22   0   5    2.24    5.27
   0  22  -5    8.90    8.07
  22   1   0   -3.43    4.22
  -1  22   0   -1.33    2.47
  -1  22   0    4.76    4.44
  22   1  -1   -2.69    2.41
  22   1   1    3.51    3.74
  -1  22  -1    3.11    2.31
  -1  22   1    6.83    4.98
  -1  22   1    3.06    3.30
  22   1  -2    3.27    2.75
  22   1   2    0.38    2.90
  22   1   2   -2.46    2.27
  -1  22  -2    2.53    4.13
  -1  22   2    9.88    5.62
  -1  22   2    7.29    5.67
  -1  22   3   -2.89    2.92
  22   1  -3   -0.85    3.40
  22   1   3   -0.97    2.03
  -1  22  -3    1.18    4.21
  22   1  -4    3.34    4.93
  22   1   4   -3.10    5.27
  -1  22  -4   -5.13    4.42
  -1  22   5   -0.11    2.76
  22   1  -5   -1.43    3.26
  22   2   0   49.22   11.86
  -2  22   0   60.81   13.13
  -2  22   0   45.84   12.10
  22   2  -1   48.44   11.77
  22   2   1   48.37   11.44
  -2  22  -1   46.84   12.18
  -2  22   1   50.15   11.96
  -2  22   1   39.38   10.51
  22   2  -2   32.49    9.64
  22   2   2   22.00    7.12
  22   2   2   23.93    7.86
  -2  22  -2   23.17    9.08
  -2  22   2   22.04    8.56
  -2  22   2   29.64    9.65
  -2  22   3   21.20    8.34
  22   2  -3   25.50    8.90
 -22  -2   3   24.73   10.23
  22   2   3   13.11    6.31
  -2  22  -3   21.96    8.39
  -2  22   3   20.02    7.29
  -2  22   4   22.06    8.64
  22   2  -4   17.10    7.42
  22   2   4   28.22    9.76
  -2  22  -4   30.68    9.96
  -2  22   5    6.53    6.17
  22   2  -5    2.37    3.84
 -22  -2   5    7.95    6.15
  -2  22  -5    5.90    4.50
  22   3   0   -0.68    3.07
  -3  22   0    1.91    2.94
  -3  22   0    3.32    3.98
  22   3  -1    3.84    4.60
  22   3   1   15.04    7.13
  -3  22  -1    2.99    4.51
  -3  22   1    2.45    4.30
  -3  22   1    7.78    5.60
  22   3  -2    6.40    5.29
  22   3   2    4.40    4.85
  -3  22  -2    6.74    6.04
  -3  22   2    7.67    5.45
  -3  22   2    2.11    2.33
  -3  22   3   15.25    7.15
  22   3  -3   15.86    7.88
  -3  22  -3   12.36    6.78
  -3  22   3   17.68    6.52
  -3  22   4    4.53    4.35
  22   3  -4   15.29    8.21
 -22  -3   4   11.62    7.64
  -3  22  -4    5.16    3.68
  -3  22   5   13.23    7.07
 -22  -3   5    7.27    6.11
  -3  22  -5   -0.76    6.01
  22   4   0  139.91   19.94
  -4  22   0  156.04   21.46
  -4  22   0  143.23   20.71
  22   4  -1  199.57   24.14
  22   4   1  185.93   22.32
  22   4   1  188.89   21.72
  -4  22  -1  185.36   23.72
  -4  22   1  201.28   23.71
  -4  22   1  195.17   24.19
  22   4  -2  213.87   25.52
  22   4   2  194.27   22.24
  22   4   2  187.07   22.34
  -4  22  -2  233.58   27.36
  -4  22   2  216.23   24.28
  -4  22   2  200.01   24.59
  -4  22   3  111.89   18.65
  22   4  -3  130.62   20.50
  22   4   3  118.45   18.56
  -4  22  -3  104.23   18.72
  -4  22   3  114.38   17.47
  -4  22   4   57.59   13.68
  22   4  -4   75.41   16.11
  22   4   4   65.36   14.37
  -4  22  -4   69.43   15.64
  -4  22   4   50.05   11.30
  -4  22   5    4.24    4.42
 -22  -4   5   28.72   10.42
  22   4   5   17.97    8.00
  22   5   0    1.66    3.67
  -5  22   0    0.89    1.97
  -5  22   0    2.25    2.32
  22   5  -1   -0.36    2.48
  22   5   1    6.72    5.51
  -5  22  -1   -3.60    3.28
  -5  22   1    2.66    3.39
  -5  22   1   -4.50    2.12
  -5  22   2   10.48    5.86
  22   5  -2   -3.62    4.19
  22   5   2    6.49    5.02
  -5  22  -2    7.60    6.14
  -5  22   2   -1.95    4.12
  -5  22   3    2.79    4.04
  22   5  -3    0.04    2.75
  22   5   3    1.93    2.78
  -5  22  -3    2.08    3.98
  -5  22   3    2.13    3.69
  -5  22   4    3.42    3.12
 -22  -5   4    5.32    5.19
  22   5  -4    3.17    4.12
  22   5   4    3.55    5.07
  -5  22  -4    5.58    7.08
  -5  22   4    6.96    4.51
  -5  22   5   -0.94    1.90
  22   5   5    5.41    6.13
  22   6   0   98.77   16.83
  -6  22   0   74.14   15.04
  -6  22   0   72.98   14.82
  22   6  -1   86.98   16.43
  22   6   1   76.80   14.71
  22   6   1   94.36   15.61
  -6  22  -1   82.58   15.31
  -6  22  -1   88.43   16.79
  -6  22   1  109.45   18.16
  -6  22   1   89.96   16.22
  -6  22   2  101.59   17.28
  22   6  -2  121.65   19.74
  22   6   2   88.29   15.36
  22   6   2   96.72   16.70
  -6  22  -2  118.32   19.90
  -6  22   2  103.07   17.21
  -6  22   3   37.90   10.94
  22   6  -3   52.22   13.02
  22   6   3   66.11   14.13
  -6  22  -3   54.78   13.68
  -6  22   3   58.26   12.78
  -6  22   4   26.27    9.42
  22   6  -4   28.10   10.30
  -6  22  -4   23.77    9.22
  -6  22   4   16.82    7.68
  -6  22   5    8.93    7.49
  22   7   0   -1.28    2.67
  -7  22   0   -1.15    2.23
  -7  22   0   -1.98    2.00
  22   7  -1    4.72    3.72
  22   7   1   12.09    7.50
  22   7   1    7.09    4.75
  -7  22  -1    5.07    5.13
  -7  22  -1    2.98    3.48
  -7  22   1   -2.41    4.38
  -7  22   1    4.61    4.37
  -7  22   2    3.00    5.04
  22   7  -2   12.74    7.80
  22   7   2   -0.84    3.17
  22   7   2    1.31    3.78
  -7  22  -2   -0.52    4.48
  -7  22   2    5.82    5.50
  -7  22   3   11.00    6.55
  22   7  -3   12.04    6.88
  22   7   3    6.42    5.59
  22   7   3    0.99    7.20
  -7  22  -3    1.76    4.60
  -7  22   3    9.19    5.70
  -7  22   4    4.26    3.60
  22   7  -4    2.56    3.36
  22   7   4    6.30    5.07
  -7  22   4    3.20    3.35
  -7  22   5    0.61    3.25
  -7  22   5   10.77    6.39
  22   8   0   -0.83    3.53
  -8  22   0   10.22    5.61
  -8  22   0    6.83    4.99
  22   8  -1    2.52    2.06
  22   8   1    3.39    2.86
  22   8   1    5.25    5.78
  -8  22  -1    7.10    6.22
  -8  22  -1    0.34    2.67
  -8  22   1    9.83    5.45
  -8  22   1   11.15    5.48
  -8  22   2   -2.89    5.02
  22   8  -2    3.08    5.72
  22   8   2    8.97    6.39
  22   8   2   11.83    7.62
  -8  22  -2    4.09    3.87
  -8  22   2   -2.09    3.83
  -8  22   3   -3.17    3.90
  22   8  -3    0.76    3.61
  22   8   3   -0.21    2.61
  22   8   3   -3.48    4.55
  -8  22  -3    9.48    6.80
  -8  22   3    1.58    3.53
  -8  22   4   -3.74    3.55
  22   8   4   -1.56    2.22
  -8  22   4   -1.51    2.85
 -22  -8   5    3.05    4.74
  -8  22   5   -0.53    3.15
  -8  22   5    5.27    4.41
  22   9   0    2.06    3.57
  -9  22   0    6.04    5.77
  -9  22   0   -1.17    3.24
  -9  22   1    9.53    5.28
  22   9  -1   10.68    6.90
  22   9   1    4.43    3.93
  -9  22  -1   10.72    6.26
  -9  22   1   11.46    7.35
  -9  22  -1    7.67    5.14
  -9  22   2    2.27    3.41
  22   9  -2   13.60    7.59
  22   9   2   13.42    7.55
  22   9   2   12.94    6.15
  -9  22  -2    8.61    5.91
  -9  22   2    6.67    5.72
  -9  22   3   19.16    7.91
  22   9   3   21.41    8.48
  22   9   3   11.10    6.40
  -9  22   3   18.62    7.81
  -9  22   4   38.08   11.07
  22   9   4   48.88   13.93
  -9  22   4   46.43   12.24
  -9  22   5   33.76   10.15
  -9  22   5   24.79    8.66
  22  10   0   25.12    9.00
 -10  22   0   35.70   10.95
 -10  22   0   39.18   10.58
 -10  22   1   14.07    5.76
  22  10  -1    4.51    4.06
  22  10   1   19.55    8.00
 -10  22  -1   24.00    8.96
 -10  22   1   23.98    9.88
 -10  22  -1   24.37    7.88
 -10  22   2   21.62    8.17
  22  10  -2   13.59    7.05
  22  10   2   39.15   12.37
 -10  22   2   22.72    8.03
 -10  22   3   10.94    6.45
  22  10   3   28.02   10.43
  22  10   3   13.85    6.20
 -10  22   3   13.43    6.88
 -10  22   4   15.15    7.01
 -10  22   4    9.62    6.11
 -10  22   5    6.20    4.81
  22  11   0    5.90    5.39
  22  11  -1   31.36   10.72
  22  11   1   15.57    8.16
 -11  22   1   23.38    8.81
  22  11   2   40.49   11.08
  22  11   2   58.24   14.52
 -11  22   2   50.36   13.17
  22  11   3   90.60   17.17
  22  12   1    2.42    4.45
  22  12   2    1.95    4.11
  22  12   2    1.08    3.64
  22  12   3    9.55    6.24
  22  13   3   30.47   10.53
 -23  10   0   12.95    7.96
 -23  10  -1   -1.51    4.57
  23 -10   2   -2.48    2.30
 -23  10  -2    7.09    5.70
 -23  10  -3   11.27    7.35
 -23   9   0    0.27    4.12
  23  -9   0    0.56    1.86
  23  -9   0   -0.24    2.43
   9  23   0   -1.75    5.10
 -23   9  -1    1.59    4.13
 -23   9   1    5.59    4.38
  23  -9   1    0.57    3.84
 -23   9  -2    3.40    3.83
  23  -9   2    1.77    3.75
   9  23  -3    0.38    2.55
 -23   9  -3    8.28    5.31
   9  23  -4    6.01    4.75
 -23   8   0    6.84    5.51
  23  -8   0   -1.63    3.45
  23  -8   0    0.33    2.57
   8  23   0    0.50    4.71
   8  23   0    6.09    3.48
 -23   8  -1    9.17    5.73
  23  -8  -1    1.37    2.31
  23  -8   1    3.30    2.60
   8  23  -1   -5.58    3.53
   8  23   1    6.75    4.99
 -23   8  -2   16.72    7.81
  23  -8   2   13.44    6.89
   8  23  -3   49.55   12.72
   8  23  -4   54.29   13.27
  23  -7   0   11.44    6.47
   7  23   0   27.50    9.70
 -23   7  -1   18.24    8.03
  23  -7  -1   19.57    7.46
   7  23  -1   24.62    9.30
   7  23   1   24.67    8.97
 -23   7  -2   26.77    9.35
  23  -7  -2   22.10    9.09
  23  -7   2   24.39    8.28
   7  23  -2   23.13    8.63
   7  23  -2   30.75   10.72
   7  23   2   14.69    7.35
  23  -7  -3   10.41    7.05
  23  -7   3   15.11    7.45
   7  23  -3    3.80    4.18
   7  23  -3   12.53    7.36
   7  23  -4    9.82    6.69
  23  -6   0   -1.17    1.88
   6  23   0   -4.37    4.55
 -23   6  -1   11.19    6.22
  23  -6  -1    6.78    4.76
  23  -6   1   14.24    6.75
   6  23  -1    3.69    5.54
   6  23  -1   14.83    8.14
   6  23   1   20.61    8.47
 -23   6  -2   34.87    9.61
  23  -6  -2   43.50   11.91
   6  23  -2   48.04   12.24
   6  23  -2   56.51   14.45
   6  23   2   42.78   12.07
  23  -6  -3   76.04   16.04
  23  -6   3   78.54   15.54
   6  23  -3   63.02   14.35
   6  23  -4   93.12   18.44
   6  23  -4  125.99   21.27
   6  23  -5  123.84   21.43
  23  -5   0   54.45   12.38
   5  23   0   56.89   13.82
  23  -5  -1   52.13   12.49
  23  -5   1   49.29   11.31
  23  -5   1   44.61   10.91
   5  23  -1   56.55   12.71
   5  23   1   61.83   14.82
 -23   5  -2   59.04   12.73
  23  -5  -2   65.82   14.28
  23  -5   2   48.55   11.64
   5  23  -2   45.86   12.22
   5  23   2   44.98   11.81
   5  23   3   20.72    9.04
  23  -5  -3   47.20   12.57
   5  23  -3   44.17   12.91
   5  23  -3   33.70   10.73
  23  -5   4   24.79    8.40
   5  23  -4   16.95    7.90
   5  23  -4   25.05    9.29
  23  -4   0   -1.69    4.04
   4  23   0   10.58    7.11
   4  23   0    2.87    5.22
  23  -4  -1    6.29    6.22
  23  -4   1    3.70    3.85
  23  -4   1   -3.39    3.46
   4  23  -1    7.06    6.02
   4  23   1    5.83    6.25
  23  -4  -2   11.48    6.07
  23  -4   2   13.39    6.92
   4  23  -2   11.30    7.14
   4  23   2   17.81    8.20
   4  23   3   13.71    6.96
  23  -4  -3    2.30    3.64
  23  -4   3   17.65    8.49
   4  23  -3    5.59    5.38
  23  -4  -4   13.73    6.83
  23  -4   4   22.82    8.32
   4  23  -4   28.08   10.54
   4  23  -4   17.39    7.44
   4  23  -5    8.39    3.86
  23  -3   0    1.05    3.14
   3  23   0    3.57    2.75
   3  23   0   -0.98    2.26
  23  -3  -1    1.85    3.53
  23  -3   1   -1.09    3.51
   3  23  -1    1.59    2.39
   3  23   1   -0.31    4.85
  23  -3  -2   -0.26    2.17
   3  23  -2    6.62    6.75
   3  23   2   -1.47    3.62
   3  23   3    5.49    5.19
  23  -3  -3    2.38    2.01
   3  23  -3   -1.12    2.86
  23  -3  -4    5.15    4.75
  23  -3   4   10.14    6.96
   3  23  -4    7.26    4.80
  23  -2   0    0.50    2.25
   2  23   0    1.75    4.14
   2  23   0   -0.05    1.64
  23  -2  -1    4.39    4.33
  23  -2   1   -0.10    2.09
  23  -2   1    0.58    2.61
   2  23  -1   -4.13    4.87
   2  23   1    8.33    4.98
   2  23   1    4.89    5.28
  23  -2   2    4.79    3.34
   2  23  -2   -0.22    2.10
   2  23   3    1.07    3.72
  23  -2  -3   -0.67    2.69
  23  -2   3   -1.51    2.95
   2  23  -3    7.81    6.64
  23  -2  -4    1.42    5.34
  23  -2   4    3.21    3.45
   2  23  -4   -2.78    4.72
  23  -1   0  160.39   21.05
   1  23   0  216.87   24.70
   1  23   0  226.45   27.11
  23  -1  -1  140.07   20.27
  23  -1   1  176.54   21.60
   1  23  -1  171.28   22.77
   1  23   1  198.51   22.85
   1  23   1  149.98   22.04
  23  -1  -2  104.49   17.70
   1  23  -2  111.30   19.22
   1  23   2  106.99   19.08
   1  23   3   71.32   15.43
  23  -1  -3   63.00   14.35
 -23   1   3   67.75   15.26
   1  23  -3   72.92   15.96
   1  23   4   39.74   12.07
  23  -1  -4   24.00    9.43
   1  23  -4   44.14   12.87
  23   0   0    5.41    4.44
   0  23   0    1.57    2.84
   0  23   0    3.86    5.63
  23   0  -1    8.50    5.93
  23   0   1   10.52    5.70
  23   0   1    5.31    4.66
   0  23  -1   10.66    7.38
   0  23   1    5.43    3.65
   0  23   1    6.52    5.25
  23   0  -2   13.65    6.93
   0  23  -2    2.37    5.34
   0  23   2    6.85    5.50
   0  23   3   -0.39    1.91
  23   0  -3   -0.40    3.73
   0  23  -3   -1.34    3.03
   0  23   4   13.53    6.77
  23   0  -4   43.69   12.90
 -23   0   4   25.14   10.38
  23   0   4   16.67    8.12
   0  23  -4   44.54   13.90
  23   1   0  187.34   23.07
  -1  23   0  206.66   24.60
  -1  23   0  193.23   25.17
  23   1  -1  167.64   22.08
  23   1   1  201.00   23.06
  23   1   1  181.54   21.57
  -1  23  -1  206.46   25.05
  -1  23   1  207.81   23.98
  -1  23   1  201.57   25.63
  23   1  -2  143.38   20.82
  23   1   2  145.72   19.35
  -1  23   2  147.19   19.46
  -1  23  -2  127.63   20.17
  -1  23   2  124.43   20.38
  -1  23   3   84.79   16.75
  23   1  -3   59.78   13.80
  -1  23  -3   92.77   17.76
  -1  23   4   45.38   12.63
  23   1  -4   40.81   12.79
 -23  -1   4   43.70   12.62
  23   1   4   41.25   11.15
  -1  23  -4   61.60   15.14
  23   2   0    2.80    3.93
  -2  23   0   -0.55    3.29
  -2  23   0    0.94    3.23
  23   2  -1    1.14    6.53
  23   2   1    2.55    3.59
  23   2   1   -2.54    4.10
  -2  23  -1    4.79    4.46
  -2  23   1    9.24    6.14
  -2  23   1   -3.96    4.61
  23   2  -2   14.56    6.60
  23   2   2   10.85    5.52
  -2  23  -2   16.24    7.36
  -2  23   2   18.31    6.60
  -2  23   2   15.16    7.05
  -2  23   3   18.59    8.28
  23   2  -3   17.43    7.85
  -2  23  -3   14.95    6.86
  -2  23   4   30.22   11.24
  23   2  -4   24.50    9.40
  -2  23  -4   45.16   13.16
  23   3   0   21.11    8.30
  -3  23   0   27.90   10.06
  -3  23   0   10.83    5.71
  23   3  -1   18.44    8.04
  23   3   1   11.61    6.93
  -3  23  -1   10.77    7.04
  -3  23   1   15.50    6.55
  -3  23   1   13.69    7.87
  -3  23   2    0.50    3.29
  23   3  -2   -0.11    3.31
  23   3   2   -0.48    3.09
  -3  23  -2    7.62    5.89
  -3  23   2    2.98    3.14
  -3  23   3   12.01    6.71
  23   3  -3    9.10    4.94
  -3  23  -3    7.95    5.26
  -3  23   3    9.76    4.62
  -3  23   4    8.34    7.01
  -3  23  -4   -0.78    3.13
  23   4   0    7.02    5.80
  -4  23   0    5.40    4.79
  -4  23   0    4.33    4.29
  23   4  -1    5.61    5.64
  23   4   1    5.13    4.85
  23   4   1   -0.51    3.48
  -4  23  -1    2.54    2.09
  -4  23  -1   -6.91    6.37
  -4  23   1   -2.53    2.29
  -4  23   1    0.27    2.85
  -4  23   2    2.59    3.28
  23   4  -2    2.03    4.00
  23   4   2   12.52    6.68
  23   4   2   -0.30    3.26
  -4  23  -2   -2.37    3.44
  -4  23   2    8.19    5.51
  -4  23   3    4.72    5.19
  23   4  -3    3.03    5.25
  23   4   3   -0.78    3.23
  -4  23  -3    0.94    5.04
  -4  23   3   -3.46    3.49
  -4  23   4    4.93    5.82
 -23  -4   4    6.69    6.91
  23   4   4    2.59    2.74
  23   5   0    6.77    4.94
  -5  23   0   -0.70    2.19
  -5  23   0   -1.77    3.68
  23   5  -1   10.54    7.94
  23   5   1    9.92    5.14
  -5  23  -1    9.28    6.69
  -5  23  -1    6.35    5.27
  -5  23   1    6.87    5.29
  -5  23   1    5.05    5.10
  -5  23   2    7.54    5.73
  23   5  -2    8.64    6.09
  23   5   2    6.51    5.06
  -5  23  -2    8.71    5.57
  -5  23   2   10.91    5.01
  -5  23   3    6.16    5.81
  23   5  -3    4.12    5.81
  -5  23  -3   -0.04    3.45
  -5  23   3    8.10    5.71
  -5  23   4   -1.36    3.39
  23   5   4    2.64    5.05
  -6  23   0   -0.12    2.35
  -6  23   0   -3.97    3.99
  23   6  -1    6.25    4.61
  23   6   1    2.35    2.84
  -6  23  -1    2.58    3.78
  -6  23  -1    4.14    3.67
  -6  23   1   -0.93    2.58
  -6  23   2   59.64   14.01
  23   6  -2   42.83   11.82
  23   6   2   50.82   12.63
  23   6   2   61.69   13.72
  -6  23  -2   58.92   14.26
  -6  23   2   44.75   11.81
  -6  23   3   90.33   17.20
  23   6  -3   89.12   17.82
  23   6   3   82.59   15.92
  -6  23  -3   81.27   17.48
  -6  23   3   83.91   16.11
  -6  23   4   84.86   16.85
  23   6   4  101.49   18.70
  -6  23   4   93.02   16.61
  23   7   0    1.78    3.58
  -7  23   0    2.58    3.67
  -7  23   0    0.19    3.31
  23   7  -1    6.26    5.08
  23   7   1    1.85    2.55
  -7  23  -1   -1.21    2.39
  -7  23  -1   -0.95    5.42
  -7  23   1   -0.15    4.03
  -7  23   1    2.99    3.09
  -7  23   2   11.55    7.04
  23   7  -2   10.41    5.92
  23   7   2    5.80    4.76
  23   7   2    7.04    6.64
  -7  23  -2    1.20    3.60
  -7  23   2    7.12    5.27
  -7  23   3    1.45    4.74
  23   7   3    3.25    5.43
  -7  23   3    1.67    2.69
  -7  23   4    1.20    3.82
  23   7   4   -4.31    4.56
  -7  23   4   -1.29    3.27
  23   8   0    2.81    2.72
  -8  23   0   -3.54    4.39
  -8  23   0    4.18    4.04
  -8  23   1    5.03    4.76
  23   8  -1    1.35    3.23
  23   8   1    0.96    2.41
  -8  23  -1   13.47    7.73
  -8  23   1    6.85    5.23
  -8  23  -1    8.78    6.18
  -8  23   2   30.12    9.55
  23   8  -2   41.12   12.32
  23   8   2   26.80    8.99
  23   8   2   42.14   11.76
  -8  23   2   48.16   13.01
  -8  23   3   70.33   15.02
  23   8   3   83.64   16.50
  -8  23   3   70.30   15.16
  -8  23   4   83.84   16.91
  -8  23   4   63.35   13.83
  23   9   0   16.15    7.27
  -9  23   0   12.03    6.51
  -9  23   0    4.36    2.75
  -9  23   1   11.12    5.58
  23   9  -1   16.45    8.16
  23   9   1   13.98    6.73
  -9  23   1   15.67    7.22
  -9  23  -1   21.72    8.55
  -9  23   2    9.05    5.25
  23   9   2   12.98    6.74
  -9  23  -2    5.91    5.25
  -9  23   2   10.45    6.59
  -9  23   3   -2.93    4.13
  23   9   3    8.90    6.14
  -9  23   3    5.52    4.72
  -9  23   4    2.28    2.77
  -9  23   4   13.31    7.22
  23  10   0    7.20    5.93
  23  10   1   -5.66    5.71
  23  10   2    2.59    5.38
 -10  23   3    4.16    2.70
  23  10   3    1.54    3.43
  23  11   2    9.61    7.36
  24 -10   1  122.07   20.19
 -24   9  -1   -0.03    2.82
  24  -9  -1    4.15    5.10
  24  -9   1   -1.75    5.56
 -24   9  -2    0.35    3.19
  24  -8   0   41.16   11.11
 -24   8  -1   66.22   14.63
  24  -8  -1   68.89   14.90
 -24   8  -2   70.35   15.24
  24  -8   2   51.40   13.11
   8  24  -3   43.96   12.69
  24  -7   0   -1.37    2.75
 -24   7  -1    0.62    2.69
  24  -7  -1    5.60    4.41
  24  -7   1    3.82    4.23
 -24   7  -2   -1.37    2.80
  24  -7  -2    2.05    3.68
  24  -7   2   -1.67    2.37
   7  24  -3   -2.39    3.70
  24  -6   0   19.41    7.44
  24  -6  -1    3.46    3.73
  24  -6   1   19.31    7.70
  24  -6  -2   26.82    9.55
  24  -6   2    7.06    4.52
   6  24  -2   25.41   10.09
   6  24  -3   24.57    9.27
  24  -5   0    0.40    2.27
  24  -5  -1    0.37    2.35
   5  24  -1    3.55    3.47
  24  -5  -2    0.23    3.00
  24  -5   2    8.47    4.87
   5  24  -2   -1.97    3.86
  24  -5   3   16.58    6.50
   5  24  -3    8.41    4.83
  24  -4   0  148.93   20.83
  24  -4  -1  121.58   19.63
  24  -4   1  134.74   19.73
   4  24  -1  124.34   19.72
  24  -4  -2   81.86   16.54
  24  -4   2   74.12   15.07
   4  24  -2   76.47   15.88
   4  24  -3   66.61   15.42
  24  -3   0    1.19    2.11
   3  24   0   -1.80    3.08
   3  24   0    6.09    4.76
  24  -3  -1    1.82    2.52
  24  -3   1   11.05    5.45
   3  24  -1   14.21    7.01
   3  24   1   16.55    8.51
  24  -3  -2   33.40   10.39
  24  -3   2   38.51   10.58
   3  24  -2   36.41   10.75
  24  -3  -3   44.18   12.87
  24  -3   3   32.89    9.84
   3  24  -3   42.24   12.64
  24  -2   0   57.14   12.89
   2  24   0   65.53   13.64
  24  -2  -1   90.51   16.70
  24  -2   1   68.15   13.93
  24  -2   1   53.28   12.04
   2  24  -1   74.25   15.40
   2  24   1   84.31   17.37
  24  -2  -2   55.75   13.30
  24  -2   2   61.31   13.24
   2  24  -2   57.63   14.29
  24  -2  -3   29.97   10.19
   2  24  -3   22.46    9.36
  24  -1   0   -1.97    3.53
   1  24   0   -0.66    2.76
   1  24   0    2.29    4.52
  24  -1  -1    9.03    4.86
  24  -1   1   16.60    6.95
   1  24  -1    9.35    5.48
   1  24   1   16.79    7.87
  24  -1  -2    8.43    5.33
   1  24  -2   12.70    5.57
   1  24   2   16.85    8.38
  24  -1  -3   22.25    9.62
   1  24  -3   22.30    9.29
  24   0   0    6.83    6.20
   0  24   0    7.75    6.81
   0  24   0   -0.30    3.48
  24   0  -1    9.38    7.01
  24   0   1    3.12    2.98
   0  24  -1    9.67    6.11
   0  24   1    3.82    3.86
   0  24   1    3.20    3.14
  24   0  -2    2.45    3.52
  24   0   2   -1.28    2.28
   0  24  -2    7.05    6.67
   0  24   2    1.76    3.04
  24   0   3   -9.39    5.61
   0  24  -3   -3.24    5.69
  24   0   4    0.07    4.31
  24   1   0   -1.02    2.89
  -1  24   0   -0.04    4.28
  -1  24   0    3.20    4.12
  24   1  -1    7.77    7.19
  24   1   1    6.17    4.88
  -1  24  -1    2.39    2.57
  -1  24   1    1.50    3.46
  -1  24   1    5.85    5.34
  24   1  -2   13.05    6.75
  24   1   2    9.15    3.60
  -1  24  -2   17.21    7.70
  -1  24   2   17.32    8.20
  24   1  -3   22.47    8.71
  24   1   3    8.91    5.38
  -1  24  -3   13.58    6.47
  24   1   4   48.68   13.10
  24   2   0   11.70    6.08
  -2  24   0   13.42    6.80
  -2  24   0    8.72    6.08
  24   2  -1    2.16    3.62
  -2  24  -1   -0.19    4.97
  -2  24  -1   -5.39    4.15
  -2  24   1    1.63    2.48
  -2  24   1   11.55    6.59
  -2  24   2    3.72    4.55
  24   2  -2   -1.75    2.21
  -2  24  -2    7.57    6.40
  -2  24   2    0.35    2.85
  24   2   3   -3.28    3.38
  -2  24  -3   -3.18    2.96
  24   2   4    3.52    3.58
  24   3   0    6.71    4.90
  -3  24   0   -0.19    4.73
  -3  24   0    0.74    2.02
  24   3  -1   10.83    6.04
  24   3   1   20.06    7.97
  -3  24  -1    8.70    5.21
  -3  24  -1   15.74    6.78
  -3  24   1   22.27    9.04
  -3  24   1   19.56    8.08
  -3  24   2   59.36   14.28
  24   3  -2   90.00   17.42
  24   3   2   61.66   13.98
  -3  24  -2   82.65   17.12
  -3  24   2   55.07   12.42
  24   4   0   57.23   13.44
  -4  24   0   41.60   11.52
  -4  24   0   41.94   11.87
  24   4  -1   61.09   13.90
  24   4   1   66.80   14.32
  -4  24  -1   50.80   13.00
  -4  24   1   55.42   13.12
  -4  24  -1   45.61   12.66
  -4  24   1   45.57   12.58
  -4  24   2   20.91    8.45
  24   4  -2   20.90    8.57
  24   4   2   23.07    8.27
  -4  24  -2   30.28   10.21
  -4  24   2   27.35    8.99
  24   4   3   15.77    6.31
  -4  24   3   18.40    8.08
  24   5   0   -1.92    2.84
  -5  24   0    4.66    3.43
  -5  24   0    1.88    4.43
  24   5  -1   32.38   10.65
  24   5   1   23.97    9.68
  -5  24  -1   13.53    6.27
  -5  24   1   26.72    9.57
  -5  24  -1   18.60    7.38
  -5  24   1   25.34    9.54
  -5  24   2   24.58    8.84
  24   5  -2   29.17   10.46
  24   5   2   20.50    8.06
  -5  24  -2   29.83   10.94
  -5  24   2   14.74    6.54
  -5  24   3   21.85    8.12
  24   6   0    6.77    6.54
  -6  24   0    3.48    5.50
  -6  24   0    1.71    2.44
  24   6  -1   16.69    8.93
  24   6   1   13.85    7.01
  -6  24  -1    5.67    3.30
  -6  24   1   10.42    6.83
  -6  24  -1    5.19    4.46
  -6  24   1    5.16    4.11
  -6  24   2   16.44    7.62
  24   6   2    7.47    5.60
  24   6   2    9.78    6.27
  -6  24   2    9.61    5.63
  24   6   3   10.10    7.59
  -6  24   3    7.84    5.76
  24   7   0    6.05    5.41
  -7  24   0   -0.96    5.01
  -7  24   0    2.05    3.37
  24   7  -1    2.10    3.82
  24   7   1   -3.82    4.60
  -7  24   1    5.31    4.81
  -7  24  -1  -11.24    6.26
  -7  24   1    0.87    3.87
  -7  24   2   -3.42    4.24
  24   7   2    0.63    3.11
  -7  24   2    6.23    5.13
  24   7   3    6.81    3.31
  -7  24   3   -6.48    6.53
  -7  24   4   -3.34    3.43
  24   8   0   93.51   17.88
  -8  24   0   69.94   15.06
  -8  24   1   67.77   14.69
  24   8   1   79.81   16.18
  -8  24  -1   78.11   16.03
  -8  24   2   56.54   13.74
  24   8   2   74.17   15.83
  -8  24  -2   38.80   11.45
  24   8   3   19.77    8.72
  -9  24   0   -5.37    4.40
  -9  24   1    2.95    4.36
  24   9   1   -2.21    2.51
  -9  24  -1    3.76    4.72
  -9  24   2    5.36    5.16
  24   9   2    2.07    3.73
  -9  24  -2    1.47    2.17
  25  -7  -1   32.72   10.54
  25  -6   0    7.96    6.07
  25  -6  -1    5.63    4.19
  25  -5   0   -1.10    2.42
  25  -5  -1   -2.32    3.44
  25  -5   2    1.71    3.22
   5  25  -2    2.09    5.11
  25  -4   0    7.22    5.51
  25  -4  -1    1.84    3.83
   4  25  -2    9.10    6.43
  25  -3   0    1.72    3.00
  25  -3  -1    0.36    3.94
   3  25  -1    1.25    3.35
  25  -3   2   13.50    7.42
   3  25  -2    1.12    3.42
  25  -2   0   -2.93    4.39
  25  -2  -1    0.70    2.63
   2  25  -1    9.36    6.90
   2  25  -2   21.14    9.60
  25  -1   0   77.53   15.67
   1  25   0   78.67   15.43
  25  -1  -1   78.49   15.97
   1  25  -1   60.70   13.76
  25  -1   2   40.31   11.00
   1  25  -2   30.45   10.27
  25  -1   3   37.60   10.85
  25   0   0   -0.75    2.96
   0  25   0    0.89    2.99
  25   0  -1   11.40    6.03
  25   0   1    0.30    3.66
   0  25  -1    6.81    4.92
   0  25  -2   22.01    9.22
  25   1   0  168.95   22.89
  -1  25   0  102.23   17.86
  25   1  -1  116.85   19.58
  25   1   1  101.65   17.36
  -1  25  -1   97.42   18.03
  -1  25   1   83.73   16.14
  -1  25  -2   64.56   15.45
  25   2   0   -1.62    4.26
  -2  25   0   -0.54    3.01
  25   2  -1    4.27    2.39
  25   2   1    7.99    5.27
  -2  25  -1    1.42    4.08
  -2  25   1   14.85    7.32
  25   3   0    8.09    5.40
  -3  25   0    4.45    4.36
  25   3  -1   10.73    6.13
  25   3   1    1.64    3.28
  -3  25  -1    0.55    4.58
  -3  25   1    1.16    2.61
  -3  25   2   -3.41    3.02
  25   3   3   -4.04    4.57
  25   4   0    5.44    3.76
  -4  25   0   -0.76    2.23
  25   4   1    4.62    5.33
  -4  25   1    4.36    4.16
  -4  25   2   -1.15    2.99
  25   4   3    0.50    2.97
  25   5   0  149.75   22.48
  25   5   1  109.13   18.65
  -5  25   1  129.83   20.87
  -5  25   2  102.90   17.91
  25   6   1   -5.44    5.23
  -6  25   3   15.73    7.39
  25   7   1  128.28   20.89
  26  -3   0   -3.31    4.82
  26  -2   0   71.82   14.94
   2  26  -1   29.86   10.33
  26  -1   0   -2.06    4.59
   1  26  -1   -2.20    2.95
  26   0   0   -0.64    3.32
   0  26   0    4.36    4.98
  26   1   0    7.67    6.13
  -1  26   0   -0.70    3.11
  -2  26   1   53.79   12.91
  -3  26   1    5.82    5.04
  26   4   1   14.72    5.79
   0   0   0    0.00    0.00
;
_shelx_res_checksum              13613
_shelx_res_file
;
TITL sad in P4/n
    SAD.res
    created by SHELXL-2018/3 at 17:20:50 on 06-Sep-2018
CELL 0.71073 19.4161 19.4161 9.9444 90 90 90
ZERR 4 0.0002 0.0002 0.0004 0 0 0
LATT 1
SYMM 0.5-X,0.5-Y,+Z
SYMM 0.5-Y,+X,+Z
SYMM +Y,0.5-X,+Z

SFAC C H Ce N O
UNIT 96 184 8 24 92
ISOR 0.001 N3
ISOR 0.01 0.02 C12

L.S. 15
PLAN  5
SIZE 0.15 0.1 0.08
TEMP -100
BOND
fmap 2
ISOR 0.01 C5
acta
OMIT -3 53
OMIT 0 0 8
OMIT 2 2 0
OMIT 2 3 7
OMIT -2 7 2
OMIT -7 19 8
OMIT 0 2 2
OMIT 1 2 2
OMIT 1 3 0
REM <HKL>G:/CML-X-ray/cml121117/solve-Cepdta/sad.hkl</HKL>

WGHT    0.021600   18.993402
FVAR       0.09076
CE1   3    0.456757    0.605417    0.041336    11.00000    0.00955    0.00823 =
         0.03266   -0.00084   -0.00081    0.00079
C1    1    0.539146    0.525008    0.331252    11.00000    0.02493    0.02706 =
         0.02707    0.00864   -0.00130    0.00416
AFIX  23
H1A   2    0.497402    0.505440    0.373775    11.00000   -1.20000
H1B   2    0.577343    0.521411    0.396825    11.00000   -1.20000
AFIX   0
C2    1    0.556824    0.482995    0.208502    11.00000    0.01230    0.01642 =
         0.03285    0.00558   -0.00135    0.00127
C3    1    0.482085    0.628780    0.404736    11.00000    0.03911    0.04029 =
         0.03014   -0.01111    0.00326    0.00654
AFIX  23
H3A   2    0.511352    0.651848    0.472686    11.00000   -1.20000
H3B   2    0.456404    0.591571    0.450767    11.00000   -1.20000
AFIX   0
C4    1    0.431289    0.680321    0.349849    11.00000    0.02738    0.03494 =
         0.05277   -0.01632    0.00580    0.00580
C5    1    0.496835    0.782345    0.057790    11.00000    0.02705    0.00579 =
         0.04284   -0.00591   -0.00230   -0.00290
AFIX  23
H5A   2    0.520093    0.824925    0.027176    11.00000   -1.20000
H5B   2    0.489904    0.785644    0.156209    11.00000   -1.20000
AFIX   0
C6    1    0.428079    0.775510   -0.011466    11.00000    0.03031    0.01405 =
         0.04574    0.00402   -0.00316    0.00113
C7    1    0.561110    0.726536   -0.116109    11.00000    0.02905    0.01864 =
         0.03990    0.01174    0.00039    0.00070
AFIX  23
H7A   2    0.599983    0.759263   -0.124335    11.00000   -1.20000
H7B   2    0.522125    0.745057   -0.169115    11.00000   -1.20000
AFIX   0
C8    1    0.582416    0.657843   -0.174256    11.00000    0.02094    0.02396 =
         0.03914    0.00080   -0.00128   -0.00092
C9    1    0.595200    0.631918    0.299960    11.00000    0.02845    0.02725 =
         0.03080   -0.00148   -0.01000    0.00302
AFIX  23
H9A   2    0.625695    0.605819    0.238567    11.00000   -1.20000
H9B   2    0.615106    0.628446    0.391362    11.00000   -1.20000
AFIX   0
C10   1    0.596582    0.707986    0.257384    11.00000    0.02024    0.02221 =
         0.04194   -0.00787   -0.01191    0.00036
AFIX  23
H10A  2    0.553450    0.729851    0.288951    11.00000   -1.20000
H10B  2    0.635154    0.730724    0.305011    11.00000   -1.20000
AFIX   0
C11   1    0.604102    0.722784    0.108485    11.00000    0.01971    0.01788 =
         0.04244   -0.00351   -0.00674   -0.00720
AFIX  23
H11A  2    0.625697    0.768691    0.098508    11.00000   -1.20000
H11B  2    0.636449    0.688585    0.070228    11.00000   -1.20000
AFIX   0
PART   1
C12   1    0.695060    0.250439    0.279689    10.60000    0.05059    0.02592 =
         0.11977    0.02356    0.01118    0.01742
PART   2
C13   1    0.750000    0.250000    0.183840    10.40000    0.05553    0.13100 =
         0.01854    0.00000    0.00000   -0.03229
PART   0
N1    4    0.526875    0.597831    0.301153    11.00000    0.01971    0.02469 =
         0.02538   -0.00442   -0.00023    0.00312
N2    4    0.540456    0.721837    0.026472    11.00000    0.02495    0.00941 =
         0.02913   -0.00067   -0.00748   -0.00184
N3    4    0.665880    0.324637    0.328186    11.00000    0.12194    0.12157 =
         0.12439    0.00543   -0.00491   -0.00047
AFIX 137
H3C   2    0.677634    0.357362    0.266830    11.00000   -1.20000
H3D   2    0.684425    0.335577    0.409466    11.00000   -1.20000
H3E   2    0.619205    0.322614    0.335479    11.00000   -1.20000
AFIX   0
O1    5    0.546239    0.510503    0.093366    11.00000    0.01517    0.01279 =
         0.02482   -0.00124   -0.00233    0.00124
O2    5    0.575997    0.422180    0.219699    11.00000    0.03467    0.01624 =
         0.04518    0.00726   -0.00735    0.01173
O3    5    0.418359    0.679698    0.225712    11.00000    0.02724    0.02145 =
         0.04754   -0.00952   -0.00348    0.00813
O4    5    0.401657    0.717368    0.434876    11.00000    0.06876    0.10318 =
         0.08346   -0.05285   -0.01863    0.05832
O5    5    0.412058    0.717170   -0.057105    11.00000    0.03541    0.00985 =
         0.05927   -0.00232   -0.01815    0.00160
O6    5    0.389814    0.827217   -0.016219    11.00000    0.03145    0.01224 =
         0.07915    0.00627   -0.01261    0.00668
O7    5    0.562537    0.604900   -0.111922    11.00000    0.02554    0.01495 =
         0.04325    0.00070    0.01200   -0.00268
O8    5    0.616342    0.657285   -0.279078    11.00000    0.06839    0.03662 =
         0.05598    0.01097    0.03864    0.01130
O1W   5    0.399770    0.520115    0.193084    11.00000    0.02755    0.01984 =
         0.04307   -0.00861    0.01585   -0.00016
AFIX   7
H1WA  2    0.417239    0.477725    0.179352    11.00000   -1.50000
H1WB  2    0.406421    0.531054    0.280254    11.00000   -1.50000
AFIX   6
O2W   5    0.319931    0.522899    0.417514    11.00000    0.07560    0.13960 =
         0.05603   -0.02203    0.03149    0.01019
H2WA  2    0.299535    0.532489    0.341920    11.00000   -1.50000
H2WB  2    0.300987    0.546339    0.482260    11.00000   -1.50000
AFIX   0
O3W   5    0.750000    0.750000    0.415006    10.25000    0.10491    0.10491 =
         0.09606    0.00000    0.00000    0.00000
AFIX   6
O4W   5    0.723454    0.608971   -0.431405    11.00000    0.03775    0.17345 =
         0.02659    0.00735   -0.00241    0.03203
H4WA  2    0.686773    0.627821   -0.397381    11.00000   -1.50000
H4WB  2    0.754769    0.605865   -0.369146    11.00000   -1.50000
AFIX   0
O5W   5    0.750000    0.750000   -0.125297    10.25000    0.47884    0.47884 =
         0.71461    0.00000    0.00000    0.00000

HKLF 4




REM  sad in P4/n
REM wR2 = 0.1102, GooF = S = 1.175, Restrained GooF = 1.177 for all data
REM R1 = 0.0564 for 3029 Fo > 4sig(Fo) and 0.0776 for all 3888 data
REM 263 parameters refined using 18 restraints

END

WGHT      0.0244     27.3864

REM Highest difference peak  1.697,  deepest hole -0.897,  1-sigma level  0.143
Q1    1   0.7786  0.1927  0.1598  11.00000  0.05    1.70
Q2    1   0.6537  0.3466  0.4025  11.00000  0.05    1.36
Q3    1   0.6763  0.3171  0.2962  11.00000  0.05    1.18
Q4    1   0.6974  0.2417  0.1978  11.00000  0.05    0.85
Q5    1   0.4602  0.6031  0.1210  11.00000  0.05    0.81
;
_shelx_shelxl_version_number     2018/3
_shelx_space_group_comment
;
The symmetry employed for this shelxl refinement is uniquely defined
by the following loop, which should always be used as a source of
symmetry information in preference to the above space-group names.
They are only intended as comments.
;
loop_
_space_group_symop_operation_xyz
'x, y, z'
'-x+1/2, -y+1/2, z'
'-y+1/2, x, z'
'y, -x+1/2, z'
'-x, -y, -z'
'x-1/2, y-1/2, -z'
'y-1/2, -x, -z'
'-y, x-1/2, -z'
loop_
_atom_site_label
_atom_site_type_symbol
_atom_site_fract_x
_atom_site_fract_y
_atom_site_fract_z
_atom_site_U_iso_or_equiv
_atom_site_adp_type
_atom_site_occupancy
_atom_site_site_symmetry_order
_atom_site_calc_flag
_atom_site_refinement_flags_posn
_atom_site_refinement_flags_adp
_atom_site_refinement_flags_occupancy
_atom_site_disorder_assembly
_atom_site_disorder_group
Ce1 Ce 0.45676(2) 0.60542(2) 0.04134(4) 0.01681(12) Uani 1 1 d . . . . .
C1 C 0.5391(4) 0.5250(4) 0.3313(8) 0.0264(17) Uani 1 1 d . . . . .
H1A H 0.497402 0.505440 0.373775 0.032 Uiso 1 1 calc R U . . .
H1B H 0.577343 0.521411 0.396825 0.032 Uiso 1 1 calc R U . . .
C2 C 0.5568(3) 0.4830(3) 0.2085(8) 0.0205(16) Uani 1 1 d . . . . .
C3 C 0.4821(4) 0.6288(4) 0.4047(8) 0.037(2) Uani 1 1 d . . . . .
H3A H 0.511352 0.651848 0.472686 0.044 Uiso 1 1 calc R U . . .
H3B H 0.456404 0.591571 0.450767 0.044 Uiso 1 1 calc R U . . .
C4 C 0.4313(4) 0.6803(4) 0.3498(10) 0.038(2) Uani 1 1 d . . . . .
C5 C 0.4968(4) 0.7823(3) 0.0578(8) 0.0252(17) Uani 1 1 d . U . . .
H5A H 0.520093 0.824925 0.027176 0.030 Uiso 1 1 calc R U . . .
H5B H 0.489904 0.785644 0.156209 0.030 Uiso 1 1 calc R U . . .
C6 C 0.4281(4) 0.7755(4) -0.0115(8) 0.0300(19) Uani 1 1 d . . . . .
C7 C 0.5611(4) 0.7265(4) -0.1161(8) 0.0292(18) Uani 1 1 d . . . . .
H7A H 0.599983 0.759263 -0.124335 0.035 Uiso 1 1 calc R U . . .
H7B H 0.522125 0.745057 -0.169115 0.035 Uiso 1 1 calc R U . . .
C8 C 0.5824(4) 0.6578(4) -0.1743(8) 0.0280(18) Uani 1 1 d . . . . .
C9 C 0.5952(4) 0.6319(4) 0.3000(8) 0.0288(18) Uani 1 1 d . . . . .
H9A H 0.625695 0.605819 0.238567 0.035 Uiso 1 1 calc R U . . .
H9B H 0.615106 0.628446 0.391362 0.035 Uiso 1 1 calc R U . . .
C10 C 0.5966(4) 0.7080(4) 0.2574(8) 0.0281(18) Uani 1 1 d . . . . .
H10A H 0.553450 0.729851 0.288951 0.034 Uiso 1 1 calc R U . . .
H10B H 0.635154 0.730724 0.305011 0.034 Uiso 1 1 calc R U . . .
C11 C 0.6041(4) 0.7228(4) 0.1085(8) 0.0267(17) Uani 1 1 d . . . . .
H11A H 0.625697 0.768691 0.098508 0.032 Uiso 1 1 calc R U . . .
H11B H 0.636449 0.688585 0.070228 0.032 Uiso 1 1 calc R U . . .
C12 C 0.6951(9) 0.2504(8) 0.280(2) 0.065(5) Uani 0.6 1 d . U P A 1
C13 C 0.750000 0.250000 0.1838(17) 0.068(6) Uani 0.8 2 d S T P B 2
N1 N 0.5269(3) 0.5978(3) 0.3012(6) 0.0233(14) Uani 1 1 d . . . . .
N2 N 0.5405(3) 0.7218(3) 0.0265(6) 0.0212(13) Uani 1 1 d . . . . .
N3 N 0.6659(7) 0.3246(6) 0.3282(13) 0.123(5) Uani 1 1 d . U . . .
H3C H 0.677634 0.357362 0.266830 0.147 Uiso 1 1 calc R U . A 1
H3D H 0.684425 0.335577 0.409466 0.147 Uiso 1 1 calc R U . A 1
H3E H 0.619205 0.322614 0.335479 0.147 Uiso 1 1 calc R U . A 1
O1 O 0.5462(2) 0.5105(2) 0.0934(5) 0.0176(10) Uani 1 1 d . . . . .
O2 O 0.5760(3) 0.4222(2) 0.2197(6) 0.0320(13) Uani 1 1 d . . . . .
O3 O 0.4184(3) 0.6797(3) 0.2257(6) 0.0321(13) Uani 1 1 d . . . . .
O4 O 0.4017(4) 0.7174(4) 0.4349(8) 0.085(3) Uani 1 1 d . . . . .
O5 O 0.4121(3) 0.7172(2) -0.0571(6) 0.0348(14) Uani 1 1 d . . . . .
O6 O 0.3898(3) 0.8272(2) -0.0162(7) 0.0409(16) Uani 1 1 d . . . . .
O7 O 0.5625(3) 0.6049(2) -0.1119(5) 0.0279(12) Uani 1 1 d . . . . .
O8 O 0.6163(3) 0.6573(3) -0.2791(7) 0.0537(19) Uani 1 1 d . . . . .
O1W O 0.3998(3) 0.5201(3) 0.1931(6) 0.0302(13) Uani 1 1 d . . . . .
H1WA H 0.417239 0.477725 0.179352 0.045 Uiso 1 1 d R U . . .
H1WB H 0.406421 0.531054 0.280254 0.045 Uiso 1 1 d R U . . .
O2W O 0.3199(4) 0.5229(6) 0.4175(8) 0.090(3) Uani 1 1 d G . . . .
H2WA H 0.299535 0.532489 0.341920 0.136 Uiso 1 1 d G U . . .
H2WB H 0.300987 0.546339 0.482260 0.136 Uiso 1 1 d G U . . .
O3W O 0.750000 0.750000 0.4150(19) 0.102(6) Uani 1 4 d S T P . .
O4W O 0.7235(4) 0.6090(6) -0.4314(6) 0.079(3) Uani 1 1 d G . . . .
H4WA H 0.686773 0.627821 -0.397381 0.119 Uiso 1 1 d G U . . .
H4WB H 0.754769 0.605865 -0.369146 0.119 Uiso 1 1 d G U . . .
O5W O 0.750000 0.750000 -0.125(10) 0.56(5) Uani 1 4 d S T P . .
loop_
_atom_site_aniso_label
_atom_site_aniso_U_11
_atom_site_aniso_U_22
_atom_site_aniso_U_33
_atom_site_aniso_U_23
_atom_site_aniso_U_13
_atom_site_aniso_U_12
Ce1 0.0096(2) 0.0082(2) 0.0327(2) -0.00084(17) -0.00081(17) 0.00079(15)
C1 0.025(4) 0.027(4) 0.027(4) 0.009(3) -0.001(3) 0.004(3)
C2 0.012(3) 0.016(4) 0.033(4) 0.006(3) -0.001(3) 0.001(3)
C3 0.039(5) 0.040(5) 0.030(5) -0.011(4) 0.003(4) 0.007(4)
C4 0.027(5) 0.035(5) 0.053(6) -0.016(4) 0.006(4) 0.006(4)
C5 0.027(4) 0.006(3) 0.043(4) -0.006(3) -0.002(3) -0.003(3)
C6 0.030(4) 0.014(4) 0.046(5) 0.004(3) -0.003(4) 0.001(3)
C7 0.029(4) 0.019(4) 0.040(5) 0.012(4) 0.000(4) 0.001(3)
C8 0.021(4) 0.024(4) 0.039(5) 0.001(4) -0.001(4) -0.001(3)
C9 0.028(4) 0.027(4) 0.031(5) -0.001(3) -0.010(4) 0.003(3)
C10 0.020(4) 0.022(4) 0.042(5) -0.008(4) -0.012(3) 0.000(3)
C11 0.020(4) 0.018(4) 0.042(5) -0.004(3) -0.007(3) -0.007(3)
C12 0.051(9) 0.026(8) 0.120(14) 0.024(9) 0.011(9) 0.017(7)
C13 0.056(12) 0.131(19) 0.019(9) 0.000 0.000 -0.032(12)
N1 0.020(3) 0.025(3) 0.025(4) -0.004(3) 0.000(3) 0.003(3)
N2 0.025(3) 0.009(3) 0.029(4) -0.001(3) -0.007(3) -0.002(2)
N3 0.122(5) 0.122(5) 0.124(5) 0.005(2) -0.005(2) 0.000(2)
O1 0.015(2) 0.013(2) 0.025(3) -0.001(2) -0.002(2) 0.0012(19)
O2 0.035(3) 0.016(3) 0.045(4) 0.007(2) -0.007(3) 0.012(2)
O3 0.027(3) 0.021(3) 0.048(4) -0.010(3) -0.003(3) 0.008(2)
O4 0.069(5) 0.103(6) 0.083(6) -0.053(5) -0.019(4) 0.058(5)
O5 0.035(3) 0.010(2) 0.059(4) -0.002(3) -0.018(3) 0.002(2)
O6 0.031(3) 0.012(3) 0.079(5) 0.006(3) -0.013(3) 0.007(2)
O7 0.026(3) 0.015(3) 0.043(3) 0.001(2) 0.012(3) -0.003(2)
O8 0.068(5) 0.037(4) 0.056(4) 0.011(3) 0.039(4) 0.011(3)
O1W 0.028(3) 0.020(3) 0.043(4) -0.009(2) 0.016(3) 0.000(2)
O2W 0.076(6) 0.140(9) 0.056(5) -0.022(6) 0.031(5) 0.010(5)
O3W 0.105(9) 0.105(9) 0.096(15) 0.000 0.000 0.000
O4W 0.038(4) 0.173(9) 0.027(4) 0.007(5) -0.002(3) 0.032(5)
O5W 0.48(7) 0.48(7) 0.71(16) 0.000 0.000 0.000
loop_
_atom_type_symbol
_atom_type_description
_atom_type_scat_dispersion_real
_atom_type_scat_dispersion_imag
_atom_type_scat_source
C C 0.0033 0.0016 'International Tables Vol C Tables 4.2.6.8 and 6.1.1.4'
H H 0.0000 0.0000 'International Tables Vol C Tables 4.2.6.8 and 6.1.1.4'
Ce Ce -0.2486 2.6331 'International Tables Vol C Tables 4.2.6.8 and 6.1.1.4'
N N 0.0061 0.0033 'International Tables Vol C Tables 4.2.6.8 and 6.1.1.4'
O O 0.0106 0.0060 'International Tables Vol C Tables 4.2.6.8 and 6.1.1.4'
loop_
_geom_angle_atom_site_label_1
_geom_angle_atom_site_label_2
_geom_angle_atom_site_label_3
_geom_angle
_geom_angle_site_symmetry_1
_geom_angle_site_symmetry_3
N1 Ce1 C2 137.40(17) . 5_665
N2 Ce1 C2 117.80(18) . 5_665
N2 Ce1 N1 79.41(17) . .
O1 Ce1 C2 24.84(16) 5_665 5_665
O1 Ce1 C2 79.56(17) . 5_665
O1 Ce1 N1 114.76(15) 5_665 .
O1 Ce1 N1 58.29(15) . .
O1 Ce1 N2 133.03(16) 5_665 .
O1 Ce1 N2 101.35(15) . .
O1 Ce1 O1 60.32(17) . 5_665
O1 Ce1 O2 48.62(14) 5_665 5_665
O1 Ce1 O2 101.96(14) . 5_665
O2 Ce1 C2 24.20(15) 5_665 5_665
O2 Ce1 N1 160.08(15) 5_665 .
O2 Ce1 N2 104.18(17) 5_665 .
O3 Ce1 C2 157.02(17) . 5_665
O3 Ce1 N1 60.65(17) . .
O3 Ce1 N2 74.91(18) . .
O3 Ce1 O1 118.33(17) . .
O3 Ce1 O1 151.88(16) . 5_665
O3 Ce1 O2 139.26(16) . 5_665
O3 Ce1 O5 71.38(19) . .
O3 Ce1 O6 75.50(18) . 7_565
O3 Ce1 O7 133.86(17) . .
O3 Ce1 O1W 78.66(17) . .
O5 Ce1 C2 97.96(18) . 5_665
O5 Ce1 N1 122.96(17) . .
O5 Ce1 N2 58.99(16) . .
O5 Ce1 O1 156.64(16) . .
O5 Ce1 O1 122.04(16) . 5_665
O5 Ce1 O2 73.77(16) . 5_665
O5 Ce1 O7 92.76(17) . .
O6 Ce1 C2 81.56(18) 7_565 5_665
O6 Ce1 N1 123.51(19) 7_565 .
O6 Ce1 N2 123.01(17) 7_565 .
O6 Ce1 O1 135.58(16) 7_565 .
O6 Ce1 O1 87.64(16) 7_565 5_665
O6 Ce1 O2 71.40(18) 7_565 5_665
O6 Ce1 O5 65.79(18) 7_565 .
O6 Ce1 O7 137.72(19) 7_565 .
O7 Ce1 C2 65.12(17) . 5_665
O7 Ce1 N1 98.77(17) . .
O7 Ce1 N2 60.23(16) . .
O7 Ce1 O1 73.13(15) . 5_665
O7 Ce1 O1 64.96(15) . .
O7 Ce1 O2 67.61(17) . 5_665
O1W Ce1 C2 94.65(18) . 5_665
O1W Ce1 N1 68.85(17) . .
O1W Ce1 N2 145.84(18) . .
O1W Ce1 O1 74.31(16) . 5_665
O1W Ce1 O1 72.80(15) . .
O1W Ce1 O2 109.97(17) . 5_665
O1W Ce1 O5 130.48(17) . .
O1W Ce1 O6 69.12(18) . 7_565
O1W Ce1 O7 135.47(16) . .
N1 C1 C2 113.2(6) . .
C1 C2 Ce1 161.8(5) . 5_665
O1 C2 Ce1 59.3(4) . 5_665
O1 C2 C1 117.5(6) . .
O2 C2 Ce1 64.0(4) . 5_665
O2 C2 C1 120.6(7) . .
O2 C2 O1 121.6(7) . .
N1 C3 C4 113.8(7) . .
O3 C4 C3 118.6(7) . .
O4 C4 C3 116.0(9) . .
O4 C4 O3 125.2(9) . .
N2 C5 C6 109.9(6) . .
O5 C6 C5 117.5(6) . .
O6 C6 C5 118.2(7) . .
O6 C6 O5 124.2(7) . .
N2 C7 C8 112.8(6) . .
O7 C8 C7 116.6(7) . .
O8 C8 C7 118.5(7) . .
O8 C8 O7 124.9(7) . .
N1 C9 C10 116.5(6) . .
C11 C10 C9 116.9(6) . .
N2 C11 C10 117.1(6) . .
C1 N1 Ce1 107.8(4) . .
C1 N1 C3 110.3(6) . .
C1 N1 C9 106.7(5) . .
C3 N1 Ce1 108.8(4) . .
C3 N1 C9 110.6(6) . .
C9 N1 Ce1 112.8(4) . .
C5 N2 Ce1 107.4(4) . .
C7 N2 Ce1 105.0(4) . .
C7 N2 C5 108.0(5) . .
C7 N2 C11 107.5(6) . .
C11 N2 Ce1 117.9(4) . .
C11 N2 C5 110.6(5) . .
Ce1 O1 Ce1 119.68(17) . 5_665
C2 O1 Ce1 95.9(4) . 5_665
C2 O1 Ce1 125.8(4) . .
C2 O2 Ce1 91.8(4) . 5_665
C4 O3 Ce1 132.7(5) . .
C6 O5 Ce1 123.1(5) . .
C6 O6 Ce1 141.3(5) . 8_665
C8 O7 Ce1 122.4(5) . .
loop_
_geom_bond_atom_site_label_1
_geom_bond_atom_site_label_2
_geom_bond_distance
_geom_bond_site_symmetry_2
Ce1 C2 3.031(8) 5_665
Ce1 N1 2.924(6) .
Ce1 N2 2.788(5) .
Ce1 O1 2.585(4) .
Ce1 O1 2.620(4) 5_665
Ce1 O2 2.726(6) 5_665
Ce1 O3 2.449(5) .
Ce1 O5 2.534(5) .
Ce1 O6 2.529(5) 7_565
Ce1 O7 2.558(5) .
Ce1 O1W 2.499(5) .
C1 C2 1.508(10) .
C1 N1 1.465(9) .
C2 O1 1.280(8) .
C2 O2 1.243(8) .
C3 C4 1.507(12) .
C3 N1 1.476(9) .
C4 O3 1.260(10) .
C4 O4 1.250(10) .
C5 C6 1.508(10) .
C5 N2 1.481(8) .
C6 O5 1.259(9) .
C6 O6 1.250(8) .
C7 C8 1.511(10) .
C7 N2 1.476(10) .
C8 O7 1.261(9) .
C8 O8 1.233(9) .
C9 C10 1.537(10) .
C9 N1 1.483(9) .
C10 C11 1.515(11) .
C11 N2 1.481(9) .
C12 N3 1.621(19) .
