#------------------------------------------------------------------------------
#$Date: 2020-02-14 00:18:46 +0200 (Fri, 14 Feb 2020) $
#$Revision: 248124 $
#$URL: file:///home/coder/svn-repositories/cod/cif/4/51/74/4517410.cif $
#------------------------------------------------------------------------------
#
# This file is available in the Crystallography Open Database (COD),
# http://www.crystallography.net/
#
# All data on this site have been placed in the public domain by the
# contributors.
#
data_4517410
loop_
_publ_author_name
'Chen, Wei'
'Liu, Haiyu'
'Fan, Ruiqing'
'Wang, Ping'
'Sun, Tiancheng'
'Yang, Yulin'
_publ_section_title
;
 Formation and Encapsulation of Lead Halide Perovskites in Lanthanide
 Metal-Organic Frameworks for Tunable Emission.
;
_journal_name_full               'ACS applied materials &amp; interfaces'
_journal_paper_doi               10.1021/acsami.9b23617
_journal_year                    2020
_chemical_formula_moiety         'C30 H24 Eu N O11'
_chemical_formula_sum            'C30 H24 Eu N O11'
_chemical_formula_weight         726.46
_space_group_crystal_system      triclinic
_space_group_IT_number           2
_space_group_name_Hall           '-P 1'
_space_group_name_H-M_alt        'P -1'
_atom_sites_solution_hydrogens   mixed
_atom_sites_solution_primary     direct
_audit_creation_date             2019-05-28
_audit_creation_method
;
Olex2 1.2
(compiled 2018.05.29 svn.r3508 for OlexSys, GUI svn.r5506)
;
_cell_angle_alpha                65.786(3)
_cell_angle_beta                 72.419(2)
_cell_angle_gamma                88.675(3)
_cell_formula_units_Z            2
_cell_length_a                   10.981(3)
_cell_length_b                   11.518(3)
_cell_length_c                   12.583(3)
_cell_measurement_reflns_used    1731
_cell_measurement_temperature    293(2)
_cell_measurement_theta_max      27.43
_cell_measurement_theta_min      2.60
_cell_volume                     1374.3(6)
_computing_cell_refinement       'SAINT v8.34A (Bruker, 2013)'
_computing_data_reduction        'SAINT v8.34A (Bruker, 2013)'
_computing_molecular_graphics    'Olex2 (Dolomanov et al., 2009)'
_computing_publication_material  'Olex2 (Dolomanov et al., 2009)'
_computing_structure_refinement  'XL (Sheldrick, 2008)'
_computing_structure_solution    'XS (Sheldrick, 2008)'
_diffrn_ambient_temperature      293(2)
_diffrn_measured_fraction_theta_full 0.996
_diffrn_measured_fraction_theta_max 0.996
_diffrn_measurement_device_type  'CCD area detector'
_diffrn_measurement_method       'phi and omega scans'
_diffrn_radiation_monochromator  graphite
_diffrn_radiation_type           MoK\a
_diffrn_radiation_wavelength     0.71073
_diffrn_reflns_av_R_equivalents  0.0690
_diffrn_reflns_av_unetI/netI     0.1285
_diffrn_reflns_Laue_measured_fraction_full 0.996
_diffrn_reflns_Laue_measured_fraction_max 0.996
_diffrn_reflns_limit_h_max       12
_diffrn_reflns_limit_h_min       -13
_diffrn_reflns_limit_k_max       13
_diffrn_reflns_limit_k_min       -13
_diffrn_reflns_limit_l_max       14
_diffrn_reflns_limit_l_min       -14
_diffrn_reflns_number            9662
_diffrn_reflns_point_group_measured_fraction_full 0.996
_diffrn_reflns_point_group_measured_fraction_max 0.996
_diffrn_reflns_theta_full        24.997
_diffrn_reflns_theta_max         24.997
_diffrn_reflns_theta_min         1.874
_exptl_absorpt_coefficient_mu    2.348
_exptl_absorpt_correction_T_max  0.7456
_exptl_absorpt_correction_T_min  0.6186
_exptl_absorpt_correction_type   multi-scan
_exptl_absorpt_process_details
;
SADABS-2014/3 (Bruker,2014/3) was used for absorption correction.
wR2(int) was 0.0752 before and 0.0489 after correction.
The Ratio of minimum to maximum transmission is 0.8297.
The \l/2 correction factor is 0.00150.
;
_exptl_crystal_colour            yellow
_exptl_crystal_density_diffrn    1.755
_exptl_crystal_description       block
_exptl_crystal_F_000             724
_exptl_crystal_size_max          0.26
_exptl_crystal_size_mid          0.24
_exptl_crystal_size_min          0.2
_refine_diff_density_max         1.723
_refine_diff_density_min         -2.103
_refine_diff_density_rms         0.340
_refine_ls_extinction_method     none
_refine_ls_goodness_of_fit_ref   1.016
_refine_ls_hydrogen_treatment    constr
_refine_ls_matrix_type           full
_refine_ls_number_parameters     391
_refine_ls_number_reflns         4816
_refine_ls_number_restraints     0
_refine_ls_restrained_S_all      1.016
_refine_ls_R_factor_all          0.0851
_refine_ls_R_factor_gt           0.0540
_refine_ls_shift/su_max          0.000
_refine_ls_shift/su_mean         0.000
_refine_ls_structure_factor_coef Fsqd
_refine_ls_weighting_details
'w=1/[\s^2^(Fo^2^)+(0.0735P)^2^] where P=(Fo^2^+2Fc^2^)/3'
_refine_ls_weighting_scheme      calc
_refine_ls_wR_factor_gt          0.1056
_refine_ls_wR_factor_ref         0.1434
_reflns_Friedel_coverage         0.000
_reflns_number_gt                3641
_reflns_number_total             4816
_reflns_threshold_expression     'I > 2\s(I)'
_cod_data_source_file            am9b23617_si_002.cif
_cod_data_source_block           Eutpob
_cod_database_code               4517410
_shelx_shelxl_version_number     2018/3
_shelx_space_group_comment
;
The symmetry employed for this shelxl refinement is uniquely defined
by the following loop, which should always be used as a source of
symmetry information in preference to the above space-group names.
They are only intended as comments.
;
_shelx_estimated_absorpt_t_max   0.651
_shelx_estimated_absorpt_t_min   0.580
_olex2_refinement_description
;
1. Fixed Uiso
 At 1.2 times of:
  All C(H) groups
 At 1.5 times of:
  All C(H,H,H) groups, All O(H,H) groups
2.a Rotating group:
 O11(H11A,H11B)
2.b Aromatic/amide H refined with riding coordinates:
 C2(H2), C4(H4), C6(H6), C9(H9), C10(H10), C11(H11), C12(H12), C16(H16),
 C17(H17), C18(H18), C19(H19), C23(H23), C24(H24), C25(H25), C26(H26), C28(H28)
2.c Idealised Me refined as rotating group:
 C29(H29A,H29B,H29C), C30(H30A,H30B,H30C)
;
_shelx_res_file
;
TITL 1 in P1 #1 New: P-1
    1.res
    created by SHELXL-2018/3 at 11:05:28 on 28-May-2019
CELL 0.71073 10.981 11.518 12.583 65.786 72.419 88.675
ZERR 2 0.003 0.003 0.003 0.003 0.002 0.003
LATT 1
SFAC C H Eu N O
UNIT 60 48 2 2 22

L.S. 5
PLAN  -20
SIZE 0.2 0.24 0.26
BOND $H
CONF
fmap 2
acta 50
OMIT 0 50
REM <olex2.extras>
REM <HklSrc "%.\\1.hkl">
REM </olex2.extras>

WGHT    0.073500
FVAR       0.14383
EU1   3    0.320513    0.453315    0.019971    11.00000    0.01257    0.01241 =
         0.01423   -0.00452   -0.00221   -0.00100
O1    5    0.481985    0.350907    0.475319    11.00000    0.03392    0.03495 =
         0.02021   -0.02064   -0.01238    0.01752
O2    5    0.449187    0.059753    0.298965    11.00000    0.02047    0.02350 =
         0.02531   -0.01120   -0.00467   -0.00299
O3    5    0.843746    0.146240    0.354080    11.00000    0.01187    0.04629 =
         0.03184   -0.02577   -0.00626    0.00208
O4    5    0.452596    0.469552    0.134244    11.00000    0.02199    0.02386 =
         0.01181   -0.00921   -0.00389   -0.00187
O5    5    0.602541    0.519460    0.196839    11.00000    0.01310    0.03889 =
         0.01870   -0.01247    0.00252   -0.00614
O6    5    0.436369    0.273181    0.055650    11.00000    0.01979    0.01800 =
         0.04413   -0.01673   -0.01199    0.00537
O7    5    0.644075    0.325411    0.021967    11.00000    0.02469    0.01043 =
         0.03591   -0.00563   -0.00802   -0.00498
O8    5    0.167197    0.383019    0.208677    11.00000    0.01905    0.05406 =
         0.01727   -0.01542    0.01126   -0.01229
O9    5    0.964737    0.406669    0.216168    11.00000    0.04010    0.05292 =
         0.03136   -0.00240   -0.01252    0.00982
O10   5    0.179583    0.298706    0.013655    11.00000    0.02942    0.03345 =
         0.03719   -0.01712   -0.01278   -0.00503
O11   5    0.154951    0.572983   -0.054806    11.00000    0.09222    0.08681 =
         0.18113   -0.10574   -0.11282    0.07552
AFIX   7
H11A  2    0.180971    0.656133   -0.091366    11.00000   -1.50000
H11B  2    0.085161    0.566693    0.006504    11.00000   -1.50000
AFIX   0
N1    4    0.029120    0.237178   -0.047206    11.00000    0.01759    0.03447 =
         0.04145   -0.02115   -0.00471   -0.01107
C1    1    0.531936    0.267554    0.423695    11.00000    0.02650    0.01863 =
         0.00949   -0.00002   -0.00057   -0.00076
C2    1    0.462431    0.205072    0.384505    11.00000    0.01324    0.01821 =
         0.02079   -0.00731   -0.00371    0.00151
AFIX  43
H2    2    0.377376    0.218417    0.389712    11.00000   -1.20000
AFIX   0
C3    1    0.522422    0.121773    0.337093    11.00000    0.02124    0.01168 =
         0.01159    0.00073   -0.00189   -0.01153
C4    1    0.650338    0.100729    0.328090    11.00000    0.01239    0.02572 =
         0.02566   -0.01836    0.00431   -0.00554
AFIX  43
H4    2    0.690207    0.045283    0.295223    11.00000   -1.20000
AFIX   0
C5    1    0.715414    0.165349    0.369827    11.00000    0.00939    0.02176 =
         0.02195   -0.00709   -0.00082   -0.00050
C6    1    0.657695    0.249071    0.417424    11.00000    0.03006    0.02102 =
         0.01518   -0.00418   -0.00481   -0.00178
AFIX  43
H6    2    0.702944    0.292129    0.444712    11.00000   -1.20000
AFIX   0
C7    1    0.385827    0.423563    0.445552    11.00000    0.02020    0.02098 =
         0.02220   -0.01592   -0.00194   -0.00403
C8    1    0.383396    0.488591    0.324220    11.00000    0.01333    0.02208 =
         0.01529   -0.01265    0.00054   -0.00205
C9    1    0.282899    0.562964    0.306842    11.00000    0.02940    0.01842 =
         0.02483   -0.00659   -0.00853    0.00108
AFIX  43
H9    2    0.279063    0.606595    0.227451    11.00000   -1.20000
AFIX   0
C10   1    0.188743    0.574535    0.402712    11.00000    0.02719    0.03659 =
         0.03602   -0.02382    0.00080    0.01338
AFIX  43
H10   2    0.121993    0.623680    0.388910    11.00000   -1.20000
AFIX   0
C11   1    0.197287    0.510857    0.519086    11.00000    0.02912    0.04192 =
         0.03122   -0.02501    0.00589    0.00430
AFIX  43
H11   2    0.137576    0.521034    0.584154    11.00000   -1.20000
AFIX   0
C12   1    0.291088    0.432890    0.542066    11.00000    0.04110    0.04392 =
         0.01234   -0.01887   -0.00159    0.00644
AFIX  43
H12   2    0.290996    0.386349    0.622442    11.00000   -1.20000
AFIX   0
C13   1    0.485575    0.490031    0.215471    11.00000    0.01395    0.01489 =
         0.01914   -0.00455   -0.00038   -0.00173
C14   1    0.519345    0.018601    0.208782    11.00000    0.01841    0.02677 =
         0.02687   -0.01755   -0.00922    0.00016
C15   1    0.570357    0.108519    0.087895    11.00000    0.02311    0.01683 =
         0.02365   -0.00855   -0.01313    0.00077
C16   1    0.641210    0.068173    0.000421    11.00000    0.01890    0.01814 =
         0.03347   -0.01019   -0.00735   -0.00163
AFIX  43
H16   2    0.679847    0.127869   -0.080311    11.00000   -1.20000
AFIX   0
C17   1    0.654850   -0.060165    0.032330    11.00000    0.03245    0.02501 =
         0.04982   -0.02488   -0.01651    0.00711
AFIX  43
H17   2    0.701307   -0.087180   -0.026855    11.00000   -1.20000
AFIX   0
C18   1    0.599213   -0.147662    0.152269    11.00000    0.04730    0.01205 =
         0.04974   -0.01431   -0.02545    0.00713
AFIX  43
H18   2    0.608080   -0.234040    0.173148    11.00000   -1.20000
AFIX   0
C19   1    0.530484   -0.110562    0.242553    11.00000    0.04631    0.00718 =
         0.03440   -0.00080   -0.02406   -0.00131
AFIX  43
H19   2    0.492932   -0.170466    0.323396    11.00000   -1.20000
AFIX   0
C20   1    0.547862    0.247538    0.053356    11.00000    0.03005    0.01849 =
         0.01579   -0.01076   -0.00869    0.00728
C21   1    0.899415    0.156814    0.434796    11.00000    0.01803    0.02943 =
         0.01864   -0.01277    0.00077    0.00173
C22   1    1.004747    0.248654    0.389198    11.00000    0.01081    0.02710 =
         0.02347   -0.01355    0.00132    0.00115
C23   1    1.072668    0.242825    0.468253    11.00000    0.01984    0.02814 =
         0.03262   -0.01735   -0.00902    0.00548
AFIX  43
H23   2    1.146956    0.298924    0.438595    11.00000   -1.20000
AFIX   0
C24   1    1.030984    0.154368    0.590807    11.00000    0.03052    0.05090 =
         0.02057   -0.01213   -0.01410    0.00864
AFIX  43
H24   2    1.075944    0.152174    0.643375    11.00000   -1.20000
AFIX   0
C25   1    0.923014    0.070602    0.633102    11.00000    0.03984    0.03664 =
         0.02106    0.00145   -0.00211    0.00634
AFIX  43
H25   2    0.892833    0.013216    0.715666    11.00000   -1.20000
AFIX   0
C26   1    0.859277    0.070223    0.555886    11.00000    0.02238    0.03127 =
         0.03218   -0.00775   -0.00288   -0.00337
AFIX  43
H26   2    0.787759    0.010641    0.585510    11.00000   -1.20000
AFIX   0
C27   1    1.046273    0.351858    0.261584    11.00000    0.02651    0.02793 =
         0.02242   -0.01227   -0.00074   -0.00021
C28   1    0.129595    0.308232   -0.064263    11.00000    0.03696    0.02552 =
         0.03922   -0.01648   -0.01261    0.00509
AFIX  43
H28   2    0.167268    0.372437   -0.142983    11.00000   -1.20000
AFIX   0
C29   1   -0.036061    0.136668    0.073014    11.00000    0.06318    0.06554 =
         0.04134   -0.01481   -0.00880   -0.02681
AFIX 137
H29A  2   -0.005407    0.056559    0.077619    11.00000   -1.50000
H29B  2   -0.126969    0.130630    0.086442    11.00000   -1.50000
H29C  2   -0.019104    0.156049    0.134840    11.00000   -1.50000
AFIX   0
C30   1   -0.028796    0.261345   -0.142925    11.00000    0.05278    0.07788 =
         0.05342   -0.02617   -0.02356   -0.00677
AFIX 137
H30A  2    0.020207    0.332944   -0.216645    11.00000   -1.50000
H30B  2   -0.115404    0.280209   -0.116301    11.00000   -1.50000
H30C  2   -0.029449    0.186845   -0.159056    11.00000   -1.50000
AFIX   0
HKLF 4




REM  1 in P1 #1 New: P-1
REM wR2 = 0.1434, GooF = S = 1.016, Restrained GooF = 1.016 for all data
REM R1 = 0.0540 for 3641 Fo > 4sig(Fo) and 0.0851 for all 4816 data
REM 391 parameters refined using 0 restraints

END

WGHT      0.0735      0.0000

REM Highest difference peak  1.723,  deepest hole -2.103,  1-sigma level  0.340
Q1    1   0.3785  0.5275 -0.0126  11.00000  0.05    1.72
Q2    1   0.2654  0.3823  0.0585  11.00000  0.05    1.55
Q3    1   1.1601  0.1563  0.6951  11.00000  0.05    1.12
Q4    1   0.8651  0.1296  0.7248  11.00000  0.05    0.89
Q5    1   0.9830  0.1296  0.6779  11.00000  0.05    0.88
Q6    1   1.1604  0.0997  0.6464  11.00000  0.05    0.86
Q7    1   0.0168  0.3223  0.6372  11.00000  0.05    0.85
Q8    1   0.0000  0.0000  0.0000  10.50000  0.05    0.83
Q9    1   0.0548  0.0189  0.1063  11.00000  0.05    0.83
Q10   1   1.2202  0.0015  0.9011  11.00000  0.05    0.82
Q11   1   0.0651  0.4477  0.5515  11.00000  0.05    0.82
Q12   1   0.9955  0.2015  0.6470  11.00000  0.05    0.82
Q13   1   1.0777  0.1603  0.6681  11.00000  0.05    0.81
Q14   1   1.1325  0.0449  0.8476  11.00000  0.05    0.81
Q15   1   0.7835  0.0622  0.7585  11.00000  0.05    0.81
Q16   1   0.8351 -0.0210 -0.0021  11.00000  0.05    0.79
Q17   1   1.0116  0.0769  0.6863  11.00000  0.05    0.79
Q18   1   0.0727  0.1191 -0.2093  11.00000  0.05    0.78
Q19   1   1.0930  0.1166  0.8710  11.00000  0.05    0.78
Q20   1  -0.0498  0.1085 -0.1476  11.00000  0.05    0.78
;
_shelx_res_checksum              52501
_shelx_hkl_file
;
   0  -1   0   -0.45    0.30
   0   1   0   -0.59    0.30
   0   1   0   -0.35    0.20
   0  -2   0  217.31    3.52
   0   2   0  210.70    6.20
   0   2   0  217.17    3.47
   0  -3   0  276.23    5.00
   0   3   0  273.49    8.83
   0   3   0  272.67    4.83
   0  -4   0   40.91    3.25
   0   4   0   33.88    2.76
   0   4   0   32.41    4.73
   0  -5   0   62.15    3.96
   0   5   0   62.28    3.64
   0   5   0   63.74    7.73
   0  -6   0   30.92    3.47
   0   6   0   24.57    5.66
   0   6   0   28.03    3.31
   0  -7   0   40.60    4.61
   0   7   0   33.04    7.02
   0   7   0   44.84    4.61
   0  -8   0   29.22    4.26
   0   8   0   31.09    4.51
   0   8   0   23.65    7.47
   0  -9   0   51.48    5.62
   0   9   0   48.78    5.59
   0   9   0   42.16    8.79
   0 -10   0   89.98    6.33
   0  10   0   82.42    6.59
   0  10   0  107.80   13.98
   0  11   0   65.16   14.30
   0  12   0   36.34   14.15
   1  12  -1   27.74   14.10
   1  11  -1   23.43   12.23
   1  11  -1   -0.49    4.60
   1  10  -1   47.17    6.69
   1  10  -1   69.89   13.65
   1   9  -1   38.35    9.80
   1   9  -1   27.06    5.23
   1   8  -1   42.32    5.43
   1   8  -1   39.56    8.53
  -1  -8   1   51.25    4.87
   1   7  -1  174.85   14.36
   1   7  -1  163.82    7.28
  -1  -7   1  155.84    6.36
   1   6  -1  120.19   10.38
   1   6  -1  110.17    6.02
  -1  -6   1  114.98    4.94
   1   5  -1  145.59    9.68
   1   5  -1  138.86    5.58
  -1  -5   1  141.36    4.55
   1   4  -1   17.81    3.86
   1   4  -1   20.67    2.90
  -1  -4   1   30.12    2.57
   1   3  -1    1.93    1.91
   1   3  -1    1.91    2.61
  -1  -3   1    1.45    1.47
   1   2  -1   32.98    2.56
   1   2  -1   20.96    3.21
  -1  -2   1   19.87    1.62
   1   1  -1  256.40    4.41
   1   1  -1  257.88    7.19
  -1  -1   1  260.25    1.75
   1   0  -1   87.20    1.25
   1   0  -1   89.29    3.73
   1  -1  -1   36.70    2.39
   1  -1  -1   37.19    1.70
   1  -2  -1   26.00    2.11
   1  -2  -1   24.85    2.79
  -1   2   1   22.79    2.71
  -1   2   1   23.36    1.79
   1  -3  -1  370.96    6.20
  -1   3   1  377.04    9.69
  -1   3   1  377.48    4.85
   1  -4  -1   72.40    3.89
  -1   4   1   73.06    2.91
  -1   4   1   82.34    6.97
   1  -5  -1  592.82    9.38
  -1   5   1  586.52   15.39
  -1   5   1  616.09    8.08
   1  -6  -1  225.34    6.77
  -1   6   1  240.68    5.92
  -1   6   1  236.20   12.20
   1  -7  -1   77.52    5.30
  -1   7   1   61.09    7.98
  -1   7   1   76.37    4.27
   1  -8  -1   36.50    5.08
  -1   8   1   26.98    7.04
  -1   8   1   38.15    4.21
   1  -9  -1    9.98    4.19
  -1   9   1   12.03    7.20
  -1   9   1   14.12    3.58
   1 -10  -1    0.05    3.60
  -1  10   1   -2.47    2.95
  -1  10   1    2.96    7.18
   1 -11  -1    2.17    4.26
  -1  11   1    8.60    9.04
   1 -12  -1    4.41    4.16
   2  12  -2  120.89   19.97
   2  11  -2   47.64   13.99
   2  11  -2   18.98    6.29
   2  10  -2    1.26    5.03
   2  10  -2   10.96   10.74
   2   9  -2   15.73   10.11
   2   9  -2    9.97    4.76
   2   8  -2   13.34    4.70
   2   8  -2   13.72    8.15
   2   7  -2    5.70    7.05
   2   7  -2    5.23    3.86
   2   6  -2   10.28    3.97
   2   6  -2    5.15    5.35
   2   5  -2   49.89    7.22
   2   5  -2   58.75    5.17
  -2  -5   2   59.95    3.32
   2   4  -2  223.09   11.66
   2   4  -2  222.01    7.31
  -2  -4   2  221.02    4.07
   2   3  -2  249.21    7.03
   2   3  -2  244.95   11.14
  -2  -3   2  254.53    3.31
   2   2  -2  354.45   11.84
   2   2  -2  350.07    7.49
  -2  -2   2  351.74    2.10
   2   1  -2  116.39    7.01
   2   0  -2  251.25    2.89
   2   0  -2  256.95    8.76
   2  -1  -2  268.30    4.12
   2  -1  -2  268.63    8.46
   2  -2  -2  287.82    5.28
   2  -2  -2  289.25    8.49
   2  -3  -2  163.13    7.28
   2  -3  -2  163.22    4.72
  -2   3   2  170.13    4.89
  -2   3   2  161.05    7.11
   2  -4  -2   36.02    3.41
  -2   4   2   33.66    2.75
  -2   4   2   37.75    5.17
   2  -5  -2    6.33    2.46
  -2   5   2    4.37    3.36
  -2   5   2    4.32    1.73
   2  -6  -2  144.24    6.04
  -2   6   2  145.90    4.54
  -2   6   2  147.33   10.43
   2  -7  -2  113.79    6.17
  -2   7   2  114.37    4.60
  -2   7   2  118.90   11.50
   2  -8  -2  117.16    6.94
  -2   8   2  114.31    5.16
  -2   8   2  118.93   12.28
   2  -9  -2  101.41    7.56
  -2   9   2   87.70    5.14
  -2   9   2   98.49   11.81
   2 -10  -2   44.81    5.90
  -2  10   2   38.52    9.68
   2 -11  -2   28.14    5.43
  -2  11   2   31.77   10.04
   2 -12  -2   11.13    4.70
   2 -13  -2    9.62    4.84
   2 -14  -2    3.67    5.10
   3  11  -3   97.27   19.18
   3  10  -3   52.69   14.89
   3   9  -3   80.80   17.11
   3   9  -3   53.18    8.76
   3   8  -3   71.86    8.85
   3   8  -3  103.52   16.27
   3   7  -3   35.48    6.83
   3   7  -3   30.75   10.27
   3   6  -3   45.37    9.57
   3   6  -3   51.01    6.71
   3   5  -3   20.79    6.90
   3   5  -3   38.43    6.05
   3   4  -3   -3.55    3.32
   3   4  -3    1.61    4.69
   3   3  -3    3.95    3.38
   3   3  -3    0.29    3.94
   3   2  -3   81.28    7.97
   3   1  -3  196.19   10.35
   3   0  -3  220.98    3.26
   3   0  -3  220.74   10.46
   3  -1  -3  273.18    4.56
   3  -1  -3  282.64   10.66
   3  -2  -3  459.21   13.13
   3  -2  -3  455.25    6.82
   3  -3  -3  166.79    5.21
   3  -3  -3  161.95    8.27
  -3   3   3  161.39    5.86
   3  -4  -3  139.31    5.31
   3  -4  -3  153.74    8.82
  -3   4   3  148.30    5.71
  -3   4   3  136.80    8.28
   3  -5  -3   74.88    7.78
   3  -5  -3   77.69    4.86
  -3   5   3   81.40    7.08
  -3   5   3   75.11    4.37
   3  -6  -3   33.55    4.57
  -3   6   3   23.80    5.20
  -3   6   3   36.85    3.51
   3  -7  -3   60.68    5.75
  -3   7   3   51.26    3.83
  -3   7   3   60.87    8.28
   3  -8  -3   -3.48    3.51
  -3   8   3    1.21    2.26
  -3   8   3   -4.60    4.84
   3  -9  -3   11.86    4.36
  -3   9   3    7.62    6.53
   3 -10  -3   29.96    5.43
  -3  10   3   18.15    8.56
   3 -11  -3   41.41    6.23
  -3  11   3   65.58   13.02
   3 -12  -3   12.86    4.94
   3 -13  -3   18.27    6.04
   3 -14  -3   31.28    6.77
   4   9  -4   36.92   13.88
   4   8  -4   86.42   17.34
   4   7  -4   60.45   14.24
   4   6  -4   51.45   12.23
   4   5  -4   89.02   13.02
   4   4  -4   53.13    9.38
   4   3  -4   83.51   11.05
   4   2  -4  100.25   10.37
   4   1  -4   77.39    8.85
   4   0  -4   13.24    4.43
   4   0  -4   17.37    1.85
   4  -1  -4    6.84    3.64
   4  -1  -4   12.47    1.95
   4  -2  -4    2.13    1.88
   4  -2  -4    2.32    3.20
   4  -3  -4   19.13    2.98
   4  -3  -4   11.01    3.92
   4  -4  -4  279.20    7.52
   4  -4  -4  300.84   13.21
  -4   4   4  285.83    8.85
   4  -5  -4  297.70    8.53
   4  -5  -4  300.94   13.97
  -4   5   4  297.82    8.96
  -4   5   4  314.37   13.69
   4  -6  -4   83.63    6.44
   4  -6  -4   97.16    9.84
  -4   6   4   86.23    8.85
  -4   6   4   84.39    5.79
   4  -7  -4  169.24    7.74
  -4   7   4  168.99   12.66
  -4   7   4  165.04    6.23
   4  -8  -4  101.69    7.08
  -4   8   4  110.60   13.37
   4  -9  -4  109.61    7.37
  -4   9   4  116.59   15.56
   4 -10  -4   24.02    5.22
  -4  10   4   12.43    9.09
   4 -11  -4    2.53    4.28
  -4  11   4   -3.43   11.11
   4 -12  -4    3.35    4.50
   4 -13  -4    5.54    4.95
   5   8  -5   36.85   14.99
   5   7  -5   10.25   11.81
   5   6  -5   19.53   11.52
   5   5  -5    9.43   10.87
   5   4  -5   14.88    7.52
   5   3  -5  119.73   13.63
   5   2  -5  119.49   12.81
   5   1  -5   39.91    7.75
   5   0  -5  112.29   11.54
   5  -1  -5   23.90    6.11
   5  -2  -5   51.83    8.44
   5  -3  -5   48.95    7.52
   5  -3  -5   54.04    4.41
   5  -4  -5   23.52    6.13
   5  -4  -5   25.39    3.92
  -5   4   5   24.87    5.82
   5  -5  -5    0.97    2.97
   5  -5  -5    1.78    4.42
  -5   5   5   -1.62    4.95
   5  -6  -5    4.07    3.48
   5  -6  -5    4.12    4.98
  -5   6   5    0.93    4.33
  -5   6   5   10.85    4.79
   5  -7  -5   19.56    7.27
   5  -7  -5   14.79    4.30
  -5   7   5   13.34    6.24
   5  -8  -5    4.17    3.83
  -5   8   5    3.26    5.80
   5  -9  -5   29.81    5.48
  -5   9   5   24.81    8.79
   5 -10  -5   41.19    6.34
  -5  10   5   37.39   11.60
   5 -11  -5   68.76    7.85
   5 -12  -5   29.46    6.28
   5 -13  -5   19.86    6.08
   6   6  -6   36.86   13.73
   6   5  -6   43.79   12.86
   6   4  -6   36.77   11.47
   6   3  -6   36.01   10.90
   6   2  -6    4.88    6.96
   6   1  -6    7.11    6.48
   6   0  -6   11.83    6.61
   6  -1  -6   27.95    7.72
   6  -2  -6   65.65   10.37
   6  -3  -6   82.48   11.16
   6  -4  -6   40.47    9.38
  -6   4   6   36.61    6.63
   6  -5  -6  114.95    6.37
   6  -5  -6  126.38   13.83
  -6   5   6  111.58    9.20
   6  -6  -6   56.05    9.93
   6  -6  -6   62.21    5.81
   6  -7  -6   29.78    5.12
   6  -7  -6   29.62    9.30
  -6   7   6   40.01    9.32
   6  -8  -6    9.57    8.56
   6  -8  -6   14.83    4.59
  -6   8   6   16.87    8.53
   6  -9  -6    8.90    4.51
  -6   9   6   -0.61    8.43
   6 -10  -6   -2.19    4.15
  -6  10   6   -5.18   10.13
   6 -11  -6   11.41    5.29
   6 -12  -6   10.28    5.43
   7   3  -7   57.10   14.02
   7   2  -7   47.75   12.77
   7   1  -7   73.23   14.22
   7   0  -7   21.20   10.49
   7  -1  -7   10.71    8.99
   7  -2  -7   47.36   11.71
   7  -3  -7    0.25    9.32
   7  -4  -7    5.77    8.75
  -7   4   7    3.09    5.23
   7  -5  -7    9.49    9.98
   7  -6  -7   46.24   11.91
   7  -7  -7   52.35   12.39
   7  -7  -7   57.63    7.33
  -7   7   7   81.98   12.93
   7  -8  -7   69.58   14.87
   7  -8  -7   67.75    6.97
  -7   8   7  104.94   15.39
   7  -9  -7   40.43   14.02
   7  -9  -7   45.35    6.44
  -7   9   7   61.19   14.62
   7 -10  -7   30.87    6.35
   7 -11  -7   37.36    7.03
   8   0  -8   32.04   14.20
   8  -1  -8   33.29   14.29
   8  -2  -8   80.22   16.68
   8  -3  -8   66.36   16.86
   8  -4  -8    8.81   11.50
   8  -5  -8   13.64   13.29
   8  -6  -8   11.64   11.20
  -8   8   8   54.81   12.11
   8  -9  -8    1.93   13.94
  -8   9   8   56.70   15.92
   9  -8  -8  -10.55   13.93
   9  -6  -8   17.61   12.82
   9  -5  -8   28.22   15.69
   9  -4  -8   36.59   15.75
  -9   3   8   10.92    7.36
   9  -3  -8   13.75   12.74
   9  -2  -8   21.53   13.70
   8 -10  -7   26.17    6.38
   8  -9  -7   21.42    5.99
  -8   8   7   44.22   10.91
   8  -8  -7   -6.16   10.85
  -8   7   7   42.86    9.73
   8  -7  -7   -7.09    9.18
   8  -6  -7    2.47   10.16
   8  -5  -7   11.65   10.63
  -8   4   7   30.27    8.17
   8  -4  -7   68.77   14.64
   8  -3  -7   16.04   11.21
   8  -2  -7   44.66   12.78
   8  -1  -7   81.52   15.74
   8   0  -7   33.46   12.36
   8   1  -7   24.16   11.67
   8   2  -7   17.98   11.80
   7 -11  -6   18.98    5.82
   7 -10  -6   16.68    5.67
  -7   9   6   10.03   11.19
   7  -9  -6   22.02    5.47
  -7   8   6   63.19   11.64
   7  -8  -6   64.82    7.25
   7  -8  -6   58.35   11.92
  -7   7   6  122.58   14.89
   7  -7  -6   77.86    7.30
   7  -7  -6   87.42   12.62
   7  -6  -6   30.57    4.95
   7  -6  -6   26.83    9.43
  -7   5   6   53.21    8.16
   7  -5  -6   57.63   11.72
  -7   4   6    0.49    5.29
   7  -4  -6   -1.45    7.31
   7  -3  -6   -1.67    6.44
   7  -2  -6   -5.25    6.28
   7  -1  -6   75.25   12.60
   7   0  -6   21.44    9.63
   7   1  -6   54.24   12.13
   7   2  -6   92.32   15.13
   7   3  -6   57.69   13.67
   7   4  -6   42.42   12.75
   7   5  -6   18.03   11.70
   6 -12  -5   16.15    5.59
   6 -11  -5    4.43    4.96
   6 -10  -5    9.02    4.82
  -6   9   5    1.77    7.04
   6  -9  -5    8.62    4.60
  -6   8   5   12.44    6.19
   6  -8  -5    8.58    6.73
   6  -8  -5   15.16    4.75
  -6   7   5   15.32    5.66
   6  -7  -5    5.59    6.40
   6  -7  -5    8.48    4.26
  -6   6   5   13.15    5.48
  -6   6   5   16.68    6.09
   6  -6  -5    8.83    3.75
   6  -6  -5   13.54    6.77
  -6   5   5   44.32    7.05
   6  -5  -5   54.99    8.94
   6  -5  -5   54.21    5.27
  -6   4   5  117.02    9.21
   6  -4  -5  113.28    5.95
   6  -4  -5  128.63   13.77
   6  -3  -5   54.40    9.13
   6  -2  -5  152.48   13.64
   6  -1  -5   33.44    8.07
   6   0  -5   43.02    8.52
   6   1  -5   26.64    7.52
   6   2  -5   23.49    7.35
   6   3  -5   45.81    9.74
   6   4  -5   26.42    9.40
   6   5  -5   62.28   13.60
   6   6  -5   54.49   13.85
   6   7  -5   63.05   16.34
   5 -13  -4   13.66    5.80
   5 -12  -4   35.24    6.55
   5 -11  -4   65.37    7.67
   5 -10  -4   89.98    8.22
  -5   9   4  107.35   14.81
   5  -9  -4  119.66    7.93
  -5   8   4   -1.63    4.95
   5  -8  -4    0.31    3.97
  -5   7   4   59.53    5.63
  -5   7   4   40.09    7.05
   5  -7  -4   43.51    7.51
   5  -7  -4   50.91    5.93
  -5   6   4   24.55    4.94
  -5   6   4   19.26    5.67
   5  -6  -4   25.82    6.59
   5  -6  -4   26.75    4.61
  -5   5   4    1.03    4.70
   5  -5  -4    0.95    4.41
   5  -5  -4   -1.71    3.04
  -5   4   4    7.90    4.48
   5  -4  -4    3.92    3.23
   5  -4  -4    9.89    4.81
   5  -3  -4   93.40    9.10
   5  -3  -4   81.44    4.73
   5  -2  -4   42.60    3.59
   5  -2  -4   40.97    6.54
   5  -1  -4   87.77    5.76
   5  -1  -4   76.50    9.50
   5   0  -4   47.59    7.37
   5   1  -4  151.79   12.02
   5   2  -4   46.81    7.94
   5   3  -4   64.80    9.90
   5   4  -4   50.81    9.88
   5   5  -4    9.24    9.12
   5   6  -4    3.08    9.36
   5   7  -4   23.30   11.81
   5   8  -4   31.73   14.56
   5   9  -4   83.39   21.63
   4 -13  -3    3.00    4.85
   4 -12  -3   -0.21    4.42
   4 -11  -3    4.61    4.83
  -4  10   3   -0.07    6.84
   4 -10  -3    1.13    4.10
  -4   9   3   36.36    8.29
   4  -9  -3   56.08    6.44
  -4   8   3   21.73    3.66
  -4   8   3   19.94    6.82
   4  -8  -3   23.93    4.98
  -4   7   3   89.68   10.25
  -4   7   3   89.37    5.27
   4  -7  -3   82.55    6.39
  -4   6   3  232.29   12.11
  -4   6   3  232.79    7.02
   4  -6  -3  228.80   12.44
   4  -6  -3  218.74    7.90
  -4   5   3  128.69    8.97
  -4   5   3  136.32    6.20
   4  -5  -3  144.21    6.21
   4  -5  -3  135.33    9.60
  -4   4   3  311.79    8.75
   4  -4  -3  302.49   11.83
   4  -4  -3  306.37    7.54
  -4   3   3   72.23    5.69
   4  -3  -3   67.10    6.59
   4  -3  -3   76.62    4.39
   4  -2  -3   76.79    3.78
   4  -2  -3   78.54    7.03
   4   0  -3   14.73    1.52
   4   0  -3    6.89    3.50
   4   1  -3   12.21    4.35
   4   2  -3   78.79    9.37
   4   3  -3  132.22   11.33
   4   4  -3  168.21   14.52
   4   5  -3   38.27    8.65
   4   6  -3   36.98   10.13
   4   7  -3   50.09   12.74
   4   8  -3   53.94   14.03
   4   9  -3   42.84   14.42
   4  10  -3   29.01   14.21
   3 -14  -2   24.67    6.31
   3 -13  -2   46.83    7.47
   3 -12  -2   43.03    6.99
   3 -11  -2   48.93    6.67
  -3  10   2   42.37    8.79
   3 -10  -2   47.01    6.26
  -3   9   2   25.65    3.86
  -3   9   2   27.82    8.29
   3  -9  -2   30.83    5.25
  -3   8   2    4.35    5.61
  -3   8   2    0.85    2.48
   3  -8  -2    1.66    3.84
  -3   7   2    2.86    4.36
  -3   7   2    5.62    2.58
   3  -7  -2   13.45    3.95
  -3   6   2   26.96    3.25
  -3   6   2   16.86    4.52
   3  -6  -2   25.65    4.12
  -3   5   2    1.57    2.58
  -3   5   2   -0.47    2.08
   3  -5  -2   -3.10    2.43
  -3   4   2  100.31    4.59
  -3   4   2   97.01    6.31
   3  -4  -2  100.57    4.83
   3  -4  -2  104.49    6.99
  -3   3   2  330.99    7.47
   3  -3  -2  354.49    7.15
   3  -3  -2  338.22   10.08
  -3   2   2  110.88    5.20
   3  -2  -2  107.33    6.39
   3  -2  -2   98.34    3.93
   3  -1  -2   83.50    2.98
   3  -1  -2   81.83    5.85
   3   0  -2   58.81    5.65
   3   0  -2   66.35    2.12
   3   1  -2   49.56    5.90
   3   2  -2  107.58    8.12
   3   3  -2    1.62    3.33
   3   4  -2   -0.10    3.27
   3   4  -2   -1.13    3.73
   3   5  -2    0.25    4.97
   3   5  -2    2.78    3.64
   3   6  -2   73.04    6.65
   3   6  -2   46.77    8.78
   3   7  -2  116.33    7.97
   3   7  -2  118.86   16.22
   3   8  -2   84.82   14.83
   3   8  -2   63.14    7.84
   3   9  -2   70.68   14.87
   3   9  -2   62.18    8.51
   3  10  -2   27.98    6.77
   3  10  -2   63.86   15.57
   3  11  -2   64.87   17.77
   2 -13  -1    9.11    4.72
   2 -12  -1    5.66    4.44
   2 -11  -1   15.21    5.39
  -2  10   1   53.99    9.90
   2 -10  -1   55.58    6.34
  -2   9   1  109.76    5.85
  -2   9   1  115.04   14.23
   2  -9  -1  105.78    7.13
  -2   8   1  156.51    6.21
  -2   8   1  136.92   13.21
   2  -8  -1  156.00    8.05
  -2   7   1   64.67    8.96
  -2   7   1   65.65    4.21
   2  -7  -1   62.53    5.57
  -2   6   1   62.78    8.14
  -2   6   1   53.41    3.52
   2  -6  -1   61.21    4.91
  -2   5   1  265.75   10.86
  -2   5   1  271.57    5.88
   2  -5  -1  250.83    7.12
  -2   4   1  137.38    7.28
  -2   4   1  132.87    4.06
   2  -4  -1  127.00    5.02
  -2   3   1   12.09    2.64
  -2   3   1   16.56    2.34
   2  -3  -1   15.12    2.82
   2  -3  -1   12.49    2.64
  -2   2   1    4.16    2.42
   2  -2  -1    3.75    1.75
   2  -2  -1    6.13    2.02
   2  -1  -1   82.99    4.40
   2  -1  -1   81.10    2.82
   2   0  -1   40.80    3.93
   2   0  -1   42.00    1.69
   2   1  -1  177.18    7.40
  -2  -2   1  212.47    1.94
   2   2  -1  208.75    8.82
   2   2  -1  220.33    5.68
  -2  -3   1  132.56    2.53
   2   3  -1  122.82    4.77
   2   3  -1  123.31    7.93
  -2  -4   1  194.82    3.85
   2   4  -1  195.23   10.99
   2   4  -1  195.43    6.27
  -2  -5   1  169.45    4.36
   2   5  -1  165.50   11.01
   2   5  -1  175.23    6.81
  -2  -6   1   71.47    3.97
   2   6  -1   71.38    5.42
   2   6  -1   77.12   10.25
   2   7  -1    5.90    6.62
   2   7  -1    5.93    3.93
   2   8  -1    6.96    7.84
   2   8  -1   13.21    4.65
   2   9  -1    2.99    3.76
   2   9  -1    3.73    8.28
   2  10  -1   25.32   13.30
   2  10  -1   12.09    5.02
   2  11  -1   55.01   15.70
   2  12  -1  125.81   20.67
  -1  11   0   12.32    7.85
   1 -11   0   12.42    4.85
  -1  10   0   -2.52    3.11
  -1  10   0    2.98    5.96
   1 -10   0    0.11    4.01
  -1   9   0    1.99    5.80
  -1   9   0   -0.79    2.90
   1  -9   0    1.33    3.57
  -1   8   0   15.17    3.60
  -1   8   0   18.25    6.43
   1  -8   0   23.13    4.43
  -1   7   0   87.84    5.17
  -1   7   0   96.17   10.70
   1  -7   0   91.79    5.80
  -1   6   0  110.73    9.48
  -1   6   0  102.25    4.54
   1  -6   0  108.11    5.49
  -1   5   0  384.38   12.47
  -1   5   0  395.21    7.41
   1  -5   0  396.31    8.30
  -1   4   0  317.23    6.00
  -1   4   0  301.14   10.17
   1  -4   0  306.62    6.65
  -1   3   0  169.92    3.96
  -1   3   0  166.99    6.94
   1  -3   0  171.93    4.67
  -1   2   0  906.54    7.22
  -1   2   0  878.20   10.54
   1  -2   0  861.33    7.78
  -1   1   0   68.88    2.29
  -1   1   0   68.05    2.04
   1  -1   0   69.96    2.00
   1   0   0   -0.15    0.19
   1   0   0    0.06    0.24
  -1  -1   0   19.24    0.82
   1   1   0   15.18    2.08
  -1  -2   0    1.05    0.85
   1   2   0    0.84    1.33
   1   2   0   -1.00    2.23
  -1  -3   0    0.53    1.39
   1   3   0    0.53    1.41
   1   3   0   -0.24    2.66
  -1  -4   0   14.83    2.07
   1   4   0   14.35    4.12
   1   4   0   15.86    2.29
  -1  -5   0   38.87    3.28
   1   5   0   33.13    5.47
   1   5   0   42.89    3.81
  -1  -6   0   90.57    4.48
   1   6   0   87.41    4.67
   1   6   0   86.74    9.31
  -1  -7   0   83.35    5.11
   1   7   0   91.26   11.09
   1   7   0   84.80    5.56
  -1  -8   0   64.57    5.32
   1   8   0   73.29    5.83
   1   8   0   65.67    9.74
  -1  -9   0   62.48    5.62
   1   9   0   67.56    6.59
   1   9   0   84.88   12.62
   1  10   0   27.50   11.56
   1  10   0   12.82    4.32
   1  11   0   50.07   14.25
   1  12   0   45.20   14.65
   0  11  -1   48.44    6.77
   0  11  -1   68.10   13.58
   0  10  -1   67.83   12.33
   0  10  -1   52.72    6.71
   0   9  -1   95.80   12.67
   0   9  -1   86.83    6.35
   0  -9   1   83.11    6.34
   0   8  -1   67.05    6.36
   0   8  -1   51.40    8.98
   0  -8   1   67.60    5.95
   0   7  -1   31.26    7.01
   0   7  -1   41.05    5.02
   0  -7   1   39.56    4.45
   0   6  -1    6.26    2.85
   0   6  -1    5.04    3.96
   0  -6   1    4.95    2.93
   0   5  -1   14.34    3.97
   0   5  -1   19.83    3.04
   0  -5   1   20.97    3.11
   0   4  -1   27.38    4.33
   0   4  -1   39.46    3.51
   0  -4   1   44.14    3.49
   0   3  -1    0.74    1.58
   0   3  -1   -0.14    2.18
   0  -3   1    1.03    1.76
   0   2  -1   96.49    3.21
   0   2  -1  101.71    5.08
   0  -2   1  102.26    2.86
   0   1  -1   53.74    2.86
   0   1  -1   56.19    1.96
   0  -1   1   54.05    1.64
   0   0  -1   -1.26    0.16
   0   0  -1   -0.91    0.26
   0   0  -1   -0.95    0.20
   0  -1  -1   -0.39    0.33
   0  -1  -1   -0.04    0.23
   0   1   1   -0.06    0.49
   0  -2  -1  193.37    3.37
   0   2   1  186.56    2.21
   0   2   1  185.99    5.88
   0  -3  -1   57.27    3.10
   0   3   1   67.53    6.22
   0   3   1   60.34    2.15
   0  -4  -1  102.08    3.90
   0   4   1   98.92    3.15
   0   4   1   96.53    7.30
   0  -5  -1   71.49    3.81
   0   5   1   68.60    3.18
   0   5   1   73.87    8.12
   0  -6  -1    3.85    2.65
   0   6   1    4.90    2.02
   0   6   1    4.37    4.55
   0  -7  -1   27.68    4.20
   0   7   1   27.02    6.29
   0   7   1   26.83    3.37
   0  -8  -1   60.96    5.45
   0   8   1   54.39    4.56
   0   8   1   49.62    8.96
   0  -9  -1   36.89    5.22
   0   9   1   38.78    4.73
   0   9   1   37.58    8.84
   0 -10  -1   33.09    4.95
   0  10   1   24.89    4.48
   0  10   1   35.31    9.70
   0 -11  -1   37.27    5.47
   0  11   1   55.81   12.90
   0  12   1   72.89   15.82
   1  11  -2   -2.66    4.28
   1  11  -2   11.12   10.68
   1  10  -2   18.18    9.84
   1  10  -2    6.29    4.43
   1   9  -2   40.29   11.27
   1   9  -2   38.53    6.36
   1   8  -2   66.91    6.80
   1   8  -2   74.41   11.04
   1   7  -2   71.36    6.06
   1   7  -2   58.98    8.88
  -1  -7   2   56.53    4.69
   1   6  -2  253.87    8.96
   1   6  -2  262.93   14.08
  -1  -6   2  253.10    6.78
   1   5  -2  269.85    8.13
   1   5  -2  272.59   12.78
  -1  -5   2  268.28    6.19
   1   4  -2  170.84    9.56
   1   4  -2  177.34    6.21
  -1  -4   2  180.63    4.64
   1   3  -2   89.40    6.70
   1   3  -2   91.11    4.35
  -1  -3   2   94.76    3.10
   1   2  -2  112.00    7.04
   1   2  -2  117.44    4.32
  -1  -2   2  112.76    2.59
   1   1  -2   44.64    2.81
   1   1  -2   42.18    4.48
  -1  -1   2   47.93    1.49
   1   0  -2    3.54    0.80
   1   0  -2    6.43    1.71
   1   0  -2    3.37    1.92
   1  -1  -2  208.03    3.28
   1  -1  -2  203.16    6.32
   1  -2  -2  237.71    7.12
   1  -2  -2  229.93    4.26
   1  -3  -2  100.95    5.80
   1  -3  -2  104.89    3.82
  -1   3   2  107.41    5.97
  -1   3   2  103.60    2.77
   1  -4  -2  101.31    4.23
  -1   4   2   99.15    2.80
  -1   4   2  105.72    6.92
   1  -5  -2  174.72    5.58
  -1   5   2  173.47    9.86
  -1   5   2  167.59    3.89
   1  -6  -2  126.60    5.48
  -1   6   2  127.11    4.02
  -1   6   2  123.14    9.60
   1  -7  -2  104.08    6.10
  -1   7   2   95.17    4.15
  -1   7   2   97.66   11.27
   1  -8  -2    0.04    3.25
  -1   8   2    6.64    6.58
  -1   8   2    6.82    2.64
   1  -9  -2    6.84    4.35
  -1   9   2    3.03    2.66
  -1   9   2    4.07    7.47
   1 -10  -2   -0.17    3.54
  -1  10   2    5.92    8.37
   1 -11  -2    1.82    4.22
  -1  11   2   12.39   10.48
   1 -12  -2   20.48    5.37
  -1  12   2   32.92   13.33
   1 -13  -2   15.39    5.36
   2  11  -3   66.28   15.68
   2  10  -3   35.28   14.23
   2  10  -3   11.94    5.83
   2   9  -3    8.26    5.07
   2   9  -3   21.86   11.77
   2   8  -3   18.00    9.16
   2   8  -3    7.27    5.11
   2   7  -3   18.63    7.92
   2   7  -3   16.43    4.83
   2   6  -3   50.18    9.10
   2   6  -3   50.47    6.19
   2   5  -3   48.19    8.35
   2   5  -3   54.73    5.95
   2   4  -3   60.68    7.81
   2   4  -3   66.98    5.34
  -2  -4   3   65.31    2.93
   2   3  -3  136.89    6.15
   2   3  -3  130.15    9.31
  -2  -3   3  138.42    2.96
   2   2  -3  171.24    9.61
   2   2  -3  176.01    6.36
  -2  -2   3  174.35    2.45
   2   1  -3  410.27   13.10
   2   1  -3  385.24    7.99
  -2  -1   3  394.18    3.35
   2   0  -3  350.40   11.35
   2   0  -3  343.46    3.89
   2  -1  -3  306.68    4.55
   2  -1  -3  314.58   10.41
   2  -2  -3  113.25    3.68
   2  -2  -3  111.08    6.51
   2  -3  -3   54.91    5.34
   2  -3  -3   40.03    3.02
  -2   3   3   42.35    3.50
   2  -4  -3   21.94    3.83
   2  -4  -3   25.63    3.04
  -2   4   3   26.16    2.82
  -2   4   3   24.96    4.21
   2  -5  -3   65.40    4.27
  -2   5   3   76.93    7.32
  -2   5   3   76.54    3.31
   2  -6  -3   -1.00    2.52
  -2   6   3    0.14    3.88
  -2   6   3   -0.54    1.52
   2  -7  -3   66.34    5.61
  -2   7   3   60.85    8.38
  -2   7   3   66.63    3.55
   2  -8  -3   96.36    6.45
  -2   8   3   99.20   12.34
  -2   8   3   86.87    4.18
   2  -9  -3  111.41    7.07
  -2   9   3  115.62   15.89
   2 -10  -3   68.96    6.63
  -2  10   3   65.31   12.14
   2 -11  -3   51.04    6.37
  -2  11   3   51.20   12.86
   2 -12  -3    7.83    4.54
  -2  12   3   21.99   13.80
   2 -13  -3   -2.01    4.04
   2 -14  -3    5.61    4.60
   3  10  -4   64.04   15.91
   3   9  -4   79.29   16.17
   3   8  -4   80.76   10.02
   3   8  -4   95.98   16.34
   3   7  -4  159.15   19.25
   3   7  -4  112.61   10.62
   3   6  -4   46.91    6.87
   3   6  -4   56.75   12.35
   3   5  -4   12.69    6.81
   3   5  -4   10.91    4.78
   3   4  -4   27.47    5.42
   3   4  -4   25.78    6.89
   3   3  -4    3.31    4.08
   3   3  -4   -0.40    4.11
   3   2  -4   10.38    4.40
   3   1  -4   36.71    5.73
  -3  -1   4   52.59    1.42
   3   0  -4   87.96    7.96
   3   0  -4   81.90    2.44
   3  -1  -4  112.24    8.08
   3  -1  -4  106.94    3.28
   3  -2  -4  352.06   12.84
   3  -2  -4  331.27    6.05
   3  -3  -4  182.56    9.98
   3  -3  -4  173.95    5.27
   3  -4  -4  191.71   10.43
   3  -4  -4  172.42    5.71
  -3   4   4  188.93    6.44
   3  -5  -4    7.07    3.73
   3  -5  -4   10.42    2.99
  -3   5   4   10.49    3.20
  -3   5   4    6.05    3.40
   3  -6  -4   72.09    5.29
   3  -6  -4   79.97    9.56
  -3   6   4   76.36    4.30
  -3   6   4   65.01    8.74
   3  -7  -4   67.35    6.01
  -3   7   4   51.04    7.40
  -3   7   4   60.76    3.96
   3  -8  -4    1.47    3.67
  -3   8   4    1.96    6.33
   3  -9  -4   -0.56    3.58
  -3   9   4   -5.09    6.11
   3 -10  -4   23.79    5.11
  -3  10   4   14.78    9.41
   3 -11  -4   14.39    5.14
  -3  11   4    8.86   10.51
   3 -12  -4   44.43    6.94
  -3  12   4   34.30   14.78
   3 -13  -4   33.41    6.24
   3 -14  -4   20.22    5.88
   4   9  -5   16.36   14.25
   4   8  -5   45.98   14.50
   4   7  -5   41.66   15.24
   4   6  -5   98.30   17.42
   4   5  -5  100.99   15.09
   4   4  -5  158.92   15.36
   4   3  -5  119.51   12.99
   4   2  -5   38.55    7.65
   4   1  -5   39.16    6.85
   4   0  -5    0.87    3.88
   4  -1  -5    6.06    1.85
   4  -1  -5    4.25    4.00
   4  -2  -5    1.71    3.70
   4  -2  -5    0.57    1.95
   4  -3  -5   12.97    2.79
   4  -3  -5    8.47    4.37
   4  -4  -5   34.86    6.12
   4  -4  -5   53.43    4.73
  -4   4   5   57.43    5.93
   4  -5  -5  145.04    6.74
   4  -5  -5  141.78   11.17
  -4   5   5  139.73    7.64
   4  -6  -5  125.90   12.21
   4  -6  -5  105.31    6.22
  -4   6   5  117.13   11.50
  -4   6   5  106.24    6.55
   4  -7  -5   83.24    6.29
   4  -7  -5  100.90   11.79
  -4   7   5   83.74   10.84
   4  -8  -5   25.99    4.99
  -4   8   5   19.80    7.28
   4  -9  -5   60.79    6.54
  -4   9   5   53.07   10.23
   4 -10  -5    3.21    3.95
  -4  10   5   -5.70    7.47
   4 -11  -5    4.85    4.29
  -4  11   5   -6.41   10.76
   4 -12  -5   -0.77    4.11
   4 -13  -5   16.39    5.32
   5   7  -6   52.97   15.36
   5   6  -6   30.37   12.38
   5   5  -6    7.87    9.25
   5   4  -6    0.50    7.43
   5   3  -6    6.48    7.08
   5   2  -6   48.42    9.75
   5   1  -6   66.55   10.11
   5   0  -6   87.96   11.54
   5  -1  -6   62.22    9.05
   5  -2  -6   67.66    9.58
   5  -3  -6   65.70    9.27
   5  -4  -6   23.09    6.72
   5  -4  -6   19.98    3.78
   5  -5  -6   -0.80    4.66
   5  -5  -6   -2.89    2.59
  -5   5   6    0.20    4.77
   5  -6  -6    3.39    5.70
   5  -6  -6    0.91    3.15
  -5   6   6    8.47    5.61
   5  -7  -6    3.42    3.52
   5  -7  -6    0.28    6.57
  -5   7   6    5.13    5.94
   5  -8  -6   12.24    4.21
   5  -8  -6    2.76    7.31
  -5   8   6   12.62    7.04
   5  -9  -6   82.01    7.72
  -5   9   6   82.11   13.04
   5 -10  -6   88.30    8.18
  -5  10   6   95.03   16.22
   5 -11  -6   45.25    6.75
  -5  11   6   38.70   14.72
   5 -12  -6   29.31    6.79
   5 -13  -6   18.19    6.71
   6   5  -7   32.12   12.84
   6   4  -7   10.76   10.62
   6   3  -7   35.78   12.63
   6   2  -7   14.35   10.30
   6   1  -7   -1.96    6.81
   6   0  -7    0.36    6.42
   6  -1  -7   12.04    7.59
   6  -2  -7   14.09    7.76
   6  -3  -7  106.09   14.37
   6  -4  -7  112.88   14.77
   6  -5  -7   48.89   11.18
  -6   5   7   43.57    7.30
   6  -6  -7   40.35   10.84
   6  -6  -7   47.93    5.60
   6  -7  -7   34.50   10.14
   6  -7  -7   46.53    6.00
  -6   7   7   62.40   11.62
   6  -8  -7    5.54   10.10
   6  -8  -7   25.85    5.61
  -6   8   7   30.09   10.75
   6  -9  -7   -6.75   10.12
   6  -9  -7    7.37    4.84
  -6   9   7    8.72   10.95
   6 -10  -7    1.89    4.30
  -6  10   7   -6.71    9.93
   6 -11  -7    4.97    5.07
   6 -12  -7   17.29    5.64
   7   2  -8   50.82   14.23
   7   1  -8   48.16   14.87
   7   0  -8   41.27   12.99
   7  -1  -8   15.21   11.61
   7  -2  -8   21.57   11.57
   7  -3  -8   -1.06    9.56
   7  -4  -8    5.78    9.93
   7  -5  -8   11.82   11.34
   7  -6  -8   18.93   12.20
  -7   7   8  108.85   15.52
   7  -8  -8   42.57   13.13
  -7   8   8   81.99   14.93
   7  -9  -8   27.34   13.39
   7  -9  -8   53.71    7.19
  -7   9   8   76.67   15.80
   7 -10  -8   24.26    6.21
  -7  10   8   48.32   16.03
   7 -11  -8   18.77    5.77
   8  -2  -9   25.65   16.73
   8  -3  -9   42.45   15.35
   8  -4  -9   39.67   16.81
   8  -5  -9   -8.61   11.57
   8  -6  -9    1.14   11.65
  -8   8   9   56.31   12.22
   8  -9  -9  -17.59   12.59
  -8   9   9   59.15   13.77
   9  -6  -7   69.43   15.41
   9  -5  -7   45.47   14.44
  -9   4   7    9.44    7.66
   9  -4  -7    8.79   12.44
  -9   3   7   15.25    7.43
   9  -3  -7   46.10   15.21
   9  -2  -7   36.02   13.34
   9  -1  -7   -0.48   10.48
   9   0  -7    6.22   11.36
   8 -11  -6    5.26    5.09
   8 -10  -6   25.42    6.03
   8  -9  -6   20.65    5.34
   8  -8  -6   -4.84    9.49
   8  -8  -6    5.93    4.57
  -8   7   6   36.02    9.03
   8  -7  -6   -4.99    8.55
   8  -6  -6    2.37    7.93
  -8   5   6   -1.85    6.48
   8  -5  -6   -4.28    7.79
  -8   4   6   32.44    8.32
   8  -4  -6   21.10   11.04
  -8   3   6   72.91    9.65
   8  -3  -6   98.87   15.00
   8  -2  -6   59.99   12.74
   8  -1  -6   62.25   13.21
   8   0  -6   48.18   12.51
   8   1  -6   41.61   12.44
   8   2  -6   12.31   10.69
   8   3  -6   22.83   11.47
   7 -12  -5   15.45    6.65
   7 -11  -5   14.01    5.68
   7 -10  -5   33.90    6.51
   7  -9  -5   37.34    6.26
  -7   8   5   35.18    8.39
   7  -8  -5   37.92    6.34
   7  -8  -5   24.76    8.70
  -7   7   5   59.51    9.21
   7  -7  -5   53.94    9.66
   7  -7  -5   68.76    7.14
  -7   6   5   21.31    6.06
   7  -6  -5   12.87    7.43
   7  -6  -5   20.31    4.67
  -7   5   5    8.56    6.23
   7  -5  -5   16.02    3.93
   7  -5  -5   13.15    7.13
  -7   4   5   46.47    7.83
   7  -4  -5   52.08   10.06
  -7   3   5    4.76    5.23
   7  -3  -5    0.36    5.49
   7  -2  -5    2.57    5.78
   7  -1  -5   -1.68    5.55
   7   0  -5    8.49    6.93
   7   1  -5   86.19   12.78
   7   2  -5   39.56   10.41
   7   3  -5   53.47   11.96
   7   4  -5   49.15   13.08
   7   5  -5   29.26   12.61
   7   6  -5   47.50   14.43
   6 -12  -4   16.52    5.75
   6 -11  -4   24.44    6.09
   6 -10  -4   11.17    5.08
   6  -9  -4    2.04    4.21
  -6   8   4    4.64    5.23
   6  -8  -4   -2.12    3.56
  -6   7   4   53.17    7.95
  -6   7   4   71.54    6.78
   6  -7  -4   48.79    8.52
   6  -7  -4   63.15    6.63
  -6   6   4  152.29   12.18
  -6   6   4  144.58    8.55
   6  -6  -4  161.86   13.25
   6  -6  -4  137.18    7.92
  -6   5   4   77.22    7.99
   6  -5  -4   68.03    5.83
   6  -5  -4   43.79    7.24
  -6   4   4   87.64    8.76
   6  -4  -4   77.14    5.78
   6  -4  -4   86.66   10.85
  -6   3   4  148.63    8.93
   6  -3  -4  160.50   12.09
   6  -3  -4  145.47    6.02
   6  -2  -4   70.28    9.15
   6  -1  -4   79.54   10.30
   6   0  -4   29.10    7.05
   6   1  -4   19.08    6.42
   6   2  -4   17.91    6.64
   6   3  -4   14.47    6.68
   6   4  -4   25.40    9.04
   6   5  -4   10.84    9.02
   6   6  -4   40.61   14.35
   6   7  -4   55.23   16.98
   6   8  -4   55.60   16.40
   5 -13  -3   17.58    5.83
   5 -12  -3   24.39    6.18
   5 -11  -3   64.06    7.64
   5 -10  -3   86.17    8.29
  -5   9   3   45.22   10.31
   5  -9  -3   72.86    7.27
  -5   8   3   84.01    5.45
  -5   8   3   69.53    9.13
   5  -8  -3   89.83    7.12
  -5   7   3   66.08    5.43
  -5   7   3   58.10    7.75
   5  -7  -3   55.96    6.15
  -5   6   3   33.38    5.77
  -5   6   3   47.76    5.33
   5  -6  -3   36.82    6.22
   5  -6  -3   45.48    5.35
  -5   5   3   15.44    4.68
  -5   5   3   24.09    5.03
   5  -5  -3   16.01    4.99
   5  -5  -3   12.71    3.87
  -5   4   3    1.80    4.39
   5  -4  -3    2.48    2.88
   5  -4  -3   -0.32    3.39
  -5   3   3   84.47    6.52
   5  -3  -3   87.32    7.84
   5  -3  -3   84.78    4.55
   5  -2  -3   83.38    8.00
   5  -2  -3   88.39    4.45
   5  -1  -3  133.42    9.55
   5  -1  -3  129.57    4.31
   5   0  -3   99.31    9.21
   5   1  -3   34.40    6.22
   5   2  -3  149.29   12.03
   5   3  -3  118.54   11.95
   5   4  -3    4.60    5.63
   5   5  -3   19.44    7.77
   5   6  -3    7.08    9.16
   5   7  -3   22.19   12.28
   5   8  -3   21.52   12.65
   5   9  -3   52.14   16.30
   4 -13  -2    9.40    5.27
   4 -12  -2    8.57    5.72
   4 -11  -2    0.30    4.89
   4 -10  -2   12.27    5.05
  -4   9   2    9.88    6.58
   4  -9  -2   20.32    4.84
  -4   8   2   41.56    4.47
  -4   8   2   32.55    7.30
   4  -8  -2   46.25    6.00
  -4   7   2   16.74    5.72
  -4   7   2   25.29    3.86
   4  -7  -2   26.18    4.96
  -4   6   2   44.27    4.48
  -4   6   2   30.22    5.29
   4  -6  -2   35.76    4.92
  -4   5   2  409.38    8.89
  -4   5   2  410.50   13.06
   4  -5  -2  412.90   13.33
   4  -5  -2  390.64    9.50
  -4   4   2  169.01    6.37
  -4   4   2  164.54    8.17
   4  -4  -2  164.46    6.24
   4  -4  -2  171.10    8.86
  -4   3   2   75.52    5.27
   4  -3  -2   73.06    6.24
   4  -3  -2   69.20    4.19
  -4   2   2   84.70    5.69
   4  -2  -2   76.65    6.17
   4  -2  -2   82.30    3.78
   4  -1  -2   26.82    2.69
   4  -1  -2   20.42    3.92
   4   0  -2    0.88    2.77
   4   0  -2    4.49    1.40
   4   1  -2   21.66    4.45
   4   1  -2   26.53    1.11
   4   2  -2   28.03    5.46
   4   3  -2  163.49   11.18
   4   4  -2  108.40   11.31
   4   5  -2  149.38   14.63
   4   6  -2   63.33   10.40
   4   7  -2   35.30   10.40
   4   8  -2   63.19   14.06
   4   9  -2   37.14   14.66
   4  10  -2   19.11   15.03
   4  11  -2   37.17   16.79
   3 -13  -1   15.56    5.69
   3 -12  -1   51.20    7.40
   3 -11  -1   52.64    6.94
   3 -10  -1   83.88    7.63
  -3   9   1   22.90    7.34
  -3   9   1   47.25    4.92
   3  -9  -1   33.96    5.61
  -3   8   1   14.46    3.31
  -3   8   1   17.79    6.45
   3  -8  -1   10.44    4.49
  -3   7   1   17.19    3.26
  -3   7   1   16.39    5.66
   3  -7  -1   15.14    4.48
  -3   6   1    9.23    2.61
  -3   6   1    7.20    4.22
   3  -6  -1    9.59    3.32
  -3   5   1   39.29    3.61
  -3   5   1   23.87    4.24
   3  -5  -1   30.56    4.04
  -3   4   1   82.50    5.70
  -3   4   1   82.30    3.92
   3  -4  -1   74.25    4.58
  -3   3   1   88.23    4.68
  -3   3   1   87.65    5.38
   3  -3  -1   88.04    4.31
   3  -3  -1   84.15    5.37
  -3   2   1  299.61    7.09
   3  -2  -1  305.58    8.35
   3  -2  -1  304.24    5.92
   3  -1  -1   95.15    3.22
   3  -1  -1   90.40    5.56
   3   0  -1  243.75    3.80
   3   0  -1  253.16    9.01
   3   1  -1   61.90    5.81
   3   1  -1   61.38    1.62
   3   2  -1   81.76    6.89
  -3  -3   1    0.93    0.78
   3   3  -1   10.03    3.65
   3   4  -1    8.35    3.83
  -3  -5   1    1.58    1.46
   3   5  -1   -0.63    4.09
   3   5  -1    3.26    3.17
   3   6  -1   11.62    4.41
   3   6  -1    5.81    5.52
   3   7  -1    5.56    3.99
   3   7  -1   -4.71    5.69
   3   8  -1  132.98   15.68
   3   8  -1  123.89    8.51
   3   9  -1   29.23    6.30
   3   9  -1   31.95   11.97
   3  10  -1   54.95   15.13
   3  11  -1   39.60   14.71
   3  12  -1   47.95   15.94
   2 -12   0    2.32    5.03
   2 -11   0   13.21    5.29
  -2  10   0   47.32    5.56
   2 -10   0   51.29    6.58
  -2   9   0   60.37    8.85
  -2   9   0   69.09    5.57
   2  -9   0   89.08    7.74
  -2   8   0  154.26   12.85
  -2   8   0  153.71    6.68
   2  -8   0  167.07    8.56
  -2   7   0  226.69   13.04
  -2   7   0  225.24    7.18
   2  -7   0  226.83    8.45
  -2   6   0  118.47    5.08
  -2   6   0  112.57    8.99
   2  -6   0  114.85    6.05
  -2   5   0  228.90    5.92
  -2   5   0  246.92   10.06
   2  -5   0  227.70    7.05
  -2   4   0  338.90    9.85
  -2   4   0  322.72    6.36
   2  -4   0  332.57    7.32
  -2   3   0  228.23    5.18
  -2   3   0  243.79    7.27
   2  -3   0  237.01    5.81
  -2   2   0  134.68    4.50
  -2   2   0  126.99    3.92
   2  -2   0  123.75    3.99
   2  -2   0  125.96    4.37
  -2   1   0  173.43    4.61
   2  -1   0  176.61    3.54
   2  -1   0  174.88    4.32
   2   0   0   59.20    3.45
   2   0   0   61.64    1.86
  -2  -1   0  317.27    2.90
   2   1   0  311.76    7.99
  -2  -2   0  291.23    3.16
   2   2   0  299.49    9.49
  -2  -3   0  480.25    4.98
   2   3   0  492.57   13.50
   2   3   0  479.44    7.83
  -2  -4   0  290.38    4.77
   2   4   0  297.53    6.91
   2   4   0  290.06   11.90
  -2  -5   0  140.05    4.18
   2   5   0  143.96    5.67
   2   5   0  140.40   10.18
  -2  -6   0   86.28    4.04
   2   6   0   82.28    5.25
   2   6   0   86.40   10.13
  -2  -7   0   22.28    3.36
   2   7   0   19.85    6.89
   2   7   0   22.39    4.09
  -2  -8   0   22.89    3.75
   2   8   0   25.20    9.00
   2   8   0   20.20    4.53
   2   9   0    3.35    3.37
   2   9   0    1.79    8.73
   2  10   0    0.28   11.05
   2  10   0   -0.60    3.99
   2  11   0   54.34   15.24
   2  12   0   54.83   17.97
   2  13   0  134.34   22.73
  -1  11  -1   19.96    4.92
  -1  10  -1   10.98    4.18
  -1  10  -1   11.07    6.64
   1 -10   1   18.14    4.84
  -1   9  -1    6.37    5.62
  -1   9  -1    0.62    3.25
   1  -9   1    0.03    3.35
  -1   8  -1   -0.71    4.37
  -1   8  -1   -2.58    2.72
   1  -8   1    1.89    4.11
  -1   7  -1   47.44    5.11
  -1   7  -1   29.52    6.30
   1  -7   1   43.16    5.50
  -1   6  -1   72.34    4.77
  -1   6  -1   66.94    8.25
   1  -6   1   63.00    4.97
  -1   5  -1   72.15    4.04
  -1   5  -1   72.36    7.12
   1  -5   1   73.08    4.54
  -1   4  -1  375.37    7.21
  -1   4  -1  384.77   10.87
   1  -4   1  369.07    7.25
  -1   3  -1  216.06    7.32
  -1   3  -1  205.38    4.95
   1  -3   1  217.55    5.22
  -1   2  -1  470.43    7.99
  -1   2  -1  460.65    6.22
   1  -2   1  455.75    5.99
  -1   1  -1  225.51    3.69
  -1   1  -1  217.18    3.41
   1  -1   1  220.00    3.51
  -1  -1  -1    7.33    0.91
   1   1   1    3.55    1.47
  -1  -2  -1   30.20    1.53
   1   2   1   29.65    3.89
  -1  -3  -1   43.47    2.30
   1   3   1   53.51    6.12
   1   3   1   42.39    2.35
  -1  -4  -1   51.51    2.99
   1   4   1   48.77    2.67
   1   4   1   37.49    5.22
  -1  -5  -1   13.53    2.27
   1   5   1   11.76    4.25
   1   5   1   19.77    2.50
  -1  -6  -1  204.04    5.97
   1   6   1  192.04    5.71
   1   6   1  183.65   11.76
  -1  -7  -1   67.50    4.46
   1   7   1   70.14    4.53
   1   7   1   55.94    8.15
  -1  -8  -1   72.59    5.75
   1   8   1   75.83    5.25
   1   8   1   61.65    9.54
  -1  -9  -1   56.38    5.50
   1   9   1   63.49    6.01
   1   9   1   51.16   11.17
  -1 -10  -1   61.18    5.97
   1  10   1   53.77    5.90
   1  10   1   77.73   13.77
   1  11   1   16.74   11.65
   1  12   1   19.07   15.22
   1  13   1   33.27   15.39
   0  11  -2   44.07    7.36
   0  10  -2   96.30   13.43
   0  10  -2   76.67    8.17
   0   9  -2   45.23    6.01
   0   9  -2   53.80    9.78
   0   8  -2   99.05   11.74
   0   8  -2   95.32    6.60
   0  -8   2   84.47    6.25
   0   7  -2   58.75    8.18
   0   7  -2   71.78    5.69
   0  -7   2   64.65    5.59
   0   6  -2   43.52    6.92
   0   6  -2   47.93    5.03
   0  -6   2   50.56    4.71
   0   5  -2    0.27    3.30
   0   5  -2    0.78    2.33
   0  -5   2   -1.13    2.47
   0   4  -2   28.55    3.46
   0   4  -2   20.02    4.04
   0  -4   2   23.83    2.83
   0   3  -2   30.78    3.30
   0   3  -2   19.76    3.31
   0  -3   2   27.38    2.50
   0   2  -2   54.05    4.59
   0   2  -2   59.44    3.23
   0  -2   2   61.81    2.61
   0   1  -2  452.77    6.24
   0   1  -2  465.87    9.17
   0  -1   2  453.35    4.70
   0   0  -2  707.04    9.74
   0   0  -2  683.12    6.13
   0   0  -2  701.80    5.16
   0  -1  -2   95.23    3.79
   0  -1  -2   90.01    1.74
   0  -1  -2   88.56    2.21
   0  -2  -2  131.42    3.07
   0  -2  -2  131.40    5.23
   0   2   2  128.27    5.21
   0  -3  -2  327.98    5.48
   0   3   2  342.42    2.84
   0   3   2  349.71    9.94
   0  -4  -2  207.75    5.18
   0   4   2  199.25    3.30
   0   4   2  199.89    9.36
   0  -5  -2  101.54    4.31
   0   5   2  102.68    3.06
   0   5   2  100.44    8.86
   0  -6  -2    5.56    2.72
   0   6   2    4.56    1.68
   0   6   2    2.52    4.22
   0  -7  -2   16.24    3.33
   0   7   2   13.52    5.72
   0   7   2   12.94    2.41
   0  -8  -2   67.68    5.40
   0   8   2   62.78    9.59
   0   8   2   66.97    4.17
   0  -9  -2   84.59    6.07
   0   9   2   85.16    5.06
   0   9   2   82.49   11.77
   0 -10  -2   89.11    6.32
   0  10   2   91.71   13.55
   0 -11  -2   42.45    5.57
   0  11   2   55.38   14.84
   0 -12  -2   42.57    5.87
   0  12   2   49.51   15.03
   0  13   2   73.37   18.65
   1  11  -3   -8.46    4.97
   1  10  -3    2.91    4.75
   1  10  -3   18.99   10.04
   1   9  -3   21.19    8.89
   1   9  -3   13.23    5.41
   1   8  -3   46.73    6.43
   1   8  -3   55.02   10.31
   1   7  -3   40.13    7.95
   1   7  -3   39.34    5.89
   1   6  -3  137.25   12.19
   1   6  -3  128.17    7.34
   1   5  -3  165.27    7.39
   1   5  -3  165.30   12.18
  -1  -5   3  158.38    5.47
   1   4  -3  104.75    9.28
   1   4  -3  102.33    5.63
  -1  -4   3  102.64    4.03
   1   3  -3   41.04    4.11
   1   3  -3   34.23    5.08
  -1  -3   3   33.31    2.57
   1   2  -3  218.14    6.19
   1   2  -3  214.37    9.33
  -1  -2   3  207.92    3.67
   1   1  -3  123.11    4.45
   1   1  -3  123.71    6.99
  -1  -1   3  125.77    2.68
   1   0  -3   50.88    2.00
   1   0  -3   51.85    4.87
   1   0  -3   48.55    2.91
   1  -1  -3   61.99    4.97
   1  -1  -3   65.21    3.01
   1  -1  -3   65.75    2.47
   1  -2  -3   97.94    3.24
   1  -2  -3  102.07    5.84
   1  -3  -3   24.35    2.56
   1  -3  -3   19.72    3.38
  -1   3   3   27.06    2.33
  -1   3   3   19.24    3.47
   1  -4  -3   33.81    3.17
  -1   4   3   22.96    3.84
  -1   4   3   27.12    1.90
   1  -5  -3  257.75    6.59
  -1   5   3  256.86    3.95
  -1   5   3  244.74   10.83
   1  -6  -3   92.89    4.97
  -1   6   3   85.17    2.94
  -1   6   3   94.95    9.10
   1  -7  -3   67.07    5.57
  -1   7   3   59.33    3.10
  -1   7   3   53.66    8.09
   1  -8  -3   63.40    5.83
  -1   8   3   59.94    3.62
  -1   8   3   56.96    9.46
   1  -9  -3   26.61    5.09
  -1   9   3   20.41    8.98
   1 -10  -3    8.11    4.06
  -1  10   3    6.29    8.67
   1 -11  -3    1.93    3.73
  -1  11   3    0.95   10.01
   1 -12  -3    9.47    4.93
  -1  12   3   19.52   14.32
   1 -13  -3   25.36    5.33
  -1  13   3   32.08   15.73
   1 -14  -3   21.28    5.55
   2  10  -4   17.52    6.63
   2  10  -4   73.00   16.57
   2   9  -4   23.31   11.48
   2   9  -4    3.19    5.23
   2   8  -4    9.91    5.26
   2   8  -4   23.41   11.15
   2   7  -4    0.42    4.81
   2   7  -4    9.69    7.80
   2   6  -4    6.71    4.81
   2   6  -4    9.49    6.58
   2   5  -4   34.31    7.61
   2   5  -4   35.73    5.65
   2   4  -4  129.18    7.26
   2   4  -4  122.04   11.30
   2   3  -4  164.50    7.22
   2   3  -4  166.13   11.15
   2   2  -4   65.69    4.89
   2   2  -4   57.25    7.11
  -2  -2   4   59.62    2.17
   2   1  -4  149.82    9.11
   2   1  -4  143.84    5.79
  -2  -1   4  143.27    2.82
   2   0  -4  385.71   13.17
   2   0  -4  359.16    8.12
   2   0  -4  362.77    4.76
   2  -1  -4  296.42    4.90
   2  -1  -4  307.04   11.27
   2  -2  -4  159.17    8.32
   2  -2  -4  167.87    4.32
   2  -3  -4   40.16    3.30
   2  -3  -4   38.14    5.25
   2  -4  -4   73.25    6.83
   2  -4  -4   72.15    4.01
  -2   4   4   68.69    6.59
  -2   4   4   69.40    4.09
   2  -5  -4    1.34    3.13
   2  -5  -4   -1.39    2.15
  -2   5   4   -0.60    2.73
  -2   5   4   -0.75    1.92
   2  -6  -4  107.95    5.56
  -2   6   4  105.84    9.73
  -2   6   4  105.84    3.56
   2  -7  -4   52.31    5.16
  -2   7   4   60.55    3.04
  -2   7   4   53.03    8.09
   2  -8  -4   82.46    6.19
  -2   8   4   83.23   10.77
   2  -9  -4   42.16    5.57
  -2   9   4   54.47   10.39
   2 -10  -4   82.46    6.69
  -2  10   4   94.67   13.64
   2 -11  -4   44.37    6.11
  -2  11   4   47.92   13.35
   2 -12  -4   28.82    5.77
  -2  12   4   30.09   16.20
   2 -13  -4   12.97    4.95
  -2  13   4   12.40   17.37
   2 -14  -4   11.17    5.69
   3   9  -5   23.72    8.41
   3   9  -5   52.86   15.07
   3   8  -5   51.03    8.82
   3   8  -5   69.97   15.31
   3   7  -5   81.37   15.91
   3   7  -5   67.34    9.03
   3   6  -5   60.01    8.55
   3   6  -5   84.47   15.12
   3   5  -5   40.44   10.09
   3   5  -5   54.02    7.45
   3   4  -5   13.34    6.79
   3   4  -5    9.25    4.70
   3   3  -5   22.98    6.71
   3   3  -5   24.40    5.35
   3   2  -5   -0.99    4.14
   3   2  -5    1.80    3.70
   3   1  -5    9.64    4.48
   3   0  -5   36.67    6.04
   3   0  -5   44.87    2.39
   3  -1  -5  122.17    3.80
   3  -1  -5  113.74    9.16
   3  -2  -5  137.10    9.98
   3  -2  -5  132.04    4.34
   3  -3  -5  161.11   10.16
   3  -3  -5  163.86    5.37
   3  -4  -5   63.04    4.14
   3  -4  -5   54.44    7.18
   3  -5  -5  105.27   10.01
   3  -5  -5  106.79    5.79
  -3   5   5   88.23    5.51
  -3   5   5   95.37    9.38
   3  -6  -5   38.34    4.65
   3  -6  -5   37.93    6.72
  -3   6   5   45.58    4.17
  -3   6   5   33.22    6.08
   3  -7  -5   43.44    5.28
  -3   7   5   35.82    6.90
   3  -8  -5   -0.44    3.57
  -3   8   5   -1.55    5.35
   3  -9  -5    2.85    3.83
  -3   9   5   -4.72    6.49
   3 -10  -5   54.70    6.40
  -3  10   5   40.41   12.25
   3 -11  -5   27.51    5.33
  -3  11   5   25.20   14.02
   3 -12  -5   23.54    5.84
  -3  12   5   10.70   14.14
   3 -13  -5   33.29    6.34
   3 -14  -5   21.04    6.27
   4   8  -6   16.27   11.00
   4   7  -6   22.76   11.93
   4   6  -6   30.28   12.28
   4   5  -6   41.83   11.35
   4   4  -6   71.28   12.66
   4   3  -6   55.73   10.16
   4   2  -6   85.63   11.15
   4   1  -6   23.26    7.16
   4   0  -6    4.29    5.17
   4  -1  -6    8.13    5.20
   4  -2  -6   12.79    5.58
   4  -2  -6   13.51    2.83
   4  -3  -6    2.85    2.54
   4  -3  -6    2.58    4.30
   4  -4  -6   29.69    6.49
   4  -4  -6   32.02    4.16
   4  -5  -6   18.41    6.57
   4  -5  -6   19.61    3.79
  -4   5   6   26.87    5.39
   4  -6  -6   73.59    9.86
   4  -6  -6   66.84    5.85
  -4   6   6   61.45    9.13
   4  -7  -6   73.44   10.15
   4  -7  -6   71.54    6.36
  -4   7   6   69.56   10.09
   4  -8  -6  109.28    7.17
  -4   8   6   97.13   12.78
   4  -9  -6   90.32    7.84
  -4   9   6   94.09   13.35
   4 -10  -6   39.62    6.05
  -4  10   6   46.05   13.83
   4 -11  -6   14.23    5.11
  -4  11   6   12.78   14.34
   4 -12  -6    5.18    4.47
  -4  12   6  -19.11   15.33
   4 -13  -6   -2.82    4.02
   5   6  -7   22.48   11.07
   5   5  -7   10.53   10.52
   5   4  -7   24.12   11.30
   5   3  -7    2.78    8.27
   5   2  -7   51.41   11.10
   5   1  -7   55.78   11.07
   5   0  -7   54.56    9.73
   5  -1  -7  144.40   14.37
   5  -2  -7   50.55    9.33
   5  -3  -7   97.82   12.65
   5  -4  -7   20.04    7.20
   5  -5  -7    4.60    3.13
   5  -5  -7    6.02    5.81
  -5   5   7    1.97    4.77
   5  -6  -7    7.20    6.55
   5  -6  -7    5.38    3.26
   5  -7  -7    1.67    7.62
   5  -7  -7   -0.60    3.28
  -5   7   7    7.02    7.47
   5  -8  -7   -1.16    3.34
   5  -8  -7   -1.45    7.22
  -5   8   7    1.05    7.22
   5  -9  -7   12.70    4.59
  -5   9   7    5.75   10.29
   5 -10  -7   38.30    6.43
  -5  10   7   42.27   13.64
   5 -11  -7   62.69    7.47
  -5  11   7   36.06   15.30
   5 -12  -7   25.72    6.00
  -5  12   7   39.61   21.05
   6   3  -8   22.29   12.18
   6   2  -8   16.41   10.41
   6   1  -8    8.08    9.15
   6   0  -8    1.04    8.20
   6  -1  -8   25.58   10.31
   6  -2  -8   17.29    9.13
   6  -3  -8   25.36   10.12
   6  -4  -8   93.13   15.69
   6  -5  -8  134.82   17.89
   6  -6  -8   72.11   14.21
   6  -7  -8   37.05   11.55
   6  -7  -8   28.73    5.18
  -6   7   8   63.66   12.78
   6  -8  -8   33.22   12.41
   6  -8  -8   45.24    5.99
  -6   8   8   58.84   13.27
   6  -9  -8    0.68   12.04
   6  -9  -8   17.14    5.21
  -6   9   8    8.54   11.15
   6 -10  -8    6.56    4.84
  -6  10   8   -4.35   13.32
   6 -11  -8    7.18    4.83
  -6  11   8   -8.11   15.17
   6 -12  -8    2.83    5.46
   7   0  -9   22.19   13.73
   7  -1  -9   43.28   15.11
   7  -2  -9    0.95   10.52
   7  -3  -9   -7.16   10.10
   7  -4  -9    2.77   10.56
   7  -5  -9    4.02   11.12
   7  -6  -9    2.87   11.91
   7  -7  -9   34.15   13.64
  -7   8   9   85.47   15.06
   7  -9  -9   41.58   15.79
  -7   9   9   61.87   15.49
   7 -10  -9   18.34   15.56
   7 -10  -9   39.23    6.52
  -7  10   9   45.41   15.59
  10  -6  -7   20.43   15.18
  10  -5  -7  -14.11   12.53
 -10   4   7   -9.43   12.40
  10  -4  -7    5.48   13.77
 -10   3   7  -10.60    7.74
  10  -3  -7    3.52   12.74
 -10   2   7   -6.28    7.78
  10  -2  -7    2.96   13.84
   9 -10  -6    0.85    5.36
   9  -9  -6   10.32    5.52
   9  -6  -6   50.19   13.53
  -9   5   6   20.77    8.18
   9  -5  -6   33.58   11.69
  -9   4   6   14.80    8.01
   9  -4  -6   40.94   13.47
  -9   3   6   23.21    8.35
   9  -3  -6   34.13   11.67
  -9   2   6   14.48    7.16
   9  -2  -6   33.74   12.19
   9  -1  -6   25.47   12.30
   9   0  -6    6.62   10.20
   9   1  -6   10.14   10.71
   9   2  -6   17.64   11.58
   8 -11  -5   44.88    7.41
   8 -10  -5    4.28    5.59
   8  -9  -5   22.46    5.69
   8  -8  -5   12.39    5.33
  -8   7   5   19.47    8.20
   8  -7  -5   11.84    8.35
   8  -7  -5   12.50    5.08
  -8   6   5   -5.25    5.80
   8  -6  -5    3.07    3.99
   8  -6  -5   -4.92    6.53
  -8   5   5   10.01    6.83
   8  -5  -5    7.34    7.58
  -8   4   5   -0.68    6.35
   8  -4  -5   -2.66    6.10
  -8   3   5   13.67    6.45
   8  -3  -5   20.89    8.37
   8  -2  -5   56.68   11.51
   8  -1  -5  141.83   17.47
   8   0  -5   23.72    9.54
   8   1  -5   27.63   10.53
   8   2  -5   22.54   10.72
   8   3  -5   19.34   10.40
   8   4  -5   28.45   11.50
   8   5  -5   31.80   12.65
   7 -12  -4   -8.55    4.66
   7 -11  -4   14.48    5.75
   7 -10  -4    6.56    5.69
   7  -9  -4   33.75    6.24
   7  -8  -4   89.27    7.62
  -7   7   4  100.75   11.34
  -7   7   4   91.04    7.49
   7  -7  -4   99.32    7.28
   7  -7  -4   81.34   10.69
  -7   6   4  154.20    9.44
  -7   6   4  161.81   12.56
   7  -6  -4  130.86    7.46
   7  -6  -4  161.72   14.24
  -7   5   4   26.69    6.92
   7  -5  -4   34.97    7.64
   7  -5  -4   35.53    5.24
  -7   4   4   11.09    6.64
   7  -4  -4   12.30    5.63
   7  -4  -4   10.48    3.65
  -7   3   4   53.85    8.16
   7  -3  -4   34.02    7.69
   7  -2  -4    3.32    5.73
   7  -1  -4    0.44    5.43
   7   0  -4    1.14    5.30
   7   1  -4   41.49    8.96
   7   2  -4   92.23   12.50
   7   3  -4   36.05   10.28
   7   4  -4   49.45   12.32
   7   5  -4   21.39   10.85
   7   6  -4   35.73   14.09
   7   7  -4   20.83   15.19
   6 -12  -3    3.19    5.29
   6 -11  -3   16.46    5.75
   6 -10  -3   19.15    5.66
   6  -9  -3   21.48    5.43
  -6   8   3   -0.40    4.63
   6  -8  -3   -1.96    4.00
  -6   7   3    3.28    3.80
  -6   7   3   -2.18    4.12
   6  -7  -3   -1.27    4.31
  -6   6   3   -0.52    4.23
  -6   6   3    5.13    3.94
   6  -6  -3    3.16    4.00
   6  -6  -3    0.70    4.53
  -6   5   3   88.63    8.33
   6  -5  -3   55.05    7.43
   6  -5  -3   80.27    6.71
  -6   4   3   40.22    6.96
   6  -4  -3   25.22    5.41
   6  -4  -3   39.26    5.04
  -6   3   3  127.73    8.55
   6  -3  -3  130.23    6.07
   6  -3  -3  122.27   10.34
  -6   2   3   64.67    7.08
   6  -2  -3   70.20    4.67
   6  -2  -3   59.71    8.15
   6  -1  -3   44.84    6.88
   6   0  -3  110.50   11.49
   6   1  -3   30.32    6.99
   6   2  -3   -0.75    4.78
   6   3  -3    1.01    5.05
   6   4  -3    1.33    5.54
   6   5  -3   20.25    9.26
   6   6  -3   63.84   13.39
   6   7  -3  111.36   18.06
   6   8  -3   77.97   18.16
   6   9  -3   66.24   27.69
   5 -13  -2   14.84    6.43
   5 -12  -2   11.19    5.55
   5 -11  -2   47.05    7.08
   5 -10  -2   66.47    7.50
   5  -9  -2   54.25    6.76
  -5   8   2   36.06    7.37
  -5   8   2   45.86    5.04
   5  -8  -2   40.09    6.02
  -5   7   2   22.88    5.70
  -5   7   2   26.46    4.43
   5  -7  -2   16.39    4.93
  -5   6   2   65.25    5.76
  -5   6   2   59.11    7.63
   5  -6  -2   64.12    6.50
  -5   5   2    4.49    3.13
  -5   5   2    7.36    3.86
   5  -5  -2    6.33    3.64
   5  -5  -2    0.81    3.43
  -5   4   2   -1.15    3.41
   5  -4  -2   -2.09    2.84
   5  -4  -2    0.35    2.94
  -5   3   2   14.14    4.35
   5  -3  -2   20.54    3.56
   5  -3  -2   12.81    3.55
  -5   2   2   83.28    6.27
   5  -2  -2   73.05    4.33
   5  -2  -2   84.08    7.41
   5  -1  -2   65.00    6.83
   5  -1  -2   63.43    3.50
   5   0  -2  147.69    4.00
   5   0  -2  149.79    9.52
   5   1  -2   89.95    8.61
   5   2  -2   26.32    5.80
   5   3  -2   78.99   10.07
   5   4  -2    8.08    5.52
   5   5  -2    0.73    6.16
   5   6  -2   -1.59    6.58
   5   7  -2    1.99    8.84
   5   8  -2   24.16   12.41
   5   9  -2   38.05   14.79
   5  10  -2   64.47   17.19
   4 -13  -1   25.17    6.41
   4 -12  -1   18.10    6.07
   4 -11  -1   -0.02    4.45
   4 -10  -1   -1.97    4.01
  -4   9   1    8.84    3.25
   4  -9  -1   13.13    4.86
  -4   8   1   15.46    6.18
  -4   8   1   19.19    3.86
   4  -8  -1   20.62    5.20
  -4   7   1   42.92    6.81
  -4   7   1   58.13    4.95
   4  -7  -1   47.79    6.09
  -4   6   1   71.19    8.50
  -4   6   1   71.39    4.87
   4  -6  -1   67.86    6.14
  -4   5   1  101.15    5.26
  -4   5   1  110.75    7.29
   4  -5  -1   98.74    6.02
  -4   4   1  144.31    7.07
  -4   4   1  150.92    6.07
   4  -4  -1  137.57    7.56
   4  -4  -1  139.46    6.36
  -4   3   1   67.73    4.85
   4  -3  -1   65.47    5.36
   4  -3  -1   72.12    4.33
  -4   2   1   33.24    4.55
   4  -2  -1   30.36    3.28
   4  -2  -1   28.60    3.81
  -4   1   1   33.27    4.40
   4  -1  -1   28.62    2.69
   4  -1  -1   27.19    3.81
   4   0  -1   43.13    5.17
   4   0  -1   48.16    2.56
   4   1  -1   17.18    1.53
   4   1  -1   12.36    3.46
   4   2  -1    8.85    3.65
   4   2  -1   14.63    1.01
   4   3  -1  151.77   10.76
   4   4  -1  147.65   11.27
   4   5  -1   96.61   12.15
   4   6  -1   31.84    7.89
   4   7  -1   28.90    8.82
   4   8  -1  118.74   16.01
   4   9  -1   21.33   13.09
   4  10  -1   22.01   13.10
   4  11  -1   23.35   14.29
   3 -13   0   24.35    6.22
   3 -12   0   25.93    5.93
   3 -11   0   42.31    6.57
  -3  10   0   91.17    6.34
   3 -10   0   90.88    8.44
  -3   9   0   74.31    5.61
   3  -9   0   74.18    7.70
  -3   8   0   44.72    7.29
  -3   8   0   43.24    4.82
   3  -8   0   43.35    6.17
  -3   7   0   14.93    5.36
  -3   7   0   18.50    3.72
   3  -7   0   14.84    4.68
  -3   6   0    7.64    2.82
  -3   6   0    7.70    4.11
   3  -6   0    7.76    4.07
  -3   5   0   -0.36    2.16
  -3   5   0   -2.49    2.75
   3  -5   0   -0.51    2.68
  -3   4   0   28.67    3.73
  -3   4   0   36.58    3.44
   3  -4   0   33.66    3.90
  -3   3   0  216.21    6.63
  -3   3   0  213.48    5.70
   3  -3   0  216.84    6.07
  -3   2   0   64.25    4.22
   3  -2   0   61.00    3.71
   3  -2   0   63.15    3.60
  -3   1   0  101.62    5.03
   3  -1   0  103.66    3.47
   3  -1   0  104.99    4.81
   3   0   0  126.99    3.19
   3   0   0  123.57    5.86
   3   1   0  201.29    7.82
   3   1   0  200.59    3.19
  -3  -2   0  107.99    2.23
   3   2   0  103.66    7.03
  -3  -3   0   33.43    1.69
   3   3   0   31.30    5.07
  -3  -4   0   34.22    2.08
   3   4   0   29.88    5.35
  -3  -5   0    0.24    1.49
   3   5   0    1.43    3.96
  -3  -6   0   44.57    3.28
   3   6   0   38.20    7.34
   3   7   0   13.90    7.47
   3   8   0   71.51   12.43
   3   9   0   66.55   13.45
   3  10   0  128.87   19.60
   3  11   0   64.40   16.65
   3  12   0   33.96   15.45
  -2  11  -1   10.18    4.30
   2 -11   1   14.34    5.02
  -2  10  -1   38.97    5.40
   2 -10   1   59.54    7.14
  -2   9  -1   91.48   11.78
  -2   9  -1   78.49    6.23
   2  -9   1   86.79    7.08
  -2   8  -1   57.09    7.86
  -2   8  -1   55.20    5.80
   2  -8   1   62.53    6.70
  -2   7  -1   36.28    4.66
  -2   7  -1   23.03    5.74
   2  -7   1   39.29    5.43
  -2   6  -1  140.28    9.32
  -2   6  -1  127.89    5.58
   2  -6   1  143.57    6.75
  -2   5  -1   55.13    6.18
  -2   5  -1   57.43    4.06
   2  -5   1   58.68    4.95
  -2   4  -1  227.05    6.01
  -2   4  -1  225.81    8.22
   2  -4   1  227.91    6.47
  -2   3  -1   30.79    3.98
  -2   3  -1   36.26    3.26
   2  -3   1   34.57    3.27
  -2   2  -1    1.88    1.47
  -2   2  -1   -2.09    1.66
   2  -2   1    0.75    1.85
  -2   1  -1   27.68    2.52
  -2   1  -1   22.89    1.22
   2  -1   1   24.78    2.13
   2  -1   1   24.19    1.20
  -2   0  -1   95.67    3.58
   2   0   1   93.23    3.07
   2   0   1   93.07    2.51
  -2  -1  -1    1.81    0.93
   2   1   1    0.32    1.54
  -2  -2  -1   21.95    1.76
   2   2   1   17.32    3.34
  -2  -3  -1    0.88    1.18
   2   3   1    1.63    3.06
  -2  -4  -1  150.10    3.86
   2   4   1  161.96    9.37
  -2  -5  -1  117.76    4.18
   2   5   1  131.17    4.95
   2   5   1  118.15    9.52
  -2  -6  -1   93.51    4.28
   2   6   1   90.62   10.77
   2   6   1   89.89    4.55
  -2  -7  -1   28.96    3.59
   2   7   1   30.92    3.94
   2   7   1   25.25    7.12
  -2  -8  -1    0.47    2.85
   2   8   1    0.19    6.53
   2   8   1   -1.68    2.93
  -2  -9  -1    0.38    2.95
   2   9   1    1.08    3.25
   2   9   1   -0.32    7.53
   2  10   1   -4.47    3.39
   2  10   1    6.03   11.42
   2  11   1   64.99   17.73
   2  12   1   86.46   19.75
   2  13   1   96.36   21.14
  -1  11  -2   38.46    6.62
  -1  10  -2   31.31    5.86
  -1   9  -2    7.99    4.17
  -1   9  -2   14.67    6.40
   1  -9   2    8.84    4.13
  -1   8  -2   -2.74    3.11
  -1   8  -2   -0.67    4.64
   1  -8   2    7.42    4.63
  -1   7  -2    7.56    4.47
  -1   7  -2   11.10    3.64
   1  -7   2    9.53    4.47
  -1   6  -2   34.03    5.58
  -1   6  -2   41.74    4.68
   1  -6   2   44.81    4.79
  -1   5  -2   51.86    4.31
  -1   5  -2   48.42    6.42
   1  -5   2   47.40    4.63
  -1   4  -2   80.24    4.26
  -1   4  -2   88.09    6.34
   1  -4   2   77.74    4.18
  -1   3  -2  200.19    7.33
  -1   3  -2  194.74    5.59
   1  -3   2  193.83    5.22
  -1   2  -2    3.01    1.76
  -1   2  -2    4.55    1.84
   1  -2   2    5.44    1.79
  -1   1  -2  323.80    6.06
  -1   1  -2  306.63    5.17
   1  -1   2  314.01    4.70
  -1   0  -2   32.42    1.66
  -1   0  -2   29.70    1.68
  -1   0  -2   31.08    2.04
  -1  -1  -2   60.17    1.76
  -1  -1  -2   64.32    2.12
   1   1   2   65.58    3.24
  -1  -2  -2   33.69    1.93
  -1  -2  -2   34.68    1.71
   1   2   2   39.33    4.42
  -1  -3  -2  292.43    5.01
   1   3   2  297.06   10.29
  -1  -4  -2  189.95    4.71
   1   4   2  179.70    9.55
   1   4   2  189.12    3.67
  -1  -5  -2  135.69    4.50
   1   5   2  138.67    3.77
   1   5   2  137.65    9.55
  -1  -6  -2  109.34    4.65
   1   6   2  113.33    4.10
   1   6   2  125.67   11.29
  -1  -7  -2  138.53    5.65
   1   7   2  150.81   12.69
   1   7   2  150.22    5.14
  -1  -8  -2   57.69    5.31
   1   8   2   43.41    8.88
   1   8   2   53.11    4.19
  -1  -9  -2   28.45    4.53
   1   9   2   19.53    8.78
   1   9   2   22.67    3.93
  -1 -10  -2   48.73    5.35
   1  10   2   58.47   12.71
  -1 -11  -2   44.22    5.59
   1  11   2   53.29   14.38
   1  12   2   25.00   14.32
   1  13   2   20.18   15.02
   1  14   2   36.75   17.48
   0  12  -3    2.27    5.84
   0  11  -3   21.09    6.22
   0  10  -3   46.70    7.54
   0   9  -3   85.50   12.49
   0   9  -3   86.01    8.55
   0   8  -3   94.92    7.55
   0   8  -3  115.46   13.41
   0   7  -3   32.70    7.24
   0   7  -3   35.91    5.61
   0  -7   3   31.63    4.73
   0   6  -3  111.44   10.17
   0   6  -3  112.82    6.65
   0  -6   3  108.97    6.20
   0   5  -3    3.89    3.16
   0   5  -3   -2.14    3.43
   0  -5   3    1.33    2.78
   0   4  -3   10.06    2.93
   0   4  -3    7.21    3.33
   0  -4   3   14.63    2.81
   0   3  -3   65.21    4.37
   0   3  -3   66.96    6.23
   0  -3   3   65.11    3.30
   0   2  -3   41.60    3.25
   0   2  -3   41.27    4.89
   0  -2   3   42.89    2.52
   0   1  -3   32.01    2.79
   0   1  -3   21.63    3.06
   0  -1   3   27.85    2.07
   0   0  -3  426.39    5.03
   0   0  -3  415.81    6.07
   0   0  -3  426.21    9.50
   0  -1  -3  170.47    3.40
   0  -1  -3  167.87    3.60
   0  -1  -3  171.97    6.45
   0  -2  -3   60.59    4.71
   0  -2  -3   57.62    1.72
   0  -2  -3   60.46    2.69
   0   2   3   55.07    4.81
   0  -3  -3   25.81    2.53
   0  -3  -3   23.71    3.53
   0   3   3   20.01    3.44
   0  -4  -3  149.46    4.68
   0   4   3  140.51    1.70
   0   4   3  156.51    8.47
   0  -5  -3  140.33    4.97
   0   5   3  140.29    2.65
   0   5   3  145.76    9.47
   0  -6  -3   44.06    4.11
   0   6   3   36.04    2.14
   0   6   3   32.19    6.06
   0  -7  -3   16.11    3.64
   0   7   3   11.66    5.72
   0   7   3   20.67    2.29
   0  -8  -3   66.40    5.66
   0   8   3   46.95    8.94
   0   8   3   52.21    3.59
   0  -9  -3   20.24    4.65
   0   9   3   14.75    9.22
   0 -10  -3   59.31    6.02
   0  10   3   55.16   12.25
   0 -11  -3   53.89    6.37
   0  11   3   49.57   14.07
   0 -12  -3   75.10    7.60
   0  12   3   81.28   17.90
   0  13   3   63.40   18.24
   0  14   3   72.05   21.70
   1  11  -4    0.76    6.02
   1  10  -4   -0.92    4.91
   1   9  -4   13.25    8.80
   1   9  -4    8.46    5.88
   1   8  -4   31.56    6.21
   1   8  -4   56.42   11.61
   1   7  -4   34.88    7.78
   1   6  -4  121.93    8.15
   1   6  -4  119.56   12.26
   1   5  -4  112.54   11.05
   1   5  -4  100.89    6.78
   1   4  -4  172.39   11.23
   1   4  -4  176.40    7.87
  -1  -4   4  166.31    5.11
   1   3  -4  189.83   10.55
   1   3  -4  190.02    7.13
  -1  -3   4  191.02    4.57
   1   2  -4   32.90    4.84
   1   2  -4   40.23    4.15
  -1  -2   4   38.30    2.37
   1   1  -4  300.32    7.20
   1   1  -4  291.02   10.92
  -1  -1   4  297.56    4.60
   1   0  -4    9.48    2.31
   1   0  -4    4.89    1.33
   1   0  -4    2.54    2.45
   1  -1  -4   25.03    2.11
   1  -1  -4   23.48    2.64
   1  -1  -4   20.60    3.60
   1  -2  -4   16.98    3.33
   1  -2  -4   22.08    2.20
   1  -3  -4   19.76    2.45
   1  -3  -4   12.58    3.18
   1  -4  -4   23.36    2.87
   1  -4  -4   22.04    4.07
  -1   4   4   19.71    4.07
  -1   4   4   28.34    2.30
   1  -5  -4  207.90    6.16
  -1   5   4  215.48    3.25
  -1   5   4  208.25   10.35
   1  -6  -4  143.80    5.87
  -1   6   4  162.77    3.14
  -1   6   4  152.46   10.53
   1  -7  -4   54.07    5.04
  -1   7   4   54.16    2.52
  -1   7   4   45.77    7.50
   1  -8  -4   30.72    4.62
  -1   8   4   30.95    7.97
   1  -9  -4   29.36    4.91
  -1   9   4   27.66    9.85
   1 -10  -4    3.38    3.65
  -1  10   4    2.49   10.05
   1 -11  -4    7.43    4.00
  -1  11   4   -4.04   10.91
   1 -12  -4   -2.77    3.73
  -1  12   4   -1.80   13.10
   1 -13  -4   12.95    4.80
  -1  13   4   25.44   18.71
   1 -14  -4   25.10    6.29
  -1  14   4   49.36   19.83
   2   9  -5    8.32    6.06
   2   9  -5   47.20   13.46
   2   8  -5   43.75   11.91
   2   8  -5   16.92    6.24
   2   7  -5   21.35   10.22
   2   7  -5    5.01    5.67
   2   6  -5    2.61    7.69
   2   6  -5    0.76    4.72
   2   5  -5   14.77    4.91
   2   5  -5   15.79    7.58
   2   4  -5   19.25    6.94
   2   4  -5   19.17    4.90
   2   3  -5   69.91    8.95
   2   3  -5   86.52    6.47
   2   2  -5   69.24    8.43
   2   2  -5   79.06    5.82
   2   1  -5  149.33   10.14
   2   1  -5  157.68    6.90
  -2  -1   5  144.57    3.47
   2   0  -5  129.03    3.55
   2   0  -5  135.62    5.85
   2   0  -5  133.50    9.18
   2  -1  -5   62.71    6.89
   2  -1  -5   57.35    2.89
   2  -2  -5   70.22    6.89
   2  -2  -5   67.83    3.39
   2  -3  -5    0.26    2.68
   2  -3  -5    1.95    1.80
   2  -4  -5   32.00    3.46
   2  -4  -5   24.35    4.77
   2  -5  -5    1.94    2.43
   2  -5  -5   -1.22    3.20
  -2   5   5    0.80    2.52
  -2   5   5    0.85    3.07
   2  -6  -5   43.06    4.84
   2  -6  -5   34.44    6.25
  -2   6   5   32.44    2.86
  -2   6   5   22.49    5.39
   2  -7  -5   62.35    5.30
  -2   7   5   48.42    8.04
   2  -8  -5   81.94    6.23
  -2   8   5   73.82   10.27
   2  -9  -5   70.57    6.57
  -2   9   5   73.58   11.65
   2 -10  -5   78.01    6.57
  -2  10   5   72.72   13.85
   2 -11  -5   37.63    5.78
  -2  11   5   37.09   14.49
   2 -12  -5   16.40    4.83
  -2  12   5    7.81   15.03
   2 -13  -5   13.07    5.28
  -2  13   5   19.08   19.92
   2 -14  -5    3.88    5.12
   3   9  -6   36.77   17.32
   3   8  -6   96.19   18.07
   3   8  -6   34.63    8.43
   3   7  -6   45.46    8.65
   3   7  -6   79.09   15.42
   3   6  -6   57.21    8.58
   3   6  -6   81.93   15.27
   3   5  -6   38.66   10.78
   3   5  -6   19.77    6.34
   3   4  -6   19.75    5.72
   3   4  -6   21.24    7.81
   3   3  -6    8.14    4.79
   3   3  -6    7.87    6.09
   3   2  -6    5.33    5.06
   3   2  -6   14.91    4.92
   3   1  -6    2.66    4.68
   3   0  -6    2.14    3.99
   3  -1  -6   23.34    2.66
   3  -1  -6   18.36    5.30
   3  -2  -6  135.43    4.83
   3  -2  -6  142.73   10.75
   3  -3  -6  128.78    5.21
   3  -3  -6  133.07   10.48
   3  -4  -6   73.20    4.92
   3  -4  -6   70.60    9.42
   3  -5  -6   77.14    9.57
   3  -5  -6   77.13    5.64
  -3   5   6   73.46    5.75
   3  -6  -6   56.71    5.40
   3  -6  -6   42.92    7.45
  -3   6   6   46.53    7.43
   3  -7  -6   24.48    4.54
   3  -7  -6   18.01    6.54
  -3   7   6   24.52    6.77
   3  -8  -6    0.99    3.52
  -3   8   6   -4.45    5.46
   3  -9  -6    8.04    4.00
  -3   9   6    3.37    8.56
   3 -10  -6    0.99    3.77
  -3  10   6    4.55    9.95
   3 -11  -6   45.80    6.30
  -3  11   6   36.90   15.33
   3 -12  -6   40.47    6.38
  -3  12   6   38.06   19.00
   3 -13  -6   31.81    6.18
  -3  13   6    5.88   20.26
   4   7  -7   11.48   11.21
   4   6  -7   33.38   12.09
   4   5  -7   56.23   13.27
   4   4  -7  100.89   15.23
   4   3  -7   99.12   14.48
   4   2  -7   88.09   13.06
   4   1  -7   65.33   10.28
   4   0  -7    9.86    5.73
   4  -1  -7   19.27    6.56
   4  -2  -7    2.25    4.87
   4  -3  -7   -1.92    4.51
   4  -3  -7    7.24    4.88
   4  -4  -7   19.43    6.62
   4  -4  -7   17.63    3.63
   4  -5  -7   48.70    8.37
   4  -5  -7   57.37    5.18
   4  -6  -7   44.41    5.16
   4  -6  -7   44.82    8.76
  -4   6   7   43.18    8.69
   4  -7  -7   76.04   11.07
   4  -7  -7   74.81    6.16
  -4   7   7   75.27   10.99
   4  -8  -7   66.79   11.61
   4  -8  -7   54.18    6.15
  -4   8   7   73.37   12.55
   4  -9  -7   28.00    5.25
  -4   9   7   33.74   10.79
   4 -10  -7   26.19    5.37
  -4  10   7   31.78   14.15
   4 -11  -7   14.48    5.45
  -4  11   7   -0.76   14.99
   4 -12  -7    1.89    4.42
  -4  12   7  -13.48   15.45
   4 -13  -7    1.09    4.70
  -4  13   7  -25.21   19.71
   5   5  -8   11.70   13.20
   5   4  -8    4.64   10.36
   5   3  -8    3.28    8.96
   5   2  -8    7.22    8.82
   5   1  -8   17.95    9.98
   5   0  -8   26.00    9.06
   5  -1  -8   85.41   13.00
   5  -2  -8   81.11   12.50
   5  -3  -8  102.87   14.23
   5  -4  -8   68.03   12.10
   5  -5  -8    6.80    7.48
   5  -6  -8    6.85    3.31
   5  -6  -8   14.21    8.89
   5  -7  -8   -7.55    7.85
   5  -7  -8    1.22    3.22
  -5   7   8   12.16    9.04
   5  -8  -8   -5.85    8.20
   5  -8  -8    1.99    4.03
  -5   8   8    6.58    9.93
   5  -9  -8   16.37   11.15
   5  -9  -8   23.04    5.65
  -5   9   8   23.61   11.64
   5 -10  -8   43.01    6.84
  -5  10   8   45.77   15.12
   5 -11  -8   35.18    6.40
  -5  11   8   43.67   18.40
   5 -12  -8   24.36    5.97
  -5  12   8    6.61   19.69
   6   2  -9   12.92   11.22
   6   1  -9    7.51   10.42
   6   0  -9    7.39   11.27
   6  -1  -9    1.57    8.82
   6  -2  -9   21.86   11.57
   6  -3  -9   31.53   11.92
   6  -4  -9   21.58   12.39
   6  -5  -9   32.78   12.38
   6  -6  -9   30.38   13.10
   6  -7  -9   40.03   12.82
  -6   7   9   81.94   14.73
   6  -8  -9   32.75   14.46
  -6   8   9   50.08   14.21
   6  -9  -9   13.07    4.86
   6  -9  -9    1.81   13.06
  -6   9   9   40.47   15.06
   6 -10  -9    6.95    4.94
  -6  10   9   -2.68   12.35
   6 -11  -9   15.90    5.48
  -6  11   9   10.50   15.36
  -6  12   9  -29.74   18.87
   7  -3 -10   -2.54   11.56
   7  -4 -10    7.09   12.20
   7  -5 -10   -6.45   11.56
   7  -6 -10   -1.45   11.60
   7  -7 -10    5.96   12.88
  -7   7  10   84.53   13.63
   7  -8 -10    9.81   13.42
  -7   8  10   82.81   15.33
   7  -9 -10   16.45   16.53
  -7   9  10   67.16   17.51
  10  -5  -6  -18.62   10.55
 -10   4   6   -5.93    7.70
  10  -4  -6   -6.78   11.51
 -10   3   6    2.34    8.21
  10  -3  -6   -5.40   11.19
 -10   2   6    4.69    8.05
  10  -2  -6   14.13   12.47
  10  -1  -6    6.01   12.86
  10   0  -6   41.24   14.31
   9 -10  -5    7.18    5.21
   9  -9  -5    4.57    5.03
   9  -8  -5    4.06    5.13
  -9   6   5   50.65   13.20
   9  -6  -5   35.31   11.02
  -9   5   5   47.17    9.28
   9  -5  -5   47.43   11.90
  -9   4   5   15.94    8.01
   9  -4  -5   27.21   10.86
  -9   3   5   34.75    8.14
   9  -3  -5   43.86   11.54
  -9   2   5   27.77    8.33
   9  -2  -5   47.22   11.91
   9  -1  -5   12.92    9.56
   9   0  -5   -0.68    8.36
   9   1  -5    1.90   10.23
   9   2  -5    3.77   11.52
   9   3  -5   22.43   12.69
   8 -11  -4   38.59    7.34
   8 -10  -4   39.56    7.07
   8  -9  -4   20.61    5.79
   8  -8  -4   18.91    5.84
   8  -7  -4   12.19    4.71
  -8   6   4    3.98    5.62
   8  -6  -4   -1.19    5.70
   8  -6  -4    5.85    3.96
  -8   5   4    5.90    6.25
   8  -5  -4    3.96    3.87
   8  -5  -4   -1.12    5.47
  -8   4   4   18.89    7.35
   8  -4  -4   31.01    8.24
  -8   3   4   13.90    7.07
   8  -3  -4   10.69    6.71
  -8   2   4   26.31    6.92
   8  -2  -4   28.23    7.95
   8  -1  -4   74.60   11.33
   8   0  -4   65.32   11.71
   8   1  -4   22.34    9.96
   8   2  -4   13.59    8.83
   8   3  -4   15.91    9.16
   8   4  -4   10.92   10.12
   8   5  -4   19.39   10.63
   8   6  -4   25.29   12.40
   7 -12  -3    1.36    5.52
   7 -11  -3    2.63    5.27
   7 -10  -3   13.67    6.01
   7  -9  -3   20.43    5.76
   7  -8  -3   48.43    7.08
  -7   7   3  114.99    7.73
   7  -7  -3  112.95    7.76
   7  -7  -3  106.52   15.33
  -7   6   3   29.90    6.11
  -7   6   3   24.57    5.47
   7  -6  -3   20.22    6.10
   7  -6  -3   22.98    5.00
  -7   5   3  117.50    9.44
   7  -5  -3  117.07   11.37
   7  -5  -3  113.36    6.97
  -7   4   3   21.43    6.28
   7  -4  -3   21.81    4.19
   7  -4  -3   15.18    5.63
  -7   3   3    8.20    6.57
   7  -3  -3    2.89    4.72
   7  -3  -3    9.27    3.55
  -7   2   3   13.21    6.65
   7  -2  -3    9.92    4.93
   7  -1  -3    2.78    4.62
   7   0  -3   11.55    6.10
   7   1  -3   35.11    7.91
   7   2  -3   56.74    9.79
   7   3  -3   72.96   11.85
   7   4  -3   64.22   11.79
   7   5  -3   66.27   13.11
   7   6  -3   50.08   13.34
   7   7  -3   28.25   12.57
   7   8  -3   19.04   17.03
   6 -12  -2   22.97    6.27
   6 -11  -2   19.49    5.98
   6 -10  -2   28.79    6.28
   6  -9  -2    9.81    5.11
  -6   8   2    8.30    3.73
   6  -8  -2   15.37    5.15
  -6   7   2   88.02    6.46
   6  -7  -2   96.82    7.64
  -6   6   2   18.10    4.83
  -6   6   2   16.26    4.69
   6  -6  -2   22.55    5.60
   6  -6  -2   19.02    5.38
  -6   5   2   42.44    6.05
  -6   5   2   24.71    4.91
   6  -5  -2   32.04    5.73
   6  -5  -2   32.98    5.53
  -6   4   2  127.60    7.97
   6  -4  -2  136.49    9.54
   6  -4  -2  128.68    6.75
  -6   3   2   97.94    8.51
   6  -3  -2   75.45    7.40
   6  -3  -2   67.57    5.62
  -6   2   2  228.33   10.31
   6  -2  -2  224.81   11.72
   6  -2  -2  225.75    6.89
   6  -1  -2   30.81    5.80
   6  -1  -2   44.21    3.85
   6   0  -2   40.13    6.68
   6   0  -2   46.98    3.80
   6   1  -2   29.02    6.42
   6   2  -2    2.82    4.56
   6   3  -2   23.76    7.20
   6   4  -2    7.41    5.96
   6   5  -2    7.11    6.86
   6   6  -2   53.81   11.63
   6   7  -2   85.54   15.31
   6   8  -2  112.71   19.82
   6   9  -2  110.94   20.54
   5 -13  -1    0.43    4.99
   5 -12  -1   14.81    5.81
   5 -11  -1   19.97    5.76
   5 -10  -1   12.54    5.30
  -5   9   1   56.92    5.64
   5  -9  -1   56.15    7.05
  -5   8   1   56.30    5.62
   5  -8  -1   53.74    6.82
  -5   7   1   52.27    5.57
  -5   7   1   34.39    6.24
   5  -7  -1   43.30    6.13
  -5   6   1   26.32    4.32
  -5   6   1   25.11    4.99
   5  -6  -1   30.62    5.74
  -5   5   1   36.19    4.93
  -5   5   1   49.07    5.46
   5  -5  -1   30.33    4.92
   5  -5  -1   47.85    5.52
  -5   4   1    3.29    2.36
  -5   4   1    4.76    3.30
  -5   3   1    2.03    3.86
   5  -3  -1    1.66    2.99
   5  -3  -1    0.12    2.28
  -5   2   1  114.44    6.73
   5  -2  -1  108.18    5.07
   5  -2  -1  112.46    7.14
  -5   1   1   68.91    5.84
   5  -1  -1   59.53    3.91
   5  -1  -1   68.13    6.43
   5   0  -1   12.96    2.21
   5   0  -1   12.80    3.51
   5   1  -1  259.28   11.95
   5   1  -1  265.51    4.52
   5   2  -1  210.99    3.15
   5   2  -1  198.10   11.32
   5   3  -1  167.91   12.40
   5   4  -1   48.69    7.96
   5   5  -1   16.36    6.37
   5   6  -1    1.69    5.85
   5   7  -1    5.92    7.62
   5   8  -1    3.17    9.53
   5   9  -1   47.15   16.18
   5  10  -1   45.41   16.57
   5  11  -1   75.75   20.23
   4 -13   0   28.11    6.62
   4 -12   0    7.92    5.18
   4 -11   0    8.60    4.95
  -4  10   0    2.47    3.10
   4 -10   0    2.23    5.11
  -4   9   0   24.28    4.47
   4  -9   0   17.90    5.81
  -4   8   0    7.16    3.49
   4  -8   0    9.42    4.86
  -4   7   0   36.92    4.75
  -4   7   0   24.60    5.87
   4  -7   0   29.94    5.54
  -4   6   0   97.11    5.64
  -4   6   0   95.81    8.49
   4  -6   0   89.84    6.60
  -4   5   0  223.28    7.11
  -4   5   0  226.80    9.48
   4  -5   0  231.07    8.03
  -4   4   0  165.11    5.98
  -4   4   0  171.92    7.17
   4  -4   0  186.07    6.84
  -4   3   0  115.82    5.71
  -4   3   0  114.44    5.39
   4  -3   0  109.19    5.10
   4  -3   0  112.84    5.50
  -4   2   0  133.02    6.24
   4  -2   0  130.00    4.72
   4  -2   0  128.12    5.54
  -4   1   0    6.11    3.28
   4  -1   0    4.63    1.87
   4  -1   0    4.63    2.05
   4   0   0   18.45    2.16
   4   0   0   12.98    2.86
   4   1   0   11.72    1.55
   4   1   0    7.71    2.86
   4   2   0    1.25    1.02
   4   2   0   -0.47    2.41
  -4  -3   0   45.42    1.97
   4   3   0   41.36    5.72
  -4  -4   0  187.14    3.60
   4   4   0  186.88   11.91
  -4  -5   0   59.54    2.82
   4   5   0   58.34    8.06
   4   6   0   64.46    9.28
   4   7   0   42.34    9.19
   4   8   0  123.05   15.92
   4   9   0   35.62   13.77
   4  10   0    5.48   12.36
   4  11   0   36.97   16.31
   4  12   0   38.53   17.80
   3 -12   1   30.32    6.69
  -3  11  -1   33.37    6.20
   3 -11   1   24.93    5.93
  -3  10  -1   73.16    6.56
   3 -10   1   67.46    7.82
  -3   9  -1   55.45    6.08
   3  -9   1   55.29    6.83
  -3   8  -1   25.84    4.35
  -3   7  -1    2.34    3.10
  -3   7  -1    4.60    4.37
   3  -7   1    7.10    4.59
  -3   6  -1    3.23    2.78
  -3   6  -1   -0.01    3.53
   3  -6   1   -4.12    3.43
  -3   5  -1    9.47    3.35
  -3   5  -1   19.48    3.41
   3  -5   1   18.81    3.95
  -3   4  -1    5.99    2.51
  -3   4  -1    9.22    2.51
   3  -4   1   12.06    3.11
  -3   3  -1  210.36    5.78
  -3   3  -1  213.83    6.16
   3  -3   1  218.48    6.22
  -3   2  -1  208.19    5.72
  -3   2  -1  218.66    4.55
   3  -2   1  219.46    5.59
  -3   1  -1  205.07    5.83
   3  -1   1  205.29    4.86
   3  -1   1  211.05    4.46
  -3   0  -1  411.37    7.83
   3   0   1  400.00    5.62
   3   0   1  400.21    7.85
   3   1   1   14.75    1.75
   3   1   1   10.91    2.82
  -3  -2  -1  172.76    3.41
   3   2   1  169.39    8.06
  -3  -3  -1   61.08    2.51
   3   3   1   67.48    6.90
  -3  -4  -1   20.54    2.03
   3   4   1   19.90    4.97
  -3  -5  -1   -0.82    1.46
   3   5   1    0.40    3.78
  -3  -6  -1    0.49    1.92
   3   6   1    3.79    4.89
  -3  -7  -1   51.91    4.19
   3   7   1   42.29    8.47
  -3  -8  -1   47.76    4.42
   3   8   1   35.97    9.41
   3   9   1   99.00   14.99
   3  10   1   95.44   16.88
   3  11   1   78.89   17.48
   3  12   1   75.77   19.27
   3  13   1   51.98   17.98
  -2  11  -2   -2.55    3.48
  -2  10  -2   10.40    4.48
   2 -10   2   12.50    4.78
  -2   9  -2   34.18    5.47
   2  -9   2   36.92    6.38
  -2   8  -2   49.42    7.33
  -2   8  -2   76.09    6.91
   2  -8   2   69.44    6.78
  -2   7  -2   39.75    6.19
  -2   7  -2   64.19    6.21
   2  -7   2   55.48    6.26
  -2   6  -2   18.44    3.61
  -2   6  -2   13.53    4.32
   2  -6   2   16.97    4.52
  -2   5  -2  117.12    5.42
  -2   5  -2  123.93    7.80
   2  -5   2  121.81    5.99
  -2   4  -2  181.24    7.50
  -2   4  -2  188.92    5.97
   2  -4   2  188.84    6.07
  -2   3  -2   29.06    3.09
  -2   3  -2   30.37    3.44
   2  -3   2   42.36    3.79
  -2   2  -2    1.24    1.82
  -2   2  -2    0.46    1.19
   2  -2   2    0.21    1.82
  -2   1  -2    7.60    1.96
  -2   1  -2    7.36    1.00
   2  -1   2    7.64    1.91
  -2   0  -2  158.90    4.10
   2   0   2  164.07    3.76
   2   0   2  155.39    3.72
  -2  -1  -2  127.90    3.12
  -2  -1  -2  118.58    3.55
   2   1   2  124.69    5.01
  -2  -2  -2  968.78    8.09
  -2  -2  -2  992.27    8.75
   2   2   2 1000.00   15.14
  -2  -3  -2  578.30    6.85
   2   3   2  584.46   14.23
  -2  -4  -2  304.35    5.57
   2   4   2  317.20   12.25
  -2  -5  -2  316.84    6.40
   2   5   2  322.97   13.61
  -2  -6  -2  159.42    5.18
   2   6   2  152.33   11.65
  -2  -7  -2   19.54    3.21
   2   7   2   17.08    6.59
   2   7   2   21.29    3.48
  -2  -8  -2    3.13    2.81
   2   8   2    6.70    3.24
   2   8   2    3.03    6.70
  -2  -9  -2    1.00    3.22
   2   9   2   -3.99    2.93
   2   9   2   -0.63    7.68
  -2 -10  -2    5.33    3.50
   2  10   2    7.72   11.48
   2  11   2   11.13   13.21
   2  12   2   98.67   20.72
   2  13   2   98.80   22.17
  -1  12  -3   14.65    6.46
  -1  11  -3   12.74    5.40
  -1  10  -3    6.21    4.38
  -1   9  -3    4.47    4.32
  -1   8  -3    5.46    4.84
  -1   8  -3    3.79    3.87
   1  -8   3   11.45    4.63
  -1   7  -3   25.22    6.06
  -1   7  -3   28.20    4.92
   1  -7   3   27.71    5.24
  -1   6  -3    3.10    3.93
  -1   6  -3   -1.05    2.96
   1  -6   3   -2.42    3.60
  -1   5  -3   79.43    7.64
  -1   5  -3   67.03    5.32
   1  -5   3   77.69    5.55
  -1   4  -3   83.19    6.61
  -1   4  -3   92.00    5.14
   1  -4   3   85.21    4.65
  -1   3  -3   63.47    4.16
  -1   3  -3   51.09    4.93
   1  -3   3   47.99    3.30
  -1   2  -3   95.09    5.26
  -1   2  -3   90.40    4.05
   1  -2   3   93.30    3.73
  -1   1  -3   19.86    2.59
  -1   1  -3   18.55    2.52
   1  -1   3   21.28    2.37
  -1   0  -3   45.61    2.50
  -1   0  -3   45.86    3.48
  -1   0  -3   46.14    2.56
  -1  -1  -3  329.79    5.09
  -1  -1  -3  331.66    7.58
  -1  -1  -3  328.01    4.43
   1   1   3  336.10    7.81
  -1  -2  -3   62.64    2.80
  -1  -2  -3   64.49    1.80
   1   2   3   66.30    5.10
  -1  -3  -3    2.42    1.62
  -1  -3  -3    3.05    0.91
   1   3   3    1.88    2.81
  -1  -4  -3    1.49    1.77
   1   4   3    1.95    3.28
  -1  -5  -3   51.17    3.46
   1   5   3   47.30    6.48
  -1  -6  -3  175.68    5.81
   1   6   3  171.06    4.11
   1   6   3  174.31   11.76
  -1  -7  -3  138.14    5.82
   1   7   3  141.37    4.47
   1   7   3  143.08   12.52
  -1  -8  -3   93.29    6.09
   1   8   3  105.71   14.12
   1   8   3   92.71    4.47
  -1  -9  -3   75.13    6.39
   1   9   3   68.89   11.79
  -1 -10  -3   39.34    5.48
   1  10   3   50.26   12.71
  -1 -11  -3   51.13    5.86
   1  11   3   65.38   16.01
  -1 -12  -3   24.92    5.38
   1  12   3   34.39   18.11
   1  13   3   26.90   16.37
   1  14   3   34.00   18.05
   0  11  -4   11.69    6.42
   0  10  -4   43.68    7.24
   0   9  -4   54.98    7.43
   0   8  -4   83.87    8.31
   0   8  -4   82.21   11.38
   0   7  -4   38.20    6.15
   0   7  -4   34.60    7.10
   0   6  -4   73.07    6.27
   0   6  -4   68.95    9.58
   0  -6   4   67.15    5.64
   0   5  -4    2.54    3.40
   0   5  -4    2.80    4.21
   0  -5   4    1.30    3.27
   0   4  -4    2.64    3.14
   0   4  -4    1.79    2.78
   0  -4   4    4.66    2.47
   0   3  -4   61.94    6.84
   0   3  -4   63.94    4.52
   0  -3   4   63.86    3.52
   0   2  -4  213.45    9.19
   0   2  -4  219.31    6.55
   0  -2   4  217.52    4.83
   0   1  -4  187.32    5.54
   0   1  -4  181.68    7.97
   0  -1   4  187.28    4.24
   0   0  -4  197.04    5.16
   0   0  -4  202.63    4.22
   0   0  -4  194.77    7.89
   0  -1  -4  446.99    6.33
   0  -1  -4  477.91   11.43
   0  -1  -4  463.93    6.29
   0  -2  -4  123.92    3.78
   0  -2  -4  125.13    3.03
   0  -2  -4  132.06    6.69
   0  -3  -4   65.62    3.37
   0  -3  -4   63.73    5.78
   0   3   4   61.66    5.77
   0  -4  -4   89.06    4.01
   0   4   4   86.45    6.88
   0  -5  -4   77.08    4.26
   0   5   4   69.20    7.51
   0  -6  -4   79.72    4.66
   0   6   4   81.28    9.23
   0   6   4   76.65    1.89
   0  -7  -4   15.10    3.44
   0   7   4   18.01    6.26
   0   7   4   19.71    1.83
   0  -8  -4   18.26    4.17
   0   8   4   20.93    8.09
   0  -9  -4   42.55    5.45
   0   9   4   32.65    9.69
   0 -10  -4   27.36    4.84
   0  10   4   44.29   13.17
   0 -11  -4   36.70    5.43
   0  11   4   40.09   14.49
   0 -12  -4   46.53    6.15
   0  12   4   71.04   20.37
   0 -13  -4   40.40    6.65
   0  13   4   87.90   22.26
   0 -14  -4   16.10    5.26
   0  14   4   21.92   21.41
   1  10  -5   -7.92    5.59
   1   9  -5    7.14    5.39
   1   8  -5    8.03    5.25
   1   8  -5   23.10   10.32
   1   7  -5   16.04    5.35
   1   7  -5   19.67    8.09
   1   6  -5   52.10    9.12
   1   6  -5   43.56    6.53
   1   5  -5   79.84    6.77
   1   5  -5   88.56   10.65
   1   4  -5   23.96    4.83
   1   4  -5   20.33    6.25
   1   3  -5   49.19    5.46
   1   3  -5   39.82    6.28
  -1  -3   5   41.22    3.36
   1   2  -5   94.87    5.63
   1   2  -5   86.08    8.48
  -1  -2   5   90.68    3.52
   1   1  -5   18.66    4.10
   1   1  -5   17.36    3.29
  -1  -1   5   19.30    2.04
   1   0  -5   18.34    2.98
   1   0  -5   21.36    2.16
   1   0  -5   11.96    3.45
   1  -1  -5   30.70    2.45
   1  -1  -5   31.80    3.13
   1  -1  -5   21.92    4.03
   1  -2  -5   83.27    3.74
   1  -2  -5   78.72    3.53
   1  -2  -5   80.89    6.78
   1  -3  -5   16.20    3.64
   1  -3  -5   19.75    2.75
   1  -4  -5  343.93    7.38
   1  -4  -5  354.66   12.77
  -1   4   5  346.79   12.65
   1  -5  -5  163.49    9.97
   1  -5  -5  165.23    5.97
  -1   5   5  163.84    3.54
  -1   5   5  159.65    9.87
   1  -6  -5  196.57    6.87
  -1   6   5  197.52    2.75
  -1   6   5  201.96   11.84
   1  -7  -5  111.34    6.07
  -1   7   5  106.74   11.33
   1  -8  -5   39.36    4.98
  -1   8   5   39.47    8.53
   1  -9  -5   25.30    4.74
  -1   9   5   21.37    8.93
   1 -10  -5   16.99    4.84
  -1  10   5   29.41   12.13
   1 -11  -5    6.67    4.02
  -1  11   5    8.88   13.69
   1 -12  -5    2.33    3.82
  -1  12   5  -23.40   15.68
   1 -13  -5    9.06    4.71
  -1  13   5   15.35   20.35
   1 -14  -5   27.83    5.86
  -1  14   5   35.22   22.71
   2   8  -6   27.57   11.63
   2   8  -6   18.86    7.31
   2   7  -6   40.72   12.43
   2   7  -6   21.03    6.41
   2   6  -6   -1.21    4.54
   2   6  -6   11.09    9.30
   2   5  -6    4.87    4.72
   2   5  -6   10.23    7.23
   2   4  -6   29.50    7.73
   2   4  -6   26.03    5.48
   2   3  -6   24.15    5.24
   2   3  -6   22.46    6.23
   2   2  -6   22.41    5.94
   2   2  -6   33.61    5.31
   2   1  -6   37.55    6.51
   2   1  -6   58.43    6.21
   2   0  -6  140.96    6.64
   2   0  -6  147.88   10.51
   2   0  -6  133.51    4.12
   2  -1  -6   83.25    3.62
   2  -1  -6   95.73    8.84
   2  -2  -6   22.61    2.74
   2  -2  -6   13.13    4.19
   2  -3  -6  165.64    5.50
   2  -3  -6  155.05   10.25
   2  -4  -6    8.41    3.95
   2  -4  -6    5.70    2.53
   2  -5  -6    6.55    4.35
   2  -5  -6    8.51    3.14
  -2   5   6   -3.61    2.60
  -2   5   6   -2.85    3.00
   2  -6  -6   25.04    4.13
   2  -6  -6   18.08    5.75
  -2   6   6   18.32    5.43
   2  -7  -6   57.22    5.70
  -2   7   6   44.48    7.59
   2  -8  -6   21.60    4.53
  -2   8   6   28.39    8.41
   2  -9  -6  125.14    7.34
  -2   9   6  131.35   16.91
   2 -10  -6   67.54    6.99
  -2  10   6   70.25   14.39
   2 -11  -6   89.86    7.28
  -2  11   6  134.89   21.97
   2 -12  -6   38.39    6.24
  -2  12   6   42.81   20.36
   2 -13  -6   18.40    5.42
  -2  13   6   19.65   19.48
   2 -14  -6   14.37    5.15
  -2  14   6    0.42   23.34
   3   8  -7   38.73   13.39
   3   7  -7   62.28   13.92
   3   7  -7   45.39    9.10
   3   6  -7   34.66    8.51
   3   6  -7   58.50   12.88
   3   5  -7   24.95    6.98
   3   5  -7   42.98   11.81
   3   4  -7   28.39    6.85
   3   4  -7   36.50    9.71
   3   3  -7   -3.48    4.62
   3   3  -7    4.64    6.54
   3   2  -7    2.46    4.43
   3   2  -7   -2.42    5.10
   3   1  -7    4.74    5.35
   3   0  -7   29.06    6.84
   3  -1  -7   24.71    6.81
   3  -2  -7   72.21    4.17
   3  -2  -7   76.44    9.77
   3  -3  -7   33.67    7.26
   3  -3  -7   30.24    3.51
   3  -4  -7   75.47    9.80
   3  -4  -7   72.92    5.15
   3  -5  -7   64.52    5.63
   3  -5  -7   55.08    8.80
   3  -6  -7   73.37    6.25
   3  -6  -7   72.46    9.61
  -3   6   7   58.52    8.81
   3  -7  -7   38.37    8.47
   3  -7  -7   45.23    5.58
  -3   7   7   39.41    8.40
   3  -8  -7   29.84    5.21
  -3   8   7   31.00    8.73
   3  -9  -7    1.12    3.73
  -3   9   7    0.49    9.05
   3 -10  -7    0.93    3.67
  -3  10   7    1.41   11.85
   3 -11  -7    0.44    4.03
  -3  11   7   -6.07   14.21
   3 -12  -7    6.94    4.66
  -3  12   7  -19.93   18.00
   3 -13  -7    7.58    4.75
  -3  13   7  -18.40   21.29
  -3  14   7    0.39   24.03
   4   6  -8   29.41   12.21
   4   5  -8   11.74   10.36
   4   4  -8   38.77   11.87
   4   3  -8   82.04   14.90
   4   2  -8   78.74   13.38
   4   1  -8   79.02   12.44
   4   0  -8   31.91    8.45
   4  -1  -8   42.05    9.02
   4  -2  -8   -2.54    4.76
   4  -3  -8    5.52    5.69
   4  -4  -8   19.42    7.49
   4  -5  -8   26.33    4.24
   4  -5  -8   17.40    6.85
   4  -6  -8   37.34    8.94
   4  -6  -8   45.70    5.06
  -4   6   8   42.06    9.17
   4  -7  -8   63.21    6.18
   4  -7  -8   64.35   11.18
  -4   7   8   72.38   12.13
   4  -8  -8   51.21   11.25
   4  -8  -8   54.08    6.22
  -4   8   8   54.05   12.68
   4  -9  -8   68.64    7.17
  -4   9   8   91.98   15.82
   4 -10  -8   20.83    5.36
  -4  10   8   31.01   13.92
   4 -11  -8   35.74    6.36
  -4  11   8   24.18   16.35
   4 -12  -8    2.26    4.48
  -4  12   8    2.03   16.86
   4 -13  -8    1.12    4.63
  -4  13   8  -46.67   20.73
   5   3  -9    0.05    9.76
   5   2  -9   13.27   10.40
   5   1  -9   21.54   10.99
   5   0  -9   23.25   10.65
   5  -1  -9   41.62   11.27
   5  -2  -9   49.91   11.57
   5  -3  -9   71.05   13.79
   5  -4  -9   48.91   12.48
   5  -5  -9   13.38    8.55
   5  -6  -9    4.04    8.68
   5  -7  -9    3.88    3.89
   5  -7  -9    8.47    9.33
  -5   7   9    9.60    8.98
   5  -8  -9   -4.89   10.69
   5  -8  -9    5.91    3.79
  -5   8   9    5.52   10.90
   5  -9  -9   10.14   12.48
   5  -9  -9   19.46    5.35
  -5   9   9   27.81   13.11
   5 -10  -9   30.27    5.75
  -5  10   9   25.17   14.54
   5 -11  -9   37.56    6.62
  -5  11   9   39.18   18.88
   5 -12  -9   25.19    6.09
  -5  12   9   -4.91   20.65
   6   0 -10    1.79   11.08
   6  -1 -10    7.96   11.21
   6  -2 -10    2.82   10.30
   6  -3 -10   16.73   11.89
   6  -4 -10   36.75   13.81
   6  -5 -10   33.17   14.61
   6  -6 -10   22.26   13.74
   6  -7 -10   20.20   13.19
  -6   7  10   64.50   13.34
  -6   8  10   83.89   16.59
   6  -9 -10   10.41   13.86
  -6   9  10   34.05   14.41
   6 -10 -10   12.57    4.85
   6 -10 -10   -9.87   13.43
  -6  10  10   16.34   14.31
   6 -11 -10    2.08    4.92
  -6  11  10   -8.87   23.21
 -11   4   6   10.63    8.14
 -11   3   6   24.26   10.37
  11  -3  -6   44.90   15.12
 -10   5   5    2.57    7.50
 -10   4   5    0.14    7.45
  10  -4  -5    3.10    9.92
 -10   3   5   -3.30    7.59
  10  -3  -5   -4.68    8.12
 -10   2   5    9.55    7.36
  10  -2  -5   14.20   10.86
 -10   1   5   17.81    7.91
  10  -1  -5   18.27   10.87
  10   0  -5   26.44   11.57
  10   1  -5   30.03   12.44
  10   2  -5   57.74   15.94
   9 -10  -4    4.06    6.03
   9  -9  -4    0.58    5.00
   9  -8  -4    1.34    4.53
   9  -7  -4    5.89    5.01
  -9   6   4   26.02    7.44
  -9   5   4   59.85    8.67
   9  -5  -4   60.81   11.08
  -9   4   4   40.24    8.17
   9  -4  -4   36.05    9.56
  -9   3   4   58.12    9.28
   9  -3  -4   66.82   11.09
  -9   2   4   42.53    8.65
   9  -2  -4   73.90   13.03
  -9   1   4    8.42    6.93
   9  -1  -4   15.18    8.36
   9   0  -4   -3.31    7.38
   9   1  -4    2.07    8.59
   9   2  -4   15.23   10.27
   9   3  -4   34.72   12.23
   9   4  -4   51.64   14.25
   8 -11  -3   24.76    7.28
   8 -10  -3   27.27    6.71
   8  -9  -3   33.02    6.61
   8  -8  -3   12.84    5.74
  -8   7   3   37.47    6.20
   8  -7  -3   37.22    6.24
  -8   6   3   -3.52    4.78
   8  -6  -3   -2.40    3.85
  -8   5   3    5.48    5.91
   8  -5  -3    1.01    4.61
   8  -5  -3    0.62    3.86
  -8   4   3    8.22    6.49
   8  -4  -3   18.34    4.33
   8  -4  -3   13.55    5.82
  -8   3   3    3.34    5.96
   8  -3  -3    2.36    4.84
  -8   2   3   44.31    7.80
   8  -2  -3   35.49    7.50
  -8   1   3   51.57    7.92
   8  -1  -3   58.27    9.48
   8   0  -3   94.44   12.43
   8   1  -3   46.17   10.21
   8   2  -3   61.47   11.28
   8   3  -3   58.89   11.91
   8   4  -3   25.59   10.20
   8   5  -3    7.22    9.29
   8   6  -3   16.15   11.13
   8   7  -3   26.87   15.84
   7 -12  -2    4.87    5.54
   7 -11  -2    6.48    5.46
   7 -10  -2    4.56    5.34
   7  -9  -2   16.49    5.81
  -7   8   2   12.27    4.26
   7  -8  -2   17.39    5.31
  -7   7   2  160.65    8.37
   7  -7  -2  153.84    9.01
  -7   6   2   65.46    7.25
   7  -6  -2   59.80    6.82
   7  -6  -2   48.24    7.51
  -7   5   2   10.90    5.12
   7  -5  -2   11.62    4.42
   7  -5  -2   10.43    5.02
  -7   4   2   47.47    7.67
   7  -4  -2   39.73    6.57
   7  -4  -2   43.84    5.43
  -7   3   2    3.54    6.08
   7  -3  -2    6.02    3.88
   7  -3  -2   -0.65    3.60
  -7   2   2   -2.32    5.34
   7  -2  -2   -2.76    3.10
   7  -2  -2    3.01    4.00
  -7   1   2    7.11    5.89
   7  -1  -2   -0.10    4.21
   7   0  -2   20.64    5.79
   7   1  -2   50.75    8.52
   7   2  -2   48.11    8.69
   7   3  -2   65.07   10.23
   7   4  -2  111.90   14.15
   7   5  -2  100.36   14.09
   7   6  -2   64.16   14.06
   7   7  -2   58.06   15.40
   7   8  -2   34.20   14.03
   6 -12  -1   20.84    6.97
   6 -11  -1   25.82    6.68
   6 -10  -1   11.84    5.34
  -6   9   1   12.30    3.94
   6  -9  -1   10.99    5.39
  -6   8   1   23.37    4.70
   6  -8  -1   15.57    5.45
  -6   7   1    0.30    3.63
   6  -7  -1   -0.87    4.27
  -6   6   1   45.31    5.91
   6  -6  -1   54.42    6.96
  -6   5   1   18.21    4.68
  -6   5   1   24.82    4.34
   6  -5  -1   20.91    4.98
   6  -5  -1   17.72    4.67
  -6   4   1   76.54    7.28
   6  -4  -1   68.53    7.34
   6  -4  -1   75.56    6.25
  -6   3   1  109.62    8.17
   6  -3  -1   89.72    6.09
   6  -3  -1  102.06    7.80
  -6   2   1  100.57    7.51
   6  -2  -1   93.47    5.48
   6  -2  -1  102.69    7.81
  -6   1   1  189.03    8.88
   6  -1  -1  191.07    6.14
   6  -1  -1  199.93   10.15
   6   0  -1   73.84    4.02
   6   0  -1   81.46    8.29
   6   1  -1    4.77    2.05
   6   1  -1    1.01    3.51
   6   2  -1    4.83    4.36
   6   3  -1   10.58    5.31
   6   4  -1    7.03    6.24
   6   5  -1    9.59    6.31
   6   6  -1   46.77    9.86
   6   7  -1   79.49   14.60
   6   8  -1   49.99   13.74
   6   9  -1   98.18   19.53
   6  10  -1   68.93   17.33
   5 -12   0    9.30    5.53
   5 -11   0   46.84    7.38
  -5  10   0   48.40    5.83
   5 -10   0   49.97    7.27
  -5   9   0   71.99    6.71
   5  -9   0   59.38    7.44
  -5   8   0   51.23    5.44
   5  -8   0   60.44    7.23
  -5   7   0   54.26    5.76
   5  -7   0   54.77    6.82
  -5   6   0   37.57    5.69
  -5   6   0   47.14    5.47
   5  -6   0   39.17    5.81
  -5   5   0   32.31    4.49
  -5   5   0   44.51    5.19
   5  -5   0   41.41    5.31
  -5   4   0   26.32    4.20
  -5   4   0   23.43    3.48
   5  -4   0   32.15    4.56
   5  -4   0   23.71    3.65
  -5   3   0    0.61    3.09
   5  -3   0   -0.13    1.87
   5  -3   0   -2.41    2.56
  -5   2   0    3.95    3.52
   5  -2   0    5.49    2.21
   5  -2   0    3.61    2.44
  -5   1   0   76.47    6.69
   5  -1   0   55.69    5.18
   5  -1   0   60.00    3.58
  -5   0   0   90.09    6.11
   5   0   0   81.57    3.63
   5   0   0   79.71    6.52
   5   1   0   17.30    2.11
   5   1   0   13.87    3.79
   5   2   0  226.88   11.19
   5   2   0  236.08    4.23
   5   3   0  113.25    2.97
   5   3   0  111.94    9.45
   5   4   0   86.35   10.01
   5   5   0   23.51    7.24
   5   6   0   21.69    7.13
   5   7   0    4.03    6.45
   5   8   0   19.09    9.57
   5   9   0   27.87   12.59
   5  10   0   58.84   16.05
   5  11   0   66.92   19.06
   4 -13   1    7.24    6.41
   4 -12   1   15.36    5.70
   4 -11   1   12.80    5.63
  -4  10  -1    7.04    3.80
   4 -10   1    6.41    5.29
  -4   9  -1    1.69    2.96
   4  -9   1    2.47    4.59
  -4   8  -1   28.76    4.53
   4  -8   1   16.80    5.62
  -4   7  -1   49.12    5.21
   4  -7   1   43.76    6.32
  -4   6  -1   57.31    5.47
  -4   6  -1   39.59    5.37
   4  -6   1   52.79    6.06
  -4   5  -1  225.30    7.25
  -4   5  -1  227.14    8.91
   4  -5   1  234.31    8.39
  -4   4  -1   81.99    5.41
  -4   4  -1   83.13    4.80
   4  -4   1   80.69    5.31
  -4   3  -1  105.26    5.09
  -4   3  -1  108.85    4.58
   4  -3   1  111.41    5.25
  -4   2  -1   30.49    3.91
   4  -2   1   31.11    2.77
   4  -2   1   35.64    3.51
  -4   1  -1   35.07    4.32
   4  -1   1   32.34    3.16
   4  -1   1   35.41    3.10
  -4   0  -1   46.80    4.69
   4   0   1   39.59    2.90
   4   0   1   42.66    4.19
  -4  -1  -1    8.63    3.22
   4   1   1    7.99    2.67
   4   1   1   14.26    1.90
  -4  -2  -1    5.10    1.39
   4   2   1    4.61    2.88
  -4  -3  -1  122.23    3.27
   4   3   1  123.05    8.57
  -4  -4  -1  115.65    3.50
   4   4   1  111.47    9.30
  -4  -5  -1   80.02    3.38
   4   5   1   89.55    9.92
  -4  -6  -1   16.81    2.57
   4   6   1   13.40    6.07
   4   7   1  101.44   12.13
   4   8   1  102.13   13.14
   4   9   1   83.85   14.64
   4  10   1   29.36   13.66
   4  11   1   29.89   15.12
   4  12   1   34.06   16.63
  -3  11  -2   23.67    5.56
   3 -11   2   25.48    6.49
  -3  10  -2   47.06    6.59
   3 -10   2   34.55    6.88
  -3   9  -2   38.89    5.37
   3  -9   2   38.08    6.93
  -3   8  -2   25.72    4.86
   3  -8   2   26.22    5.82
  -3   7  -2   -1.07    3.10
   3  -7   2    7.07    4.62
  -3   6  -2    5.06    3.48
  -3   6  -2    3.54    3.19
   3  -6   2    1.86    3.97
  -3   5  -2   24.95    3.76
  -3   5  -2   33.90    4.07
   3  -5   2   27.10    4.36
  -3   4  -2   13.18    2.89
  -3   4  -2   15.51    2.66
   3  -4   2   11.76    3.19
  -3   3  -2  191.08    5.88
  -3   3  -2  187.53    5.08
   3  -3   2  189.27    6.00
  -3   2  -2  265.78    6.41
   3  -2   2  274.05    6.39
  -3   1  -2   65.86    3.83
   3  -1   2   69.59    3.56
  -3   0  -2  548.47    8.56
   3   0   2  542.15    7.48
   3   0   2  544.75    7.29
  -3  -1  -2    3.35    1.46
  -3  -1  -2    3.97    2.48
   3   1   2    3.20    2.40
  -3  -2  -2  255.98    4.79
  -3  -2  -2  246.93    5.97
   3   2   2  260.49    9.21
  -3  -3  -2   58.96    2.84
   3   3   2   55.26    6.83
  -3  -4  -2   12.34    1.84
   3   4   2    8.51    4.09
  -3  -5  -2   34.39    2.96
   3   5   2   26.88    5.75
  -3  -6  -2   14.58    2.74
   3   6   2   11.94    5.43
  -3  -7  -2    4.18    2.57
   3   7   2   -3.35    5.52
  -3  -8  -2   71.28    5.07
   3   8   2   79.86   11.40
  -3  -9  -2   85.13    5.57
   3   9   2   97.13   13.91
   3  10   2  154.49   19.29
   3  11   2   39.34   17.24
   3  12   2   89.95   20.74
   3  13   2  101.22   22.56
  -2  12  -3   -1.73    5.02
  -2  11  -3   -2.26    3.93
  -2  10  -3   23.12    5.70
  -2   9  -3   32.49    5.82
   2  -9   3   23.67    5.70
  -2   8  -3   51.46    6.11
   2  -8   3   54.65    6.58
  -2   7  -3   93.71    6.42
  -2   7  -3  101.91    9.46
   2  -7   3   96.94    7.66
  -2   6  -3   44.87    5.94
  -2   6  -3   56.85    5.92
   2  -6   3   54.13    5.85
  -2   5  -3   83.17    6.73
  -2   5  -3   74.87    5.44
   2  -5   3   80.33    5.39
  -2   4  -3   95.53    5.05
  -2   4  -3   95.47    6.06
   2  -4   3   80.44    5.09
  -2   3  -3  122.16    5.63
  -2   3  -3  124.31    5.04
   2  -3   3  119.05    4.84
  -2   2  -3    4.97    2.27
  -2   2  -3    5.82    1.65
   2  -2   3    5.32    2.08
  -2   1  -3   39.51    3.23
  -2   1  -3   45.97    2.74
   2  -1   3   39.27    3.18
  -2   0  -3   56.64    2.99
  -2   0  -3   55.50    2.88
  -2   0  -3   62.11    3.17
   2   0   3   58.26    3.38
  -2  -1  -3    1.53    1.65
  -2  -1  -3    1.34    1.45
   2   1   3    2.83    1.83
  -2  -2  -3  167.01    4.26
  -2  -2  -3  172.36    3.95
   2   2   3  168.37    7.68
  -2  -3  -3  119.56    3.77
  -2  -3  -3  119.73    3.83
   2   3   3  125.36    7.86
  -2  -4  -3  288.86    5.92
   2   4   3  283.69   11.75
  -2  -5  -3  224.18    5.85
   2   5   3  222.41   11.86
  -2  -6  -3   21.51    3.17
   2   6   3   12.66    5.48
  -2  -7  -3   76.19    4.65
   2   7   3   66.10    9.28
  -2  -8  -3   -3.10    2.99
   2   8   3   -0.09    6.64
  -2  -9  -3    3.15    3.08
   2   9   3   -2.19    8.77
  -2 -10  -3    7.12    3.56
   2  10   3   -8.42   10.60
  -2 -11  -3   15.74    4.27
   2  11   3   10.13   14.57
   2  12   3   31.61   16.38
   2  13   3   67.38   19.56
   2  14   3   71.31   20.21
  -1  11  -4   25.61    6.89
  -1  10  -4   15.60    5.39
  -1   9  -4    6.74    4.88
  -1   8  -4    1.77    3.83
  -1   7  -4   -1.30    3.22
  -1   7  -4    2.94    4.40
   1  -7   4    3.67    4.30
  -1   6  -4   18.10    4.74
  -1   6  -4   19.32    5.32
   1  -6   4   11.64    4.64
  -1   5  -4   79.15    5.89
  -1   4  -4  167.06    9.22
  -1   4  -4  164.92    6.85
   1  -4   4  179.53    6.16
  -1   3  -4  173.08    6.33
  -1   3  -4  181.65    8.50
   1  -3   4  184.18    5.42
  -1   2  -4  232.13    8.49
  -1   2  -4  229.49    6.61
   1  -2   4  227.53    5.42
  -1   1  -4  165.35    6.81
  -1   1  -4  167.44    5.14
   1  -1   4  169.08    4.70
  -1   0  -4  153.77    6.29
  -1   0  -4  159.11    4.26
  -1   0  -4  162.78    4.68
  -1  -1  -4   50.14    2.83
  -1  -1  -4   51.44    2.66
  -1  -1  -4   46.17    4.04
  -1  -2  -4   49.00    2.14
  -1  -2  -4   49.52    4.67
  -1  -2  -4   48.02    3.01
   1   2   4   47.32    4.77
  -1  -3  -4    0.70    0.74
  -1  -3  -4   -1.41    1.62
   1   3   4   -0.33    2.45
  -1  -4  -4    0.32    1.77
   1   4   4    1.20    3.06
  -1  -5  -4    2.75    2.11
   1   5   4    2.66    3.70
  -1  -6  -4   47.18    3.89
   1   6   4   42.37    6.96
  -1  -7  -4  132.85    5.90
   1   7   4  129.96   12.36
  -1  -8  -4   60.34    5.49
   1   8   4   44.09    9.07
  -1  -9  -4   47.28    5.42
   1   9   4   47.21   10.80
  -1 -10  -4   89.59    6.91
   1  10   4  112.58   17.39
  -1 -11  -4   27.65    4.94
   1  11   4   47.96   16.76
  -1 -12  -4    2.13    4.13
   1  12   4   19.30   17.44
  -1 -13  -4    5.41    4.15
   1  13   4    0.65   16.90
   1  14   4   35.12   21.04
   0  10  -5   26.35    6.90
   0   9  -5   46.28    7.62
   0   8  -5   34.33    6.92
   0   7  -5   50.37    9.00
   0   7  -5   48.19    6.70
   0   6  -5   38.75    7.33
   0   6  -5   38.97    6.18
   0   5  -5   41.03    7.25
   0   5  -5   50.45    6.14
   0   4  -5   -0.38    3.92
   0   4  -5    1.18    3.42
   0  -4   5    0.25    2.71
   0   3  -5    3.95    3.38
   0   3  -5    6.25    3.06
   0  -3   5    6.66    2.49
   0   2  -5    9.60    3.43
   0   2  -5    7.24    2.78
   0  -2   5    7.78    2.14
   0   1  -5   21.14    3.80
   0   1  -5   26.75    3.47
   0  -1   5   29.80    2.72
   0   0  -5  302.90    5.63
   0   0  -5  311.79    7.05
   0   0  -5  304.63   10.64
   0  -1  -5  400.20    6.57
   0  -1  -5  395.20   11.69
   0  -1  -5  401.11    6.98
   0  -2  -5  357.67   11.21
   0  -2  -5  342.66    5.70
   0  -2  -5  360.20    6.50
   0  -3  -5   72.03    6.35
   0  -3  -5   78.78    2.61
   0  -3  -5   76.48    3.62
   0   3   5   78.29    6.61
   0  -4  -5  157.03    9.36
   0  -4  -5  150.04    5.16
   0   4   5  146.26    8.67
   0  -5  -5   38.80    3.80
   0   5   5   29.35    5.16
   0  -6  -5   22.34    3.52
   0   6   5   14.95    5.02
   0  -7  -5    0.82    2.90
   0   7   5    0.00    5.53
   0  -8  -5   22.97    4.35
   0   8   5   20.50    8.32
   0  -9  -5    0.46    3.42
   0   9   5    0.66    7.88
   0 -10  -5   21.30    4.58
   0  10   5   31.49   13.03
   0 -11  -5   59.62    6.49
   0  11   5   85.80   17.39
   0 -12  -5   42.51    6.14
   0  12   5   68.48   21.48
   0 -13  -5   55.50    7.18
   0  13   5   65.54   21.38
   0 -14  -5   29.72    6.22
   0  14   5   46.68   22.69
   1   9  -6   -0.98    5.89
   1   8  -6    8.49    6.11
   1   7  -6   17.50    6.30
   1   7  -6   26.70   10.48
   1   6  -6   24.61    8.70
   1   6  -6   21.64    5.81
   1   5  -6   67.18    9.79
   1   5  -6   73.50    7.84
   1   4  -6  118.28   11.34
   1   4  -6  127.97    7.90
   1   3  -6   15.02    5.37
   1   3  -6   23.58    5.19
   1   2  -6   27.48    4.64
   1   2  -6   16.69    4.96
  -1  -2   6   21.57    2.69
   1   1  -6   63.38    7.75
   1   1  -6   55.90    5.01
  -1  -1   6   58.03    3.30
   1   0  -6    4.04    1.84
   1   0  -6    6.00    2.93
   1   0  -6    3.73    3.43
   1  -1  -6   -1.36    2.04
   1  -1  -6    2.14    3.26
   1  -1  -6    0.36    1.73
   1  -2  -6   31.18    3.41
   1  -2  -6   27.55    3.02
   1  -2  -6   23.01    4.57
   1  -3  -6   17.83    2.68
   1  -3  -6   24.18    4.41
   1  -4  -6   45.44    6.34
   1  -4  -6   54.00    3.88
  -1   4   6   44.53    6.31
   1  -5  -6  149.85    5.97
   1  -5  -6  157.17   10.72
  -1   5   6  153.26    4.26
  -1   5   6  146.34    9.91
   1  -6  -6  214.71    7.35
   1  -6  -6  213.15   12.67
  -1   6   6  209.04   12.32
   1  -7  -6  124.88    6.66
  -1   7   6  137.57   12.38
   1  -8  -6   26.20    4.79
  -1   8   6   20.19    7.57
   1  -9  -6   40.78    5.62
  -1   9   6   53.56   11.18
   1 -10  -6    1.24    4.04
  -1  10   6   -0.84   11.29
   1 -11  -6   21.32    5.02
  -1  11   6    6.33   15.33
   1 -12  -6    1.63    4.34
  -1  12   6  -16.33   15.18
   1 -13  -6    9.35    4.59
  -1  13   6  -14.71   19.73
   1 -14  -6   21.68    5.64
  -1  14   6    4.09   20.82
   2   7  -7   24.66    9.69
   2   7  -7    9.71    6.78
   2   6  -7    6.61    5.75
   2   6  -7    8.60    7.72
   2   5  -7   -2.04    5.17
   2   5  -7    1.05    6.34
   2   4  -7   23.95    5.88
   2   4  -7   21.81    8.18
   2   3  -7   64.89    7.46
   2   3  -7   59.77    9.50
   2   2  -7   58.51    6.89
   2   2  -7   54.02    9.19
   2   1  -7  112.15   11.27
   2   1  -7   97.84    6.96
   2   0  -7  137.99    7.32
   2   0  -7  140.44   11.48
   2  -1  -7  125.94    4.83
   2  -1  -7  132.10    6.76
   2  -1  -7  134.56   11.26
   2  -2  -7  126.96   10.52
   2  -2  -7  123.45    4.97
   2  -3  -7    7.23    2.40
   2  -3  -7    5.86    4.22
   2  -4  -7   20.59    3.40
   2  -4  -7   15.70    5.05
   2  -5  -7    2.88    3.23
   2  -5  -7    2.55    4.29
  -2   5   7    4.19    4.37
   2  -6  -7   11.06    5.71
   2  -6  -7   11.56    3.65
  -2   6   7    6.24    4.95
   2  -7  -7   29.08    4.72
   2  -7  -7   20.84    6.96
  -2   7   7   25.75    6.95
   2  -8  -7   20.41    4.69
  -2   8   7   18.31    7.60
   2  -9  -7   77.24    7.13
  -2   9   7   91.24   13.75
   2 -10  -7   41.81    5.97
  -2  10   7   45.75   13.83
   2 -11  -7   39.93    6.11
  -2  11   7   33.11   17.88
   2 -12  -7   25.26    5.60
  -2  12   7    9.23   20.00
   2 -13  -7    4.63    4.50
  -2  13   7  -36.03   20.04
   2 -14  -7    6.93    4.93
  -2  14   7  -28.33   23.84
   3   7  -8   45.11   12.92
   3   6  -8   38.27    9.22
   3   6  -8   57.61   13.28
   3   5  -8   58.00   14.09
   3   5  -8   40.20    8.90
   3   4  -8   34.65    7.69
   3   4  -8   40.04   12.09
   3   3  -8   63.86   13.10
   3   3  -8   36.96    7.50
   3   2  -8   24.24    8.69
   3   1  -8    7.80    6.31
   3   0  -8    6.93    6.23
   3  -1  -8    7.84    5.77
   3  -2  -8   96.17   11.91
   3  -3  -8   47.85    4.50
   3  -3  -8   47.94    8.44
   3  -4  -8   41.65    7.81
   3  -4  -8   58.74    5.19
   3  -5  -8   93.60   12.06
   3  -5  -8   84.34    6.01
   3  -6  -8   44.68    9.05
   3  -6  -8   49.04    5.49
  -3   6   8   54.61    9.34
   3  -7  -8   48.74    9.67
   3  -7  -8   53.91    5.81
  -3   7   8   44.79    9.26
   3  -8  -8   14.22    4.23
   3  -8  -8   11.59    7.97
  -3   8   8   16.48    8.39
   3  -9  -8   14.86    4.51
  -3   9   8   16.59   10.10
   3 -10  -8    2.17    4.39
  -3  10   8  -12.06   10.94
   3 -11  -8   11.45    4.85
  -3  11   8   -4.46   17.06
   3 -12  -8   23.58    5.73
  -3  12   8    7.58   20.77
   3 -13  -8   22.02    6.02
  -3  13   8   12.63   23.76
  -3  14   8    9.39   25.23
   4   5  -9   34.55   20.28
   4   4  -9   22.36   11.50
   4   3  -9   34.42   13.00
   4   2  -9   49.97   13.22
   4   1  -9   36.69   11.32
   4   0  -9   28.15   10.07
   4  -1  -9   14.38    8.32
   4  -2  -9   16.76    8.57
   4  -3  -9   -3.36    6.29
   4  -4  -9    5.02    6.52
   4  -5  -9   22.89    8.18
   4  -6  -9   44.82   10.50
   4  -6  -9   45.93    5.61
   4  -7  -9   71.15   13.63
   4  -7  -9   66.95    6.44
  -4   7   9  106.06   15.36
   4  -8  -9   38.87    6.01
   4  -8  -9   29.78   11.23
  -4   8   9   38.43   11.82
   4  -9  -9   21.29   13.14
   4  -9  -9   35.00    5.88
  -4   9   9   47.11   15.15
   4 -10  -9   21.58    5.37
  -4  10   9   34.47   14.64
   4 -11  -9   26.05    5.68
  -4  11   9   14.86   15.92
   4 -12  -9   17.11    5.31
  -4  12   9   -4.41   17.35
  -4  13   9  -25.01   19.32
   5   2 -10    3.98   11.67
   5   1 -10   12.88   11.58
   5   0 -10   26.82   11.94
   5  -1 -10   56.83   13.91
   5  -2 -10   21.04   10.88
   5  -3 -10   28.76   11.60
   5  -4 -10   31.72   11.75
   5  -5 -10   30.31   11.30
   5  -6 -10    0.34    9.69
   5  -7 -10    0.02   11.17
  -5   7  10   43.47   12.63
   5  -8 -10   -5.56   10.18
  -5   8  10   17.28   11.27
   5  -9 -10   12.47    4.64
   5  -9 -10    1.21   11.81
  -5   9  10   20.62   13.06
   5 -10 -10   23.51    5.59
  -5  10  10    4.43   13.91
   5 -11 -10   29.49    6.41
  -5  11  10    9.02   18.58
  -5  12  10  -20.88   24.86
   6  -3 -11   16.77   13.65
   6  -4 -11    8.80   12.71
   6  -5 -11   22.17   13.03
   6  -6 -11   30.93   13.74
   6  -7 -11   13.70   13.59
  -6   7  11   85.17   14.27
   6  -8 -11   13.06   14.40
  -6   8  11   75.75   16.26
   6  -9 -11    3.13   24.06
 -11   5   5    7.45    8.14
 -11   4   5   33.79   10.02
 -11   3   5   24.02    9.06
  11  -3  -5   54.03   15.21
 -11   2   5   39.76   10.02
  11  -2  -5   59.64   15.62
 -11   1   5   24.84    9.28
  11  -1  -5   58.21   16.37
  11   0  -5   49.18   16.08
  10  -9  -4   37.52    7.29
  10  -8  -4   28.18    6.33
 -10   6   4   22.34    7.81
 -10   5   4   18.45    8.12
 -10   4   4    7.15    7.66
  10  -4  -4  -12.55   11.34
 -10   3   4    0.58    6.88
  10  -3  -4    1.76    8.07
 -10   2   4    3.12    7.07
  10  -2  -4   14.27    8.80
 -10   1   4    9.50    8.20
  10  -1  -4   23.75   10.52
 -10   0   4   15.26    7.68
  10   0  -4   39.51   12.55
  10   1  -4   53.96   14.41
  10   2  -4   32.98   12.96
  10   3  -4   83.06   16.94
   9 -10  -3   -2.06    5.29
   9  -9  -3   -2.42    5.44
   9  -8  -3   10.86    5.38
  -9   7   3   25.93    6.37
   9  -7  -3   20.40    6.05
  -9   6   3   38.32    7.52
   9  -6  -3   45.45    6.75
  -9   5   3   29.39    7.16
   9  -5  -3   20.39    5.10
  -9   4   3   38.24    7.84
   9  -4  -3   37.70    8.44
  -9   3   3   34.78    8.62
   9  -3  -3   34.56    8.07
  -9   2   3   63.53    9.80
   9  -2  -3   78.70   11.03
  -9   1   3   31.93    7.87
   9  -1  -3   54.38   10.56
   9   0  -3   12.92    7.76
   9   1  -3    9.91    8.44
   9   2  -3    0.08    7.72
   9   3  -3   18.96   10.12
   9   4  -3   27.50   11.57
   9   5  -3   50.36   13.94
   9   6  -3  109.97   30.15
   8 -11  -2   42.76    7.94
   8 -10  -2   33.56    7.51
   8  -9  -2   39.12    7.30
  -8   8   2   17.67    5.01
   8  -8  -2   12.54    6.10
  -8   7   2   44.18    6.25
   8  -7  -2   46.07    7.11
  -8   6   2    3.01    5.13
   8  -6  -2   -1.91    4.59
  -8   5   2   21.18    5.86
   8  -5  -2   23.18    5.08
  -8   4   2   63.71    8.77
   8  -4  -2   64.88    6.54
   8  -4  -2   43.46    7.15
  -8   3   2   55.48    8.02
   8  -3  -2   59.77    5.91
   8  -3  -2   45.84    7.17
  -8   2   2   76.48    9.89
   8  -2  -2   81.36   10.58
  -8   1   2  184.53   11.20
   8  -1  -2  196.63   14.08
   8   0  -2  100.66   12.67
   8   1  -2   66.78   10.31
   8   2  -2   59.71   10.30
   8   3  -2   80.05   12.55
   8   4  -2   39.50   11.43
   8   5  -2   26.86   10.42
   8   6  -2   16.57   11.43
   8   7  -2   19.74   13.12
   7 -12  -1   -1.23    6.39
   7 -11  -1    6.50    5.79
   7 -10  -1    1.46    5.05
  -7   9   1   19.28    4.62
   7  -9  -1   21.81    6.89
  -7   8   1   39.03    5.59
   7  -8  -1   24.51    6.21
  -7   7   1   44.71    5.59
   7  -7  -1   38.57    6.59
  -7   6   1  107.33    7.18
   7  -6  -1  113.68    8.28
  -7   5   1  118.31    8.65
   7  -5  -1  110.32    7.70
   7  -5  -1  117.90    9.57
  -7   4   1   42.40    6.98
   7  -4  -1   31.93    5.40
   7  -4  -1   41.20    5.93
  -7   3   1   34.17    6.69
   7  -3  -1   29.75    5.23
   7  -3  -1   40.04    5.01
  -7   2   1   54.54    7.99
   7  -2  -1   60.81    7.73
   7  -2  -1   69.13    5.74
  -7   1   1    9.20    5.57
   7  -1  -1   10.01    3.56
   7  -1  -1    8.27    4.40
  -7   0   1   16.97    5.97
   7   0  -1   16.98    3.32
   7   0  -1   12.07    4.53
   7   1  -1   70.67    9.42
   7   2  -1   73.39    9.63
   7   3  -1   63.95   10.09
   7   4  -1  110.19   13.56
   7   5  -1  115.34   15.98
   7   6  -1   94.10   14.35
   7   7  -1   63.78   13.60
   7   8  -1   63.12   14.99
   7   9  -1   20.99   15.38
   6 -12   0   30.09    7.68
   6 -11   0   26.15    6.74
  -6  10   0   29.07    5.73
   6 -10   0   22.03    6.42
  -6   9   0   49.28    5.93
   6  -9   0   53.45    7.54
  -6   8   0    1.82    3.48
   6  -8   0   -3.27    4.51
  -6   7   0    4.53    3.87
   6  -7   0   -2.61    4.64
  -6   6   0   12.28    4.37
   6  -6   0    1.07    4.56
  -6   5   0   45.71    5.63
   6  -5   0   43.12    5.92
  -6   4   0   23.88    4.85
  -6   4   0   16.98    3.31
   6  -4   0   15.50    4.44
   6  -4   0   17.87    3.68
  -6   3   0   97.81    7.44
   6  -3   0   97.62    5.96
   6  -3   0  100.85    6.77
  -6   2   0  188.80    8.65
   6  -2   0  194.63    6.90
   6  -2   0  188.39    8.72
  -6   1   0  122.22    7.74
   6  -1   0  135.33    5.47
   6  -1   0  137.71    8.10
  -6   0   0  293.15   10.20
   6   0   0  293.87    6.61
   6   0   0  295.74   11.92
   6   1   0  105.29    8.33
   6   1   0   89.55    3.90
   6   2   0    1.85    1.82
   6   2   0    2.52    4.06
   6   3   0    6.28    4.68
   6   4   0   -2.17    5.15
   6   5   0   14.47    6.59
   6   6   0   34.27    9.00
   6   7   0   49.29   10.56
   6   8   0   71.71   14.26
   6   9   0   63.45   15.50
   6  10   0   61.31   16.69
   5 -12   1    2.11    5.64
   5 -11   1    9.79    6.49
  -5  10  -1   31.47    5.29
   5 -10   1   45.61    7.61
  -5   9  -1   87.50    6.68
   5  -9   1  102.49    9.67
  -5   8  -1   98.90    6.86
   5  -8   1   92.68    8.66
  -5   7  -1   59.85    6.16
   5  -7   1   49.50    6.67
  -5   6  -1   53.67    5.90
   5  -6   1   45.66    6.31
  -5   5  -1    8.02    3.93
  -5   5  -1   19.17    4.29
   5  -5   1   16.47    4.55
  -5   4  -1    0.42    2.79
  -5   4  -1    0.57    2.11
   5  -4   1   -0.06    3.22
  -5   3  -1    2.34    1.65
  -5   3  -1    3.95    3.17
   5  -3   1    4.49    2.94
   5  -3   1    1.82    1.81
  -5   2  -1  172.40    6.98
   5  -2   1  190.72    6.18
   5  -2   1  180.14    6.11
  -5   1  -1   27.71    4.47
   5  -1   1   28.31    3.80
   5  -1   1   27.58    3.28
  -5   0  -1   41.25    5.40
   5   0   1   35.56    3.12
   5   0   1   32.28    4.45
  -5  -1  -1  257.74    8.74
   5   1   1  259.13    5.43
   5   1   1  263.02   10.18
   5   2   1  128.26    3.84
   5   2   1  131.24    8.77
  -5  -3  -1  176.49    4.22
   5   3   1  168.50   10.18
  -5  -4  -1  209.10    4.56
   5   4   1  208.58   12.42
  -5  -5  -1   69.05    3.39
   5   5   1   62.69    8.55
   5   6   1   23.64    7.66
   5   7   1   24.26    8.48
   5   8   1    4.29    7.46
   5   9   1   12.25   10.39
   5  10   1   45.56   16.25
   5  11   1   47.29   16.44
   5  12   1   71.94   23.91
   4 -12   2    6.64    6.09
  -4  11  -2    5.28    4.36
   4 -11   2    8.96    6.14
  -4  10  -2    1.57    3.53
   4 -10   2   -3.25    5.73
  -4   9  -2    1.31    3.13
   4  -9   2    6.67    5.49
  -4   8  -2    0.11    3.33
   4  -8   2    4.06    4.85
  -4   7  -2   24.92    4.42
   4  -7   2   22.89    6.06
  -4   6  -2   72.39    5.88
   4  -6   2   96.62    8.10
  -4   5  -2  180.57    6.97
  -4   5  -2  176.02    7.42
   4  -5   2  164.89    7.66
  -4   4  -2  248.91    7.54
  -4   4  -2  262.17    6.94
   4  -4   2  259.25    8.02
  -4   3  -2  418.05    6.00
  -4   3  -2  416.66    8.92
   4  -3   2  416.59    8.95
  -4   2  -2  156.18    5.76
   4  -2   2  171.19    5.71
  -4   1  -2   52.32    4.49
   4  -1   2   52.37    2.58
   4  -1   2   58.49    3.68
  -4   0  -2  208.18    7.04
   4   0   2  209.27    5.19
   4   0   2  209.26    6.10
  -4  -1  -2    6.74    3.24
   4   1   2   10.55    1.98
   4   1   2    5.60    2.45
  -4  -2  -2    8.03    1.75
  -4  -2  -2    4.39    2.78
   4   2   2    2.94    3.11
  -4  -3  -2  265.66    5.25
   4   3   2  269.98   11.20
  -4  -4  -2  316.27    6.00
   4   4   2  333.42   13.74
  -4  -5  -2  239.07    5.67
   4   5   2  244.96   13.47
  -4  -6  -2  179.68    5.46
   4   6   2  175.61   13.33
  -4  -7  -2  106.96    5.00
   4   7   2  111.76   13.26
  -4  -8  -2  158.97    9.49
   4   8   2  148.52   16.11
   4   9   2   95.14   14.48
   4  10   2   26.41   12.99
   4  11   2    7.83   14.00
   4  12   2    3.79   14.89
   4  13   2   44.10   29.73
  -3  12  -3   22.02    6.74
  -3  11  -3   21.94    5.78
  -3  10  -3   59.87    7.59
   3 -10   3   61.10    8.18
  -3   9  -3   34.61    6.10
   3  -9   3   34.55    6.34
  -3   8  -3   16.60    4.59
   3  -8   3   22.57    5.67
  -3   7  -3    4.80    3.45
   3  -7   3   14.63    5.71
  -3   6  -3    2.18    3.18
   3  -6   3    2.36    4.71
  -3   5  -3    0.78    2.46
  -3   5  -3    2.35    2.85
   3  -5   3    4.58    3.39
  -3   4  -3    5.40    2.06
  -3   4  -3    6.93    2.85
   3  -4   3    8.30    3.21
  -3   3  -3   35.37    3.82
  -3   3  -3   43.77    3.21
   3  -3   3   40.75    4.01
  -3   2  -3  132.18    5.05
  -3   2  -3  133.61    3.17
   3  -2   3  146.78    5.13
  -3   1  -3  173.48    5.31
   3  -1   3  182.20    2.89
   3  -1   3  182.51    5.22
  -3   0  -3  354.54    6.98
   3   0   3  354.52    6.60
   3   0   3  342.61    6.35
  -3  -1  -3   57.60    3.05
  -3  -1  -3   52.54    3.54
   3   1   3   62.84    4.83
  -3  -2  -3  312.39    6.60
  -3  -2  -3  310.29    5.80
   3   2   3  323.24   10.04
  -3  -3  -3   52.44    3.76
  -3  -3  -3   51.42    2.95
   3   3   3   41.90    5.46
  -3  -4  -3   10.98    2.03
   3   4   3   10.82    4.25
  -3  -5  -3   51.11    3.49
   3   5   3   44.24    7.01
  -3  -6  -3    2.59    2.10
   3   6   3    5.10    5.08
  -3  -7  -3    6.83    2.87
   3   7   3    3.92    6.01
  -3  -8  -3   54.43    4.88
   3   8   3   45.47   10.25
  -3  -9  -3   89.61    6.11
   3   9   3   92.46   13.31
  -3 -10  -3   83.91    6.22
   3  10   3   97.35   16.01
   3  11   3  100.05   20.53
   3  12   3   50.14   17.87
   3  13   3   83.01   20.62
  -2  11  -4   -2.90    4.90
  -2  10  -4    6.66    4.43
  -2   9  -4   22.90    5.28
  -2   8  -4   55.87    6.74
   2  -8   4   50.28    6.83
  -2   7  -4   60.34    6.58
   2  -7   4   59.95    6.52
  -2   6  -4   79.66    8.55
  -2   6  -4   72.65    6.01
   2  -6   4   82.27    7.23
  -2   5  -4   98.56    6.10
  -2   5  -4  103.03    8.09
   2  -5   4  103.15    6.48
  -2   4  -4  150.28    7.73
  -2   4  -4  143.24    6.37
   2  -4   4  152.61    6.44
  -2   3  -4   49.40    4.07
  -2   3  -4   47.31    4.72
   2  -3   4   46.49    3.85
  -2   2  -4   72.96    4.40
  -2   2  -4   72.65    4.56
   2  -2   4   65.89    3.79
  -2   1  -4    1.10    1.41
  -2   1  -4   -0.42    1.95
   2  -1   4   -2.05    1.66
  -2   0  -4    6.54    1.86
  -2   0  -4    6.17    1.76
  -2   0  -4    6.20    1.90
  -2  -1  -4    5.19    1.76
  -2  -1  -4    4.36    1.99
  -2  -1  -4    3.15    1.64
   2   1   4    1.46    1.90
  -2  -2  -4  147.95    4.47
  -2  -2  -4  151.09    3.65
   2   2   4  150.89    7.12
  -2  -3  -4  248.09    4.05
  -2  -3  -4  242.49    5.66
   2   3   4  239.75    9.85
  -2  -4  -4  257.71    4.33
  -2  -4  -4  265.67    6.21
   2   4   4  268.97   11.67
  -2  -5  -4  318.28    7.13
   2   5   4  317.41   13.75
  -2  -6  -4   99.93    4.79
   2   6   4  105.46   10.73
  -2  -7  -4   58.45    4.94
   2   7   4   46.38    8.33
  -2  -8  -4   19.34    3.95
   2   8   4    8.29    7.61
  -2  -9  -4   -0.99    3.12
   2   9   4    9.19    8.75
  -2 -10  -4   -3.10    3.41
   2  10   4    5.09   11.67
  -2 -11  -4    5.74    3.63
   2  11   4    9.07   13.01
  -2 -12  -4   43.17    5.79
   2  12   4   41.59   18.02
   2  13   4   66.21   21.56
   2  14   4   98.85   24.68
  -1  10  -5   17.18    6.46
  -1   9  -5   10.95    5.12
  -1   8  -5    0.13    3.99
  -1   7  -5    2.09    4.07
  -1   6  -5   27.79    5.45
  -1   6  -5   21.32    5.53
   1  -6   5   30.89    5.15
  -1   5  -5   17.61    4.73
  -1   5  -5   16.81    5.09
   1  -5   5   20.99    4.22
  -1   4  -5  129.15    9.27
  -1   4  -5  121.19    6.69
   1  -4   5  118.21    5.79
  -1   3  -5  245.28    8.10
  -1   3  -5  241.23   10.53
   1  -3   5  233.06    6.61
  -1   2  -5   94.94    5.10
  -1   2  -5   90.44    6.60
   1  -2   5   89.03    4.27
  -1   1  -5   72.41    5.63
  -1   1  -5   72.78    4.42
   1  -1   5   68.93    3.54
  -1   0  -5   81.88    3.82
  -1   0  -5   77.11    3.42
  -1   0  -5   82.53    5.69
  -1  -1  -5   61.22    3.00
  -1  -1  -5   62.54    3.28
  -1  -1  -5   61.92    5.34
  -1  -2  -5   26.42    2.76
  -1  -2  -5   18.29    3.32
  -1  -2  -5   25.11    2.16
   1   2   5   20.92    3.68
  -1  -3  -5   17.89    2.53
  -1  -3  -5   13.80    3.38
  -1  -3  -5   18.64    1.59
   1   3   5   13.12    3.40
  -1  -4  -5    4.73    1.99
  -1  -4  -5    5.68    0.70
   1   4   5    3.02    3.07
  -1  -5  -5   14.24    2.83
   1   5   5   16.73    4.75
  -1  -6  -5   41.66    4.20
   1   6   5   42.14    6.80
  -1  -7  -5   86.58    5.82
   1   7   5   90.83   11.57
  -1  -8  -5  109.00    6.32
   1   8   5   87.65   11.72
  -1  -9  -5   63.26    6.01
   1   9   5   60.74   11.58
  -1 -10  -5   70.43    6.82
   1  10   5   71.05   14.25
  -1 -11  -5  101.41    7.12
   1  11   5  131.50   20.32
  -1 -12  -5   16.38    5.09
   1  12   5   40.44   19.90
  -1 -13  -5   12.95    4.60
   1  13   5   26.59   20.77
  -1 -14  -5   -3.40    4.19
   1  14   5   17.52   20.01
   0   9  -6   24.12    6.77
   0   8  -6   31.70    7.38
   0   7  -6   22.28    5.98
   0   6  -6   19.48    5.24
   0   6  -6   20.72    6.85
   0   5  -6    6.54    4.11
   0   5  -6    8.11    4.83
   0   4  -6   20.15    5.69
   0   4  -6   26.98    4.98
   0   3  -6    1.16    3.54
   0   3  -6    0.04    3.26
   0  -3   6   -0.25    2.40
   0   2  -6   16.85    4.32
   0   2  -6   25.49    4.34
   0  -2   6   24.79    3.09
   0   1  -6   14.11    3.86
   0   1  -6   16.39    3.69
   0  -1   6   18.02    2.63
   0   0  -6   88.62    4.95
   0   0  -6   83.02    3.81
   0   0  -6   91.28    7.33
   0  -1  -6  235.07    5.83
   0  -1  -6  225.05    6.10
   0  -1  -6  226.24   10.45
   0  -2  -6  332.83   12.13
   0  -2  -6  317.04    6.79
   0  -2  -6  318.80    6.40
   0  -3  -6  128.07    3.83
   0  -3  -6  141.17    8.87
   0  -3  -6  138.79    4.96
   0  -4  -6  222.22    6.36
   0  -4  -6  227.78   11.13
   0   4   6  223.34   11.00
   0  -5  -6  135.08    9.75
   0  -5  -6  128.89    5.56
   0   5   6  134.77    2.31
   0   5   6  143.87    9.85
   0  -6  -6  130.17    6.03
   0   6   6  122.50   11.08
   0  -7  -6   22.13    4.08
   0   7   6   13.79    6.04
   0  -8  -6   34.11    4.97
   0   8   6   24.41    8.04
   0  -9  -6    5.76    3.91
   0   9   6   17.55    9.84
   0 -10  -6   36.98    5.45
   0  10   6   42.37   13.82
   0 -11  -6   25.83    5.19
   0  11   6   37.75   15.70
   0 -12  -6   80.72    7.81
   0  12   6   94.10   21.88
   0 -13  -6   61.89    7.36
   0  13   6   63.62   24.84
   0 -14  -6   29.37    6.00
   0  14   6   35.56   22.83
   1   8  -7    8.64    6.95
   1   7  -7   17.13    9.84
   1   7  -7   16.74    6.72
   1   6  -7   47.06    7.59
   1   6  -7   52.27   10.82
   1   5  -7   46.03    6.97
   1   5  -7   47.55    9.11
   1   4  -7   69.74    7.66
   1   4  -7   67.10    9.77
   1   3  -7   91.55    7.74
   1   3  -7  107.04   12.31
   1   2  -7   38.85    7.36
   1   2  -7   49.77    6.43
   1   1  -7   69.34    6.69
   1   1  -7   46.06    7.21
  -1  -1   7   49.81    4.13
   1   0  -7    6.52    4.17
   1   0  -7    8.43    2.44
   1   0  -7    7.25    3.67
   1  -1  -7   -0.69    3.40
   1  -1  -7    2.45    2.96
   1  -1  -7    3.08    2.28
   1  -2  -7    6.73    2.41
   1  -2  -7    8.99    3.03
   1  -2  -7   11.02    4.64
   1  -3  -7   26.67    5.28
   1  -3  -7   39.64    3.95
   1  -4  -7   13.09    4.96
   1  -4  -7   13.56    3.29
   1  -5  -7   41.93    4.51
   1  -5  -7   31.69    6.12
  -1   5   7   34.10    6.41
   1  -6  -7   77.07   10.04
   1  -6  -7   82.68    5.67
  -1   6   7   74.42    9.73
   1  -7  -7   70.09    5.88
  -1   7   7   83.20   11.16
   1  -8  -7   32.94    5.10
  -1   8   7   36.52    8.77
   1  -9  -7   65.16    6.55
  -1   9   7   68.20   12.51
   1 -10  -7    6.09    3.89
  -1  10   7    6.16   11.75
   1 -11  -7   12.80    4.52
  -1  11   7    2.70   16.43
   1 -12  -7   -1.41    3.53
  -1  12   7  -30.71   15.68
   1 -13  -7    5.37    4.33
  -1  13   7  -16.07   22.16
   1 -14  -7    8.75    5.09
  -1  14   7  -17.59   24.00
   2   7  -8   47.54   16.49
   2   6  -8   13.79    9.35
   2   6  -8    5.03    5.93
   2   5  -8   13.50    8.12
   2   5  -8   -0.21    5.02
   2   4  -8    5.32    5.31
   2   4  -8   19.87    8.74
   2   3  -8   14.84    5.50
   2   3  -8   33.14    9.55
   2   2  -8   44.97    7.02
   2   2  -8   39.72    9.13
   2   1  -8   36.42    6.01
   2   1  -8   35.27    7.87
   2   0  -8   92.76   11.94
   2   0  -8  102.68    7.73
   2  -1  -8   67.49    9.59
   2  -1  -8   66.75    6.46
   2  -2  -8   81.55    4.98
   2  -2  -8   81.83   10.57
   2  -3  -8   78.58    9.95
   2  -3  -8   76.87    4.97
   2  -4  -8   27.43    6.37
   2  -4  -8   29.67    4.27
   2  -5  -8    2.89    3.48
   2  -5  -8    3.38    4.87
   2  -6  -8    2.20    3.60
   2  -6  -8   -2.21    4.95
  -2   6   8   -1.25    4.74
   2  -7  -8    7.53    3.86
   2  -7  -8    6.43    6.72
  -2   7   8    0.64    6.20
   2  -8  -8   28.91    5.09
  -2   8   8   23.44    8.18
   2  -9  -8   26.98    5.10
  -2   9   8   33.08   10.97
   2 -10  -8   47.26    6.33
  -2  10   8   52.61   14.75
   2 -11  -8   71.27    7.56
  -2  11   8  109.45   22.58
   2 -12  -8   37.68    6.25
  -2  12   8   47.46   22.70
   2 -13  -8   26.76    5.97
  -2  13   8    1.85   20.79
  -2  14   8  -12.08   25.71
   3   6  -9   43.54   17.01
   3   5  -9   40.87   12.87
   3   4  -9   29.88   11.20
   3   3  -9   24.67   11.10
   3   2  -9    7.28    9.12
   3   1  -9   -4.56    7.66
   3   0  -9   14.69    8.10
   3  -1  -9   44.42    9.64
   3  -2  -9   35.80    8.84
   3  -3  -9   79.79   11.82
   3  -4  -9   54.19    9.58
   3  -5  -9   44.38    8.97
   3  -5  -9   51.13    5.36
   3  -6  -9   38.16    9.04
   3  -6  -9   38.86    5.00
  -3   6   9   44.27    9.19
   3  -7  -9   37.12    9.47
   3  -7  -9   52.56    6.09
  -3   7   9   45.20   10.17
   3  -8  -9    2.34    3.67
   3  -8  -9   10.87    8.29
  -3   8   9    6.64    9.16
   3  -9  -9    0.74    3.75
  -3   9   9   -7.47    9.23
   3 -10  -9    4.71    4.35
  -3  10   9    5.27   12.80
   3 -11  -9    9.58    4.76
  -3  11   9    2.53   17.34
   3 -12  -9   10.04    4.98
  -3  12   9  -12.89   19.77
   3 -13  -9   19.16    5.65
  -3  13   9  -17.01   20.15
   4   3 -10   33.92   12.79
   4   2 -10   38.54   13.15
   4   1 -10   42.08   12.69
   4   0 -10   25.30   11.15
   4  -1 -10   10.17    9.62
   4  -2 -10    7.26    9.24
   4  -3 -10   -8.69    7.28
   4  -4 -10    1.48    7.69
   4  -5 -10    8.18    8.08
   4  -6 -10   34.09   10.98
   4  -7 -10   80.88   15.21
   4  -7 -10   74.53    7.05
  -4   7  10  108.38   16.70
   4  -8 -10   67.81   15.84
   4  -8 -10   62.40    7.16
  -4   8  10   94.58   16.95
   4  -9 -10   57.65    7.28
   4  -9 -10   42.33   13.57
  -4   9  10   55.09   16.18
   4 -10 -10   55.47    7.34
  -4  10  10   45.55   16.02
   4 -11 -10   29.38    6.29
  -4  11  10   22.11   16.47
   4 -12 -10   10.04    5.01
  -4  12  10   -8.51   18.36
   5   0 -11   17.22   20.88
   5  -1 -11   37.79   14.00
   5  -2 -11   53.39   15.28
   5  -3 -11   30.72   14.33
   5  -4 -11   34.49   13.19
   5  -5 -11   10.34   10.86
   5  -6 -11   -3.84   10.33
   5  -7 -11   -3.25   10.71
  -5   7  11   38.99   11.83
   5  -8 -11   -8.60   12.83
  -5   8  11   34.35   14.08
   5  -9 -11   -8.22   13.29
  -5   9  11    3.54   12.42
   5 -10 -11   18.10    5.70
   5 -10 -11   -3.17   14.24
  -5  10  11   -0.80   14.45
   5 -11 -11   38.86    7.12
 -11   6   4    6.27    7.21
 -11   5   4   -3.87    7.46
 -11   4   4   35.22    8.99
 -11   3   4   14.69    8.18
 -11   2   4   24.07    9.62
  11  -2  -4   35.56   12.84
 -11   1   4   26.21    9.94
  11  -1  -4   50.93   14.53
 -11   0   4   11.82    9.21
  11   0  -4   49.27   13.29
 -11  -1   4   17.77   16.42
  11   1  -4   39.81   14.48
  11   2  -4   11.92   19.18
  10  -9  -3   18.10    6.31
  10  -8  -3   36.13    6.85
 -10   7   3   33.03    7.05
  10  -7  -3   32.90    6.91
 -10   6   3   55.51    8.19
 -10   5   3   52.85    9.09
 -10   4   3   12.54    7.21
 -10   3   3   -3.89    6.28
  10  -3  -3   -1.17    5.98
 -10   2   3   -2.88    7.52
  10  -2  -3    0.13    6.66
 -10   1   3    9.39    7.28
  10  -1  -3   11.76    8.48
 -10   0   3    4.13    7.09
  10   0  -3    1.44    8.21
  10   1  -3  116.84   17.11
  10   2  -3   34.78   11.93
  10   3  -3   51.84   14.36
  10   4  -3   67.78   16.01
   9 -10  -2    4.01    5.63
   9  -9  -2    7.97    5.83
  -9   8   2   20.73    5.15
   9  -8  -2   14.39    5.90
  -9   7   2   12.74    5.19
   9  -7  -2   14.59    5.79
  -9   6   2   58.41    8.14
   9  -6  -2   47.59    7.14
  -9   5   2   73.83    9.25
   9  -5  -2   72.09    7.30
  -9   4   2   62.19    9.16
   9  -4  -2   57.06    6.30
  -9   3   2   90.87   10.64
   9  -3  -2   76.91   10.53
  -9   2   2   62.46    9.06
   9  -2  -2   63.82    8.93
  -9   1   2   55.02    9.43
   9  -1  -2   51.51    8.95
  -9   0   2   55.49    9.20
   9   0  -2   48.00    9.22
   9   1  -2   10.82    7.03
   9   2  -2   11.84    7.52
   9   3  -2    7.09    8.57
   9   4  -2   27.47   11.72
   9   5  -2   25.00   11.35
   9   6  -2   68.53   15.84
   8 -11  -1   36.82    8.26
   8 -10  -1   41.24    7.89
  -8   9   1   28.66    6.04
   8  -9  -1    8.53    5.82
  -8   8   1   29.66    5.67
   8  -8  -1   17.95    6.13
  -8   7   1   19.60    5.22
   8  -7  -1   26.12    6.64
  -8   6   1   23.78    5.40
   8  -6  -1   19.87    5.63
  -8   5   1    2.61    5.33
   8  -5  -1    3.39    4.61
  -8   4   1   -1.44    5.83
   8  -4  -1   -1.93    4.33
  -8   3   1   24.15    7.33
   8  -3  -1   22.91    5.13
   8  -3  -1   18.86    5.01
  -8   2   1   30.90    7.25
   8  -2  -1   41.58    5.21
   8  -2  -1   33.27    6.22
  -8   1   1  104.19   10.12
   8  -1  -1  110.42   10.74
  -8   0   1   98.60    9.77
   8   0  -1  102.79   10.55
   8   1  -1   69.90    9.65
   8   2  -1   60.57   10.11
   8   3  -1  102.63   13.57
   8   4  -1   58.50   11.82
   8   5  -1   21.12    9.61
   8   6  -1   20.93   10.19
   8   7  -1   26.57   11.53
   8   8  -1   17.29   13.60
   7 -11   0   -2.30    5.28
   7 -10   0    2.59    5.69
  -7   9   0   10.70    4.27
   7  -9   0   -1.60    5.13
  -7   8   0   74.20    7.18
   7  -8   0   71.87    8.63
  -7   7   0  157.82    8.37
   7  -7   0  157.96    9.57
  -7   6   0   84.02    7.61
   7  -6   0   70.93    7.60
  -7   5   0   86.38    7.68
   7  -5   0   90.27    7.58
  -7   4   0   64.14    7.71
   7  -4   0   49.86    6.88
   7  -4   0   61.39    6.87
  -7   3   0   37.26    6.84
   7  -3   0   36.67    5.50
   7  -3   0   26.64    4.56
  -7   2   0   58.82    7.50
   7  -2   0   49.86    5.35
   7  -2   0   48.04    6.35
  -7   1   0    9.12    5.57
   7  -1   0   14.51    3.66
   7  -1   0    8.10    3.70
  -7   0   0    3.13    5.77
   7   0   0   -1.11    3.35
   7   0   0    4.66    2.84
  -7  -1   0   27.70    6.10
   7   1   0   17.12    4.99
   7   1   0   22.32    3.23
   7   2   0   14.85    5.35
   7   3   0   90.48   12.42
   7   4   0   47.30    9.03
   7   5   0   48.37    9.73
   7   6   0   31.31    9.38
   7   7   0   45.16   11.85
   7   8   0   36.89   13.40
   7   9   0   27.77   12.99
   7  10   0   26.87   15.33
   6 -12   1   32.87    7.64
   6 -11   1   35.34    7.35
  -6  10  -1   23.19    5.09
   6 -10   1   20.84    7.09
  -6   9  -1   25.20    5.07
   6  -9   1   17.87    6.28
  -6   8  -1   64.21    6.64
   6  -8   1   48.04    7.24
  -6   7  -1    3.27    3.56
   6  -7   1    1.94    4.99
  -6   6  -1    9.91    3.95
   6  -6   1    6.91    4.78
  -6   5  -1    4.69    4.26
   6  -5   1    7.36    4.53
  -6   4  -1   52.13    6.10
   6  -4   1   50.76    5.76
  -6   3  -1   78.98    7.14
   6  -3   1   55.15    4.95
   6  -3   1   70.05    5.92
  -6   2  -1  195.72    8.82
   6  -2   1  201.15    6.90
   6  -2   1  205.74    7.69
  -6   1  -1  182.86    8.88
   6  -1   1  191.41    8.23
   6  -1   1  200.98    6.31
  -6   0  -1  157.03    8.17
   6   0   1  164.97    5.53
   6   0   1  168.82    8.59
  -6  -1  -1  129.56    7.74
   6   1   1  142.41    8.83
   6   1   1  127.24    4.51
   6   2   1  128.42    4.30
   6   2   1  131.26    9.29
   6   3   1   13.23    5.26
   6   3   1   14.93    2.28
   6   4   1    5.11    5.02
   6   5   1    7.92    5.78
   6   6   1   44.14    9.48
   6   7   1   41.01    9.42
   6   8   1   80.95   13.68
   6   9   1   59.03   13.92
   6  10   1   85.69   17.67
   6  11   1   29.33   17.62
   5 -12   2   12.89    6.29
  -5  11  -2    9.17    4.59
   5 -11   2   15.90    6.53
  -5  10  -2   45.77    6.27
   5 -10   2   40.74    7.61
  -5   9  -2   37.08    6.01
   5  -9   2   35.20    6.90
  -5   8  -2  101.05    6.77
   5  -8   2  114.67    8.83
  -5   7  -2   99.53    7.02
   5  -7   2  108.45    9.08
  -5   6  -2   65.89    6.45
   5  -6   2   66.24    7.09
  -5   5  -2   79.83    5.82
   5  -5   2   79.70    6.92
  -5   4  -2   12.25    3.89
   5  -4   2   20.49    4.12
  -5   3  -2    7.71    3.29
  -5   3  -2    6.10    1.63
   5  -3   2    4.04    3.09
  -5   2  -2   28.47    4.24
   5  -2   2   29.79    3.81
   5  -2   2   28.19    2.50
  -5   1  -2  263.91    8.08
   5  -1   2  259.05    6.52
   5  -1   2  255.01    6.64
  -5   0  -2   50.19    5.18
   5   0   2   51.64    3.42
   5   0   2   51.50    4.45
  -5  -1  -2  200.53    8.08
   5   1   2  196.23    8.16
   5   1   2  191.84    5.22
  -5  -2  -2   96.63    6.08
   5   2   2   99.30    7.66
   5   2   2   89.12    3.63
  -5  -3  -2  166.78    4.55
   5   3   2  179.85   10.14
  -5  -4  -2  125.45    4.23
   5   4   2  124.39   10.25
  -5  -5  -2  162.79    5.00
   5   5   2  157.56   12.55
  -5  -6  -2  100.68    4.59
   5   6   2   92.50   12.28
   5   7   2   28.69    8.40
   5   8   2   -1.84    6.61
   5   9   2    9.33    9.14
   5  10   2   27.01   13.33
   5  11   2   46.26   16.73
   5  12   2   39.95   17.71
  -4  11  -3   10.26    5.09
   4 -11   3    9.98    6.76
  -4  10  -3   -1.49    3.89
   4 -10   3   -0.25    5.22
  -4   9  -3    5.44    3.77
   4  -9   3   -4.39    4.98
  -4   8  -3   14.60    4.43
   4  -8   3    3.32    5.01
  -4   7  -3   23.72    4.71
   4  -7   3   26.98    6.04
  -4   6  -3   41.38    5.35
   4  -6   3   41.50    6.15
  -4   5  -3   92.01    5.88
   4  -5   3   82.01    6.53
  -4   4  -3  124.61    6.05
  -4   4  -3  139.93    4.82
   4  -4   3  129.97    6.54
  -4   3  -3   79.77    4.90
   4  -3   3   77.97    5.05
  -4   2  -3  262.75    7.26
   4  -2   3  282.95    7.28
  -4   1  -3  129.48    5.33
   4  -1   3  134.65    5.04
  -4   0  -3   62.39    4.30
   4   0   3   69.17    3.80
   4   0   3   66.11    3.83
  -4  -1  -3   25.99    3.86
  -4  -1  -3   23.15    2.58
   4   1   3   16.12    3.24
  -4  -2  -3   21.61    2.59
  -4  -2  -3   25.59    3.87
   4   2   3   14.97    3.85
  -4  -3  -3  100.89    5.01
  -4  -3  -3  102.22    3.85
   4   3   3   98.62    7.97
  -4  -4  -3   96.08    4.07
   4   4   3   98.82    9.27
  -4  -5  -3   14.44    2.56
   4   5   3    8.03    4.99
  -4  -6  -3  116.82    4.98
   4   6   3  108.89   11.90
  -4  -7  -3   38.00    4.11
   4   7   3   27.96    7.86
  -4  -8  -3  102.67    5.66
   4   8   3   98.61   12.81
  -4  -9  -3   79.27    5.58
   4   9   3   74.93   12.53
   4  10   3   31.49   12.42
   4  11   3   19.27   16.36
   4  12   3   24.23   18.19
   4  13   3   38.46   20.79
  -3  11  -4   27.33    6.27
  -3  10  -4   41.77    6.87
  -3   9  -4  105.10    7.96
   3  -9   4  108.73    9.70
  -3   8  -4   97.42    7.34
   3  -8   4   97.33    8.51
  -3   7  -4   45.00    6.06
   3  -7   4   37.62    6.57
  -3   6  -4   38.08    5.34
   3  -6   4   40.22    5.71
  -3   5  -4   -0.65    3.05
   3  -5   4    2.24    3.56
  -3   4  -4    7.53    3.07
  -3   4  -4    7.67    2.42
   3  -4   4    4.06    3.51
  -3   3  -4   30.71    3.93
  -3   3  -4   31.86    3.37
   3  -3   4   37.10    4.10
  -3   2  -4   72.03    3.51
  -3   2  -4   74.96    4.42
   3  -2   4   75.36    4.68
  -3   1  -4  187.93    4.75
  -3   1  -4  180.78    5.63
   3  -1   4  188.01    5.66
  -3   0  -4  163.54    5.04
   3   0   4  175.29    5.29
   3   0   4  169.50    5.19
  -3  -1  -4  233.45    5.44
  -3  -1  -4  232.90    5.52
   3   1   4  244.41    7.73
  -3  -2  -4  233.99    5.62
  -3  -2  -4  233.69    5.38
   3   2   4  232.92    9.10
  -3  -3  -4  136.64    4.52
  -3  -3  -4  131.67    4.54
   3   3   4  134.71    8.36
  -3  -4  -4    1.15    1.78
  -3  -4  -4    0.37    2.10
   3   4   4    1.69    3.61
  -3  -5  -4    5.92    2.19
   3   5   4    7.32    4.49
  -3  -6  -4    9.93    2.80
   3   6   4    7.37    5.41
  -3  -7  -4    4.20    2.74
   3   7   4    4.24    6.18
  -3  -8  -4   37.00    4.82
   3   8   4   32.40    8.94
  -3  -9  -4   90.05    5.94
   3   9   4   79.24   12.78
  -3 -10  -4   46.85    5.27
   3  10   4   52.72   13.64
  -3 -11  -4   21.24    4.51
   3  11   4   37.90   16.59
   3  12   4   96.60   21.00
   3  13   4   54.89   19.67
  -2  11  -5    2.74    6.31
  -2  10  -5    0.18    4.55
  -2   9  -5   14.27    5.27
  -2   8  -5   49.30    6.88
  -2   7  -5   27.07    5.55
   2  -7   5   19.93    5.61
  -2   6  -5  125.75    7.58
   2  -6   5  125.02    7.87
  -2   5  -5   60.38    7.61
  -2   5  -5   61.20    6.19
   2  -5   5   75.67    6.30
  -2   4  -5  183.75    7.62
  -2   4  -5  182.55    9.23
   2  -4   5  178.18    6.81
  -2   3  -5  165.66    6.77
  -2   3  -5  177.85    8.25
   2  -3   5  165.04    6.38
  -2   2  -5   19.48    3.20
  -2   2  -5   22.17    3.50
   2  -2   5   26.19    3.21
  -2   1  -5   -1.43    2.09
  -2   1  -5    0.21    1.68
   2  -1   5    0.72    1.93
  -2   0  -5    3.74    1.89
  -2   0  -5    2.30    1.78
  -2   0  -5    3.21    1.90
  -2  -1  -5   10.21    2.35
  -2  -1  -5    7.79    2.05
  -2  -1  -5    8.33    2.44
   2   1   5    7.54    2.53
  -2  -2  -5   14.70    2.95
  -2  -2  -5   17.73    2.59
  -2  -2  -5   17.40    2.10
   2   2   5   14.96    3.02
  -2  -3  -5   74.02    3.84
  -2  -3  -5   76.99    2.62
   2   3   5   69.48    6.22
  -2  -4  -5  247.49    6.35
  -2  -4  -5  240.47    3.50
   2   4   5  239.62   11.26
  -2  -5  -5  295.37    3.63
  -2  -5  -5  286.30    7.14
   2   5   5  287.18   13.56
  -2  -6  -5  194.57    3.79
  -2  -6  -5  195.30    6.56
   2   6   5  211.46   13.34
  -2  -7  -5  168.26    6.71
   2   7   5  164.02   14.95
  -2  -8  -5   94.54    6.08
   2   8   5   92.40   12.40
  -2  -9  -5    4.46    3.67
   2   9   5    1.36    8.44
  -2 -10  -5    8.69    3.88
   2  10   5    9.99   10.90
  -2 -11  -5    2.44    3.65
   2  11   5    6.52   13.44
  -2 -12  -5   22.44    5.44
   2  12   5   34.90   20.07
  -2 -13  -5   29.88    6.07
   2  13   5   16.68   18.96
   2  14   5   53.34   24.27
  -1  10  -6   15.59   10.70
  -1   9  -6    5.60    5.65
  -1   8  -6    6.17    5.28
  -1   7  -6   -1.13    4.40
  -1   6  -6   10.16    4.34
  -1   5  -6   16.72    5.02
  -1   5  -6   26.37    5.20
   1  -5   6   22.94    4.98
  -1   4  -6   27.08    5.11
  -1   4  -6   17.07    4.54
   1  -4   6   21.29    4.18
  -1   3  -6  135.36    7.01
  -1   3  -6  144.52    9.51
   1  -3   6  147.26    6.05
  -1   2  -6  222.60    7.80
  -1   2  -6  216.98   10.50
   1  -2   6  213.03    6.40
  -1   1  -6  165.24    8.83
  -1   1  -6  156.01    6.22
   1  -1   6  165.77    5.57
  -1   0  -6  154.68    4.92
  -1   0  -6  156.83    8.35
  -1   0  -6  161.30    5.70
  -1  -1  -6  135.25    4.89
  -1  -1  -6  140.78    8.07
  -1  -1  -6  145.84    5.03
  -1  -2  -6   40.81    2.78
  -1  -2  -6   28.02    4.23
  -1  -2  -6   40.80    3.55
  -1  -3  -6    7.76    2.34
  -1  -3  -6    3.59    2.88
  -1  -3  -6    7.74    1.60
   1   3   6    5.04    2.98
  -1  -4  -6   30.27    1.77
  -1  -4  -6   29.60    3.39
  -1  -4  -6   27.06    4.84
   1   4   6   26.18    4.74
  -1  -5  -6   42.97    4.11
   1   5   6   38.09    5.98
  -1  -6  -6   12.74    3.25
   1   6   6   16.32    5.48
  -1  -7  -6   42.78    4.86
   1   7   6   32.77    7.35
  -1  -8  -6   68.34    5.77
   1   8   6   66.85   11.05
  -1  -9  -6   75.46    6.32
   1   9   6   84.05   12.94
  -1 -10  -6  102.97    7.01
   1  10   6  128.76   17.29
  -1 -11  -6   53.75    6.63
   1  11   6   62.05   18.59
  -1 -12  -6   51.55    6.63
   1  12   6   77.36   21.08
  -1 -13  -6   13.39    4.66
   1  13   6    9.94   19.89
  -1 -14  -6   11.06    4.67
   1  14   6   -4.35   20.51
   0   8  -7   52.10    8.68
   0   7  -7   36.95    7.68
   0   6  -7   72.89    8.87
   0   6  -7   67.30   10.59
   0   5  -7   16.42    5.90
   0   5  -7   17.75    5.45
   0   4  -7    4.71    4.43
   0   4  -7   -0.86    3.66
   0   3  -7   15.69    4.52
   0   3  -7   13.33    4.78
   0   2  -7   -3.02    3.53
   0   2  -7   -2.84    3.50
   0  -2   7    1.15    2.38
   0   1  -7    8.29    3.78
   0   1  -7    5.53    3.98
   0  -1   7    6.64    2.57
   0   0  -7   21.72    4.91
   0   0  -7   35.79    3.56
   0   0  -7   35.08    4.61
   0  -1  -7  125.20    9.48
   0  -1  -7  110.53    4.81
   0  -1  -7  117.49    5.58
   0  -2  -7  129.02    5.25
   0  -2  -7  131.76    5.12
   0  -2  -7  132.03    9.29
   0  -3  -7  138.99    9.64
   0  -3  -7  129.77    4.47
   0  -3  -7  134.60    5.32
   0  -4  -7  108.71    5.23
   0  -4  -7  111.38    9.26
   0   4   7   95.30    8.56
   0  -5  -7   67.91    8.79
   0  -5  -7   64.62    4.75
   0   5   7   67.73    8.39
   0  -6  -7   54.97    5.28
   0   6   7   48.04    7.28
   0  -7  -7    9.70    3.97
   0   7   7    5.22    5.51
   0  -8  -7   24.84    4.59
   0   8   7   18.87    8.44
   0  -9  -7    2.75    3.60
   0   9   7    1.96    7.90
   0 -10  -7   52.22    6.18
   0  10   7   49.38   13.88
   0 -11  -7   34.66    5.59
   0  11   7   58.11   16.97
   0 -12  -7   50.81    6.71
   0  12   7   26.66   19.55
   0 -13  -7   32.09    6.05
   0  13   7   35.14   21.68
   0 -14  -7   16.84    5.33
   0  14   7   -4.43   25.18
   1   7  -8   -1.79    5.67
   1   6  -8   14.58    6.19
   1   6  -8   17.52    8.62
   1   5  -8   60.22    8.41
   1   5  -8   78.25   11.93
   1   4  -8   91.09    8.28
   1   4  -8   88.97   12.11
   1   3  -8   48.60    7.20
   1   3  -8   49.49    9.06
   1   2  -8   99.56   12.26
   1   2  -8   85.99    7.09
   1   1  -8   78.80   10.45
   1   1  -8   87.83    7.32
   1   0  -8   56.38    8.68
   1   0  -8   67.20    6.57
   1  -1  -8    1.27    4.62
   1  -1  -8    1.32    3.51
   1  -1  -8    4.09    2.58
   1  -2  -8    2.00    4.59
   1  -2  -8   -0.55    2.98
   1  -2  -8    1.82    2.45
   1  -3  -8    0.25    2.49
   1  -3  -8    2.90    4.10
   1  -4  -8   24.08    6.08
   1  -4  -8   27.99    3.97
   1  -5  -8   60.14    8.60
   1  -5  -8   60.13    5.10
  -1   5   8   59.28    8.18
   1  -6  -8  117.74    6.62
   1  -6  -8  119.83   12.30
  -1   6   8  123.84   11.69
   1  -7  -8  102.34   12.86
   1  -7  -8   92.35    6.49
  -1   7   8  106.44   12.57
   1  -8  -8   50.40    5.95
  -1   8   8   39.61    9.17
   1  -9  -8   48.42    6.08
  -1   9   8   52.35   11.86
   1 -10  -8   19.37    4.87
  -1  10   8   22.33   12.93
   1 -11  -8   14.61    4.80
  -1  11   8   17.36   15.52
   1 -12  -8    5.39    4.31
  -1  12   8  -18.59   17.00
   1 -13  -8   10.55    4.79
  -1  13   8  -22.14   19.84
   1 -14  -8    9.02    4.97
  -1  14   8   -6.30   22.64
   2   6  -9   22.08   12.30
   2   5  -9   19.17   10.65
   2   5  -9   -0.34    5.69
   2   4  -9   21.85    9.47
   2   4  -9   14.02    6.36
   2   3  -9    9.28    5.73
   2   3  -9   16.29    9.56
   2   2  -9   44.47    7.18
   2   2  -9   32.69    9.49
   2   1  -9   39.56   10.14
   2   1  -9   49.76    7.35
   2   0  -9   83.92   12.16
   2   0  -9   75.36    8.13
   2  -1  -9  103.29   12.78
   2  -2  -9   22.61    7.71
   2  -3  -9   59.03    9.42
   2  -3  -9   68.02    5.04
   2  -4  -9   20.66    4.01
   2  -4  -9   19.56    7.07
   2  -5  -9    8.68    6.09
   2  -5  -9   11.16    3.60
   2  -6  -9   -3.88    5.11
   2  -6  -9    8.10    3.74
  -2   6   9    0.90    4.99
   2  -7  -9    9.76    3.80
   2  -7  -9    9.05    6.94
  -2   7   9    6.05    6.11
   2  -8  -9   16.92    4.55
   2  -8  -9   16.62    8.90
  -2   8   9   16.73    9.11
   2  -9  -9   67.32    7.20
  -2   9   9   59.45   13.42
   2 -10  -9   52.85    6.83
  -2  10   9   62.72   16.08
   2 -11  -9   55.66    7.19
  -2  11   9   58.73   18.75
   2 -12  -9   61.19    7.51
  -2  12   9   63.56   21.35
   2 -13  -9   23.95    5.92
  -2  13   9    3.56   24.53
  -2  14   9    8.12   27.56
   3   4 -10   18.67   11.17
   3   3 -10   15.35   10.60
   3   2 -10    3.31    9.26
   3   1 -10    7.61   10.30
   3   0 -10   15.41   10.31
   3  -1 -10    2.89    8.00
   3  -2 -10   36.80   10.61
   3  -3 -10   54.21   11.43
   3  -4 -10   43.35   10.01
   3  -5 -10   68.21   11.71
   3  -6 -10   52.79    5.97
   3  -6 -10   57.37   12.07
  -3   6  10   81.70   13.30
   3  -7 -10   35.63    5.33
   3  -7 -10   24.62    9.69
  -3   7  10   37.10   11.06
   3  -8 -10   58.29    7.02
   3  -8 -10   64.21   13.63
  -3   8  10   70.12   14.70
   3  -9 -10    8.37    4.86
  -3   9  10   14.04   13.03
   3 -10 -10    0.30    4.18
  -3  10  10  -18.03   13.59
   3 -11 -10    3.77    4.41
  -3  11  10  -11.89   15.00
   3 -12 -10   14.57    5.37
  -3  12  10  -16.80   18.19
  -3  13  10  -15.68   24.30
   4   1 -11   38.31   13.60
   4   0 -11   13.10   11.49
   4  -1 -11   32.41   12.53
   4  -2 -11   -0.34   11.16
   4  -3 -11    5.50   10.35
   4  -4 -11    2.47   10.64
   4  -5 -11    5.19    9.53
   4  -6 -11   12.27   10.97
   4  -7 -11   14.75   11.48
  -4   7  11   58.77   13.10
   4  -8 -11   33.47    6.46
   4  -8 -11   23.23   14.06
  -4   8  11   51.22   14.95
   4  -9 -11   39.90   14.96
   4  -9 -11   44.24    6.71
  -4   9  11   55.87   15.61
   4 -10 -11   28.70    6.25
  -4  10  11   13.57   15.95
   4 -11 -11   45.13    7.34
  -4  11  11   46.74   18.30
   5  -4 -12   41.79   18.43
   5  -5 -12   24.39   14.15
   5  -6 -12    6.21   13.02
   5  -7 -12   -7.32   13.38
  -5   7  12   57.15   17.68
 -12   5   4   21.11    9.14
 -12   4   4   20.92    9.58
 -12   3   4   11.50   13.59
  11  -8  -3    9.42    5.95
 -11   6   3   10.07    6.91
 -11   5   3    0.24    7.12
 -11   4   3   14.38    7.52
 -11   3   3   39.52   10.05
 -11   2   3   28.23    8.77
 -11   1   3   15.77    9.05
  11  -1  -3   44.76   12.36
 -11   0   3   10.86    8.21
  11   0  -3   23.05   11.28
 -11  -1   3   35.92    9.63
  11   1  -3   69.41   15.51
  11   2  -3   29.98   13.42
  11   3  -3   14.44   11.40
  10  -9  -2   33.54    7.37
  10  -8  -2   35.54    7.30
 -10   7   2   43.97    7.12
  10  -7  -2   39.22    7.07
 -10   6   2   59.20    8.47
  10  -6  -2   55.08    7.87
 -10   5   2   43.39    7.86
  10  -5  -2   52.57    7.40
 -10   4   2   37.84    8.47
 -10   3   2   -2.25    6.93
 -10   2   2   -8.71    6.16
  10  -2  -2    1.75    5.35
 -10   1   2   -4.43    6.42
  10  -1  -2    1.89    5.48
 -10   0   2    8.60    7.97
  10   0  -2    7.30    7.18
 -10  -1   2   36.45    8.45
  10   1  -2   61.63   12.02
  10   2  -2   71.74   13.90
  10   3  -2   61.69   14.46
  10   4  -2   68.07   15.55
  10   5  -2   28.36   12.41
   9 -10  -1    9.67    7.00
   9  -9  -1   -2.50    6.00
  -9   8   1    3.48    4.43
   9  -8  -1    2.70    5.28
  -9   7   1   27.49    5.99
   9  -7  -1   21.11    6.28
  -9   6   1   37.93    6.68
   9  -6  -1   45.06    7.09
  -9   5   1   78.85    9.09
   9  -5  -1   79.13    8.19
  -9   4   1   74.04    9.21
   9  -4  -1   81.11    7.63
  -9   3   1   96.07   10.37
   9  -3  -1   88.49    7.48
  -9   2   1   86.60    9.72
   9  -2  -1   77.93    9.87
  -9   1   1  119.86   10.47
   9  -1  -1   98.94   11.13
  -9   0   1   40.80    8.44
   9   0  -1   36.81    7.59
  -9  -1   1   13.13    6.62
   9   1  -1   21.69    7.20
   9   2  -1    5.13    6.81
   9   3  -1    7.99    7.34
   9   4  -1   18.30    9.35
   9   5  -1   49.06   12.64
   9   6  -1   59.62   14.84
   9   7  -1   50.17   14.53
   8 -11   0   38.25    8.27
   8 -10   0   28.93    8.05
  -8   9   0   31.51    5.85
   8  -9   0   19.82    6.67
  -8   8   0   39.70    5.95
   8  -8   0   57.41    8.65
  -8   7   0   66.30    7.25
   8  -7   0   57.98    7.85
  -8   6   0   32.47    6.00
   8  -6   0   45.11    6.87
  -8   5   0    7.97    5.31
   8  -5   0    8.04    5.03
  -8   4   0    0.94    5.48
   8  -4   0    0.83    4.40
  -8   2   0   30.89    7.16
   8  -2   0   23.47    5.07
   8  -2   0   35.37    5.34
  -8   1   0   82.57    9.22
   8  -1   0   81.11    8.82
   8  -1   0   81.12    5.99
  -8   0   0   99.14    9.82
   8   0   0  112.79   10.34
   8   0   0  107.27    6.10
  -8  -1   0   69.87    8.68
   8   1   0   60.04    8.12
   8   2   0   48.20    8.70
   8   3   0   87.13   11.39
   8   4   0   54.75   10.20
   8   5   0   18.16    8.70
   8   6   0    6.55    9.61
   8   7   0    1.06   10.31
   8   8   0   12.98   11.26
   8   9   0   32.41   14.40
   7 -11   1    1.02    5.58
  -7  10  -1    1.88    3.80
   7 -10   1    8.75    6.85
  -7   9  -1   14.50    4.60
   7  -9   1   18.49    6.55
  -7   8  -1    5.53    4.09
   7  -8   1    8.96    5.52
  -7   7  -1   74.74    7.17
   7  -7   1   62.41    7.71
  -7   6  -1  163.22    8.72
   7  -6   1  153.21    9.40
  -7   5  -1  149.13    8.63
   7  -5   1  155.89    8.97
  -7   4  -1   78.53    7.14
   7  -4   1   85.52    7.72
  -7   3  -1   67.73    7.23
   7  -3   1   68.10    6.59
   7  -3   1   60.89    5.73
  -7   2  -1   86.40    8.41
   7  -2   1   75.90    6.20
   7  -2   1   77.62    6.40
  -7   1  -1   22.51    5.93
   7  -1   1   22.83    4.19
   7  -1   1   25.45    3.96
  -7   0  -1    0.78    4.87
   7   0   1   -1.03    2.69
   7   0   1    2.51    3.12
  -7  -1  -1    4.76    5.77
   7   1   1    8.48    2.86
   7   1   1    6.21    3.85
  -7  -2  -1   19.53    5.80
   7   2   1   13.56    2.85
   7   2   1    9.38    4.97
   7   3   1   48.66    7.78
   7   4   1   64.86    9.20
   7   5   1  155.43   14.79
   7   6   1   55.12   10.62
   7   7   1   27.86   10.39
   7   8   1   72.06   15.01
   7   9   1   11.26   11.41
   7  10   1   52.21   17.11
  -6  11  -2   29.32    5.95
   6 -11   2   25.82    7.20
  -6  10  -2   58.08    7.26
   6 -10   2   44.50    8.01
  -6   9  -2    9.20    3.99
   6  -9   2   10.51    6.11
  -6   8  -2   12.85    4.19
   6  -8   2   25.99    6.36
  -6   7  -2    7.98    4.06
   6  -7   2   11.10    5.32
  -6   6  -2    5.44    4.23
   6  -6   2   17.96    5.36
  -6   5  -2   15.32    4.36
   6  -5   2   14.70    4.98
  -6   4  -2   29.57    5.21
   6  -4   2   18.45    4.64
  -6   3  -2   76.74    6.03
   6  -3   2   79.29    5.89
  -6   2  -2  160.74    7.51
   6  -2   2  171.90    5.73
   6  -2   2  174.00    6.81
  -6   1  -2  376.25   10.54
   6  -1   2  372.03    8.55
   6  -1   2  375.04    9.37
  -6   0  -2  298.57    9.84
   6   0   2  325.09   10.05
   6   0   2  323.00    7.55
  -6  -1  -2  180.19    8.91
   6   1   2  182.05    8.88
   6   1   2  181.77    5.42
  -6  -2  -2   89.42    6.94
   6   2   2   90.44    8.14
   6   2   2   92.89    4.22
   6   3   2   73.99    8.39
   6   3   2   71.17    3.59
  -6  -4  -2   32.88    3.11
   6   4   2   22.15    6.44
  -6  -5  -2    4.01    2.19
   6   5   2    4.06    5.32
   6   6   2   11.53    6.72
   6   7   2   36.98    9.27
   6   8   2  103.14   14.74
   6   9   2   67.09   15.00
   6  10   2   85.02   17.36
   6  11   2   69.19   19.59
   5 -12   3    4.96    6.21
  -5  11  -3    8.15    4.96
   5 -11   3    1.00    5.86
  -5  10  -3   15.64    4.88
   5 -10   3   11.96    6.24
  -5   9  -3   55.49    6.69
   5  -9   3   61.61    8.72
  -5   8  -3   71.41    6.44
   5  -8   3   61.02    7.86
  -5   7  -3   94.21    7.12
   5  -7   3   94.54    8.62
  -5   6  -3   88.99    6.90
   5  -6   3   90.53    8.14
  -5   5  -3   65.35    5.73
   5  -5   3   72.78    6.86
  -5   4  -3   87.34    6.31
   5  -4   3   89.85    6.40
  -5   3  -3   -0.94    3.07
   5  -3   3    2.83    2.92
  -5   2  -3    2.62    2.85
   5  -2   3    8.40    3.04
  -5   1  -3   53.05    4.74
   5  -1   3   54.42    2.47
   5  -1   3   53.38    4.14
  -5   0  -3   94.18    5.56
   5   0   3   87.48    4.52
   5   0   3   77.40    4.23
  -5  -1  -3  124.14    6.23
   5   1   3  139.47    6.95
   5   1   3  126.67    4.95
  -5  -2  -3  192.67    5.29
  -5  -2  -3  186.09    7.31
   5   2   3  191.11    9.24
  -5  -3  -3  163.59    6.98
  -5  -3  -3  160.66    4.93
   5   3   3  164.51   10.26
  -5  -4  -3  207.09    5.67
   5   4   3  194.84   11.76
  -5  -5  -3   62.60    3.91
   5   5   3   53.90    7.87
  -5  -6  -3   70.60    4.36
   5   6   3   60.07    9.64
  -5  -7  -3   22.60    3.47
   5   7   3   23.08    7.79
   5   8   3   12.34    7.70
   5   9   3    2.24    7.97
   5  10   3    2.23   10.96
   5  11   3   48.69   17.91
   5  12   3   50.25   18.21
  -4  11  -4   19.96    6.12
  -4  10  -4    7.37    4.70
   4 -10   4    5.58    6.48
  -4   9  -4   10.07    4.53
   4  -9   4    3.83    6.07
  -4   8  -4    5.18    4.25
   4  -8   4    4.36    5.67
  -4   7  -4    9.59    4.00
   4  -7   4    8.42    5.12
  -4   6  -4   14.56    4.62
   4  -6   4   13.85    4.76
  -4   5  -4   45.55    5.68
   4  -5   4   46.06    5.79
  -4   4  -4   94.13    5.86
   4  -4   4   88.23    6.22
  -4   3  -4  112.68    3.43
  -4   3  -4  106.30    5.92
   4  -3   4  113.94    5.94
  -4   2  -4   89.15    5.35
   4  -2   4   86.73    5.03
  -4   1  -4  166.46    5.95
   4  -1   4  169.60    5.84
   4  -1   4  159.14    3.08
  -4   0  -4  121.66    5.04
   4   0   4  129.54    5.01
   4   0   4  127.21    4.99
  -4  -1  -4  107.11    4.32
  -4  -1  -4  106.83    4.73
   4   1   4  111.93    6.07
  -4  -2  -4   32.55    3.72
  -4  -2  -4   25.19    2.80
   4   2   4   21.87    4.02
  -4  -3  -4    5.02    2.68
  -4  -3  -4    7.40    2.10
   4   3   4    5.42    3.77
  -4  -4  -4  130.60    4.80
  -4  -4  -4  121.43    5.74
   4   4   4  138.28    9.99
  -4  -5  -4  175.72    5.62
   4   5   4  166.40   11.95
  -4  -6  -4   86.30    4.87
   4   6   4  108.51   11.86
  -4  -7  -4  139.35    5.92
   4   7   4  150.34   14.81
  -4  -8  -4  133.43    6.50
   4   8   4  137.52   16.64
  -4  -9  -4  106.02    6.41
   4   9   4  109.96   14.85
  -4 -10  -4   55.23    5.81
   4  10   4   65.30   14.27
   4  11   4   29.84   14.60
   4  12   4   17.82   16.77
   4  13   4   10.39   19.38
  -3  11  -5   23.00    6.87
  -3  10  -5   31.49    6.76
  -3   9  -5   34.32    6.29
  -3   8  -5   56.51    7.20
   3  -8   5   67.69    7.99
  -3   7  -5   17.39    4.97
   3  -7   5   23.31    5.48
  -3   6  -5   42.02    5.74
   3  -6   5   42.58    6.01
  -3   5  -5    4.08    3.89
   3  -5   5    2.83    3.74
  -3   4  -5    2.78    2.75
  -3   4  -5   -0.73    3.32
   3  -4   5    6.85    3.81
  -3   3  -5   11.56    2.62
  -3   3  -5   11.78    3.58
   3  -3   5   17.24    3.60
  -3   2  -5  108.51    5.43
  -3   2  -5  106.32    5.22
   3  -2   5  102.97    5.15
  -3   1  -5   86.21    4.57
  -3   1  -5   82.18    4.51
   3  -1   5   88.35    4.92
  -3   0  -5  272.93    7.38
  -3   0  -5  271.39    6.77
   3   0   5  284.21    7.71
   3   0   5  284.17    6.95
  -3  -1  -5  113.26    4.55
  -3  -1  -5  107.69    4.33
   3   1   5  113.81    5.91
  -3  -2  -5   40.85    2.91
  -3  -2  -5   39.34    3.43
   3   2   5   44.15    5.37
  -3  -3  -5  211.22    4.83
  -3  -3  -5  201.76    5.81
   3   3   5  210.37   10.11
  -3  -4  -5  165.30    4.47
  -3  -4  -5  178.39    5.69
   3   4   5  173.66   11.06
  -3  -5  -5    5.41    2.36
  -3  -5  -5    5.67    2.18
   3   5   5    6.75    5.01
  -3  -6  -5   34.30    3.83
  -3  -6  -5   38.39    3.53
   3   6   5   22.96    6.60
  -3  -7  -5    1.66    2.80
   3   7   5    3.80    5.96
  -3  -8  -5   18.61    4.28
   3   8   5   18.80    9.10
  -3  -9  -5   35.96    4.96
   3   9   5   31.43   10.36
  -3 -10  -5  117.89    7.00
   3  10   5  139.40   18.82
  -3 -11  -5   21.81    5.00
   3  11   5   30.68   16.20
  -3 -12  -5   45.62    6.27
   3  12   5   58.90   19.17
   3  13   5   86.90   22.40
   3  14   5   94.48   29.59
  -2  10  -6    6.80    6.09
  -2   9  -6    6.80    5.03
  -2   8  -6   33.50    6.72
  -2   7  -6   46.12    6.90
  -2   6  -6   75.76    7.89
   2  -6   6   57.42    6.34
  -2   5  -6   44.17    6.01
   2  -5   6   65.04    6.15
  -2   4  -6   96.49    8.19
  -2   4  -6   97.59    6.57
   2  -4   6   87.59    6.12
  -2   3  -6   85.65    6.20
  -2   3  -6   81.53    7.00
   2  -3   6   81.93    5.57
  -2   2  -6   23.61    3.95
  -2   2  -6   22.98    3.87
   2  -2   6   29.24    3.95
  -2   1  -6   17.52    3.29
  -2   1  -6   11.95    3.00
   2  -1   6   21.72    3.39
  -2   0  -6   28.20    3.85
  -2   0  -6   29.79    3.43
  -2   0  -6   31.96    3.32
  -2  -1  -6   37.39    3.30
  -2  -1  -6   36.07    4.93
  -2  -1  -6   45.90    3.47
  -2  -2  -6   83.15    4.25
  -2  -2  -6   80.20    3.51
  -2  -2  -6   79.44    6.50
   2   2   6   78.71    6.52
  -2  -3  -6  149.25    5.41
  -2  -3  -6  145.84    8.31
  -2  -3  -6  136.92    3.73
   2   3   6  148.93    8.45
  -2  -4  -6  165.87    5.82
  -2  -4  -6  157.51    3.30
   2   4   6  159.74    9.74
  -2  -5  -6  185.97    2.60
  -2  -5  -6  177.57    6.23
   2   5   6  182.56   12.24
  -2  -6  -6  196.78    6.86
   2   6   6  182.65   12.93
  -2  -7  -6  194.28    7.47
   2   7   6  195.34   15.09
  -2  -8  -6   98.64    6.34
   2   8   6   93.67   12.46
  -2  -9  -6   97.77    7.15
   2   9   6  112.96   14.76
  -2 -10  -6   15.44    4.36
   2  10   6   18.13   11.19
  -2 -11  -6    5.75    4.52
   2  11   6   -2.98   12.86
  -2 -12  -6   -2.45    4.08
   2  12   6   -4.61   16.75
  -2 -13  -6   22.57    5.19
   2  13   6   49.16   20.90
  -2 -14  -6   33.61    6.26
   2  14   6   81.37   26.42
  -1   9  -7   10.98    7.12
  -1   8  -7   20.74    6.29
  -1   7  -7   -4.14    4.70
  -1   6  -7    2.44    4.28
  -1   5  -7    3.40    4.10
  -1   4  -7   51.08    6.23
  -1   4  -7   48.00    7.05
  -1   3  -7   48.17    6.82
  -1   3  -7   61.87    6.52
   1  -3   7   58.16    5.18
  -1   2  -7   41.84    6.09
  -1   2  -7   53.96    5.77
   1  -2   7   43.61    4.40
  -1   1  -7   95.41    6.15
  -1   1  -7   93.01    8.28
   1  -1   7   90.77    5.09
  -1   0  -7  116.60    8.56
  -1   0  -7  113.76    5.08
  -1   0  -7  111.85    5.55
  -1  -1  -7  154.36    9.10
  -1  -1  -7  155.53    5.86
  -1  -1  -7  154.61    5.69
  -1  -2  -7  130.01    8.50
  -1  -2  -7  127.08    4.89
  -1  -2  -7  125.64    5.18
  -1  -3  -7    8.80    1.98
  -1  -3  -7    7.37    3.54
  -1  -3  -7   10.62    2.66
   1   3   7    7.17    3.48
  -1  -4  -7   20.05    4.79
  -1  -4  -7   28.83    2.37
  -1  -4  -7   23.42    3.43
   1   4   7   23.16    4.87
  -1  -5  -7    6.53    2.75
   1   5   7    4.43    3.87
  -1  -6  -7  104.77    5.80
   1   6   7  113.12   10.95
  -1  -7  -7  100.30    6.32
   1   7   7  101.39   12.76
  -1  -8  -7   63.11    6.04
   1   8   7   48.52    9.53
  -1  -9  -7   35.53    5.27
   1   9   7   29.43   10.11
  -1 -10  -7   86.71    6.99
   1  10   7   99.60   15.92
  -1 -11  -7   55.60    7.04
   1  11   7   49.93   16.86
  -1 -12  -7   50.28    7.07
   1  12   7   41.16   20.37
  -1 -13  -7   19.10    5.21
   1  13   7   24.09   23.79
  -1 -14  -7    1.32    4.02
   1  14   7   12.00   25.14
   0   7  -8   30.76    7.43
   0   6  -8   23.46    6.46
   0   5  -8   44.22    8.71
   0   5  -8   51.68    7.85
   0   4  -8   12.96    5.46
   0   4  -8   22.55    5.61
   0   3  -8   43.19    6.23
   0   2  -8    3.73    4.03
   0   2  -8    1.35    3.97
   0   1  -8   16.63    4.70
   0   1  -8    4.90    4.18
   0  -1   8    6.36    2.91
   0   0  -8   10.59    3.71
   0   0  -8    6.29    2.81
   0   0  -8    8.42    4.44
   0  -1  -8   28.88    5.91
   0  -1  -8   34.61    3.91
   0  -1  -8   32.75    4.54
   0  -2  -8  104.60    5.47
   0  -2  -8  107.87   10.42
   0  -2  -8  103.13    5.47
   0  -3  -8   34.57    4.14
   0  -3  -8   46.46    4.25
   0  -3  -8   32.29    5.99
   0  -4  -8   31.30    6.26
   0  -4  -8   45.35    4.54
   0  -4  -8   42.41    3.71
   0   4   8   32.57    6.36
   0  -5  -8  157.29    6.80
   0  -5  -8  163.09   12.39
   0   5   8  156.03   11.70
   0  -6  -8  129.68    6.66
   0  -6  -8  119.52   11.91
   0   6   8  112.00   11.45
   0  -7  -8   79.14    6.72
   0   7   8   67.95    9.65
   0  -8  -8    3.82    3.66
   0   8   8    4.85    6.92
   0  -9  -8   12.91    4.26
   0   9   8    7.05    9.49
   0 -10  -8    3.14    3.79
   0  10   8   -3.51   11.46
   0 -11  -8   37.25    5.96
   0  11   8   33.72   16.31
   0 -12  -8   56.61    7.18
   0  12   8   29.90   22.14
   0 -13  -8   63.57    7.67
   0  13   8   39.76   25.26
   0 -14  -8   35.69    6.89
   0  14   8   23.00   23.81
   1   6  -9   13.02    7.29
   1   5  -9   23.92    8.75
   1   5  -9   20.64    6.84
   1   4  -9   79.72   13.07
   1   4  -9   96.79   10.40
   1   3  -9   53.04   10.75
   1   3  -9   45.87    7.33
   1   2  -9   68.82   11.02
   1   2  -9   74.48    8.04
   1   1  -9   34.91    8.00
   1   1  -9   22.41    5.65
   1   0  -9   10.75    6.39
   1   0  -9   13.20    4.35
   1  -1  -9   14.07    4.54
   1  -1  -9   13.88    6.03
   1  -2  -9   49.67    5.77
   1  -2  -9   39.02    4.37
   1  -2  -9   36.10    7.78
   1  -3  -9   11.83    5.70
   1  -3  -9   18.89    3.51
   1  -4  -9   46.64    8.29
   1  -4  -9   39.15    4.49
   1  -5  -9   41.48    8.10
   1  -5  -9   64.35    5.91
  -1   5   9   47.61    8.36
   1  -6  -9   76.04    6.01
   1  -6  -9   71.09   10.24
  -1   6   9   70.44    9.79
   1  -7  -9   92.11    6.75
   1  -7  -9   84.04   11.57
  -1   7   9   82.05   11.06
   1  -8  -9   83.74    6.78
  -1   8   9   82.68   11.79
   1  -9  -9   45.92    6.07
  -1   9   9   48.57   11.97
   1 -10  -9   31.05    5.72
  -1  10   9   30.41   13.94
   1 -11  -9   35.30    6.23
  -1  11   9   53.95   20.12
   1 -12  -9    8.53    4.86
  -1  12   9   -5.31   18.36
   1 -13  -9    0.51    4.36
  -1  13   9  -31.00   22.80
  -1  14   9  -55.94   24.84
   2   5 -10    6.72    9.74
   2   4 -10    8.69    8.97
   2   4 -10   -5.83    5.55
   2   3 -10   18.53   10.32
   2   3 -10    1.64    5.57
   2   2 -10   20.68    6.48
   2   2 -10   21.62   10.82
   2   1 -10   33.64   11.45
   2   1 -10   35.84    6.97
   2   0 -10   61.43   12.12
   2   0 -10   57.01    7.71
   2  -1 -10  133.50   15.39
   2  -2 -10   70.06   12.39
   2  -3 -10   88.56   12.88
   2  -4 -10   23.92    4.28
   2  -4 -10   18.38    7.57
   2  -5 -10    4.55    3.40
   2  -5 -10    4.91    6.60
   2  -6 -10   -1.78    5.79
   2  -6 -10    4.63    3.27
  -2   6  10    3.96    5.55
   2  -7 -10   10.70    7.96
   2  -7 -10   11.62    4.42
  -2   7  10   10.24    7.31
   2  -8 -10    9.48    4.30
   2  -8 -10    0.32    7.60
  -2   8  10    5.28    8.58
   2  -9 -10   24.74    5.44
  -2   9  10   29.34   12.00
   2 -10 -10   52.84    7.03
  -2  10  10   59.87   16.54
   2 -11 -10   58.87    7.44
  -2  11  10  105.87   21.57
   2 -12 -10   42.69    6.81
  -2  12  10   33.78   20.21
   2 -13 -10   36.26    6.67
  -2  13  10   12.59   25.25
   3   3 -11   12.73   12.79
   3   2 -11    8.27   11.69
   3   1 -11    9.33   11.01
   3   0 -11    1.72    9.18
   3  -1 -11    2.24    9.35
   3  -2 -11    4.25    9.42
   3  -3 -11   29.13   11.45
   3  -4 -11   59.36   13.21
   3  -5 -11   43.13   11.82
   3  -6 -11   88.93   15.00
  -3   6  11  126.58   15.31
   3  -7 -11   30.27   12.55
   3  -7 -11   34.75    5.73
  -3   7  11   51.77   12.74
   3  -8 -11   10.14   11.19
   3  -8 -11   22.79    5.48
  -3   8  11   25.93   11.80
   3  -9 -11   -3.68   12.55
   3  -9 -11   14.00    4.85
  -3   9  11   13.75   14.42
   3 -10 -11    0.52    4.17
  -3  10  11   -5.62   13.43
   3 -11 -11    5.59    4.61
  -3  11  11  -13.67   17.10
   3 -12 -11   11.12    5.31
  -3  12  11  -20.93   17.76
   4  -1 -12    4.29   12.10
   4  -2 -12    6.25   11.92
   4  -3 -12   -7.50   12.03
   4  -4 -12   -7.11   10.36
   4  -5 -12   -8.28   10.31
   4  -6 -12   -0.25   12.41
   4  -7 -12   21.93   13.13
  -4   7  12   63.36   13.99
   4  -8 -12   16.89   13.88
  -4   8  12   42.80   14.06
   4  -9 -12   25.96   15.11
  -4   9  12   63.37   16.55
   4 -10 -12   34.71    6.54
  -4  10  12   33.64   26.34
   4 -11 -12   39.77    7.46
 -12   6   3   17.29    7.34
 -12   5   3   34.65    9.40
 -12   4   3   21.12    8.48
 -12   3   3   12.84    9.47
 -12   2   3   12.08    8.62
 -12   1   3    2.64    9.08
  12   0  -3   10.89   11.87
  12   1  -3    1.73    9.82
  11  -8  -2   15.13    7.10
 -11   7   2   10.90    6.25
  11  -7  -2   14.23    5.93
 -11   6   2    6.04    5.95
 -11   5   2   -0.47    5.72
 -11   4   2   11.50    7.27
 -11   3   2   28.15    9.16
 -11   2   2   37.96    9.04
 -11   1   2   54.43   10.02
  11  -1  -2   51.71   18.10
 -11   0   2   44.83    9.73
  11   0  -2   42.61   10.86
 -11  -1   2   30.00    9.17
  11   1  -2   52.52   12.88
 -11  -2   2   30.65    9.08
  11   2  -2   53.34   13.07
  11   3  -2   31.04   12.24
  11   4  -2   28.81   12.75
  10  -9  -1   31.24    7.67
 -10   8   1   36.10    6.60
  10  -8  -1   19.07    6.59
 -10   7   1   58.05    7.51
  10  -7  -1   44.59    7.79
 -10   6   1   17.87    6.15
  10  -6  -1   24.28    6.31
 -10   5   1   54.94    8.49
  10  -5  -1   51.93    7.19
 -10   4   1   18.55    6.94
  10  -4  -1   31.36    6.46
 -10   3   1   16.09    7.84
 -10   2   1   12.91    6.99
 -10   1   1   13.38    8.26
  10  -1  -1    9.00    5.83
 -10   0   1   -5.16    6.23
  10   0  -1    2.79    5.95
 -10  -1   1   12.64    7.23
  10   1  -1   13.76    7.11
 -10  -2   1   33.61    8.16
  10   2  -1   53.09   11.64
  10   3  -1   69.05   14.14
  10   4  -1   56.37   13.30
  10   5  -1   89.26   17.11
  10   6  -1   45.15   14.82
   9 -10   0    6.55    6.29
  -9   9   0    9.06    4.94
   9  -9   0   -3.67    5.63
  -9   8   0   -0.24    4.41
   9  -8   0    3.31    5.95
  -9   7   0   10.53    5.00
   9  -7   0   -7.19    5.01
  -9   6   0    5.93    5.04
   9  -6   0    4.45    5.20
  -9   5   0   67.77    7.89
   9  -5   0   69.78    7.60
  -9   4   0   69.34    8.63
   9  -4   0   74.83    7.66
  -9   3   0   62.10    8.83
   9  -3   0   56.15    6.53
  -9   2   0   44.84    8.13
   9  -2   0   48.44    6.04
  -9   1   0   29.55    7.60
   9  -1   0   31.00    6.05
  -9   0   0   19.81    7.23
   9   0   0   23.27    6.03
  -9  -1   0   -3.23    5.90
   9   1   0    0.70    4.75
  -9  -2   0    0.99    6.31
   9   2   0   -0.29    5.34
   9   3   0    1.25    6.98
   9   4   0    1.46    6.98
   9   5   0   25.19   10.42
   9   6   0   86.70   15.58
   9   7   0   57.38   14.40
   9   8   0   62.90   16.69
  -8  10  -1   31.24    5.61
   8 -10   1   41.65    8.07
  -8   9  -1   52.03    7.00
   8  -9   1   40.76    7.92
  -8   8  -1   20.92    5.31
   8  -8   1   15.23    6.23
  -8   7  -1   43.19    6.39
   8  -7   1   49.05    7.57
  -8   6  -1   85.73    8.10
   8  -6   1   75.40    8.26
  -8   5  -1   12.26    4.87
   8  -5   1   16.96    5.66
  -8   4  -1    1.04    4.64
   8  -4   1    2.32    4.73
  -8   3  -1    4.63    5.19
   8  -3   1    8.69    4.44
  -8   2  -1    3.08    5.28
   8  -2   1    3.17    3.28
   8  -2   1    0.39    4.16
  -8   1  -1   44.10    7.70
   8  -1   1   43.59    5.23
   8  -1   1   30.17    5.19
  -8   0  -1   82.14    9.13
   8   0   1   84.28    8.59
   8   0   1   71.87    5.49
  -8  -1  -1   87.33    9.34
   8   1   1   83.11    5.44
   8   1   1   80.10    9.55
  -8  -2  -1   65.74    8.86
   8   2   1   48.40    7.51
   8   3   1   50.05    8.25
   8   4   1   51.45    9.23
   8   5   1   49.67   10.99
   8   6   1   10.61    8.43
   8   7   1    2.59    8.85
   8   8   1    6.72    9.52
   8   9   1   41.38   15.13
  -7  11  -2    4.73    6.94
   7 -11   2    1.27    6.35
  -7  10  -2    8.73    4.55
   7 -10   2    5.01    5.95
  -7   9  -2   10.12    4.67
   7  -9   2    8.65    6.34
  -7   8  -2   19.44    4.75
   7  -8   2   17.14    6.80
  -7   7  -2   43.94    6.37
   7  -7   2   44.92    7.21
  -7   6  -2  107.25    7.72
   7  -6   2  127.14    9.01
  -7   5  -2  141.98    8.02
   7  -5   2  159.08    9.15
  -7   4  -2   96.69    7.22
   7  -4   2   96.77    7.33
  -7   3  -2  112.65    7.69
   7  -3   2  122.34    7.27
  -7   2  -2   79.05    7.62
   7  -2   2   80.93    5.44
   7  -2   2   76.63    5.93
  -7   1  -2   90.95    8.44
   7  -1   2   66.18    5.17
   7  -1   2   77.74    5.97
  -7   0  -2   44.02    6.82
   7   0   2   37.38    4.92
   7   0   2   35.25    4.07
  -7  -1  -2    4.86    5.56
   7   1   2    0.85    2.62
   7   1   2   -1.15    2.88
  -7  -2  -2   14.12    5.61
   7   2   2   10.33    4.52
   7   2   2   10.61    2.80
  -7  -3  -2   40.99    6.71
   7   3   2   38.10    3.69
   7   3   2   28.95    6.06
   7   4   2   81.96   11.13
   7   5   2   56.84    9.30
   7   6   2   95.36   12.97
   7   7   2   59.60   11.47
   7   8   2   62.70   13.28
   7   9   2   21.05   11.46
   7  10   2   21.74   13.07
   7  11   2   23.37   16.00
  -6  11  -3   22.94    5.76
   6 -11   3   30.27    7.90
  -6  10  -3   34.14    6.07
   6 -10   3   34.24    7.79
  -6   9  -3   83.36    8.38
   6  -9   3   61.71    8.70
  -6   8  -3   27.21    5.20
   6  -8   3   24.91    6.77
  -6   7  -3   10.33    4.31
   6  -7   3    3.07    5.07
  -6   6  -3   -2.74    3.33
   6  -6   3    1.82    4.67
  -6   5  -3   19.21    4.99
   6  -5   3   28.77    5.45
  -6   4  -3    6.04    3.96
   6  -4   3    7.47    4.27
  -6   3  -3  113.85    6.72
   6  -3   3  107.67    6.67
  -6   2  -3   24.05    4.47
   6  -2   3   17.79    4.24
  -6   1  -3   49.61    5.56
   6  -1   3   54.93    4.55
   6  -1   3   50.82    3.54
  -6   0  -3  389.37   10.55
   6   0   3  402.17    9.78
   6   0   3  387.67    8.50
  -6  -1  -3   69.20    6.76
   6   1   3   63.60    4.40
   6   1   3   87.15    6.53
  -6  -2  -3   83.04    7.44
   6   2   3   76.31    7.32
   6   2   3   71.95    4.22
  -6  -3  -3   52.74    6.51
  -6  -3  -3   53.05    3.49
   6   3   3   44.38    6.42
  -6  -4  -3   26.06    5.26
  -6  -4  -3   25.12    3.15
   6   4   3   20.01    5.78
  -6  -5  -3    6.34    2.43
   6   5   3    3.50    6.13
  -6  -6  -3    0.68    2.50
   6   6   3   -3.31    5.93
   6   7   3   26.69    8.92
   6   8   3   29.39    9.72
   6   9   3   61.90   13.49
   6  10   3  104.76   18.67
   6  11   3   73.12   18.89
   6  12   3   80.32   21.48
  -5  11  -4    2.88    4.52
   5 -11   4    0.30    6.95
  -5  10  -4   20.72    5.84
   5 -10   4   15.14    6.75
  -5   9  -4   15.38    4.92
   5  -9   4   27.05    6.82
  -5   8  -4   69.22    7.77
   5  -8   4   61.33    8.67
  -5   7  -4   80.07    7.63
   5  -7   4   64.04    7.75
  -5   6  -4   90.97    7.29
   5  -6   4   83.21    7.78
  -5   5  -4   86.87    6.43
   5  -5   4   93.04    7.39
  -5   4  -4  180.90    7.82
   5  -4   4  177.34    8.20
  -5   3  -4   58.31    5.16
   5  -3   4   67.19    5.60
  -5   2  -4   -0.83    3.05
   5  -2   4   -3.65    2.56
  -5   1  -4   34.35    4.23
   5  -1   4   35.35    3.95
  -5   0  -4  136.63    6.03
   5   0   4  139.69    5.15
   5   0   4  133.23    5.47
  -5  -1  -4    8.70    3.21
   5   1   4    9.90    3.00
   5   1   4   16.05    2.84
  -5  -2  -4  259.41    8.10
  -5  -2  -4  240.80    6.28
   5   2   4  245.63   10.35
  -5  -3  -4   82.16    5.46
  -5  -3  -4   85.68    4.35
   5   3   4   79.21    8.59
  -5  -4  -4  178.22    5.87
  -5  -4  -4  176.71    7.54
   5   4   4  186.77   11.67
  -5  -5  -4  112.02    5.13
  -5  -5  -4  118.50    6.76
   5   5   4  119.01   11.59
  -5  -6  -4   25.93    3.63
   5   6   4   23.01    7.93
  -5  -7  -4    6.71    2.83
   5   7   4    8.96    7.85
  -5  -8  -4    2.36    3.04
   5   8   4   -4.99    6.66
  -5  -9  -4    0.37    3.04
   5   9   4    8.56    8.51
   5  10   4   18.75   12.32
   5  11   4   17.69   14.20
   5  12   4   39.40   18.06
   5  13   4   55.48   26.72
  -4  11  -5   25.39    7.77
  -4  10  -5    8.81    4.96
  -4   9  -5   16.56    5.58
   4  -9   5   10.20    5.91
  -4   8  -5    5.76    4.04
   4  -8   5    4.02    5.86
  -4   7  -5   29.84    5.45
   4  -7   5   36.28    6.82
  -4   6  -5   20.36    4.73
   4  -6   5   21.57    5.09
  -4   5  -5   80.65    6.79
   4  -5   5   89.43    6.98
   4  -4   5  113.20    6.90
  -4   3  -5  130.19    6.55
   4  -3   5  134.07    6.68
  -4   2  -5  168.19    6.63
  -4   2  -5  172.97    4.80
   4  -2   5  167.29    6.66
  -4   1  -5  102.54    5.25
   4  -1   5  116.39    5.46
   4  -1   5  114.80    4.32
  -4   0  -5   67.36    4.50
   4   0   5   65.74    4.63
   4   0   5   65.95    4.32
  -4  -1  -5  201.61    5.97
  -4  -1  -5  203.71    6.04
   4   1   5  207.95    7.97
  -4  -2  -5   72.92    4.20
  -4  -2  -5   75.95    4.12
   4   2   5   73.10    7.05
  -4  -3  -5    0.99    2.36
  -4  -3  -5   -0.08    2.00
   4   3   5    4.00    3.44
  -4  -4  -5   -2.15    2.23
  -4  -4  -5   -0.72    1.98
   4   4   5    0.04    3.90
  -4  -5  -5   57.89    4.64
  -4  -5  -5   62.49    4.43
   4   5   5   56.10    8.10
  -4  -6  -5   55.28    4.88
  -4  -6  -5   48.47    4.64
   4   6   5   50.64    8.48
  -4  -7  -5   59.64    4.88
   4   7   5   66.06   10.33
  -4  -8  -5   94.73    5.88
   4   8   5   97.96   13.56
  -4  -9  -5  117.73    6.56
   4   9   5  146.07   18.57
  -4 -10  -5   78.22    6.56
   4  10   5  114.78   16.94
  -4 -11  -5   23.19    5.01
   4  11   5   23.41   14.12
   4  12   5   11.47   16.44
   4  13   5   29.65   21.04
  -3  10  -6   29.27    7.22
  -3   9  -6   42.83    7.43
  -3   8  -6   49.38    7.72
  -3   7  -6   39.87    6.86
   3  -7   6   28.66    6.56
  -3   6  -6   73.07    7.60
   3  -6   6   65.41    6.75
  -3   5  -6    0.69    3.69
   3  -5   6    0.51    4.12
  -3   4  -6    2.97    3.32
   3  -4   6   -0.41    3.29
  -3   3  -6    1.08    2.26
  -3   3  -6    0.83    3.06
   3  -3   6    2.80    3.16
  -3   2  -6   57.55    5.21
  -3   2  -6   64.32    5.44
   3  -2   6   69.11    5.32
  -3   1  -6  135.29    5.84
  -3   1  -6  135.21    6.50
   3  -1   6  145.65    5.99
  -3   0  -6  294.96    9.07
  -3   0  -6  283.95    7.29
  -3   0  -6  298.24    7.65
   3   0   6  304.42    7.92
  -3  -1  -6  210.50    5.89
  -3  -1  -6  225.59    8.64
  -3  -1  -6  230.09    6.69
   3   1   6  223.97    8.52
  -3  -2  -6  374.30    8.02
  -3  -2  -6  364.05    6.95
   3   2   6  370.50   11.39
  -3  -3  -6  134.61    5.19
  -3  -3  -6  124.81    4.07
   3   3   6  126.96    8.71
  -3  -4  -6  257.89    7.14
  -3  -4  -6  261.14    5.02
   3   4   6  254.31   12.71
  -3  -5  -6   74.89    4.68
  -3  -5  -6   70.88    2.98
   3   5   6   75.84   10.45
  -3  -6  -6    8.60    2.97
   3   6   6    6.85    5.73
  -3  -7  -6   15.43    3.66
   3   7   6   14.48    7.13
  -3  -8  -6    9.80    4.02
   3   8   6   19.92    8.40
  -3  -9  -6   22.86    4.60
   3   9   6   18.13    9.63
  -3 -10  -6   21.74    4.74
   3  10   6   20.10   12.46
  -3 -11  -6   57.17    6.52
   3  11   6   60.99   16.78
  -3 -12  -6   30.54    5.66
   3  12   6   49.03   21.30
  -3 -13  -6   27.93    5.89
   3  13   6   39.51   20.69
   3  14   6   74.88   24.81
  -2   9  -7   10.83    5.78
  -2   8  -7    7.51    5.77
  -2   7  -7   24.42    6.23
  -2   6  -7   53.48    7.09
  -2   5  -7   61.33    7.02
   2  -5   7   51.27    5.74
  -2   4  -7   91.63    6.95
   2  -4   7   86.24    6.32
  -2   3  -7   87.81    6.82
  -2   3  -7   81.32    7.64
   2  -3   7   81.91    5.94
  -2   2  -7   58.33    6.66
  -2   2  -7   51.97    5.58
   2  -2   7   58.55    4.75
  -2   1  -7   22.38    4.19
  -2   1  -7   32.02    4.48
   2  -1   7   27.61    3.96
  -2   0  -7   -0.23    2.22
  -2   0  -7   -0.81    2.22
  -2   0  -7   -0.31    2.47
  -2  -1  -7    1.68    2.68
  -2  -1  -7    3.14    2.33
  -2  -1  -7   -1.15    2.10
  -2  -2  -7   19.22    3.18
  -2  -2  -7   13.14    3.49
  -2  -2  -7   19.47    2.74
   2   2   7   15.90    3.81
  -2  -3  -7   30.35    3.66
  -2  -3  -7   19.67    4.34
  -2  -3  -7   23.66    2.56
   2   3   7   21.82    4.45
  -2  -4  -7  187.73    6.55
  -2  -4  -7  177.34    4.09
   2   4   7  182.64   10.97
  -2  -5  -7  159.39    6.40
  -2  -5  -7  151.26    3.54
   2   5   7  153.87   11.10
  -2  -6  -7   79.38    5.37
   2   6   7   62.86    8.75
  -2  -7  -7  112.30    6.42
   2   7   7  127.03   14.00
  -2  -8  -7   84.71    6.42
   2   8   7   91.75   12.89
  -2  -9  -7    9.48    4.19
   2   9   7    8.96    8.65
  -2 -10  -7   13.18    4.43
   2  10   7   15.45   11.89
  -2 -11  -7   12.47    4.52
   2  11   7   16.37   14.28
  -2 -12  -7   -0.74    3.63
   2  12   7   -9.80   17.20
  -2 -13  -7   12.87    4.80
   2  13   7    2.02   20.16
  -2 -14  -7   35.94    6.78
   2  14   7   47.85   23.82
  -1   8  -8    8.72    7.02
  -1   7  -8    6.28    5.74
  -1   6  -8   -1.20    4.33
  -1   5  -8   -3.71    3.72
  -1   4  -8   -1.67    3.63
  -1   4  -8   -3.45    3.48
  -1   3  -8   76.68    9.06
  -1   3  -8   66.91    7.04
  -1   2  -8   62.19    8.61
  -1   2  -8   69.72    6.13
   1  -2   8   60.28    5.28
  -1   1  -8   66.40    8.61
  -1   1  -8   64.20    5.65
   1  -1   8   60.95    5.03
  -1   0  -8   83.42    6.02
  -1   0  -8   82.04    5.21
  -1   0  -8   76.91    8.81
  -1  -1  -8  130.19   10.17
  -1  -1  -8  125.33    5.82
  -1  -1  -8  126.06    5.56
  -1  -2  -8  106.03    5.40
  -1  -2  -8  116.96    5.33
  -1  -2  -8  113.29    9.76
  -1  -3  -8   64.01    4.67
  -1  -3  -8   61.07    4.00
  -1  -3  -8   50.55    6.89
   1   3   8   56.95    7.84
  -1  -4  -8    5.40    2.06
  -1  -4  -8    4.38    2.86
  -1  -4  -8    4.76    4.20
   1   4   8    1.13    3.74
  -1  -5  -8    1.88    4.33
  -1  -5  -8    0.80    2.96
   1   5   8    4.58    4.35
  -1  -6  -8    3.92    3.07
   1   6   8    0.39    4.73
  -1  -7  -8   49.17    5.45
   1   7   8   41.33    8.35
  -1  -8  -8  116.96    7.19
   1   8   8  142.19   16.28
  -1  -9  -8   95.42    6.99
   1   9   8   93.28   13.54
  -1 -10  -8   27.68    5.20
   1  10   8   17.53   12.96
  -1 -11  -8   75.25    7.77
   1  11   8   90.27   20.75
  -1 -12  -8   24.92    5.63
   1  12   8   19.80   21.12
  -1 -13  -8   18.30    5.43
   1  13   8   10.82   21.49
  -1 -14  -8    6.02    5.23
   1  14   8   -1.86   25.87
   0   6  -9   31.72    7.63
   0   5  -9   10.99    5.58
   0   4  -9   52.33    7.71
   0   4  -9   41.62    8.77
   0   3  -9   10.71    4.93
   0   3  -9    8.50    5.73
   0   2  -9    0.65    4.46
   0   2  -9    3.09    4.33
   0   1  -9    3.97    4.45
   0   1  -9    0.85    4.15
   0   0  -9   29.11    6.50
   0   0  -9   33.06    5.20
   0  -1  -9   55.64    5.71
   0  -1  -9   52.93    8.12
   0  -1  -9   63.55    4.90
   0  -2  -9  227.15   14.23
   0  -2  -9  239.15    8.28
   0  -2  -9  240.51    7.83
   0  -3  -9   81.00   10.36
   0  -3  -9   89.43    5.55
   0  -3  -9   78.17    5.28
   0  -4  -9   85.55    5.56
   0  -4  -9   86.23   11.04
   0   4   9   87.19   11.10
   0  -5  -9   66.14    5.56
   0  -5  -9   61.93    9.45
   0   5   9   51.79    8.76
   0  -6  -9  102.63    6.97
   0  -6  -9  119.14   14.14
   0   6   9  103.59   13.41
   0  -7  -9   74.92    6.73
   0   7   9   63.65    9.73
   0  -8  -9   23.82    4.85
   0   8   9   19.80    8.01
   0  -9  -9    7.29    4.07
   0   9   9    8.78    8.90
   0 -10  -9    2.80    3.89
   0  10   9  -10.82   10.49
   0 -11  -9   15.79    4.91
   0  11   9    2.05   16.40
   0 -12  -9   21.31    5.59
   0  12   9   -4.53   20.68
   0 -13  -9   28.93    5.92
   0  13   9    8.64   24.73
   0 -14  -9   37.34    6.79
   0  14   9   12.56   27.05
   1   5 -10   13.58    6.85
   1   4 -10   32.03   10.76
   1   4 -10   21.54    6.94
   1   3 -10   46.59    8.28
   1   3 -10   57.63   12.43
   1   2 -10   40.18   10.04
   1   2 -10   43.46    7.66
   1   1 -10   84.81   12.53
   1   1 -10   80.02    8.30
   1   0 -10   27.48    5.93
   1   0 -10   33.99    8.85
   1  -1 -10   48.92    6.46
   1  -1 -10   32.86    9.33
   1  -2 -10   20.49    8.01
   1  -2 -10   13.54    4.38
   1  -3 -10    3.43    3.14
   1  -3 -10    4.82    5.96
   1  -4 -10    6.40    6.33
   1  -4 -10   19.35    4.06
   1  -5 -10   24.65    7.94
   1  -5 -10   35.03    4.72
  -1   5  10   42.23    8.77
   1  -6 -10   80.57    6.17
   1  -6 -10   63.44   10.53
  -1   6  10   64.16   10.33
   1  -7 -10  102.80    6.96
   1  -7 -10  106.89   14.63
  -1   7  10   98.65   13.52
   1  -8 -10   67.66    7.22
  -1   8  10   62.35   12.28
   1  -9 -10   90.08    8.12
  -1   9  10  104.93   15.63
   1 -10 -10   48.49    6.76
  -1  10  10   53.81   15.45
   1 -11 -10   24.99    5.84
  -1  11  10   37.04   17.92
   1 -12 -10   17.16    5.48
  -1  12  10   -4.87   18.53
   1 -13 -10    7.18    5.27
  -1  13  10  -28.71   22.66
   2   4 -11   -1.08    9.39
   2   3 -11    0.01   10.38
   2   3 -11    3.72    6.69
   2   2 -11   14.15   10.37
   2   2 -11   -2.88    5.52
   2   1 -11   26.58   11.57
   2   1 -11   21.49    6.75
   2   0 -11   57.86   12.84
   2  -1 -11   31.79   12.30
   2  -2 -11   68.65   14.59
   2  -3 -11   68.04   13.01
   2  -4 -11   32.98   10.64
   2  -5 -11    9.22    8.99
   2  -6 -11    8.13    4.21
   2  -6 -11    8.84    8.46
  -2   6  11   20.63    8.87
   2  -7 -11    9.13    4.44
   2  -7 -11   -7.68    7.85
  -2   7  11    0.52    7.68
   2  -8 -11   -5.94    8.78
   2  -8 -11    4.12    3.88
  -2   8  11    4.31    9.13
   2  -9 -11   11.17    4.81
  -2   9  11    5.23   11.29
   2 -10 -11   18.49    6.00
  -2  10  11    8.11   15.31
   2 -11 -11   30.33    6.61
  -2  11  11   11.49   16.76
   2 -12 -11   32.42    6.43
  -2  12  11    6.63   19.32
   3   1 -12   10.09   11.75
   3   0 -12   -1.03   11.90
   3  -1 -12   -0.50   10.63
   3  -2 -12    4.45   10.96
   3  -3 -12    1.77   10.61
   3  -4 -12   20.26   12.34
   3  -5 -12   44.20   13.86
   3  -6 -12   42.66   14.95
  -3   6  12   96.10   15.33
   3  -7 -12   48.58   15.49
   3  -8 -12   45.89    6.93
   3  -8 -12   38.95   14.52
  -3   8  12   42.86   15.12
   3  -9 -12   29.74   15.74
   3  -9 -12   26.87    6.06
  -3   9  12   20.50   15.34
   3 -10 -12    8.23    5.19
  -3  10  12   -4.61   16.06
   3 -11 -12    1.36    4.71
  -3  11  12  -10.67   24.50
 -12   7   2   29.57    7.82
 -12   6   2   23.96    7.94
 -12   5   2   20.80    8.13
 -12   4   2   27.76    8.51
 -12   3   2   26.31    8.98
 -12   2   2   12.79    9.11
 -12   1   2   10.92    9.31
 -12   0   2   -0.04    7.75
 -12  -1   2    4.97    9.47
  12   1  -2    2.66   10.48
  12   2  -2   17.19   11.28
 -11   8   1   19.02    6.25
  11  -8  -1   15.05    6.78
 -11   7   1   17.07    6.22
  11  -7  -1   12.88    6.31
 -11   6   1    2.27    5.25
  11  -6  -1   -7.73    4.90
 -11   5   1    1.17    6.41
 -11   4   1    4.33    6.26
 -11   3   1    9.55    7.13
 -11   2   1   27.39    8.41
 -11   1   1   28.55    9.13
 -11   0   1   61.72   10.25
  11   0  -1   67.05   11.82
 -11  -1   1   54.38   10.79
  11   1  -1   54.42   11.91
 -11  -2   1   24.43    8.63
  11   2  -1   54.14   12.54
 -11  -3   1   18.09    8.22
  11   3  -1   49.32   12.76
  11   4  -1   28.70   12.27
  11   5  -1   22.69   12.27
 -10   9   0   22.03    5.91
  10  -9   0   16.59    7.18
 -10   8   0   11.45    4.75
  10  -8   0   14.99    6.74
 -10   7   0   57.98    7.84
  10  -7   0   53.45    8.31
 -10   6   0   35.81    7.23
  10  -6   0   24.06    6.62
 -10   5   0   57.86    8.00
  10  -5   0   58.44    8.24
 -10   4   0   17.23    6.94
  10  -4   0   22.81    5.72
 -10   3   0    9.75    6.32
  10  -3   0    4.72    4.97
 -10   2   0   -1.11    6.04
 -10   1   0   14.47    6.68
 -10   0   0    5.76    6.71
  10   0   0   -1.16    3.81
 -10  -1   0   41.37    8.69
  10   1   0   38.07    8.28
 -10  -2   0   42.69    9.33
  10   2   0   45.39    9.98
 -10  -3   0   40.36    8.71
  10   3   0   73.14   12.74
  10   4   0   75.74   14.79
  10   5   0   54.73   13.28
  10   6   0   58.62   14.27
  10   7   0   43.27   15.11
  -9  10  -1   28.06    6.67
   9 -10   1    9.55    7.15
  -9   9  -1   18.45    5.51
   9  -9   1    9.64    7.36
  -9   8  -1    9.15    4.56
   9  -8   1    1.56    5.90
  -9   7  -1    8.35    4.77
   9  -7   1    3.67    5.75
  -9   6  -1    1.95    4.70
   9  -6   1   -0.21    5.67
  -9   5  -1   10.03    5.38
   9  -5   1   13.19    5.55
  -9   4  -1   42.04    7.25
   9  -4   1   33.20    6.28
  -9   3  -1   72.06    8.62
   9  -3   1   71.22    7.48
  -9   2  -1  119.11   10.53
   9  -2   1  136.75    8.17
  -9   1  -1   66.21    8.99
   9  -1   1   92.32   12.74
   9  -1   1   73.80    6.02
  -9   0  -1   87.39    9.67
   9   0   1   96.23    9.58
   9   0   1   86.70    6.86
  -9  -1  -1   13.24    6.70
   9   1   1   22.20    6.12
  -9  -2  -1    1.08    6.20
   9   2   1   -0.95    4.55
  -9  -3  -1   -5.53    5.62
   9   3   1    3.03    5.77
   9   4   1   12.56    8.19
   9   5   1    9.12    8.08
   9   6   1   54.54   13.05
   9   7   1  117.05   17.94
   9   8   1   50.52   14.63
   9   9   1   77.14   21.11
  -8  10  -2   26.96    6.07
   8 -10   2   20.65    7.52
  -8   9  -2   42.71    6.66
   8  -9   2   34.82    7.88
  -8   8  -2   37.90    5.96
   8  -8   2   35.52    7.39
  -8   7  -2   50.35    6.86
   8  -7   2   39.61    7.44
  -8   6  -2   29.90    5.52
   8  -6   2   44.94    7.04
  -8   5  -2   28.53    5.50
   8  -5   2   26.44    6.17
  -8   4  -2    1.12    4.81
   8  -4   2    1.76    4.63
  -8   3  -2   -2.31    4.67
   8  -3   2   -1.95    4.18
  -8   2  -2    0.07    4.85
   8  -2   2    1.15    3.83
  -8   1  -2   15.97    6.44
   8  -1   2   12.91    3.67
   8  -1   2   16.36    4.51
  -8   0  -2   66.63    8.25
   8   0   2   59.34    5.46
   8   0   2   57.82    7.43
  -8  -1  -2   78.67    8.86
   8   1   2   77.61    5.35
   8   1   2   84.96    8.66
  -8  -2  -2   79.93    8.98
   8   2   2   77.78    4.96
   8   2   2   76.40    9.61
  -8  -3  -2  131.38   10.88
   8   3   2  147.18   12.43
   8   4   2  104.32   12.46
   8   5   2   27.47    8.24
   8   6   2   45.23   11.34
   8   7   2    6.81    8.97
   8   8   2   15.58   11.82
   8   9   2   13.17   11.19
   8  10   2   22.07   14.44
  -7  11  -3   11.18    5.31
   7 -11   3   -0.18    7.12
  -7  10  -3    8.29    4.92
   7 -10   3    1.20    6.23
  -7   9  -3    0.66    3.66
   7  -9   3   -2.36    5.71
  -7   8  -3   -0.77    4.03
   7  -8   3    0.04    5.66
  -7   7  -3   41.71    6.45
   7  -7   3   35.39    7.01
  -7   6  -3   63.43    6.87
   7  -6   3   66.33    7.89
  -7   5  -3  173.81    9.07
   7  -5   3  140.94    8.80
  -7   4  -3   68.22    7.33
   7  -4   3   55.17    6.58
  -7   3  -3   65.90    6.84
   7  -3   3   62.23    6.52
  -7   2  -3   83.25    6.94
   7  -2   3  100.70    6.52
  -7   1  -3   35.86    5.77
   7  -1   3   45.30    4.50
   7  -1   3   46.04    5.25
  -7   0  -3    3.19    4.40
   7   0   3    2.95    2.92
   7   0   3    0.81    2.42
  -7  -1  -3   11.79    5.08
   7   1   3    5.61    3.24
   7   1   3    3.59    2.63
  -7  -2  -3    1.08    4.90
   7   2   3   -0.41    3.53
   7   2   3   -0.15    2.54
  -7  -3  -3   34.80    6.51
   7   3   3   35.33    6.12
   7   3   3   37.09    3.80
  -7  -4  -3   94.46    4.91
  -7  -4  -3   84.02    8.24
   7   4   3   92.87   11.82
  -7  -5  -3  108.04    5.05
   7   5   3  111.94   14.22
   7   6   3   83.90   12.10
   7   7   3   77.65   12.71
   7   8   3   78.52   13.97
   7   9   3   61.24   14.54
   7  10   3   23.37   12.92
   7  11   3   19.73   16.13
  -6  11  -4   21.46    6.19
   6 -11   4   34.28    8.84
  -6  10  -4   28.87    6.17
   6 -10   4   24.46    7.65
  -6   9  -4   24.72    5.46
   6  -9   4   15.30    6.90
  -6   8  -4   53.33    6.77
   6  -8   4   60.51    8.48
  -6   7  -4   18.99    4.81
   6  -7   4   26.79    6.42
  -6   6  -4    9.29    4.37
   6  -6   4    9.11    4.97
  -6   5  -4   -0.86    3.94
   6  -5   4   -2.52    4.41
  -6   4  -4    2.49    3.62
   6  -4   4    2.69    4.19
  -6   3  -4   14.48    4.64
   6  -3   4    8.49    3.97
  -6   2  -4  101.06    6.36
   6  -2   4   90.00    6.00
  -6   1  -4  138.26    6.88
   6  -1   4  121.24    6.10
  -6   0  -4  221.07    8.18
   6   0   4  221.85    7.12
   6   0   4  213.71    6.58
  -6  -1  -4   65.55    6.06
   6   1   4   60.35    4.37
   6   1   4   66.13    5.90
  -6  -2  -4  144.29    7.33
   6   2   4  158.23    8.99
   6   2   4  141.49    5.51
  -6  -3  -4    5.98    2.40
  -6  -3  -4    9.72    4.79
   6   3   4    7.86    4.11
  -6  -4  -4   40.67    6.08
  -6  -4  -4   35.92    3.69
   6   4   4   32.37    6.87
  -6  -5  -4   -3.40    4.32
  -6  -5  -4    4.05    2.65
   6   5   4    1.66    5.46
  -6  -6  -4    7.18    2.94
   6   6   4    3.04    6.40
  -6  -7  -4   22.95    3.83
   6   7   4   18.04    8.40
   6   8   4   74.93   12.37
   6   9   4   83.08   14.55
   6  10   4   93.86   17.06
   6  11   4  100.10   20.41
   6  12   4   79.69   20.03
  -5  10  -5   10.80    5.38
   5 -10   5    3.56    7.08
  -5   9  -5   15.88    5.42
   5  -9   5   22.14    7.51
  -5   8  -5   31.54    5.85
   5  -8   5   23.29    7.45
  -5   7  -5   47.72    6.57
   5  -7   5   45.24    7.25
  -5   6  -5   13.12    4.35
   5  -6   5    8.15    4.79
  -5   5  -5   85.68    7.80
   5  -5   5   79.58    7.45
  -5   4  -5   21.86    4.58
   5  -4   5   25.32    5.16
  -5   3  -5   55.28    5.77
   5  -3   5   47.35    5.56
  -5   2  -5   24.21    4.46
   5  -2   5   28.52    4.34
  -5   1  -5   -3.46    2.85
   5  -1   5    0.08    2.59
  -5   0  -5    3.40    2.82
   5   0   5    4.67    2.61
   5   0   5    4.04    2.16
  -5  -1  -5   33.06    4.25
   5   1   5   21.94    3.40
   5   1   5   22.96    3.69
  -5  -2  -5  156.16    6.41
  -5  -2  -5  164.26    5.75
   5   2   5  160.23    8.70
  -5  -3  -5   86.42    5.52
  -5  -3  -5   84.90    4.53
   5   3   5   83.52    8.57
  -5  -4  -5  129.75    6.40
  -5  -4  -5  120.42    5.50
   5   4   5  118.24   10.12
  -5  -5  -5  190.76    7.55
  -5  -5  -5  185.66    6.37
   5   5   5  185.94   13.20
  -5  -6  -5   72.66    4.85
  -5  -6  -5   80.15    6.63
   5   6   5   62.68    9.45
  -5  -7  -5   63.09    5.31
   5   7   5   78.73   12.05
  -5  -8  -5   24.17    3.99
   5   8   5   15.83    9.09
  -5  -9  -5   25.66    4.31
   5   9   5   17.01    9.57
  -5 -10  -5    2.73    3.59
   5  10   5   11.92   10.86
   5  11   5   18.84   13.66
   5  12   5   32.11   17.11
   5  13   5   21.55   18.80
  -4  10  -6   35.46    7.44
  -4   9  -6   -0.29    4.41
  -4   8  -6    3.48    4.25
   4  -8   6    5.68    5.66
  -4   7  -6    7.26    4.55
   4  -7   6    5.20    5.11
  -4   6  -6   17.74    4.75
   4  -6   6   10.19    5.01
  -4   5  -6   91.61    6.92
   4  -5   6   85.96    6.96
  -4   4  -6  121.81    7.18
   4  -4   6  124.80    7.96
  -4   3  -6  106.70    6.56
   4  -3   6  112.53    6.73
  -4   2  -6  175.37    7.33
   4  -2   6  180.15    7.32
  -4   1  -6   45.65    4.11
  -4   1  -6   48.72    4.77
   4  -1   6   58.88    5.10
   4  -1   6   53.76    4.33
  -4   0  -6  126.32    5.80
   4   0   6  115.88    5.65
   4   0   6  116.88    5.90
  -4  -1  -6   47.76    4.26
  -4  -1  -6   47.08    4.24
   4   1   6   42.39    5.23
  -4  -2  -6  189.14    6.30
  -4  -2  -6  185.76    5.81
   4   2   6  196.55    9.36
   4   3   6   34.56    5.66
  -4  -4  -6   46.30    4.42
  -4  -4  -6   39.14    3.48
   4   4   6   32.73    6.01
  -4  -5  -6   16.49    3.22
  -4  -5  -6   20.48    3.01
   4   5   6   21.29    6.60
  -4  -6  -6   57.59    5.29
  -4  -6  -6   49.30    4.36
   4   6   6   50.48    8.61
  -4  -7  -6   48.16    5.04
   4   7   6   46.65   10.11
  -4  -8  -6   59.23    5.72
   4   8   6   55.89   11.43
  -4  -9  -6   86.07    6.26
   4   9   6   96.66   14.39
  -4 -10  -6   67.34    6.55
   4  10   6   72.04   15.02
  -4 -11  -6   44.47    6.29
   4  11   6   47.68   16.19
  -4 -12  -6   14.01    4.52
   4  12   6   24.22   17.89
   4  13   6   25.83   18.97
  -3   9  -7   26.51    6.78
  -3   8  -7   33.82    6.88
  -3   7  -7   42.02    7.09
  -3   6  -7   16.34    4.97
   3  -6   7    8.17    4.77
  -3   5  -7   11.45    4.26
   3  -5   7   22.44    5.00
  -3   4  -7    8.00    4.32
   3  -4   7    9.62    3.90
  -3   3  -7    6.29    3.64
   3  -3   7    5.98    3.88
  -3   2  -7   14.22    3.48
  -3   2  -7   17.07    4.08
   3  -2   7   15.28    4.09
  -3   1  -7   90.66    5.95
  -3   1  -7  105.28    7.12
   3  -1   7   94.64    5.68
  -3   0  -7  165.46    8.06
  -3   0  -7  161.80    6.32
   3   0   7  175.82    6.68
  -3  -1  -7   66.50    6.13
  -3  -1  -7   56.49    4.36
  -3  -1  -7   69.22    4.19
   3   1   7   65.47    6.05
  -3  -2  -7   68.11    6.67
  -3  -2  -7   64.07    3.91
  -3  -2  -7   64.64    4.48
   3   2   7   64.13    6.57
  -3  -3  -7  264.06    6.01
  -3  -3  -7  266.65    7.61
   3   3   7  255.54   11.53
  -3  -4  -7   92.11    5.19
  -3  -4  -7   86.83    3.41
   3   4   7   89.79    8.77
  -3  -5  -7   23.52    2.17
  -3  -5  -7   22.38    3.84
   3   5   7   17.65    5.86
  -3  -6  -7   58.80    5.33
   3   6   7   35.54    7.77
  -3  -7  -7   10.48    3.58
   3   7   7    1.93    7.57
  -3  -8  -7   -0.12    3.10
   3   8   7   -1.91    8.40
  -3  -9  -7   47.34    5.78
   3   9   7   45.89   11.73
  -3 -10  -7   61.22    6.78
   3  10   7   47.24   13.38
  -3 -11  -7   28.76    5.32
   3  11   7   22.78   15.22
  -3 -12  -7   49.24    6.62
   3  12   7   47.02   21.80
  -3 -13  -7   48.09    6.81
   3  13   7   59.18   22.66
  -3 -14  -7   28.54    6.23
   3  14   7   49.35   27.28
  -2   8  -8    3.19    5.34
  -2   7  -8   23.29    6.39
  -2   6  -8   26.25    5.99
  -2   5  -8   37.13    6.31
  -2   4  -8   70.43    7.82
  -2   3  -8   63.53    6.74
   2  -3   8   65.06    6.01
  -2   2  -8   79.01    8.57
  -2   2  -8   87.34    6.50
   2  -2   8   87.86    6.10
  -2   1  -8   64.08    7.56
  -2   1  -8   64.15    5.56
   2  -1   8   60.91    5.09
  -2   0  -8    4.66    3.20
  -2   0  -8    5.77    3.59
  -2   0  -8    4.24    3.29
  -2  -1  -8   -0.27    2.57
  -2  -1  -8   -1.63    2.52
  -2  -1  -8   -0.43    3.03
  -2  -2  -8   -1.31    2.50
  -2  -2  -8   -0.55    2.90
  -2  -2  -8   -0.86    2.28
  -2  -3  -8   18.65    3.81
  -2  -3  -8   16.35    4.85
  -2  -3  -8   18.41    2.79
   2   3   8   12.56    4.60
  -2  -4  -8   97.95    5.66
  -2  -4  -8   97.27    3.84
  -2  -4  -8  102.19    9.58
   2   4   8   90.19    9.03
  -2  -5  -8   70.11    5.30
   2   5   8   73.09    9.55
  -2  -6  -8  179.16    7.52
   2   6   8  188.09   14.11
  -2  -7  -8   29.29    4.68
   2   7   8   29.84    8.31
  -2  -8  -8   89.73    6.55
   2   8   8   82.89   12.19
  -2  -9  -8  137.85    7.74
   2   9   8  122.43   15.45
  -2 -10  -8   -0.32    3.76
   2  10   8    1.42    9.91
  -2 -11  -8   30.35    5.71
   2  11   8   47.46   16.21
  -2 -12  -8    0.28    4.08
   2  12   8  -13.55   18.97
  -2 -13  -8    6.73    4.57
   2  13   8   -9.29   19.85
  -2 -14  -8   10.99    5.12
   2  14   8   14.91   23.03
  -1   7  -9   10.94    9.60
  -1   6  -9    1.44    4.96
  -1   5  -9   11.79    5.56
  -1   4  -9   15.62    5.41
  -1   3  -9   22.57    5.83
  -1   3  -9   21.91    5.31
  -1   2  -9   41.35    7.00
  -1   2  -9   59.00    7.13
  -1   1  -9   61.29    6.52
  -1   1  -9   69.68    9.40
   1  -1   9   73.18    5.60
  -1   0  -9   92.27    9.62
  -1   0  -9   87.80    6.68
  -1   0  -9  100.84    5.57
   1   0   9   92.75    5.81
  -1  -1  -9   77.64    5.98
  -1  -1  -9   90.03    5.76
  -1  -1  -9   90.88   10.43
  -1  -2  -9   81.12    5.41
  -1  -2  -9   84.51    5.73
  -1  -2  -9   84.85   10.25
  -1  -3  -9   41.59    7.41
  -1  -3  -9   41.14    4.94
  -1  -3  -9   48.35    4.57
  -1  -4  -9   27.31    6.51
  -1  -4  -9   34.39    4.58
   1   4   9   24.57    6.27
  -1  -5  -9    3.23    5.35
  -1  -5  -9    5.41    3.44
   1   5   9    6.58    5.22
  -1  -6  -9    9.31    3.66
   1   6   9    6.49    5.79
  -1  -7  -9    2.41    3.53
   1   7   9   -0.51    5.96
  -1  -8  -9    5.29    3.82
   1   8   9    1.79    6.99
  -1  -9  -9   80.57    6.79
   1   9   9   66.74   12.83
  -1 -10  -9   29.47    5.88
   1  10   9   29.53   13.83
  -1 -11  -9   56.20    7.22
   1  11   9   52.10   19.60
  -1 -12  -9   20.96    5.52
   1  12   9   24.43   21.86
  -1 -13  -9   18.42    5.36
   1  13   9   10.14   21.58
  -1 -14  -9   20.47    5.78
   1  14   9  -30.33   25.87
   0   5 -10   37.59    7.66
   0   4 -10   19.71    6.44
   0   3 -10   23.25    8.22
   0   3 -10   18.98    6.04
   0   2 -10    5.29    5.22
   0   2 -10    6.19    6.43
   0   1 -10   -1.22    4.30
   0   1 -10    1.24    4.83
   0   0 -10    6.23    4.00
   0   0 -10    3.67    5.12
   0  -1 -10   44.64    5.88
   0  -1 -10   38.07    8.01
   0  -2 -10  108.43    6.77
   0  -2 -10  107.05    6.23
   0  -2 -10  108.35   13.63
   0  -3 -10   70.54   10.02
   0  -3 -10   63.40    5.65
   0  -3 -10   72.08    5.80
   0  -4 -10   91.83    6.07
   0  -4 -10  112.14   14.50
   0  -5 -10   84.57   11.10
   0  -5 -10   93.13    6.20
   0   5  10   90.19   12.52
   0  -6 -10  124.33   14.69
   0  -6 -10  123.37    7.18
   0   6  10  129.52   13.87
   0  -7 -10   74.84    7.16
   0  -7 -10   64.14   10.76
   0   7  10   68.62   11.04
   0  -8 -10    9.03    4.14
   0   8  10   16.13    9.09
   0  -9 -10    0.86    3.73
   0   9  10   -0.23    8.73
   0 -10 -10    4.58    4.26
   0  10  10   -0.55   11.52
   0 -11 -10    4.70    4.32
   0  11  10  -15.10   14.06
   0 -12 -10   16.52    5.31
   0  12  10  -16.32   20.74
   0 -13 -10   12.08    5.22
   0  13  10  -14.80   23.78
   1   4 -11   30.34   12.91
   1   3 -11   28.61    7.39
   1   3 -11   48.90   13.25
   1   2 -11   40.56    7.54
   1   2 -11   41.59   12.04
   1   1 -11   37.76   10.64
   1   1 -11   26.10    6.84
   1   0 -11   66.91   12.77
   1   0 -11   51.57    7.69
   1  -1 -11   15.21    9.13
   1  -1 -11   21.66    5.83
   1  -2 -11   -0.21    4.35
   1  -2 -11   -2.93    7.21
   1  -3 -11   -2.67    7.07
   1  -4 -11    5.03    3.56
   1  -4 -11    3.55    7.59
   1  -5 -11   -0.97    8.21
   1  -5 -11    5.42    3.39
  -1   5  11   13.77    8.13
   1  -6 -11   16.13    8.93
   1  -6 -11   19.91    4.53
  -1   6  11   23.64    9.33
   1  -7 -11   80.89   14.38
   1  -7 -11   78.74    7.29
  -1   7  11   89.54   14.10
   1  -8 -11   37.94   11.42
   1  -8 -11   47.18    6.76
  -1   8  11   42.35   11.96
   1  -9 -11   31.97    5.96
  -1   9  11   29.82   12.64
   1 -10 -11   25.06    5.78
  -1  10  11   37.43   14.96
   1 -11 -11   22.52    5.74
  -1  11  11   22.85   19.39
   1 -12 -11    7.50    4.93
  -1  12  11   -5.88   18.26
  -1  13  11  -12.22   24.30
   2   2 -12    5.09   11.28
   2   1 -12    4.82   10.86
   2   0 -12   25.62   13.30
   2  -1 -12   49.19   15.02
   2  -2 -12   34.39   12.72
   2  -3 -12   80.67   15.49
   2  -4 -12   45.98   13.21
   2  -5 -12   24.48   13.22
   2  -6 -12   43.44   12.48
  -2   6  12   32.87   10.68
   2  -7 -12  -12.19    9.13
   2  -7 -12    2.49    4.21
  -2   7  12    6.52    9.80
   2  -8 -12    0.91   10.55
   2  -8 -12    1.02    4.34
  -2   8  12    0.97   10.19
   2  -9 -12    5.10   11.96
   2  -9 -12   16.95    5.38
  -2   9  12   21.58   14.47
   2 -10 -12   22.87    5.60
  -2  10  12   16.71   16.93
   2 -11 -12   38.79    7.04
  -2  11  12   23.78   19.99
   2 -12 -12   23.11    7.07
   3  -2 -13   -3.93   11.97
   3  -3 -13   10.96   12.77
   3  -4 -13   26.42   15.13
   3  -5 -13   30.46   14.77
  -3   6  13  146.41   18.27
   3  -7 -13   13.73   15.21
  -3   7  13   55.37   14.97
   3  -8 -13   55.56   17.20
  -3   8  13   84.47   16.87
   3  -9 -13   27.97   27.41
  -3   9  13   39.94   24.58
   3 -10 -13    2.06    5.49
 -12   7   1    6.22    5.57
  12  -7  -1    2.37    5.96
 -12   6   1   23.93    7.12
 -12   5   1   34.67    8.59
 -12   4   1   21.21    7.72
 -12   3   1   24.29    8.40
 -12   2   1   30.24    9.83
 -12   1   1   13.79    8.32
 -12   0   1   -0.67    8.51
 -12  -1   1    2.82    7.85
 -12  -2   1    3.27    9.04
  12   2  -1   10.39   10.05
  12   3  -1   24.21   11.77
  12   4  -1   34.55   16.55
 -11   8   0   10.76    5.51
  11  -8   0    7.95    7.42
 -11   7   0   14.45    5.43
  11  -7   0    9.79    6.26
 -11   6   0   -0.65    4.93
  11  -6   0   -1.64    5.55
 -11   5   0   14.01    6.65
  11  -5   0   -1.20    5.14
 -11   4   0    6.90    6.00
  11  -4   0    7.58    5.92
 -11   3   0   12.19    6.88
 -11   2   0   28.80    8.24
 -11   1   0   47.59    9.29
 -11   0   0   23.03    9.06
 -11  -1   0   34.85    9.43
  11   1   0   49.41    9.86
 -11  -2   0   44.84    9.57
  11   2   0   61.02   11.90
 -11  -3   0    8.91    7.53
  11   3   0   28.16   10.31
 -11  -4   0    1.69    7.39
  11   4   0   12.76    9.74
  11   5   0   29.09   12.70
  11   6   0   21.57   12.96
 -10   9  -1   11.92    5.54
  10  -9   1    6.83    6.80
 -10   8  -1   26.40    5.76
  10  -8   1   32.31    7.88
 -10   7  -1   24.81    6.19
  10  -7   1   19.19    7.27
 -10   6  -1   27.69    6.43
  10  -6   1   21.81    6.63
 -10   5  -1   64.93    8.19
  10  -5   1   65.98    8.26
 -10   4  -1   26.67    7.20
  10  -4   1   50.39    7.54
 -10   3  -1    9.19    5.88
  10  -3   1    4.53    5.19
 -10   2  -1   10.82    6.41
  10  -2   1    6.95    4.96
 -10   1  -1   -2.30    6.58
 -10   0  -1    5.40    6.62
 -10  -1  -1   10.02    7.62
  10   1   1    9.10    5.38
 -10  -2  -1   41.84    8.61
  10   2   1   39.09    8.29
 -10  -3  -1   23.85    7.94
  10   3   1   29.92    9.11
 -10  -4  -1   21.12    7.76
  10   4   1   53.53   11.59
  10   5   1   61.09   13.30
  10   6   1   37.31   12.37
  10   7   1   42.77   13.53
  10   8   1   32.27   16.60
  -9  10  -2   27.73    6.18
  -9   9  -2   18.98    5.62
   9  -9   2   11.34    7.05
  -9   8  -2    5.17    4.55
   9  -8   2   14.23    6.70
  -9   7  -2    6.33    4.26
   9  -7   2    0.62    5.78
  -9   6  -2    8.51    4.96
   9  -6   2   16.12    6.18
  -9   5  -2   40.53    6.46
   9  -5   2   44.13    6.98
  -9   4  -2   35.92    6.32
   9  -4   2   32.38    6.32
  -9   3  -2   53.13    7.84
   9  -3   2   49.32    6.49
  -9   2  -2   80.73    8.90
   9  -2   2   85.95    7.54
  -9   1  -2  110.16    9.57
   9  -1   2  128.66    7.21
  -9   0  -2   95.68    9.96
   9   0   2  100.07    6.73
   9   0   2   98.41    9.20
  -9  -1  -2   65.76    9.55
   9   1   2   45.09    6.94
   9   1   2   60.27    5.55
  -9  -2  -2    7.95    6.52
   9   2   2    9.62    4.95
  -9  -3  -2   -6.06    5.64
   9   3   2    4.17    5.19
  -9  -4  -2    7.25    6.17
   9   4   2   13.69    6.64
   9   5   2   49.65   11.58
   9   6   2   24.20   10.92
   9   7   2   29.30   12.72
   9   8   2   59.28   14.66
   9   9   2   37.68   13.99
  -8  10  -3   38.55    7.02
   8 -10   3   22.53    8.01
  -8   9  -3   17.08    5.46
   8  -9   3   14.13    6.96
  -8   8  -3   26.07    5.89
   8  -8   3   22.52    7.14
  -8   7  -3   60.58    7.58
   8  -7   3   71.50    8.79
  -8   6  -3   78.83    8.04
   8  -6   3   77.46    8.52
  -8   5  -3   29.19    5.55
   8  -5   3   28.47    5.86
  -8   4  -3   11.57    4.80
   8  -4   3   15.10    5.36
  -8   3  -3    5.15    4.69
   8  -3   3    2.83    4.40
  -8   2  -3   15.89    5.56
   8  -2   3   10.90    4.52
  -8   1  -3   13.19    5.54
   8  -1   3   25.13    4.71
  -8   0  -3   32.47    6.67
   8   0   3   35.28    4.80
   8   0   3   45.16    5.35
  -8  -1  -3   77.92    8.55
   8   1   3   64.88    5.09
   8   1   3   55.11    7.56
  -8  -2  -3   56.43    7.77
   8   2   3   66.28    4.76
  -8  -3  -3   51.18    8.01
   8   3   3   38.86    7.06
   8   3   3   52.50    4.74
  -8  -4  -3  152.16   11.27
   8   4   3  172.61   14.64
  -8  -5  -3   62.44    8.25
   8   5   3   67.39   10.16
   8   6   3   20.69    9.12
   8   7   3   16.38    9.53
   8   8   3   21.58   10.93
   8   9   3   10.44   11.42
   8  10   3   26.40   13.76
  -7  10  -4    8.06    5.03
   7 -10   4   -4.03    6.10
  -7   9  -4   -2.75    4.04
   7  -9   4    9.43    6.55
  -7   8  -4    0.82    4.27
   7  -8   4    1.56    5.80
  -7   7  -4    6.91    4.20
   7  -7   4    9.02    5.92
  -7   6  -4   62.97    7.32
   7  -6   4   56.69    7.33
  -7   5  -4   85.60    7.52
   7  -5   4   89.81    8.24
  -7   4  -4   51.73    6.42
   7  -4   4   56.37    6.69
  -7   3  -4   63.76    7.08
   7  -3   4   75.04    7.01
  -7   2  -4   36.26    6.01
   7  -2   4   41.71    5.54
  -7   1  -4  113.76    7.37
   7  -1   4  112.76    6.96
  -7   0  -4   59.25    6.85
   7   0   4   51.15    5.07
   7   0   4   46.40    4.83
  -7  -1  -4   21.78    5.42
   7   1   4   19.43    3.83
   7   1   4   27.28    4.11
  -7  -2  -4   -1.90    4.91
   7   2   4   -0.37    2.79
   7   2   4    0.80    3.41
  -7  -3  -4   92.11    8.59
   7   3   4   69.49    9.26
   7   3   4   66.74    4.51
  -7  -4  -4   20.74    3.32
  -7  -4  -4   16.34    5.72
   7   4   4   12.12    6.00
  -7  -5  -4   83.86    8.69
  -7  -5  -4   65.62    4.84
   7   5   4   68.79    9.74
  -7  -6  -4   69.13    4.99
  -7  -6  -4   87.80    8.61
   7   6   4   76.35   11.75
   7   7   4   82.31   13.41
   7   8   4   86.84   15.02
   7   9   4   80.73   16.83
   7  10   4   44.85   14.53
   7  11   4   27.01   13.89
  -6  10  -5   35.03    6.79
   6 -10   5   52.04    9.06
  -6   9  -5   26.56    6.39
   6  -9   5   23.41    7.17
  -6   8  -5   18.81    5.25
   6  -8   5   18.62    6.72
  -6   7  -5   36.14    6.43
   6  -7   5   21.30    6.49
  -6   6  -5    9.05    4.56
   6  -6   5    8.63    4.92
  -6   5  -5   -0.60    3.37
   6  -5   5    5.44    4.65
  -6   4  -5   22.70    4.98
   6  -4   5   23.96    5.30
  -6   3  -5   24.57    4.85
   6  -3   5   27.97    5.16
  -6   2  -5    8.58    4.24
   6  -2   5    7.35    3.70
  -6   1  -5  101.24    6.30
   6  -1   5   96.86    6.01
  -6   0  -5  261.66    8.57
   6   0   5  251.29    7.97
   6   0   5  250.95    6.72
  -6  -1  -5   67.30    6.05
   6   1   5   59.82    6.11
   6   1   5   61.31    4.69
  -6  -2  -5  162.74    7.59
  -6  -2  -5  149.41    5.98
   6   2   5  151.88    9.34
  -6  -3  -5   30.88    4.74
  -6  -3  -5   28.32    3.69
   6   3   5   25.70    5.63
  -6  -4  -5   38.67    4.28
  -6  -4  -5   39.34    5.38
   6   4   5   37.69    7.13
  -6  -5  -5   12.95    3.41
  -6  -5  -5   17.60    5.24
   6   5   5   14.42    6.43
  -6  -6  -5    0.94    4.72
  -6  -6  -5    3.71    2.77
   6   6   5   -0.40    6.31
  -6  -7  -5   -3.03    2.88
  -6  -7  -5    1.43    4.61
   6   7   5   -0.67    7.12
  -6  -8  -5   25.84    4.35
   6   8   5   22.48    9.40
   6   9   5   21.40   10.71
   6  10   5   32.99   13.67
   6  11   5   51.45   17.26
   6  12   5   51.75   17.63
  -5  10  -6    9.65    5.99
  -5   9  -6   16.88    5.61
   5  -9   6   12.97    7.40
  -5   8  -6   49.02    7.47
   5  -8   6   33.69    7.46
  -5   7  -6   60.10    7.89
   5  -7   6   49.70    7.29
  -5   6  -6   82.79    8.14
   5  -6   6   72.45    7.59
  -5   5  -6   97.57    7.58
   5  -5   6   91.72    7.50
  -5   4  -6  140.49    7.81
   5  -4   6  138.68    8.04
  -5   3  -6   69.58    6.76
   5  -3   6   61.36    6.26
  -5   2  -6   15.75    4.02
   5  -2   6   19.73    4.38
  -5   1  -6   -2.98    2.73
   5  -1   6    2.09    3.03
  -5   0  -6   -0.67    2.94
   5   0   6    0.37    2.74
   5   0   6    1.97    2.50
  -5  -1  -6    3.31    2.63
  -5  -1  -6   -0.15    2.55
   5   1   6    3.40    3.11
   5   1   6    1.31    2.54
  -5  -2  -6   65.36    4.59
  -5  -2  -6   78.30    4.97
   5   2   6   72.96    7.68
  -5  -3  -6  109.90    5.44
  -5  -3  -6  104.27    5.23
   5   3   6  115.14    9.56
  -5  -4  -6  175.16    6.50
  -5  -4  -6  168.00    6.40
   5   4   6  167.95   11.44
  -5  -5  -6  176.34    7.04
  -5  -5  -6  183.18    7.03
   5   5   6  187.98   14.54
  -5  -6  -6   79.26    5.43
  -5  -6  -6   69.70    5.87
   5   6   6   69.68   10.07
  -5  -7  -6   60.49    5.68
   5   7   6   67.28   11.99
  -5  -8  -6   13.33    3.73
   5   8   6    8.99    9.30
  -5  -9  -6    4.04    3.61
   5   9   6   -0.89    9.31
  -5 -10  -6    3.02    3.80
   5  10   6    0.56   12.55
  -5 -11  -6   -0.89    3.83
   5  11   6    2.56   12.73
   5  12   6   27.96   16.87
   5  13   6   45.25   19.77
  -4   9  -7   16.48    5.84
  -4   8  -7    1.44    4.39
  -4   7  -7    2.63    4.56
   4  -7   7   -7.25    4.21
  -4   6  -7   -1.28    4.08
   4  -6   7    2.60    4.39
  -4   5  -7    0.42    3.81
   4  -5   7    1.82    4.18
  -4   4  -7   47.56    6.03
   4  -4   7   33.28    5.41
  -4   3  -7  164.92    8.02
   4  -3   7  149.19    7.64
  -4   2  -7  109.29    6.52
   4  -2   7  100.05    6.49
  -4   1  -7   70.50    5.80
   4  -1   7   76.52    5.69
  -4   0  -7  115.79    6.11
  -4   0  -7  115.00    7.05
   4   0   7  125.23    6.99
   4   0   7  111.51    6.09
  -4  -1  -7  112.01    5.25
  -4  -1  -7  110.17    5.62
   4   1   7  115.38    7.21
  -4  -2  -7   45.30    4.13
  -4  -2  -7   43.59    4.46
   4   2   7   36.23    5.05
  -4  -3  -7   27.92    3.83
  -4  -3  -7   25.03    3.13
   4   3   7   20.44    4.98
  -4  -4  -7    6.82    2.89
  -4  -4  -7    6.49    2.37
   4   4   7    6.33    4.93
  -4  -5  -7   20.77    3.72
  -4  -5  -7   15.96    2.57
   4   5   7   11.46    6.22
  -4  -6  -7    8.85    3.34
   4   6   7    5.36    7.18
  -4  -7  -7   65.33    5.85
   4   7   7   52.28   10.21
  -4  -8  -7   60.14    6.01
   4   8   7   52.55   11.41
  -4  -9  -7   90.54    6.69
   4   9   7   79.85   14.18
  -4 -10  -7  117.84    7.89
   4  10   7  120.50   18.05
  -4 -11  -7   31.39    5.34
   4  11   7   65.39   17.51
  -4 -12  -7    6.36    4.42
   4  12   7   16.59   17.47
  -4 -13  -7   13.72    4.92
   4  13   7   -0.88   19.41
  -3   8  -8   44.93    8.37
  -3   7  -8   29.20    6.56
  -3   6  -8   30.98    6.39
  -3   5  -8    2.61    4.54
   3  -5   8    3.09    3.98
  -3   4  -8    1.60    4.08
   3  -4   8   14.35    4.54
  -3   3  -8    5.79    3.81
   3  -3   8   15.48    4.44
  -3   2  -8    0.20    3.26
   3  -2   8   -0.55    3.24
  -3   1  -8   12.89    3.81
  -3   1  -8    7.67    3.65
   3  -1   8   13.51    3.90
  -3   0  -8   68.03    7.33
  -3   0  -8   65.41    5.51
   3   0   8   71.50    6.19
  -3  -1  -8   91.81    5.44
  -3  -1  -8   94.64    5.60
  -3  -1  -8   94.53    8.00
   3   1   8   90.53    7.80
  -3  -2  -8   83.90    8.23
  -3  -2  -8   75.90    5.58
  -3  -2  -8   77.50    4.65
   3   2   8   80.04    7.80
  -3  -3  -8   89.42    5.56
  -3  -3  -8   79.44    4.33
  -3  -3  -8   85.71    8.91
   3   3   8   70.87    8.25
  -3  -4  -8  186.56    7.16
  -3  -4  -8  173.69    4.98
   3   4   8  188.88   11.58
  -3  -5  -8   -0.80    2.84
   3   5   8    3.62    5.05
  -3  -6  -8   15.32    3.84
   3   6   8   13.83    6.85
  -3  -7  -8    5.53    3.60
   3   7   8   11.20    7.67
  -3  -8  -8    0.07    3.36
   3   8   8    0.04    8.15
  -3  -9  -8    9.87    4.27
   3   9   8    1.61    9.11
  -3 -10  -8   77.86    7.31
   3  10   8   64.91   14.79
  -3 -11  -8   15.47    5.13
   3  11   8   10.98   14.45
  -3 -12  -8   23.57    5.95
   3  12   8   18.71   18.46
  -3 -13  -8   38.91    6.50
   3  13   8   44.51   22.24
  -3 -14  -8   28.79    6.58
   3  14   8   39.07   31.61
  -2   7  -9   11.10    5.95
  -2   6  -9   31.54    7.29
  -2   5  -9   49.71    7.50
  -2   4  -9   76.73    8.52
  -2   3  -9  100.83    8.05
  -2   2  -9   76.84   11.71
  -2   2  -9   79.63    7.00
   2  -2   9   86.81    6.33
  -2   1  -9   49.86    7.00
  -2   1  -9   64.84    6.44
   2  -1   9   68.14    6.17
  -2   0  -9    4.04    4.14
  -2   0  -9    4.47    3.40
   2   0   9    3.80    3.19
  -2  -1  -9   14.83    3.85
  -2  -1  -9   13.78    3.82
  -2  -1  -9   10.75    4.64
  -2  -2  -9   31.05    4.62
  -2  -2  -9   35.06    4.40
  -2  -2  -9   24.57    5.90
  -2  -3  -9   -1.84    3.92
  -2  -3  -9    0.01    2.41
  -2  -3  -9   -1.68    2.90
   2   3   9    0.10    3.85
  -2  -4  -9   70.35    5.53
  -2  -4  -9   55.22    7.82
  -2  -4  -9   60.48    4.71
   2   4   9   56.97    7.95
  -2  -5  -9   98.62    6.14
   2   5   9   81.80   10.79
  -2  -6  -9   80.39    6.12
   2   6   9   93.43   12.80
  -2  -7  -9  118.25    7.18
   2   7   9  124.10   15.28
  -2  -8  -9   16.44    4.40
   2   8   9   16.93    8.89
  -2  -9  -9   48.61    6.18
   2   9   9   48.09   12.85
  -2 -10  -9   -0.52    3.73
   2  10   9   -1.83   12.41
  -2 -11  -9    2.34    4.10
   2  11   9   -0.67   14.18
  -2 -12  -9    6.91    4.30
   2  12   9  -15.48   16.15
  -2 -13  -9    5.26    4.68
   2  13   9  -12.99   20.28
  -2 -14  -9    6.66    5.12
   2  14   9   -3.28   26.57
  -1   5 -10   -1.30    5.50
  -1   4 -10    4.35    5.33
  -1   3 -10   17.52    5.41
  -1   2 -10   42.17    8.03
  -1   2 -10   53.15    7.06
  -1   1 -10   52.29    8.57
  -1   1 -10   49.64    6.70
  -1   0 -10   92.27   11.63
  -1   0 -10   80.54    6.85
   1   0  10   89.35    6.00
  -1  -1 -10   88.82    6.66
  -1  -1 -10   87.36    6.07
  -1  -1 -10   97.38   11.00
  -1  -2 -10  113.99    6.52
  -1  -2 -10  123.88   12.80
  -1  -2 -10  109.58    6.52
  -1  -3 -10   52.26    5.43
  -1  -3 -10   47.92    5.10
  -1  -3 -10   45.15    8.14
  -1  -4 -10   54.95    9.25
  -1  -4 -10   58.30    5.69
   1   4  10   44.71    8.75
  -1  -5 -10   43.05    5.25
  -1  -5 -10   44.07    8.70
   1   5  10   28.58    7.55
  -1  -6 -10   17.80    7.52
  -1  -6 -10   18.82    4.39
   1   6  10   16.75    7.27
  -1  -7 -10    5.95    3.70
   1   7  10    2.88    6.80
  -1  -8 -10   25.62    5.05
   1   8  10   33.22   10.09
  -1  -9 -10   16.05    4.61
   1   9  10    8.39   10.10
  -1 -10 -10   47.10    6.48
   1  10  10   54.71   15.24
  -1 -11 -10   43.82    6.49
   1  11  10   43.76   17.52
  -1 -12 -10   47.09    6.97
   1  12  10   62.29   21.86
  -1 -13 -10   18.75    5.83
   1  13  10   17.48   22.25
   0   4 -11   28.90    7.61
   0   3 -11   18.31    6.20
   0   2 -11   10.15    5.79
   0   2 -11   17.30    8.65
   0   1 -11    9.50    7.69
   0   1 -11    2.55    4.96
   0   0 -11    0.74    4.39
   0   0 -11    1.35    6.16
   0  -1 -11   13.20    4.95
   0  -1 -11   12.23    7.55
   0  -2 -11   51.97    6.13
   0  -2 -11   45.17    9.99
   0  -3 -11   38.84    9.36
   0  -3 -11   32.10    4.93
   0  -4 -11   18.25    8.74
   0  -4 -11   16.37    3.93
   0  -5 -11   56.63   11.09
   0  -5 -11   51.21    5.84
   0   5  11   65.68   11.51
   0  -6 -11   47.48   11.92
   0  -6 -11   30.28    4.91
   0   6  11   49.47   11.17
   0  -7 -11   48.93   11.36
   0  -7 -11   67.10    7.12
   0   7  11   54.63   11.59
   0  -8 -11   12.36    4.55
   0   8  11    3.60    8.95
   0  -9 -11    5.26    4.29
   0   9  11    2.10   11.68
   0 -10 -11    2.73    4.41
   0  10  11  -22.44   11.00
   0 -11 -11    1.09    4.30
   0  11  11  -17.33   14.62
   0 -12 -11    5.14    4.60
   0  12  11   -1.08   18.44
   0 -13 -11   14.69    5.81
   0  13  11  -14.79   21.08
   1   2 -12   26.45    7.97
   1   2 -12   53.65   14.14
   1   1 -12   32.96   11.31
   1   1 -12   24.23    6.75
   1   0 -12   29.32    7.08
   1   0 -12   51.64   13.50
   1  -1 -12   59.00   13.46
   1  -1 -12   36.51    6.73
   1  -2 -12   17.99   11.32
   1  -3 -12   -6.19    9.51
   1  -4 -12   -2.26    9.12
   1  -5 -12    0.32    9.15
  -1   5  12   29.08    9.79
   1  -6 -12    6.20   11.18
   1  -6 -12    6.92    4.34
  -1   6  12   27.51   10.42
   1  -7 -12   29.84   12.54
   1  -7 -12   26.22    5.65
  -1   7  12   31.67   11.77
   1  -8 -12   63.10   15.00
   1  -8 -12   48.11    6.48
  -1   8  12   58.38   14.37
   1  -9 -12   25.08    5.68
  -1   9  12   29.41   13.68
   1 -10 -12   21.88    6.15
  -1  10  12   15.23   14.57
   1 -11 -12   28.72    6.28
  -1  11  12   25.55   17.72
   1 -12 -12   12.95    6.13
  -1  12  12  -14.13   19.07
   2   0 -13    3.21   11.86
   2  -1 -13   27.44   14.87
   2  -2 -13   56.53   16.54
   2  -3 -13   53.35   15.14
   2  -4 -13   43.86   16.01
   2  -5 -13   26.42   14.94
   2  -6 -13   23.46   13.14
  -2   6  13   70.41   13.96
   2  -7 -13    2.06   11.90
  -2   7  13   24.12   12.07
   2  -8 -13    3.94    4.17
   2  -8 -13   -4.79   11.53
  -2   8  13    4.96   11.90
   2  -9 -13  -18.20   13.65
   2  -9 -13    2.99    4.99
  -2   9  13    2.21   14.78
   2 -10 -13   10.14    5.36
  -2  10  13    4.94   15.88
   2 -11 -13   20.87    5.85
 -12   7   0   18.81    6.47
  12  -7   0    4.33    6.29
 -12   6   0   30.82    7.79
  12  -6   0   15.25    7.48
 -12   5   0   32.02    7.61
 -12   4   0   61.12   10.04
 -12   3   0   53.27    9.96
 -12   2   0   31.04    8.81
 -12   1   0   15.71    8.80
 -12   0   0    6.31    8.46
 -12  -1   0   -2.85    7.58
 -12  -2   0    5.10    8.07
 -12  -3   0    2.67    7.94
  12   3   0   32.53   11.85
  12   4   0   43.58   12.56
  12   5   0   47.63   22.33
 -11   9  -1   23.96    6.14
 -11   8  -1   19.04    5.79
  11  -8   1    9.74    7.18
 -11   7  -1   21.34    5.80
  11  -7   1   16.85    7.04
 -11   6  -1    9.10    5.42
  11  -6   1    1.31    5.87
 -11   5  -1    3.08    5.20
  11  -5   1   -8.58    4.89
 -11   4  -1    9.11    6.08
  11  -4   1   -0.97    5.23
 -11   3  -1   21.54    7.67
  11  -3   1    9.47    5.95
 -11   2  -1    7.17    6.81
 -11   1  -1   48.59    9.08
 -11   0  -1   48.41    9.84
 -11  -1  -1   37.95    8.83
 -11  -2  -1   50.60   10.29
  11   2   1   68.62   11.10
 -11  -3  -1   74.63   11.58
  11   3   1   93.96   13.70
 -11  -4  -1   -5.78    7.04
  11   4   1   35.67   11.13
 -11  -5  -1   12.66    8.68
  11   5   1   14.69    9.77
 -11  -6  -1   -5.77    7.08
  11   6   1   15.48   10.99
  11   7   1    8.85   19.51
 -10   9  -2    3.96    4.35
  10  -9   2    1.48    6.77
 -10   8  -2   14.61    5.13
  10  -8   2    7.95    6.86
 -10   7  -2   27.72    6.04
  10  -7   2   28.36    7.31
 -10   6  -2   37.49    6.69
  10  -6   2   37.10    8.00
 -10   5  -2   69.95    8.18
  10  -5   2   65.11    8.28
 -10   4  -2   89.14    9.56
  10  -4   2   92.80    8.89
 -10   3  -2   36.49    7.74
  10  -3   2   33.00    6.10
 -10   2  -2   17.81    7.14
  10  -2   2   16.43    5.16
 -10   1  -2    2.37    5.76
  10  -1   2    4.07    4.42
 -10   0  -2    0.43    5.77
 -10  -1  -2    2.31    6.23
 -10  -2  -2   15.20    7.23
  10   2   2   16.05    6.09
 -10  -3  -2   39.04    8.55
  10   3   2   43.27    8.91
 -10  -4  -2   14.57    7.98
  10   4   2   10.86    7.40
 -10  -5  -2   50.12    9.11
  10   5   2   64.44   12.86
  10   6   2   56.24   13.43
  10   7   2   26.78   12.30
  10   8   2   43.53   14.41
  -9  10  -3   48.81    7.72
  -9   9  -3   19.81    5.42
   9  -9   3   22.70    7.65
  -9   8  -3    8.68    4.93
   9  -8   3    5.02    6.18
  -9   7  -3    9.00    4.93
   9  -7   3   -1.05    5.93
  -9   6  -3   -1.57    4.42
   9  -6   3   -0.59    5.35
  -9   5  -3   11.00    5.11
   9  -5   3    4.34    5.30
  -9   4  -3   48.41    6.93
   9  -4   3   44.65    7.10
  -9   3  -3   61.81    7.87
   9  -3   3   66.35    7.61
  -9   2  -3   59.40    7.74
   9  -2   3   60.75    7.07
  -9   1  -3   64.35    8.09
   9  -1   3   80.89    7.01
  -9   0  -3  125.71   10.52
   9   0   3  122.52    6.94
  -9  -1  -3   80.00    9.21
   9   1   3   85.62    6.27
   9   1   3   81.42    8.86
  -9  -2  -3   18.50    7.73
   9   2   3   13.97    5.20
   9   2   3   20.23    4.01
  -9  -3  -3   -0.25    6.47
   9   3   3    1.79    4.97
  -9  -4  -3   12.44    6.47
   9   4   3   15.42    6.73
  -9  -5  -3   -3.07    6.06
   9   5   3    6.17    7.41
  -9  -6  -3   38.09    7.86
   9   6   3   66.44   12.69
   9   7   3   59.79   13.80
   9   8   3   58.14   15.40
   9   9   3   52.93   15.71
   9  10   3   61.84   20.18
  -8  10  -4   17.75    5.60
  -8   9  -4   27.98    5.99
   8  -9   4   23.60    7.63
  -8   8  -4   24.00    5.99
   8  -8   4   24.09    7.27
  -8   7  -4   21.89    5.24
   8  -7   4   29.18    7.09
  -8   6  -4   49.76    7.14
   8  -6   4   46.54    7.36
  -8   5  -4   45.20    6.63
   8  -5   4   41.17    6.78
  -8   4  -4    4.56    4.80
   8  -4   4    2.75    4.57
  -8   3  -4    5.17    4.57
   8  -3   4    5.92    4.52
  -8   2  -4    2.95    4.95
   8  -2   4    4.42    4.21
  -8   1  -4   23.70    5.76
   8  -1   4   21.21    4.64
  -8   0  -4   32.93    6.22
   8   0   4   39.17    5.07
  -8  -1  -4  129.72    8.93
   8   1   4  137.29    8.72
   8   1   4  135.57    6.63
  -8  -2  -4   81.36    8.54
   8   2   4   74.84    5.22
   8   2   4   79.78    8.95
  -8  -3  -4  120.06    9.42
   8   3   4  129.45   10.94
   8   3   4  114.20    5.78
  -8  -4  -4   76.53    9.11
   8   4   4   56.42    8.59
   8   4   4   69.94    5.01
  -8  -5  -4  110.09    5.87
  -8  -5  -4  123.09    9.49
   8   5   4  115.56   13.57
  -8  -6  -4   42.21    7.35
   8   6   4   50.65   10.28
  -8  -7  -4    3.22    5.29
   8   7   4    8.15    9.28
   8   8   4   13.07   10.63
   8   9   4   15.27   12.81
   8  10   4   26.49   14.75
   8  11   4   60.73   16.87
  -7  10  -5    8.68    5.74
   7 -10   5   -2.86    7.38
  -7   9  -5    6.28    4.61
   7  -9   5   -1.73    6.12
  -7   8  -5    3.04    4.67
   7  -8   5    3.35    5.92
  -7   7  -5    4.04    4.15
   7  -7   5    6.07    5.82
  -7   6  -5   57.94    7.10
   7  -6   5   66.59    8.03
  -7   5  -5   74.27    7.45
   7  -5   5   66.59    7.64
  -7   4  -5   50.24    6.38
   7  -4   5   59.15    7.06
  -7   3  -5   34.13    5.61
   7  -3   5   43.84    5.98
  -7   2  -5   86.83    7.34
   7  -2   5   83.42    6.70
  -7   1  -5   31.93    5.36
   7  -1   5   34.20    5.08
  -7   0  -5   34.71    5.50
   7   0   5   32.67    4.80
  -7  -1  -5    3.44    4.20
   7   1   5    6.03    3.13
   7   1   5    5.78    3.35
  -7  -2  -5   21.19    5.57
   7   2   5   15.56    4.52
   7   2   5   13.45    3.52
  -7  -3  -5   25.24    5.98
  -7  -3  -5   23.47    3.83
   7   3   5   18.08    5.58
  -7  -4  -5   54.22    6.75
  -7  -4  -5   52.05    4.83
   7   4   5   43.84    7.83
  -7  -5  -5   13.79    3.32
  -7  -5  -5   19.71    5.91
   7   5   5   13.12    6.58
  -7  -6  -5   62.60    8.00
  -7  -6  -5   56.93    5.38
   7   6   5   55.24    9.92
  -7  -7  -5   42.19    6.94
  -7  -7  -5   32.69    4.43
   7   7   5   42.08   10.45
   7   8   5  107.64   15.47
   7   9   5   32.42   13.75
   7  10   5   34.74   14.23
   7  11   5   53.51   16.96
   7  12   5   27.48   18.99
   6 -10   6    6.92    7.20
  -6   9  -6   31.48    7.03
   6  -9   6   39.67    8.42
  -6   8  -6   37.33    7.09
   6  -8   6   27.05    7.41
  -6   7  -6   26.13    6.17
   6  -7   6   16.41    5.95
  -6   6  -6   13.38    4.85
   6  -6   6   11.75    5.33
  -6   5  -6    3.93    3.84
   6  -5   6    1.66    4.41
  -6   4  -6    2.95    3.74
   6  -4   6    2.69    4.83
  -6   3  -6    6.63    3.95
   6  -3   6    4.74    4.37
  -6   2  -6   17.01    4.49
   6  -2   6   12.48    4.29
  -6   1  -6   77.08    6.88
   6  -1   6   72.85    6.27
  -6   0  -6  124.45    6.63
   6   0   6  133.33    6.79
  -6  -1  -6  172.11    7.54
   6   1   6  175.68    7.16
   6   1   6  169.51    8.33
  -6  -2  -6   59.62    5.75
  -6  -2  -6   59.79    4.94
   6   2   6   71.55    8.01
  -6  -3  -6   88.43    6.23
  -6  -3  -6   95.69    5.46
   6   3   6  100.28    9.77
  -6  -4  -6   58.50    5.09
  -6  -4  -6   66.89    6.19
   6   4   6   45.84    7.68
  -6  -5  -6   20.30    4.84
  -6  -5  -6   25.17    4.07
   6   5   6   25.34    7.03
  -6  -6  -6    8.28    4.75
  -6  -6  -6    9.52    3.46
   6   6   6    5.88    7.22
  -6  -7  -6    2.10    3.02
   6   7   6    1.35    8.81
  -6  -8  -6   23.94    4.52
   6   8   6   21.40   10.74
  -6  -9  -6   38.31    5.03
   6   9   6   42.49   12.61
  -6 -10  -6   32.95    5.36
   6  10   6   56.02   14.97
   6  11   6   33.70   14.97
   6  12   6   56.47   18.42
  -5   9  -7   13.99    5.77
  -5   8  -7   28.81    6.36
   5  -8   7   19.39    6.78
  -5   7  -7   23.47    5.79
   5  -7   7   43.91    7.06
  -5   6  -7   81.34    8.41
   5  -6   7   60.03    7.42
  -5   5  -7   34.20    5.79
   5  -5   7   34.33    6.00
  -5   4  -7   73.63    7.56
   5  -4   7   66.74    6.93
  -5   3  -7    9.57    4.42
   5  -3   7   16.76    4.74
  -5   2  -7   14.61    4.17
   5  -2   7   11.94    4.30
  -5   1  -7    2.09    3.24
   5  -1   7    0.43    3.42
  -5   0  -7    0.69    2.95
   5   0   7    1.80    3.22
   5   0   7    1.04    2.71
  -5  -1  -7   14.07    3.71
  -5  -1  -7   19.19    3.82
   5   1   7   22.97    4.03
   5   1   7   15.89    4.06
  -5  -2  -7   43.17    4.59
  -5  -2  -7   40.52    4.21
   5   2   7   43.46    5.89
  -5  -3  -7   16.99    3.60
  -5  -3  -7   18.42    3.50
   5   3   7   17.09    5.13
  -5  -4  -7   59.54    4.99
  -5  -4  -7   67.21    4.60
   5   4   7   56.72    7.79
  -5  -5  -7  119.73    6.65
  -5  -5  -7  107.31    5.46
   5   5   7  112.35   13.36
  -5  -6  -7   91.46    5.94
   5   6   7   74.55   10.56
  -5  -7  -7   28.72    4.81
   5   7   7   23.81    9.39
  -5  -8  -7   33.51    4.87
   5   8   7   39.15   11.72
  -5  -9  -7   36.64    5.23
   5   9   7   41.15   13.31
  -5 -10  -7    2.45    3.52
   5  10   7    5.99   13.90
  -5 -11  -7   -2.23    4.13
   5  11   7   13.89   15.27
  -5 -12  -7   11.51    5.15
   5  12   7   31.11   18.10
   5  13   7   37.04   19.51
  -4   8  -8   12.78    6.24
  -4   7  -8    3.69    4.58
  -4   6  -8   -3.20    3.93
   4  -6   8   -2.41    4.82
  -4   5  -8    4.53    4.01
   4  -5   8    2.08    4.62
  -4   4  -8   32.42    6.03
   4  -4   8   30.13    5.74
  -4   3  -8   33.89    5.42
   4  -3   8   39.86    5.82
  -4   2  -8   66.70    6.01
   4  -2   8   54.57    6.00
  -4   1  -8   76.01    5.89
   4  -1   8   76.50    6.15
  -4   0  -8   33.69    4.58
  -4   0  -8   19.94    4.07
   4   0   8   25.79    4.51
   4   0   8   24.30    4.28
  -4  -1  -8  118.16    6.34
  -4  -1  -8  111.04    6.03
  -4  -1  -8  115.78    8.16
   4   1   8  114.45    7.99
  -4  -2  -8   46.44    4.94
  -4  -2  -8   49.44    4.59
   4   2   8   34.93    5.37
  -4  -3  -8    0.26    2.22
  -4  -3  -8    1.68    2.84
   4   3   8    2.89    4.15
  -4  -4  -8    2.32    3.07
  -4  -4  -8    3.77    2.31
   4   4   8    7.51    5.38
  -4  -5  -8   28.38    4.43
   4   5   8   25.65    6.79
  -4  -6  -8   30.94    4.66
   4   6   8   26.05    8.05
  -4  -7  -8   39.63    5.30
   4   7   8   42.29   10.13
  -4  -8  -8   46.88    5.89
   4   8   8   43.42   11.40
  -4  -9  -8   69.30    6.72
   4   9   8   70.75   14.49
  -4 -10  -8  107.47    8.09
   4  10   8  130.36   19.61
  -4 -11  -8   47.44    6.48
   4  11   8   61.87   18.67
  -4 -12  -8   28.61    5.67
   4  12   8   34.84   19.38
  -4 -13  -8    0.56    4.16
   4  13   8    9.47   20.03
  -4 -14  -8    4.12    5.02
  -3   7  -9   24.17    6.66
  -3   6  -9   34.26    6.96
  -3   5  -9   30.13    6.30
  -3   4  -9   14.26    4.95
  -3   3  -9    8.60    4.28
   3  -3   9   11.80    4.32
  -3   2  -9    1.03    3.20
   3  -2   9   -0.78    3.62
  -3   1  -9   60.65    6.18
   3  -1   9   34.19    4.99
  -3   0  -9    0.46    3.35
  -3   0  -9    1.27    2.99
   3   0   9    3.44    3.73
  -3  -1  -9   23.35    4.19
  -3  -1  -9   22.68    4.12
  -3  -1  -9   20.90    5.11
  -3  -2  -9  105.39    5.66
  -3  -2  -9  129.62   10.32
  -3  -2  -9  107.35    6.20
   3   2   9  119.16   10.00
  -3  -3  -9   65.05    4.60
  -3  -3  -9   70.90    5.57
  -3  -3  -9   76.77    9.64
   3   3   9   54.67    7.33
  -3  -4  -9   88.21    6.00
  -3  -4  -9   82.24    4.29
   3   4   9   85.56    9.78
  -3  -5  -9   49.11    5.45
   3   5   9   44.79    8.43
  -3  -6  -9   12.00    3.80
   3   6   9    8.04    7.55
  -3  -7  -9   17.91    4.44
   3   7   9   15.72    8.45
  -3  -8  -9   -0.41    3.56
   3   8   9    3.39    9.85
  -3  -9  -9    1.82    3.79
   3   9   9    6.82   10.22
  -3 -10  -9    7.15    4.22
   3  10   9    4.26   12.33
  -3 -11  -9    5.89    4.47
   3  11   9    3.42   14.67
  -3 -12  -9   46.15    6.78
   3  12   9   44.35   19.88
  -3 -13  -9   11.35    4.99
   3  13   9    2.86   21.25
  -3 -14  -9   20.01    5.86
  -2   6 -10   13.85    6.15
  -2   5 -10   24.96    6.89
  -2   4 -10   48.89    7.81
  -2   3 -10   49.72    7.37
  -2   2 -10   98.06    7.53
  -2   1 -10   31.34    7.11
  -2   1 -10   39.57    6.02
   2  -1  10   36.43    4.92
  -2   0 -10   14.00    4.13
  -2   0 -10   12.92    5.29
   2   0  10   10.67    3.84
  -2  -1 -10    5.54    3.38
  -2  -1 -10    2.92    4.49
  -2  -1 -10    3.54    3.68
  -2  -2 -10    1.66    2.98
  -2  -2 -10    4.28    4.96
  -2  -2 -10    4.12    3.60
  -2  -3 -10   10.13    3.22
  -2  -3 -10   11.45    3.74
  -2  -3 -10    6.57    4.92
   2   3  10    9.21    5.05
  -2  -4 -10   15.38    4.13
  -2  -4 -10   11.13    6.28
   2   4  10    6.27    5.94
  -2  -5 -10   75.86    6.89
  -2  -5 -10   55.80    9.08
   2   5  10   65.51    9.61
  -2  -6 -10   18.58    4.53
   2   6  10   21.53    7.63
  -2  -7 -10   54.65    6.09
   2   7  10   48.39   10.53
  -2  -8 -10  146.74    8.27
   2   8  10  138.83   18.07
  -2  -9 -10   40.79    6.00
   2   9  10   43.88   13.25
  -2 -10 -10   20.82    5.12
   2  10  10   23.86   14.46
  -2 -11 -10   16.38    5.04
   2  11  10    3.61   14.81
  -2 -12 -10   -0.26    4.29
   2  12  10  -15.23   17.42
  -2 -13 -10   10.61    5.64
   2  13  10  -43.48   22.53
  -2 -14 -10    6.64    5.13
  -1   4 -11    0.28    4.98
  -1   3 -11    0.15    4.66
  -1   2 -11   27.90    6.32
  -1   1 -11   38.20    6.77
  -1   1 -11   29.02    7.72
  -1   0 -11   44.59    8.79
  -1   0 -11   52.90    7.03
  -1  -1 -11   56.12    6.63
  -1  -1 -11   51.73    9.50
  -1  -2 -11    8.24    6.59
  -1  -2 -11    9.03    3.47
  -1  -2 -11    7.72    3.84
  -1  -3 -11   67.64    6.07
  -1  -3 -11   65.35   10.38
  -1  -4 -11    4.13    3.67
  -1  -4 -11    2.57    6.79
   1   4  11   15.02    7.22
  -1  -5 -11   13.99    4.48
  -1  -5 -11   17.61    8.95
   1   5  11   16.97    8.35
  -1  -6 -11   16.17    8.27
  -1  -6 -11   13.64    4.15
   1   6  11    4.56    7.63
  -1  -7 -11    2.30    3.67
   1   7  11    3.40    7.84
  -1  -8 -11   17.04    4.85
   1   8  11   18.24   10.38
  -1  -9 -11   31.06    5.92
   1   9  11   49.65   15.15
  -1 -10 -11   17.70    5.22
   1  10  11   21.96   14.28
  -1 -11 -11   41.63    6.68
   1  11  11   40.91   20.14
  -1 -12 -11   20.43    5.76
   1  12  11    6.17   21.64
  -1 -13 -11   41.35    7.03
   1  13  11   24.27   23.74
   0   3 -12    9.83    6.43
   0   2 -12   12.70    6.62
   0   1 -12   13.50    9.35
   0   1 -12    5.58    5.73
   0   0 -12    2.98    5.36
   0   0 -12    0.13    8.41
   0  -1 -12   -2.93    4.56
   0  -1 -12   -1.11    7.61
   0  -2 -12   15.63    9.15
   0  -3 -12   32.89   10.81
   0  -4 -12   30.04    5.20
   0  -4 -12   41.90   11.69
   0   4  12   65.58   11.89
   0  -5 -12   66.60   13.37
   0  -5 -12   50.46    5.97
   0   5  12   78.48   13.66
   0  -6 -12   83.83    7.63
   0  -6 -12   99.35   16.01
   0   6  12  108.76   15.72
   0  -7 -12   36.60    6.20
   0  -7 -12   36.10   12.51
   0   7  12   50.95   13.09
   0  -8 -12    3.99    4.79
   0   8  12    6.30   10.80
   0  -9 -12    4.61    4.90
   0   9  12    1.35   12.09
   0 -10 -12    7.87    5.27
   0  10  12  -13.98   12.55
   0 -11 -12    3.95    4.72
   0  11  12  -20.11   15.61
   0 -12 -12    5.92    5.22
   0  12  12   -5.19   18.97
   1   1 -13   39.24    8.60
   1   1 -13   35.89   14.47
   1   0 -13   19.25   12.01
   1   0 -13   18.24    7.14
   1  -1 -13   31.63   13.91
   1  -2 -13   -7.54    9.58
   1  -3 -13   -1.43   11.26
   1  -4 -13    0.45   10.88
   1  -5 -13  -12.04   11.06
  -1   5  13   44.19   12.21
   1  -6 -13   11.33   12.14
  -1   6  13   40.25   12.71
   1  -7 -13   33.36   14.31
   1  -7 -13   35.08    5.87
  -1   7  13   52.94   14.25
   1  -8 -13   19.69    5.43
   1  -8 -13   18.20   13.64
  -1   8  13   22.08   13.12
   1  -9 -13   40.57    7.09
  -1   9  13   36.68   15.05
   1 -10 -13   20.26    5.84
  -1  10  13   22.90   17.39
   1 -11 -13   11.81    6.19
  -1  11  13   -2.82   19.12
   2  -3 -14   21.17   17.36
   2  -4 -14    2.47   13.53
   2  -6 -14    5.73   15.39
  -2   6  14   75.33   14.56
   2  -7 -14   -6.00   17.91
  -2   7  14   43.42   16.80
   2 -10 -14   10.84    5.42
 -13   4   0   10.16    8.68
 -13   3   0   16.20    7.88
 -13   2   0   -2.26    7.07
 -13   1   0   -4.94    7.35
 -12   7  -1   13.75    5.79
  12  -7   1    0.17    6.50
 -12   6  -1   11.42    6.11
  12  -6   1   16.24    7.40
 -12   5  -1   20.44    7.20
  12  -5   1    5.79    6.82
 -12   4  -1   20.33    7.57
 -12   3  -1   46.82    8.88
 -12   2  -1   46.16    9.67
 -12   1  -1   28.25    8.58
 -12   0  -1    9.74    7.72
 -12  -1  -1   10.86    7.88
 -12  -2  -1   -7.18    7.16
 -12  -3  -1    5.79    7.99
 -12  -4  -1    2.11    8.99
  12   4   1   22.45   10.25
  12   5   1   35.14   12.56
 -11   8  -2   30.13    6.80
  11  -8   2   36.22    9.08
 -11   7  -2   17.37    5.72
  11  -7   2   11.92    6.91
 -11   6  -2   23.97    6.06
  11  -6   2    4.23    6.80
 -11   5  -2    5.08    5.83
  11  -5   2   -7.11    5.36
 -11   4  -2    4.59    5.49
  11  -4   2    5.46    6.17
 -11   3  -2    8.90    6.29
  11  -3   2   12.44    5.60
 -11   2  -2   46.18    8.52
  11  -2   2   48.03    6.75
 -11   1  -2   14.23    7.38
 -11   0  -2   17.45    7.38
 -11  -1  -2   24.36    8.62
 -11  -2  -2   27.89    9.10
 -11  -3  -2   35.08    9.10
  11   3   2   30.85    8.47
 -11  -4  -2    6.99    7.63
  11   4   2   19.59    9.32
 -11  -5  -2   10.15    7.91
  11   5   2   36.77   11.54
 -11  -6  -2   -3.02    7.26
  11   6   2   26.65   11.76
 -11  -7  -2   -1.86    8.08
  11   7   2   17.40   12.12
 -10   9  -3   23.05    6.35
 -10   8  -3   10.80    5.01
  10  -8   3    9.85    7.11
 -10   7  -3   32.03    6.62
  10  -7   3   16.96    6.86
 -10   6  -3   37.42    6.96
  10  -6   3   35.22    8.17
 -10   5  -3   56.08    7.60
  10  -5   3   43.00    7.58
 -10   4  -3   36.96    6.78
  10  -4   3   45.89    7.29
 -10   3  -3   70.65    8.30
  10  -3   3   76.94    8.31
 -10   2  -3   30.95    6.77
  10  -2   3   32.14    5.82
 -10   1  -3   26.13    7.14
  10  -1   3   39.28    5.81
 -10   0  -3    6.75    6.04
  10   0   3    4.96    4.23
 -10  -1  -3    9.90    6.56
  10   1   3    9.59    4.13
 -10  -2  -3    5.08    6.53
  10   2   3   11.68    6.60
 -10  -3  -3   59.16    9.20
  10   3   3   62.56    9.18
 -10  -4  -3   49.74    9.08
  10   4   3   46.01    9.40
 -10  -5  -3   48.09    9.18
  10   5   3   53.87   11.19
 -10  -6  -3   32.79    8.86
  10   6   3   36.40   11.45
 -10  -7  -3   18.77    7.83
  10   7   3   49.55   13.15
  10   8   3   56.60   14.86
  10   9   3   18.06   12.75
  -9   9  -4   15.55    5.27
   9  -9   4   18.57    7.85
  -9   8  -4   21.04    5.85
   9  -8   4   23.51    7.65
  -9   7  -4   -0.30    3.91
   9  -7   4   -1.98    6.51
  -9   6  -4   -1.33    4.44
   9  -6   4    3.25    6.40
  -9   5  -4   23.13    5.54
   9  -5   4   16.95    6.40
  -9   4  -4   22.83    5.59
   9  -4   4   27.21    6.26
  -9   3  -4   54.19    7.07
   9  -3   4   56.54    7.07
  -9   2  -4   50.94    6.86
   9  -2   4   65.98    7.08
  -9   1  -4   66.14    8.33
   9  -1   4   58.94    6.43
  -9   0  -4  122.16   10.71
   9   0   4  106.18    7.32
  -9  -1  -4   35.24    7.13
   9   1   4   50.51    5.74
  -9  -2  -4   42.82    7.60
   9   2   4   42.49    5.27
   9   2   4   30.60    5.92
  -9  -3  -4   34.67    7.53
   9   3   4   33.03    6.57
   9   3   4   36.81    4.81
  -9  -4  -4   -0.64    6.52
   9   4   4    2.69    5.30
  -9  -5  -4    4.79    6.77
   9   5   4   -1.33    5.96
  -9  -6  -4   11.57    6.95
   9   6   4   12.75    8.21
  -9  -7  -4   42.70    8.72
   9   7   4   77.61   14.51
  -9  -8  -4   40.19    8.55
   9   8   4   69.23   15.43
   9   9   4   57.23   16.08
   9  10   4   79.93   17.93
  -8   9  -5   19.66    6.09
   8  -9   5    3.87    7.06
  -8   8  -5   60.98    8.14
   8  -8   5   39.02    8.12
  -8   7  -5   32.31    6.24
   8  -7   5   22.44    7.05
  -8   6  -5   34.16    6.34
   8  -6   5   24.58    6.50
  -8   5  -5   37.10    6.21
   8  -5   5   43.86    6.99
  -8   4  -5   39.46    6.26
   8  -4   5   27.50    5.94
  -8   3  -5   -0.22    4.14
   8  -3   5    5.01    4.62
  -8   2  -5   -3.19    3.84
   8  -2   5    2.81    4.24
  -8   1  -5    4.34    4.98
   8  -1   5    3.60    3.90
  -8   0  -5   29.07    5.83
   8   0   5   34.45    5.15
  -8  -1  -5   49.46    6.82
   8   1   5   44.48    5.28
  -8  -2  -5   39.32    7.18
   8   2   5   22.29    5.03
   8   2   5   32.67    4.65
  -8  -3  -5   69.78    8.44
   8   3   5   49.29    7.28
   8   3   5   61.94    5.42
  -8  -4  -5   38.66    4.86
  -8  -4  -5   31.34    6.64
   8   4   5   35.50    6.83
  -8  -5  -5   58.23    5.39
  -8  -5  -5   58.63    7.74
   8   5   5   44.56    8.44
  -8  -6  -5   57.59    5.37
  -8  -6  -5   69.99    8.94
   8   6   5   74.03   11.78
  -8  -7  -5    1.41    5.40
   8   7   5    5.86    9.28
   8   8   5    1.89    9.98
   8   9   5   20.40   12.36
   8  10   5   12.89   12.84
   8  11   5   25.59   14.66
  -7   9  -6    0.22    4.99
   7  -9   6    9.79    7.05
  -7   8  -6    5.05    4.99
   7  -8   6   -6.16    5.79
  -7   7  -6    5.62    4.40
   7  -7   6    2.42    5.63
  -7   6  -6   14.46    5.30
   7  -6   6   11.70    5.90
  -7   5  -6  130.03    8.62
   7  -5   6  124.03    9.60
  -7   4  -6   76.27    7.52
   7  -4   6   74.01    7.78
  -7   3  -6   79.28    7.94
   7  -3   6   79.66    7.66
  -7   2  -6  115.41    7.51
   7  -2   6  135.41    7.78
  -7   1  -6  163.37    8.16
   7  -1   6  165.85    8.15
  -7   0  -6   51.79    6.04
   7   0   6   61.17    6.09
  -7  -1  -6    1.52    4.36
   7   1   6    8.27    3.99
  -7  -2  -6    0.87    3.95
   7   2   6    2.15    3.17
   7   2   6    1.48    3.95
  -7  -3  -6    8.65    4.80
  -7  -3  -6    7.91    3.45
   7   3   6    6.44    5.07
  -7  -4  -6   23.96    4.31
  -7  -4  -6   17.44    5.32
   7   4   6   15.09    5.79
  -7  -5  -6   48.33    5.03
  -7  -5  -6   68.92    7.45
   7   5   6   53.47    8.70
  -7  -6  -6   70.36    7.58
  -7  -6  -6   61.14    5.78
   7   6   6   67.87   11.22
  -7  -7  -6   29.59    4.81
   7   7   6   30.54    9.69
  -7  -8  -6   49.48    5.41
   7   8   6   55.83   13.42
   7   9   6   49.64   13.79
   7  10   6   22.89   14.85
   7  11   6    9.39   13.18
   7  12   6   19.63   15.71
   6  -9   7   22.85    7.83
  -6   8  -7   33.24    6.58
   6  -8   7   30.52    8.32
  -6   7  -7   15.33    5.65
   6  -7   7    8.62    5.64
  -6   6  -7   50.70    7.50
   6  -6   7   44.17    7.38
  -6   5  -7   16.24    5.23
   6  -5   7    7.48    4.78
  -6   4  -7   -2.72    3.78
   6  -4   7   -1.98    4.13
  -6   3  -7    4.53    3.93
   6  -3   7    5.34    4.40
  -6   2  -7    3.04    4.12
   6  -2   7    2.51    3.94
  -6   1  -7   27.39    5.26
   6  -1   7   20.95    4.72
  -6   0  -7  103.17    6.91
   6   0   7   97.68    6.70
  -6  -1  -7   93.49    6.13
   6   1   7   99.41    6.39
  -6  -2  -7  124.27    6.46
  -6  -2  -7  131.61    6.72
   6   2   7  138.81   10.21
  -6  -3  -7   85.82    5.71
  -6  -3  -7   79.94    5.86
   6   3   7   81.93    9.75
  -6  -4  -7   85.72    6.22
  -6  -4  -7   80.50    5.85
   6   4   7   85.19   11.39
  -6  -5  -7   17.08    4.37
  -6  -5  -7    7.20    3.82
   6   5   7   14.69    7.27
  -6  -6  -7    7.29    4.47
  -6  -6  -7    8.63    3.58
   6   6   7    5.25    8.13
  -6  -7  -7    3.68    3.39
   6   7   7   11.49    8.96
  -6  -8  -7   32.76    5.32
   6   8   7   30.59   11.78
  -6  -9  -7   53.87    5.92
   6   9   7   50.09   14.79
  -6 -10  -7   54.19    6.47
   6  10   7   80.17   18.59
  -6 -11  -7   45.49    6.39
   6  11   7   47.00   16.81
   6  12   7   77.51   21.39
   6  13   7   78.25   34.26
  -5   8  -8    6.31    5.20
  -5   7  -8   16.89    5.41
   5  -7   8   11.38    6.19
  -5   6  -8   47.02    7.65
   5  -6   8   34.20    6.45
  -5   5  -8   75.94    8.38
   5  -5   8   48.47    7.24
  -5   4  -8   78.27    7.79
   5  -4   8   80.06    7.92
  -5   3  -8   56.98    6.59
   5  -3   8   49.78    6.20
  -5   2  -8    2.61    3.94
   5  -2   8    4.31    4.56
  -5   1  -8    2.37    3.47
   5  -1   8    9.37    4.56
  -5   0  -8    3.32    3.22
   5   0   8    4.00    3.64
  -5  -1  -8    6.86    3.54
  -5  -1  -8   14.30    3.96
   5   1   8    8.31    3.92
   5   1   8    5.71    3.75
  -5  -2  -8   47.17    5.14
  -5  -2  -8   44.38    4.61
   5   2   8   34.43    5.79
  -5  -3  -8   66.58    4.87
  -5  -3  -8   71.65    5.54
   5   3   8   70.42    9.64
  -5  -4  -8   64.90    5.49
  -5  -4  -8   82.11    4.79
   5   4   8   81.34    9.66
  -5  -5  -8  137.59    5.49
  -5  -5  -8  129.03    6.83
   5   5   8  127.17   14.36
  -5  -6  -8   78.00    6.61
   5   6   8   69.78   11.32
  -5  -7  -8   71.54    6.54
   5   7   8   79.33   12.60
  -5  -8  -8   19.40    4.33
   5   8   8   18.63   12.08
  -5  -9  -8    3.99    3.61
   5   9   8    7.03   13.45
  -5 -10  -8   16.53    4.93
   5  10   8   18.13   16.13
  -5 -11  -8    4.71    4.61
   5  11   8   -2.20   17.56
  -5 -12  -8    2.32    4.45
   5  12   8   22.93   20.55
  -5 -13  -8    0.50    5.06
   5  13   8   16.30   20.55
  -4   7  -9    2.88    4.83
  -4   6  -9   -2.11    4.67
  -4   5  -9    3.81    4.50
   4  -5   9    4.64    4.93
  -4   4  -9   20.51    5.16
   4  -4   9   18.08    5.33
  -4   3  -9   50.09    6.88
   4  -3   9   47.77    6.46
  -4   2  -9   22.64    4.79
   4  -2   9   26.70    5.00
  -4   1  -9   47.32    5.68
   4  -1   9   44.70    5.71
  -4   0  -9  133.91    7.01
   4   0   9  139.65    7.57
  -4  -1  -9   42.08    4.88
  -4  -1  -9   44.35    5.33
  -4  -1  -9   37.22    5.72
   4   1   9   31.07    5.22
  -4  -2  -9   57.72    4.61
  -4  -2  -9   50.31    5.45
  -4  -2  -9   54.58    6.83
   4   2   9   65.37    8.20
  -4  -3  -9   30.49    4.68
  -4  -3  -9   32.37    3.95
   4   3   9   21.72    5.70
  -4  -4  -9   -0.43    3.07
  -4  -4  -9    2.88    2.39
   4   4   9    2.86    4.57
  -4  -5  -9   -1.36    3.14
   4   5   9   -2.26    5.37
  -4  -6  -9   19.74    4.44
   4   6   9   16.91    7.85
  -4  -7  -9   20.94    4.43
   4   7   9   27.80    9.92
  -4  -8  -9   29.74    5.08
   4   8   9   31.47   12.58
  -4  -9  -9   46.44    6.07
   4   9   9   53.33   15.55
  -4 -10  -9  116.90    8.06
   4  10   9  162.76   22.98
  -4 -11  -9   27.05    5.57
   4  11   9   27.70   17.81
  -4 -12  -9   12.23    5.09
   4  12   9   20.25   18.70
  -4 -13  -9    4.80    5.30
   4  13   9   -7.41   20.39
  -4 -14  -9    2.85    5.40
  -3   6 -10   13.78    5.97
  -3   5 -10   17.38    5.84
  -3   4 -10   28.42    6.57
  -3   3 -10    6.35    4.48
  -3   2 -10    2.58    3.90
   3  -2  10    7.63    3.96
  -3   1 -10   -2.65    3.16
   3  -1  10   12.10    4.30
  -3   0 -10   32.81    5.08
   3   0  10   45.22    5.83
  -3  -1 -10   13.16    5.10
  -3  -1 -10   21.52    4.82
  -3  -1 -10   19.94    4.30
  -3  -2 -10   38.74    4.65
  -3  -2 -10   42.18    5.29
  -3  -2 -10   37.13    6.77
   3   2  10   35.33    6.68
  -3  -3 -10  128.90    7.10
  -3  -3 -10  132.97   11.38
  -3  -3 -10  126.40    6.05
   3   3  10  137.92   12.00
  -3  -4 -10   75.90    6.19
  -3  -4 -10   70.21    9.12
   3   4  10   62.68    8.89
  -3  -5 -10   79.24    6.27
   3   5  10   86.20   11.01
  -3  -6 -10   22.45    4.68
   3   6  10   16.38    7.80
  -3  -7 -10   11.69    4.04
   3   7  10   19.74   10.34
  -3  -8 -10   22.70    4.93
   3   8  10   13.60   10.23
  -3  -9 -10    3.98    4.02
   3   9  10    5.13   12.95
  -3 -10 -10   22.03    5.26
   3  10  10   19.47   14.81
  -3 -11 -10   40.62    6.88
   3  11  10   32.89   19.90
  -3 -12 -10   16.94    5.55
   3  12  10   24.38   21.93
  -3 -13 -10   21.50    5.99
   3  13  10   24.93   24.78
  -3 -14 -10   29.59    6.83
  -2   5 -11   10.24    7.35
  -2   4 -11   28.28    7.21
  -2   3 -11   32.24    6.93
  -2   2 -11   49.25    7.02
  -2   1 -11   38.10    6.12
  -2   0 -11    3.17    4.98
  -2   0 -11    7.50    4.21
   2   0  11    5.75    3.34
  -2  -1 -11    2.40    5.09
  -2  -1 -11    2.37    3.73
  -2  -1 -11    2.32    3.75
  -2  -2 -11    6.36    5.84
  -2  -2 -11    4.21    3.73
  -2  -2 -11    4.78    3.55
  -2  -3 -11    0.05    3.26
  -2  -3 -11    0.04    5.45
   2   3  11    8.99    5.95
  -2  -4 -11   35.22    5.24
  -2  -4 -11   29.47    7.88
   2   4  11   33.32    7.92
  -2  -5 -11   25.96    5.03
  -2  -5 -11   20.59    7.74
   2   5  11   25.16    8.09
  -2  -6 -11  110.34    7.36
   2   6  11  111.97   14.56
  -2  -7 -11   19.66    4.78
   2   7  11   15.45   10.08
  -2  -8 -11   48.70    6.45
   2   8  11   55.15   13.74
  -2  -9 -11   70.65    7.45
   2   9  11   96.44   17.94
  -2 -10 -11   29.12    6.03
   2  10  11   14.58   15.10
  -2 -11 -11   17.14    5.29
   2  11  11   15.23   17.34
  -2 -12 -11    4.49    4.83
   2  12  11   -3.94   18.37
  -2 -13 -11    5.64    4.97
   2  13  11  -35.37   23.13
  -1   3 -12    0.22    5.93
  -1   2 -12    0.40    5.52
  -1   1 -12   12.34    5.28
  -1   0 -12   22.21    8.46
  -1   0 -12   25.22    6.09
  -1  -1 -12   42.95   10.19
  -1  -1 -12   35.71    5.82
  -1  -2 -12   36.98    9.46
  -1  -3 -12   43.70    5.81
  -1  -3 -12   55.16   12.22
  -1  -4 -12   19.38    4.87
  -1  -4 -12   16.19    9.49
   1   4  12   31.32    9.94
  -1  -5 -12   30.27    5.14
  -1  -5 -12   35.47   11.96
   1   5  12   50.93   12.22
  -1  -6 -12    1.33    4.20
  -1  -6 -12   -2.19    8.62
   1   6  12    5.45    9.08
  -1  -7 -12    8.54    4.19
   1   7  12   11.82   10.31
  -1  -8 -12    8.60    4.44
   1   8  12    2.82   11.29
  -1  -9 -12   33.16    6.31
   1   9  12   35.01   14.76
  -1 -10 -12   26.33    5.95
   1  10  12   29.73   16.76
  -1 -11 -12   36.26    6.67
   1  11  12   61.99   21.71
  -1 -12 -12   36.32    7.05
   1  12  12    2.93   20.07
   0   1 -13    1.11    5.44
   0   0 -13   -6.07    9.90
   0   0 -13   -8.41    4.95
   0  -1 -13  -10.49    9.38
   0  -2 -13   16.68   10.37
   0  -3 -13   13.88   12.14
   0  -4 -13   13.97   12.43
   0   4  13   49.54   11.79
   0  -5 -13   33.49   12.88
   0   5  13   61.33   13.27
   0  -6 -13   56.05   16.14
   0  -6 -13   30.86    5.89
   0   6  13   59.40   14.85
   0  -7 -13   17.84   12.81
   0  -7 -13   32.65    5.80
   0   7  13   40.46   13.79
   0  -8 -13   27.92    5.91
   0   8  13   31.18   14.10
   0  -9 -13    9.11    4.92
   0   9  13   -3.86   14.27
   0 -10 -13    2.54    5.20
   0  10  13   -5.12   14.13
   0 -11 -13    2.86    4.98
   0  11  13   -9.41   16.96
   1  -1 -14   28.44   15.69
   1  -2 -14   -9.75   12.52
   1  -3 -14  -13.53   12.49
   1  -4 -14  -19.21   12.96
   1  -5 -14  -14.81   12.96
  -1   5  14   66.08   13.34
   1  -6 -14   -0.17   12.95
  -1   6  14   31.07   12.18
   1  -7 -14    4.36   15.28
  -1   7  14   36.68   15.34
   1  -8 -14   33.48    6.36
   1  -8 -14   39.06   18.49
  -1   8  14   56.01   17.47
   1  -9 -14   19.56    6.18
  -1   9  14   12.06   16.90
   1 -10 -14   14.87    6.23
 -13   4  -1   20.79    7.61
 -13   3  -1    7.76    7.63
 -13   2  -1    3.91    7.28
 -13   1  -1    1.27    7.23
 -13   0  -1    6.06    7.76
 -13  -1  -1   20.81    9.02
 -12   7  -2    4.23    5.76
  12  -7   2   -2.47    6.51
 -12   6  -2    7.15    5.37
  12  -6   2   -5.05    5.68
 -12   5  -2   13.35    6.02
  12  -5   2   11.06    7.39
 -12   4  -2   19.42    7.29
  12  -4   2   19.37    7.24
 -12   3  -2   36.32    8.71
  12  -3   2   46.84    7.75
 -12   2  -2   40.80    9.10
 -12   1  -2   37.73    8.70
 -12   0  -2   10.12    7.95
 -12  -1  -2    3.77    7.38
 -12  -2  -2    2.20    7.08
 -12  -3  -2    1.50    7.25
 -12  -4  -2    2.05    8.52
 -12  -5  -2    6.24    9.34
  12   5   2   15.90   11.19
  12   6   2   56.71   14.58
 -11   8  -3   26.47    6.70
 -11   7  -3   30.34    6.38
  11  -7   3   26.14    8.03
 -11   6  -3   21.22    6.40
  11  -6   3    4.03    7.12
 -11   5  -3    9.74    5.40
  11  -5   3   12.62    7.07
 -11   4  -3    3.52    5.83
  11  -4   3   -2.25    4.96
 -11   3  -3    3.78    5.43
  11  -3   3   -6.91    4.62
 -11   2  -3   16.33    6.56
  11  -2   3   13.89    5.50
 -11   1  -3   60.51    9.36
  11  -1   3   72.15    7.66
 -11   0  -3   14.41    7.01
 -11  -1  -3   37.45    8.34
 -11  -2  -3   67.31   10.07
 -11  -3  -3   62.05   10.82
 -11  -4  -3   17.22    7.92
  11   4   3   21.55    8.36
 -11  -5  -3    2.57    8.19
  11   5   3   20.65    9.56
 -11  -6  -3    8.03    8.63
  11   6   3   34.59   11.19
 -11  -7  -3   -0.11    7.82
  11   7   3   18.66   12.72
 -11  -8  -3   -7.64    7.85
  11   8   3   21.51   13.72
 -10   9  -4   10.81    8.26
 -10   8  -4   22.46    5.92
  10  -8   4    4.52    7.08
 -10   7  -4   27.59    6.07
  10  -7   4    7.24    6.47
 -10   6  -4   22.53    6.09
  10  -6   4   16.91    7.03
 -10   5  -4   37.89    6.76
  10  -5   4   37.20    7.72
 -10   4  -4   27.85    6.25
  10  -4   4   31.66    6.76
 -10   3  -4   25.64    6.41
  10  -3   4   17.32    5.62
 -10   2  -4   27.29    6.32
  10  -2   4   28.11    5.79
 -10   1  -4    5.13    5.25
  10  -1   4   12.02    5.01
 -10   0  -4    5.06    5.54
  10   0   4    3.56    4.35
 -10  -1  -4   10.10    6.04
  10   1   4    4.52    4.13
 -10  -2  -4   24.63    7.16
  10   2   4   26.45    4.80
 -10  -3  -4   13.22    7.49
  10   3   4   22.88    6.24
 -10  -4  -4   92.35   10.95
  10   4   4   94.29   11.83
 -10  -5  -4   71.95    9.79
  10   5   4   88.77   12.31
 -10  -6  -4   59.85   10.41
  10   6   4   76.96   13.47
 -10  -7  -4   45.14    9.78
  10   7   4   68.23   15.02
 -10  -8  -4   37.28    9.53
  10   8   4   80.15   16.25
  10   9   4   32.23   13.80
  -9   9  -5   26.15    6.53
  -9   8  -5    8.98    5.29
   9  -8   5   -0.63    6.77
  -9   7  -5    6.94    4.81
   9  -7   5    0.19    6.13
  -9   6  -5    9.29    5.08
   9  -6   5   -4.25    5.28
  -9   5  -5   -0.54    3.93
   9  -5   5   -0.19    5.75
  -9   4  -5   22.37    5.97
   9  -4   5   11.02    5.40
  -9   3  -5   58.81    7.21
   9  -3   5   69.54    7.68
  -9   2  -5   60.78    7.33
   9  -2   5   48.57    6.58
  -9   1  -5   99.66    8.75
   9  -1   5   97.13    7.39
  -9   0  -5   91.79    8.70
   9   0   5   89.00    6.88
  -9  -1  -5   77.07    8.39
   9   1   5   76.87    6.68
  -9  -2  -5    1.52    5.92
   9   2   5    4.26    3.47
  -9  -3  -5    5.18    6.43
   9   3   5    5.75    4.60
   9   3   5    3.16    3.23
  -9  -4  -5   60.80    8.74
   9   4   5   46.76    7.84
   9   4   5   60.28    5.06
  -9  -5  -5    0.86    6.16
   9   5   5    8.66    6.47
  -9  -6  -5    0.96    6.31
   9   6   5   10.96    7.69
  -9  -7  -5   43.47    8.77
   9   7   5   46.72   12.96
   9   8   5   69.94   15.59
   9   9   5   64.73   15.84
   9  10   5   99.19   18.94
   8  -9   6   25.47   13.64
  -8   8  -6   17.45    6.08
   8  -8   6    9.97    7.02
  -8   7  -6   33.21    6.53
   8  -7   6   26.67    7.20
  -8   6  -6   42.61    7.09
   8  -6   6   33.29    6.98
  -8   5  -6   33.20    6.39
   8  -5   6   30.83    6.68
  -8   4  -6   34.25    6.23
   8  -4   6   37.50    6.95
  -8   3  -6   12.75    4.53
   8  -3   6   17.69    5.29
  -8   2  -6   18.43    5.15
   8  -2   6   19.59    5.00
  -8   1  -6    4.08    4.15
   8  -1   6    3.39    4.13
  -8   0  -6    1.43    4.18
   8   0   6   -3.94    3.54
  -8  -1  -6   48.44    6.84
   8   1   6   51.74    5.79
  -8  -2  -6  107.77    8.73
   8   2   6  114.65    6.83
  -8  -3  -6    9.65    5.54
   8   3   6    5.05    3.37
   8   3   6    4.84    4.82
  -8  -4  -6  140.52    7.00
  -8  -4  -6  147.28    8.95
   8   4   6  151.21   12.85
  -8  -5  -6   70.17    5.99
  -8  -5  -6   58.45    7.65
   8   5   6   55.85    8.71
  -8  -6  -6   55.80    7.61
  -8  -6  -6   43.88    4.95
   8   6   6   53.02   10.62
  -8  -7  -6   28.10    7.45
  -8  -7  -6   21.33    4.11
   8   7   6   25.78    9.98
   8   8   6    8.45   10.27
   8   9   6    4.73   11.75
   8  10   6   20.78   14.90
   8  11   6   31.18   17.86
   7  -9   7    3.15    7.39
  -7   8  -7   -0.16    4.44
   7  -8   7   -1.54    6.32
  -7   7  -7   -3.79    3.92
   7  -7   7   -5.08    5.22
  -7   6  -7   14.64    5.22
   7  -6   7    8.72    6.26
  -7   5  -7   44.12    6.70
   7  -5   7   26.59    6.27
  -7   4  -7   38.23    6.04
   7  -4   7   24.38    5.81
  -7   3  -7   62.44    6.94
   7  -3   7   63.99    7.23
  -7   2  -7   32.64    5.51
   7  -2   7   26.15    5.41
  -7   1  -7   40.13    5.80
   7  -1   7   38.02    5.57
  -7   0  -7   71.15    7.14
   7   0   7   55.66    6.10
  -7  -1  -7   30.19    5.07
   7   1   7   26.93    4.97
  -7  -2  -7   -3.17    3.41
   7   2   7    0.06    3.14
  -7  -3  -7   13.50    4.56
  -7  -3  -7   12.10    3.94
   7   3   7    6.93    5.36
  -7  -4  -7   29.04    5.38
  -7  -4  -7   30.57    4.67
   7   4   7   27.03    7.09
  -7  -5  -7   13.05    4.32
  -7  -5  -7   25.29    5.40
   7   5   7   14.94    6.73
  -7  -6  -7   45.23    5.54
  -7  -6  -7   51.64    6.44
   7   6   7   47.72   10.63
  -7  -7  -7  166.36    8.12
   7   7   7  167.87   18.61
  -7  -8  -7   45.16    5.41
   7   8   7   64.78   13.65
  -7  -9  -7   48.91    6.01
   7   9   7   60.07   16.04
   7  10   7   78.95   17.43
   7  11   7   44.42   16.74
   7  12   7   22.39   16.88
  -6   8  -8   26.75   10.11
   6  -8   8   17.44    7.36
  -6   7  -8   25.55    6.22
   6  -7   8   28.39    7.42
  -6   6  -8   14.82    5.10
   6  -6   8    6.95    5.99
  -6   5  -8    3.95    4.39
   6  -5   8    5.68    5.53
  -6   4  -8   -1.99    4.01
   6  -4   8   -2.05    4.26
  -6   3  -8   19.98    5.06
   6  -3   8   39.77    6.09
  -6   2  -8    7.38    4.08
   6  -2   8   13.74    4.53
  -6   1  -8   31.77    5.19
   6  -1   8   34.18    5.52
  -6   0  -8  125.94    7.48
   6   0   8  117.06    7.53
  -6  -1  -8   40.78    5.18
   6   1   8   39.92    5.44
  -6  -2  -8   79.35    6.11
  -6  -2  -8   71.35    5.91
   6   2   8   79.82    9.44
  -6  -3  -8   70.21    5.96
  -6  -3  -8   53.85    5.52
   6   3   8   51.75    7.41
  -6  -4  -8   43.99    5.47
  -6  -4  -8   44.13    4.88
   6   4   8   41.17    7.70
  -6  -5  -8   26.88    4.63
  -6  -5  -8   24.74    4.04
   6   5   8   27.02    8.27
  -6  -6  -8   24.81    4.74
   6   6   8   23.41    8.70
  -6  -7  -8    0.61    3.72
   6   7   8    3.94    9.87
  -6  -8  -8   24.41    4.71
   6   8   8   15.34   11.48
  -6  -9  -8   38.15    5.94
   6   9   8   58.19   16.20
  -6 -10  -8   47.40    6.27
   6  10   8   76.75   20.71
  -6 -11  -8   40.98    6.18
   6  11   8   63.74   20.06
  -6 -12  -8   44.29    6.85
   6  12   8   64.07   19.67
   6  13   8   73.93   33.78
  -5   7  -9   15.35    5.94
  -5   6  -9   17.30    6.00
   5  -6   9   11.32    5.61
  -5   5  -9   30.88    6.67
   5  -5   9   17.55    6.09
  -5   4  -9   74.30    7.98
   5  -4   9   64.80    7.82
  -5   3  -9   28.80    5.42
   5  -3   9   34.64    5.80
  -5   2  -9   71.82    7.10
   5  -2   9   71.08    7.35
  -5   1  -9   34.77    5.50
   5  -1   9   23.59    5.06
  -5   0  -9    7.93    3.96
   5   0   9   10.09    4.40
  -5  -1  -9    5.22    3.61
   5   1   9    4.13    3.66
  -5  -2  -9   38.49    4.84
  -5  -2  -9   32.06    4.87
   5   2   9   32.15    5.82
  -5  -3  -9   56.67    5.76
  -5  -3  -9   54.15    5.00
   5   3   9   43.03    7.16
  -5  -4  -9   81.31    4.87
  -5  -4  -9   74.85    6.11
   5   4   9   75.13    9.42
  -5  -5  -9   72.96    6.20
   5   5   9   68.87    9.91
  -5  -6  -9   75.50    6.31
   5   6   9   67.03   10.93
  -5  -7  -9   34.72    5.22
   5   7   9   26.91   10.37
  -5  -8  -9   78.19    7.34
   5   8   9   97.82   17.03
  -5  -9  -9   30.15    5.42
   5   9   9   24.95   14.22
  -5 -10  -9    4.18    4.04
   5  10   9   -3.27   14.60
  -5 -11  -9    4.11    4.30
   5  11   9   -6.80   18.56
  -5 -12  -9   12.06    5.28
   5  12   9   20.22   21.59
  -5 -13  -9   10.78    5.82
   5  13   9   16.49   23.71
  -5 -14  -9    5.80    5.40
  -4   6 -10   -1.74    5.00
  -4   5 -10    5.78    5.33
  -4   4 -10   15.03    5.80
  -4   3 -10   27.87    6.07
   4  -3  10   17.25    5.51
  -4   2 -10   24.16    5.10
   4  -2  10   26.74    5.52
  -4   1 -10   25.81    4.84
   4  -1  10   26.19    5.04
  -4   0 -10   37.70    5.44
   4   0  10   39.64    5.67
  -4  -1 -10  118.52    7.77
  -4  -1 -10  120.46    6.96
   4   1  10  128.95   11.27
  -4  -2 -10   51.88    5.78
  -4  -2 -10   58.19    5.25
  -4  -2 -10   38.58    6.57
   4   2  10   35.63    6.41
  -4  -3 -10   18.80    3.70
  -4  -3 -10   22.02    4.53
   4   3  10   20.96    5.88
  -4  -4 -10    7.61    4.11
   4   4  10    0.88    5.36
  -4  -5 -10    0.15    3.83
   4   5  10    0.00    5.64
  -4  -6 -10   18.69    4.41
   4   6  10   19.56    8.54
  -4  -7 -10   11.04    4.24
   4   7  10   15.15    9.79
  -4  -8 -10   14.65    4.34
   4   8  10   16.63   13.01
  -4  -9 -10   59.30    6.98
   4   9  10   67.09   18.32
  -4 -10 -10   51.32    6.76
   4  10  10   63.64   20.27
  -4 -11 -10   99.83    8.28
   4  11  10  120.43   24.88
  -4 -12 -10   26.44    6.15
   4  12  10   31.03   20.56
  -4 -13 -10    7.97    5.00
   4  13  10  -11.96   23.44
  -4 -14 -10   12.12    5.69
  -3   5 -11   13.97    6.12
  -3   4 -11   22.89    6.17
  -3   3 -11    4.08    4.96
  -3   2 -11    0.49    4.41
  -3   1 -11   19.45    5.05
   3  -1  11   24.59    4.89
  -3   0 -11    4.69    4.02
   3   0  11    5.07    3.62
  -3  -1 -11   58.50    6.32
  -3  -1 -11   62.18    6.67
  -3  -2 -11   98.52    7.22
  -3  -2 -11   93.06    6.35
  -3  -2 -11  101.92   11.45
   3   2  11  116.36   11.48
  -3  -3 -11    4.57    3.61
  -3  -3 -11    6.48    5.67
   3   3  11   10.36    5.50
  -3  -4 -11  104.03    6.98
  -3  -4 -11  111.87   13.52
   3   4  11  117.47   13.55
  -3  -5 -11   36.07    5.36
   3   5  11   49.95    9.92
  -3  -6 -11   45.86    6.05
   3   6  11   65.20   11.69
  -3  -7 -11    4.01    3.92
   3   7  11    5.80    9.77
  -3  -8 -11    0.81    3.82
   3   8  11   -7.23   10.27
  -3  -9 -11    4.63    4.52
   3   9  11   -9.38   13.83
  -3 -10 -11   10.18    5.11
   3  10  11   -5.04   14.83
  -3 -11 -11   29.07    6.22
   3  11  11   29.64   19.04
  -3 -12 -11   21.50    6.34
   3  12  11    7.93   22.50
  -3 -13 -11    8.02    5.36
   3  13  11  -14.33   24.09
  -2   3 -12   22.35    7.13
  -2   2 -12   43.03    7.69
  -2   1 -12   25.34    6.39
  -2   0 -12    9.73    4.56
  -2  -1 -12    5.00    4.23
  -2  -1 -12    0.34    5.33
   2   1  12   14.46    4.13
  -2  -2 -12    1.87    3.96
  -2  -2 -12   -5.48    6.11
  -2  -3 -12    3.32    3.77
  -2  -3 -12    2.56    6.80
   2   3  12    8.43    6.47
  -2  -4 -12   79.36    7.48
  -2  -4 -12   82.93   12.73
   2   4  12   82.25   12.61
  -2  -5 -12   33.65    5.45
  -2  -5 -12   38.49   11.10
   2   5  12   43.68   11.56
  -2  -6 -12   30.81    5.50
   2   6  12   39.98   12.22
  -2  -7 -12  111.37    7.97
   2   7  12  148.39   19.27
  -2  -8 -12   42.48    6.59
   2   8  12   39.16   15.14
  -2  -9 -12   89.35    8.48
   2   9  12   92.90   19.31
  -2 -10 -12   41.07    6.64
   2  10  12   31.11   17.79
  -2 -11 -12   26.85    6.14
   2  11  12   -0.47   19.54
  -2 -12 -12   11.49    5.24
   2  12  12  -13.03   19.01
  -1   2 -13   10.95    5.92
  -1   1 -13   19.26    6.18
  -1   0 -13   21.54    5.86
  -1  -1 -13   25.77   10.52
  -1  -2 -13   49.06   12.92
  -1  -3 -13   88.01   15.72
  -1  -4 -13   16.04   10.19
  -1  -4 -13   18.84    4.62
   1   4  13   47.32   10.91
  -1  -5 -13   -6.98   10.40
  -1  -5 -13   -0.29    4.16
   1   5  13   19.15   11.42
  -1  -6 -13   10.83    4.61
  -1  -6 -13    6.52   11.18
   1   6  13   20.57   11.95
  -1  -7 -13    1.38    4.10
  -1  -7 -13   -0.95   12.29
   1   7  13   -0.94   12.16
  -1  -8 -13    8.07    4.67
   1   8  13    2.40   14.18
  -1  -9 -13   14.18    5.34
   1   9  13   16.49   15.16
  -1 -10 -13   24.34    6.48
   1  10  13   23.87   19.31
  -1 -11 -13   16.54    5.86
   1  11  13  -20.18   17.19
  -1 -12 -13   37.36    8.53
   1  12  13   25.16   35.75
   0  -1 -14  -16.77   10.50
   0  -2 -14  -16.80    9.46
   0  -3 -14   -0.63   12.44
   0  -4 -14   24.70   13.57
   0   4  14  103.48   14.06
   0  -5 -14   23.07   15.53
   0   5  14   96.82   15.86
   0  -6 -14   52.08   17.75
   0   6  14   77.86   15.52
   0  -7 -14   23.84    5.74
   0  -7 -14    8.67   13.44
   0   7  14   40.15   14.43
   0  -8 -14   21.70    5.78
   0  -8 -14    1.67   14.14
   0   8  14   26.01   14.33
   0  -9 -14   13.73    5.95
   0   9  14  -10.66   16.16
   0 -10 -14    1.06    4.68
   0  10  14   -5.00   17.68
  13  -5   2   45.89    9.37
 -13   4  -2   -0.36    6.39
 -13   3  -2   30.01    8.20
 -13   2  -2    5.39    7.38
 -13   1  -2    4.28    7.85
 -13   0  -2    4.43    8.08
 -13  -1  -2   10.04    8.22
 -13  -2  -2   23.53    9.30
 -12   6  -3    5.32    5.10
  12  -6   3   -0.09    6.37
 -12   5  -3   23.02    6.46
  12  -5   3   15.50    6.92
 -12   4  -3   25.48    6.78
  12  -4   3   17.72    6.57
 -12   3  -3   43.97    8.22
  12  -3   3   39.96    7.75
 -12   2  -3   45.96    8.46
  12  -2   3   43.10    7.12
 -12   1  -3    8.42    6.61
 -12   0  -3   38.04    8.51
 -12  -1  -3   13.43    7.54
 -12  -2  -3   11.07    7.51
 -12  -3  -3   -4.35    7.03
 -12  -4  -3   -5.59    7.04
 -12  -5  -3   -8.33    7.34
  12   5   3   18.03   13.95
 -12  -6  -3   -1.66    8.12
  12   6   3   40.12   13.34
  12   7   3   70.14   16.11
 -11   7  -4   24.99    6.20
  11  -7   4    9.13    7.26
 -11   6  -4   18.73    5.70
  11  -6   4    8.48    6.76
 -11   5  -4   24.54    6.60
  11  -5   4   18.87    6.65
 -11   4  -4    4.80    5.53
  11  -4   4    4.38    5.48
 -11   3  -4    3.66    5.23
  11  -3   4   -2.60    5.68
 -11   2  -4   19.91    6.47
  11  -2   4   25.67    6.00
 -11   1  -4   17.17    6.54
  11  -1   4   28.61    6.00
 -11   0  -4   56.24    8.57
  11   0   4   58.52    7.23
 -11  -1  -4   69.64   10.07
 -11  -2  -4   56.75    9.11
 -11  -3  -4  110.24   12.18
 -11  -4  -4   43.80    9.14
 -11  -5  -4    8.34    7.49
  11   5   4   28.56    9.79
 -11  -6  -4    7.62    8.30
  11   6   4   37.94   11.99
 -11  -7  -4   -1.09    8.08
  11   7   4   23.72   11.89
 -11  -8  -4   -4.42    8.38
  11   8   4   23.90   12.08
 -10   8  -5    9.11    5.01
 -10   7  -5   29.04    6.32
  10  -7   5   26.27    7.81
 -10   6  -5   22.88    5.98
  10  -6   5   13.68    6.78
 -10   5  -5   33.27    6.47
  10  -5   5   21.82    7.17
 -10   4  -5   57.81    8.13
  10  -4   5   46.04    7.97
 -10   3  -5   49.04    7.17
  10  -3   5   64.46    8.27
 -10   2  -5    9.69    5.10
  10  -2   5    9.99    5.54
 -10   1  -5   35.46    6.97
  10  -1   5   20.50    5.35
 -10   0  -5    6.87    5.23
  10   0   5    0.25    3.85
 -10  -1  -5    1.38    5.18
  10   1   5    4.79    3.72
 -10  -2  -5    3.01    6.31
  10   2   5    3.84    4.05
 -10  -3  -5   41.34    7.75
  10   3   5   54.56    5.90
 -10  -4  -5   36.36    8.24
  10   4   5   38.01    7.72
 -10  -5  -5   41.47    8.23
  10   5   5   47.50    9.68
 -10  -6  -5   53.40    8.93
  10   6   5   90.54   14.05
 -10  -7  -5   37.12    9.34
  10   7   5   79.90   15.44
  10   8   5   73.21   15.56
  10   9   5   59.70   15.61
  10  10   5   41.69   27.07
  -9   8  -6   37.76    7.57
   9  -8   6   27.28    8.33
  -9   7  -6    4.95    4.62
   9  -7   6    0.28    6.42
  -9   6  -6   -0.85    4.03
   9  -6   6    3.70    5.51
  -9   5  -6   -1.04    4.03
   9  -5   6   -6.90    4.95
  -9   4  -6    2.86    4.20
   9  -4   6   -5.96    4.33
  -9   3  -6   32.95    6.06
   9  -3   6   38.65    6.68
  -9   2  -6   39.53    6.30
   9  -2   6   36.45    6.30
  -9   1  -6  114.39    8.72
   9  -1   6  105.79    7.65
  -9   0  -6  103.93    8.14
   9   0   6  125.27    7.84
  -9  -1  -6   39.40    6.97
   9   1   6   38.46    5.58
  -9  -2  -6  147.55   10.02
   9   2   6  148.08    7.96
  -9  -3  -6    6.15    5.23
   9   3   6    5.20    3.89
  -9  -4  -6    9.01    5.98
   9   4   6    4.58    3.50
   9   4   6    6.38    5.12
  -9  -5  -6    6.33    3.80
  -9  -5  -6    4.47    5.32
   9   5   6   10.75    6.50
  -9  -6  -6   13.04    4.05
  -9  -6  -6   13.18    6.02
   9   6   6   16.03    7.86
  -9  -7  -6   12.51    6.98
   9   7   6   25.63   11.02
   9   8   6   46.78   13.62
   9   9   6   57.14   15.07
   9  10   6   47.07   15.92
   9  11   6   63.24   18.61
  -8   8  -7   32.05    7.23
   8  -8   7   28.03    8.43
  -8   7  -7   27.80    6.31
   8  -7   7   17.46    7.10
  -8   6  -7   16.32    5.55
   8  -6   7   10.14    6.38
  -8   5  -7   90.66    9.25
   8  -5   7   72.51    8.58
  -8   4  -7   15.16    4.89
   8  -4   7   10.52    5.24
  -8   3  -7    0.86    3.85
   8  -3   7   -0.28    4.39
  -8   2  -7    5.64    4.58
   8  -2   7    1.52    4.11
  -8   1  -7    2.98    4.57
   8  -1   7    5.39    4.32
  -8   0  -7   12.46    4.67
   8   0   7    8.64    4.31
  -8  -1  -7   10.14    4.48
   8   1   7    8.33    4.17
  -8  -2  -7   95.26    8.22
   8   2   7   82.47    6.48
  -8  -3  -7   43.34    6.03
   8   3   7   45.96    5.45
  -8  -4  -7   48.39    6.76
  -8  -4  -7   60.13    5.98
   8   4   7   52.93    8.11
  -8  -5  -7  207.89   10.11
  -8  -5  -7  231.39    9.11
   8   5   7  232.93   16.25
  -8  -6  -7   70.87    5.88
  -8  -6  -7   63.50    7.38
   8   6   7   76.50   10.88
  -8  -7  -7   24.33    4.50
   8   7   7   31.11   10.68
  -8  -8  -7   12.79    3.99
   8   8   7    4.06   10.70
   8   9   7    7.56   13.72
   8  10   7   12.57   15.05
   8  11   7   31.20   16.90
   7  -8   8   -2.43    7.59
  -7   7  -8   -0.80    4.18
   7  -7   8   -2.84    5.47
  -7   6  -8    4.99    4.80
   7  -6   8   -5.59    5.87
  -7   5  -8   59.41    8.00
   7  -5   8   48.25    7.63
  -7   4  -8   41.16    7.01
   7  -4   8   24.85    6.27
  -7   3  -8   60.97    7.45
   7  -3   8   50.40    6.92
  -7   2  -8  123.34    8.11
   7  -2   8  121.26    8.20
  -7   1  -8   92.03    6.96
   7  -1   8  100.19    7.48
  -7   0  -8  123.17    7.95
   7   0   8  118.13    7.68
  -7  -1  -8   15.06    4.38
   7   1   8   16.06    4.60
  -7  -2  -8   13.94    4.10
   7   2   8   10.52    4.12
  -7  -3  -8    5.73    3.72
  -7  -3  -8    3.80    3.64
   7   3   8    5.50    5.47
  -7  -4  -8    7.26    3.77
  -7  -4  -8   11.76    4.22
   7   4   8    7.10    6.13
  -7  -5  -8   46.82    5.67
  -7  -5  -8   45.69    5.63
   7   5   8   29.45    8.46
  -7  -6  -8   72.99    6.11
   7   6   8   81.78   12.47
  -7  -7  -8   73.94    6.28
   7   7   8   90.27   14.93
  -7  -8  -8  149.27    8.09
   7   8   8  164.80   20.55
  -7  -9  -8   70.40    7.19
   7   9   8  104.94   20.65
  -7 -10  -8   36.42    6.19
   7  10   8   38.64   17.48
   7  11   8   47.55   17.61
   7  12   8   24.18   17.41
  -6   7  -9   39.02    8.58
   6  -7   9   10.37    6.74
  -6   6  -9   22.51    6.63
   6  -6   9    6.76    6.23
  -6   5  -9   -0.63    4.61
   6  -5   9   -6.84    4.48
  -6   4  -9    2.94    4.37
   6  -4   9   -2.31    4.34
  -6   3  -9    0.77    3.81
   6  -3   9    0.57    4.35
  -6   2  -9   15.78    4.65
   6  -2   9   19.35    5.11
  -6   1  -9   24.96    5.42
   6  -1   9   13.92    4.60
  -6   0  -9   67.45    6.57
   6   0   9   55.85    6.47
  -6  -1  -9   81.14    6.39
   6   1   9   77.12    7.14
  -6  -2  -9   73.82    6.82
  -6  -2  -9   56.57    5.19
  -6  -3  -9   58.26    5.31
  -6  -3  -9   56.13    5.95
   6   3   9   51.04    7.73
  -6  -4  -9   51.08    5.85
  -6  -4  -9   46.12    4.85
   6   4   9   46.63    8.43
  -6  -5  -9   27.46    4.91
   6   5   9   21.40    8.36
  -6  -6  -9   72.33    6.78
   6   6   9   63.73   11.71
  -6  -7  -9   25.59    5.22
   6   7   9   31.93   11.72
  -6  -8  -9   -0.29    3.62
   6   8   9   10.24   11.73
  -6  -9  -9   25.31    5.61
   6   9   9   29.30   16.98
  -6 -10  -9   16.48    4.92
   6  10   9   26.95   17.42
  -6 -11  -9   33.37    6.29
   6  11   9   29.89   19.52
  -6 -12  -9   35.60    6.42
   6  12   9   72.07   22.15
  -6 -13  -9   45.50    7.18
   6  13   9   63.06   36.47
  -5   6 -10   21.58    6.63
  -5   5 -10   34.10    7.03
   5  -5  10   26.83    6.77
  -5   4 -10   34.06    6.39
   5  -4  10   30.98    6.34
  -5   3 -10   53.84    7.45
   5  -3  10   34.11    6.63
  -5   2 -10   34.95    5.97
   5  -2  10   28.08    5.55
  -5   1 -10   31.09    5.24
   5  -1  10   27.16    5.53
  -5   0 -10   27.95    4.93
   5   0  10   30.06    5.41
  -5  -1 -10    3.17    3.44
   5   1  10   -0.44    3.52
  -5  -2 -10    9.38    3.49
  -5  -2 -10    7.39    3.90
  -5  -3 -10   42.53    5.62
  -5  -3 -10   38.24    4.61
   5   3  10   34.70    6.88
  -5  -4 -10   84.19    6.65
   5   4  10   70.84    9.74
  -5  -5 -10   56.98    6.18
   5   5  10   53.84    9.74
  -5  -6 -10  111.62    7.30
   5   6  10  132.43   18.32
  -5  -7 -10   49.41    6.03
   5   7  10   40.43   12.90
  -5  -8 -10   46.68    6.10
   5   8  10   47.36   15.28
  -5  -9 -10   44.71    6.11
   5   9  10   41.00   16.33
  -5 -10 -10    4.86    4.23
   5  10  10  -10.00   15.69
  -5 -11 -10    7.62    5.09
   5  11  10   17.04   20.83
  -5 -12 -10    3.35    4.43
   5  12  10  -12.78   19.29
  -5 -13 -10    7.14    4.91
   5  13  10    2.30   22.16
  -4   5 -11    8.97    5.64
  -4   4 -11   27.11    6.30
  -4   3 -11   44.06    7.52
  -4   2 -11   42.02    6.51
   4  -2  11   45.30    6.66
  -4   1 -11   53.63    6.69
   4  -1  11   51.99    6.75
  -4   0 -11   66.73    6.76
   4   0  11   61.00    6.85
  -4  -1 -11   57.45    6.30
   4   1  11   41.85    5.66
  -4  -2 -11   57.73    6.60
  -4  -2 -11   57.15    5.76
   4   2  11   42.71    7.09
  -4  -3 -11   27.79    7.00
  -4  -3 -11   26.70    4.94
   4   3  11   29.58    6.90
  -4  -4 -11   17.56    4.59
   4   4  11   15.44    6.69
  -4  -5 -11   -0.69    3.53
   4   5  11    0.33    5.84
  -4  -6 -11    7.07    4.00
   4   6  11    3.68    8.00
  -4  -7 -11   14.79    4.38
   4   7  11   16.79   12.25
  -4  -8 -11   26.53    5.32
   4   8  11   30.93   13.93
  -4  -9 -11   64.71    7.29
   4   9  11   97.46   19.72
  -4 -10 -11   61.92    7.46
   4  10  11   91.37   21.08
  -4 -11 -11   62.18    7.80
   4  11  11   32.83   20.47
  -4 -12 -11    9.78    5.21
   4  12  11   13.72   21.10
  -4 -13 -11   20.26    6.13
   4  13  11   12.64   26.00
  -3   4 -12   -1.24    5.68
  -3   3 -12    9.41    5.29
  -3   2 -12    5.02    4.97
  -3   1 -12    2.89    4.01
  -3   0 -12   11.68    4.78
   3   0  12   15.08    4.56
  -3  -1 -12    9.35    4.36
   3   1  12   10.30    4.21
  -3  -2 -12   72.34    6.97
  -3  -2 -12   71.91    7.03
  -3  -2 -12   64.60   10.86
   3   2  12   95.20   11.81
  -3  -3 -12   60.14   10.07
  -3  -3 -12   67.74    7.15
   3   3  12   65.80    9.87
  -3  -4 -12   81.38    6.87
  -3  -4 -12  103.21   12.67
   3   4  12   91.21   12.28
  -3  -5 -12   65.65    6.93
   3   5  12   68.70   12.21
  -3  -6 -12   52.53    6.63
   3   6  12   52.44   12.25
  -3  -7 -12   75.49    7.53
   3   7  12   96.09   15.91
  -3  -8 -12   34.41    6.35
   3   8  12   43.95   15.51
  -3  -9 -12    2.91    4.24
   3   9  12    6.50   15.11
  -3 -10 -12   -0.81    4.46
   3  10  12    4.75   18.39
  -3 -11 -12   14.15    5.42
   3  11  12   -0.78   19.12
  -3 -12 -12   22.23    6.20
   3  12  12  -11.05   20.57
  -2   2 -13   23.83    7.26
  -2   1 -13   30.76    6.96
  -2   0 -13   12.01    5.53
  -2  -1 -13   11.59    5.60
  -2  -2 -13   -2.84    7.69
  -2  -3 -13   -1.87    4.09
  -2  -3 -13   -0.77    7.34
   2   3  13   15.53    7.31
  -2  -4 -13   -0.78    8.92
  -2  -4 -13    5.25    4.44
   2   4  13   14.54    9.26
  -2  -5 -13   24.58    5.22
  -2  -5 -13   36.19   12.54
   2   5  13   42.44   12.69
  -2  -6 -13   12.17   11.97
  -2  -6 -13   23.80    5.30
   2   6  13   21.08   12.47
  -2  -7 -13   11.09    4.76
   2   7  13   19.58   12.59
  -2  -8 -13   23.55    5.79
   2   8  13   24.41   16.24
  -2  -9 -13   30.40    6.17
   2   9  13   10.69   15.31
  -2 -10 -13   29.05    6.29
   2  10  13    7.11   19.61
  -2 -11 -13   20.86    5.98
   2  11  13   19.07   19.65
  -2 -12 -13   11.59    5.78
   2  12  13  -32.35   22.06
  -1  -2 -14   17.78   13.15
  -1  -3 -14   42.47   13.44
   1   3  14  138.39   14.11
  -1  -4 -14   69.90   15.77
   1   4  14  108.47   14.68
  -1  -5 -14   18.36   14.03
   1   5  14   48.00   13.14
  -1  -6 -14   -0.86   11.60
  -1  -6 -14   -5.62    3.78
   1   6  14   11.89   12.03
  -1  -7 -14   -5.99   12.51
  -1  -7 -14    5.24    5.04
   1   7  14    2.05   12.55
  -1  -8 -14    4.14    4.70
   1   8  14   -4.08   12.70
  -1  -9 -14    7.06    5.17
   1   9  14    2.83   16.89
  -1 -10 -14   12.18    5.63
   1  10  14    5.39   17.20
  -1 -11 -14   38.39    8.95
   0  -3 -15    7.79   15.72
   0  -5 -15   33.87   17.97
   0  -6 -15   34.52   18.36
   0   6  15   86.44   17.21
   0  -7 -15   30.89   17.01
   0   7  15   48.65   15.78
   0  -8 -15   41.39    7.65
   0   8  15   53.91   26.56
   0  -9 -15   15.62    5.94
  13  -5   3   33.10    8.29
 -13   4  -3   25.49    7.75
  13  -4   3   21.16    7.37
 -13   3  -3   14.81    6.87
 -13   2  -3   14.89    7.87
 -13   1  -3    3.61    6.38
 -13   0  -3   -3.39    7.31
 -13  -1  -3    9.32    7.72
 -13  -2  -3   17.04    9.32
 -13  -3  -3   20.46    9.72
 -13  -4  -3   32.82   11.34
 -12   6  -4   16.52    6.20
  12  -6   4   -8.97    6.17
 -12   5  -4   11.46    5.76
  12  -5   4    0.31    7.04
 -12   4  -4   33.38    6.92
  12  -4   4   16.38    6.47
 -12   3  -4   38.61    7.50
  12  -3   4   33.89    7.13
 -12   2  -4   38.10    8.11
  12  -2   4   34.46    6.83
 -12   1  -4   49.35    8.50
  12  -1   4   54.73    7.85
 -12   0  -4   33.91    8.38
 -12  -1  -4   20.33    8.29
 -12  -2  -4    9.88    7.73
 -12  -3  -4   -8.78    6.25
 -12  -4  -4    0.29    8.09
 -12  -5  -4    2.92    8.03
 -12  -6  -4   -0.37    8.26
  12   6   4   34.55   13.46
 -12  -7  -4    6.13    8.38
  12   7   4   45.57   14.06
 -11   7  -5   30.64    6.68
 -11   6  -5   20.10    5.74
  11  -6   5    4.38    6.72
 -11   5  -5    9.78    5.32
  11  -5   5   11.85    6.42
 -11   4  -5   17.64    5.80
  11  -4   5   11.49    6.13
 -11   3  -5    3.15    4.75
  11  -3   5    5.33    5.21
 -11   2  -5   27.38    6.35
  11  -2   5   12.00    5.51
 -11   1  -5   33.27    7.44
  11  -1   5   19.11    6.24
 -11   0  -5   22.54    7.12
  11   0   5    8.26    4.79
 -11  -1  -5   47.05    8.06
  11   1   5   42.51    6.46
 -11  -2  -5  110.36   10.98
  11   2   5  118.53    7.49
 -11  -4  -5   37.00    8.55
 -11  -5  -5   14.05    7.35
 -11  -6  -5   18.05    8.46
  11   6   5   26.81   10.42
 -11  -7  -5   -1.39    8.02
  11   7   5   18.90   10.68
  11   8   5   24.81   13.48
  11   9   5   21.82   13.33
 -10   7  -6    1.34    4.54
  10  -7   6    3.85    7.20
 -10   6  -6   20.72    6.12
  10  -6   6   14.94    6.94
 -10   5  -6   29.36    6.21
  10  -5   6   26.96    7.20
 -10   4  -6   34.20    6.44
  10  -4   6   23.16    6.66
 -10   3  -6   70.59    8.14
  10  -3   6   80.40    8.63
 -10   2  -6   23.49    5.78
  10  -2   6   17.66    5.51
 -10   1  -6   12.95    5.21
  10  -1   6    5.46    4.70
 -10   0  -6    7.25    4.97
  10   0   6   15.32    5.28
 -10  -1  -6    1.04    4.86
  10   1   6    2.28    4.02
 -10  -2  -6    4.59    5.19
  10   2   6    4.79    3.83
 -10  -3  -6   26.04    7.18
  10   3   6   35.90    5.52
 -10  -4  -6   31.88    7.78
  10   4   6   31.57    5.14
 -10  -5  -6   58.29    9.18
  10   5   6   45.62    8.82
 -10  -6  -6   37.06    8.76
  10   6   6   51.58   10.84
 -10  -7  -6   61.62    9.83
  10   7   6   81.77   14.87
  10   8   6  107.11   17.43
  10   9   6   56.92   15.42
  10  10   6   53.12   16.02
  -9   7  -7    6.83    5.21
   9  -7   7    1.09    7.27
  -9   6  -7    5.35    5.30
   9  -6   7    0.29    5.87
  -9   5  -7    6.66    4.51
   9  -5   7   -9.75    4.81
  -9   4  -7    5.55    4.75
   9  -4   7    5.19    5.25
  -9   3  -7   11.21    4.73
   9  -3   7    9.06    5.13
  -9   2  -7   35.96    6.12
   9  -2   7   31.63    6.19
  -9   1  -7   71.71    7.76
   9  -1   7   63.71    7.08
  -9   0  -7  109.44    7.91
   9   0   7  126.02    8.65
  -9  -1  -7   45.87    6.53
   9   1   7   39.77    5.82
  -9  -2  -7   55.49    7.32
   9   2   7   47.53    5.89
  -9  -3  -7   95.69    8.90
   9   3   7   73.88    6.71
  -9  -4  -7   43.55    6.91
   9   4   7   45.25    5.65
  -9  -5  -7    4.95    5.34
  -9  -5  -7   -2.64    3.17
   9   5   7    3.15    5.69
  -9  -6  -7    3.94    3.44
  -9  -6  -7    8.12    5.50
   9   6   7    9.68    7.39
  -9  -7  -7    0.26    3.77
   9   7   7    9.84    8.57
   9   8   7   37.47   13.86
   9   9   7   28.74   15.70
   9  10   7   69.84   17.87
   9  11   7   69.99   20.35
  -8   7  -8   15.54    5.88
   8  -7   8    8.16    6.74
  -8   6  -8   45.45    7.30
   8  -6   8   40.34    7.91
  -8   5  -8   20.60    6.09
   8  -5   8   20.13    6.58
  -8   4  -8   36.75    6.52
   8  -4   8   49.02    8.03
  -8   3  -8   25.42    5.43
   8  -3   8   11.77    5.44
  -8   2  -8    5.28    4.09
   8  -2   8    5.50    4.55
  -8   1  -8   -2.60    3.98
   8  -1   8   -0.15    3.95
  -8   0  -8   17.45    4.76
   8   0   8    9.33    4.41
  -8  -1  -8   72.92    6.63
   8   1   8   77.23    7.22
  -8  -2  -8   27.67    5.53
   8   2   8   21.76    4.75
  -8  -3  -8   42.18    6.09
   8   3   8   41.64    5.60
  -8  -4  -8  100.57    6.93
  -8  -4  -8  101.62    7.46
  -8  -5  -8  100.07    7.39
  -8  -5  -8   95.88    6.84
   8   5   8  111.64   14.16
  -8  -6  -8  113.54    7.52
   8   6   8  114.54   13.55
  -8  -7  -8   43.98    5.74
   8   7   8   51.02   12.17
  -8  -8  -8    9.08    4.12
   8   8   8   15.49   10.93
  -8  -9  -8   25.94    5.42
   8   9   8   21.02   13.50
   8  10   8   17.68   14.32
   8  11   8   19.93   17.34
   8  12   8   30.56   28.10
   7  -7   9   -9.85    5.35
  -7   6  -9   10.11    5.46
   7  -6   9   -0.62    5.51
  -7   5  -9   18.75    5.71
   7  -5   9    9.02    6.30
  -7   4  -9   49.70    7.63
   7  -4   9   39.19    7.59
  -7   3  -9   33.51    6.11
   7  -3   9   41.22    7.36
  -7   2  -9   28.84    5.82
   7  -2   9   13.85    5.02
  -7   1  -9   58.94    6.61
   7  -1   9   61.34    7.06
  -7   0  -9  105.63    7.06
   7   0   9  127.15    8.10
  -7  -1  -9   48.74    5.74
   7   1   9   43.59    6.06
  -7  -2  -9   10.91    3.81
   7   2   9    3.26    3.73
  -7  -3  -9    6.30    3.67
  -7  -3  -9    0.86    3.55
  -7  -4  -9    3.71    3.65
  -7  -4  -9    2.97    3.34
   7   4   9   -2.73    6.06
  -7  -5  -9    3.90    3.66
   7   5   9    7.01    7.19
  -7  -6  -9   53.86    6.21
   7   6   9   42.54   10.46
  -7  -7  -9   96.03    7.04
   7   7   9  106.71   15.93
  -7  -8  -9   21.58    4.97
   7   8   9   21.37   14.75
  -7  -9  -9   55.28    7.14
   7   9   9   74.89   18.58
  -7 -10  -9   81.04    8.00
   7  10   9   77.03   20.26
  -7 -11  -9   38.83    6.78
   7  11   9   68.40   20.86
   7  12   9   21.49   17.27
  -6   6 -10   36.36    9.02
   6  -6  10   30.24    7.76
  -6   5 -10   24.50    6.62
   6  -5  10    1.34    6.05
  -6   4 -10    6.33    4.59
   6  -4  10   -0.47    4.73
  -6   3 -10    3.12    4.03
   6  -3  10    4.66    4.58
  -6   2 -10   -0.02    4.20
   6  -2  10    6.08    5.08
  -6   1 -10   21.86    5.26
   6  -1  10   29.84    5.82
  -6   0 -10   53.57    6.09
   6   0  10   56.50    6.76
  -6  -1 -10   70.22    6.68
   6   1  10   73.91    7.22
  -6  -2 -10   77.03    7.24
  -6  -2 -10   73.91    6.07
  -6  -3 -10   38.10    5.72
  -6  -3 -10   43.91    5.04
  -6  -4 -10   57.11    6.19
   6   4  10   37.23    8.33
  -6  -5 -10   32.83    5.33
   6   5  10   27.98    8.64
  -6  -6 -10   51.96    6.18
   6   6  10   61.62   11.96
  -6  -7 -10    3.47    3.83
   6   7  10    2.20   10.75
  -6  -8 -10    0.00    4.27
   6   8  10   -3.85   13.38
  -6  -9 -10    2.14    4.01
   6   9  10    4.17   16.52
  -6 -10 -10   26.85    5.73
   6  10  10   16.96   18.03
  -6 -11 -10    0.99    4.92
   6  11  10  -10.88   18.19
  -6 -12 -10   31.63    6.37
   6  12  10   52.75   22.70
  -6 -13 -10   34.41    7.23
  -5   5 -11   28.53    6.97
  -5   4 -11   31.65    6.58
  -5   3 -11   32.09    6.25
   5  -3  11   36.82    7.11
  -5   2 -11   35.92    6.08
   5  -2  11   28.90    6.53
  -5   1 -11   24.79    5.61
   5  -1  11   28.88    5.84
  -5   0 -11    6.40    3.99
   5   0  11    4.78    4.16
  -5  -1 -11    8.38    3.81
   5   1  11    5.93    3.90
  -5  -2 -11   -1.19    3.75
  -5  -2 -11   -0.90    2.88
  -5  -3 -11   26.27    4.37
  -5  -3 -11   24.54    5.01
  -5  -4 -11   40.17    5.72
   5   4  11   37.29    8.07
  -5  -5 -11   55.96    6.40
   5   5  11   58.09   10.68
  -5  -6 -11   64.55    6.92
   5   6  11   69.81   12.04
  -5  -7 -11  109.44    7.74
   5   7  11  121.33   16.91
  -5  -8 -11   66.89    7.24
   5   8  11   89.56   17.82
  -5  -9 -11   38.03    6.28
   5   9  11   44.34   19.44
  -5 -10 -11    5.81    4.40
   5  10  11    9.34   17.76
  -5 -11 -11   23.17    5.83
   5  11  11    8.60   19.75
  -5 -12 -11   -5.41    3.97
   5  12  11  -25.01   22.36
  -5 -13 -11    4.20    5.05
   5  13  11  -33.60   33.22
  -4   4 -12    4.76    5.19
  -4   3 -12   26.35    6.69
  -4   2 -12   17.86    5.77
  -4   1 -12   42.82    6.93
   4  -1  12   36.50    6.17
  -4   0 -12   82.24    7.43
   4   0  12   65.46    7.41
  -4  -1 -12   75.38    7.57
   4   1  12   68.38    7.60
  -4  -2 -12   65.17    7.23
  -4  -2 -12   73.97    6.99
  -4  -3 -12   17.75    4.84
   4   3  12   17.90    6.64
  -4  -4 -12   16.44    4.68
   4   4  12   18.97    7.37
  -4  -5 -12    5.82    3.99
   4   5  12   -7.12    6.71
  -4  -6 -12    0.24    3.82
   4   6  12   -5.65    8.05
  -4  -7 -12   -3.19    4.10
   4   7  12  -12.21   11.36
  -4  -8 -12   11.69    4.77
   4   8  12   24.73   16.01
  -4  -9 -12   23.41    5.62
   4   9  12   25.73   18.93
  -4 -10 -12   90.17    8.82
   4  10  12   89.15   24.60
  -4 -11 -12   59.89    7.86
   4  11  12   87.17   25.77
  -4 -12 -12   17.80    5.99
   4  12  12   27.09   22.36
  -3   2 -13    2.38    5.22
  -3   1 -13    5.93    5.05
  -3   0 -13    6.84    4.85
  -3  -1 -13   11.55    4.88
   3   1  13   10.29    4.69
  -3  -2 -13   22.54    5.83
  -3  -3 -13   33.52   10.81
  -3  -3 -13   38.03    6.48
   3   3  13   43.23    9.36
  -3  -4 -13   35.23    5.87
  -3  -4 -13   43.38   11.15
   3   4  13   50.98   11.52
  -3  -5 -13   90.76   14.24
  -3  -5 -13   92.87    7.55
   3   5  13   88.50   14.22
  -3  -6 -13   19.50    5.18
   3   6  13   39.67   13.83
  -3  -7 -13    4.84    5.08
   3   7  13   -0.04   11.63
  -3  -8 -13    6.15    4.77
   3   8  13    5.72   15.47
  -3  -9 -13    9.55    4.91
   3   9  13    1.86   18.01
  -3 -10 -13    6.61    5.27
   3  10  13  -28.46   16.34
  -3 -11 -13    9.38    5.04
   3  11  13  -11.17   19.33
  -3 -12 -13    8.90    5.28
   3  12  13  -13.17   22.11
  -2   1 -14   43.69    8.20
  -2   0 -14   30.21   10.17
  -2  -3 -14   -6.62    9.67
   2   3  14   47.68    9.89
  -2  -4 -14    0.26    3.93
  -2  -4 -14   -4.14   10.66
   2   4  14   28.71   10.81
  -2  -5 -14   -5.41   11.09
  -2  -5 -14    3.75    4.41
   2   5  14   15.46   12.22
  -2  -6 -14   46.01    7.15
  -2  -6 -14   17.28   14.46
   2   6  14   34.54   14.88
  -2  -7 -14   35.63    6.53
   2   7  14   40.51   15.00
  -2  -8 -14   34.30    6.39
   2   8  14   38.72   15.97
  -2  -9 -14   37.64    6.97
   2   9  14   59.34   18.47
  -2 -10 -14   33.96    6.71
   2  10  14   33.63   21.73
  -2 -11 -14   16.66    6.02
   2  11  14   12.19   24.81
  -1  -4 -15    8.46   12.90
   1   4  15   57.38   11.91
  -1  -5 -15    5.87   15.53
   1   5  15   62.14   14.32
  -1  -6 -15   10.34   14.09
   1   6  15   24.97   13.00
  -1  -7 -15   10.83    5.64
  -1  -7 -15  -15.23   13.16
   1   7  15    2.50   13.31
  -1  -8 -15   -6.04    5.01
   1   8  15  -17.82   13.43
  -1  -9 -15   -2.67    4.58
   1   9  15  -14.65   19.05
  13  -5   4   32.56   12.20
 -13   4  -4   44.85   14.20
  13  -4   4   30.42    8.13
 -13   3  -4   30.00    7.50
  13  -3   4   12.21    7.31
 -13   2  -4   10.09    7.00
  13  -2   4    0.64    8.81
 -13   1  -4   10.04    7.45
 -13   0  -4    8.15    7.53
 -13  -1  -4   -0.16    6.63
 -13  -2  -4   15.45    8.89
 -13  -3  -4   16.70    9.22
 -13  -4  -4   11.86    8.62
 -13  -5  -4   18.24   11.22
 -12   5  -5   21.99    6.94
  12  -5   5   -0.05    6.36
 -12   4  -5   25.34    6.61
  12  -4   5    6.32    6.16
 -12   3  -5   34.17    6.95
  12  -3   5   20.49    6.71
 -12   2  -5   53.66    8.51
  12  -2   5   32.42    6.93
 -12   1  -5   37.48    7.68
  12  -1   5   36.15    6.98
 -12   0  -5   78.92   10.35
  12   0   5   70.43    7.79
 -12  -1  -5   42.18    8.86
 -12  -2  -5   15.43    7.62
 -12  -3  -5    5.68    6.83
 -12  -4  -5    1.10    6.99
 -12  -5  -5   -1.39    6.81
 -12  -6  -5   -1.96    7.06
 -12  -7  -5   10.27    8.14
  12   7   5   54.68   16.79
 -11   6  -6   35.84    7.26
  11  -6   6   22.95    7.88
 -11   5  -6   36.63    6.84
  11  -5   6   21.21    7.19
 -11   4  -6    8.26    5.21
  11  -4   6   -2.63    6.29
 -11   3  -6    6.26    5.67
  11  -3   6    5.24    5.31
 -11   2  -6    1.85    4.82
  11  -2   6    1.01    5.01
 -11   1  -6    8.75    5.35
  11  -1   6    5.22    5.02
 -11   0  -6    5.74    5.92
  11   0   6   15.96    5.33
 -11  -1  -6   25.15    6.62
  11   1   6   21.49    5.85
 -11  -2  -6   18.35    6.93
  11   2   6   19.04    5.08
 -11  -3  -6   99.21   10.61
  11   3   6  115.57    8.09
 -11  -4  -6   42.06    8.30
 -11  -5  -6   23.90    8.08
 -11  -6  -6    9.34    7.06
 -11  -7  -6    3.11    8.28
  11   7   6   27.10   11.67
  11   8   6   20.05   12.48
  11   9   6   30.82   14.69
 -10   6  -7   10.21    5.15
  10  -6   7    5.28    7.22
 -10   5  -7   38.93    7.19
  10  -5   7   17.75    6.89
 -10   4  -7   53.76    7.58
  10  -4   7   56.21    8.42
 -10   3  -7   59.09    7.94
  10  -3   7   53.09    7.76
 -10   2  -7   87.68    8.88
  10  -2   7   77.62    8.67
 -10   1  -7   17.61    5.47
  10  -1   7   19.16    5.87
 -10   0  -7   18.71    5.87
  10   0   7   14.84    5.01
 -10  -1  -7    9.22    4.97
  10   1   7    4.74    4.72
 -10  -2  -7    6.29    4.85
  10   2   7    3.77    3.96
 -10  -3  -7   12.53    5.50
  10   3   7   17.56    4.91
 -10  -4  -7   14.67    6.32
  10   4   7   10.13    4.40
 -10  -5  -7   11.53    6.26
  10   5   7   14.70    4.30
 -10  -6  -7    7.03    6.59
  10   6   7   25.24    8.69
  10   7   7   40.44   11.17
  10   8   7   88.38   15.98
  10   9   7   59.62   16.57
  10  10   7   27.34   14.78
  -9   6  -8    5.74    5.00
   9  -6   8   -6.24    5.86
  -9   5  -8    3.64    4.70
   9  -5   8    4.38    5.93
  -9   4  -8    4.08    4.28
   9  -4   8   -1.34    5.21
  -9   3  -8   14.57    5.57
   9  -3   8   12.12    5.85
  -9   2  -8   48.28    6.87
   9  -2   8   40.15    6.82
  -9   1  -8   62.29    7.30
   9  -1   8   55.57    7.18
  -9   0  -8   82.70    8.30
   9   0   8   67.33    7.48
  -9  -1  -8  205.35    9.60
   9   1   8  227.89    9.94
  -9  -2  -8  101.41    8.07
   9   2   8   93.80    7.32
  -9  -3  -8   73.11    7.46
   9   3   8   75.32    7.03
  -9  -4  -8   79.07    8.00
   9   4   8   82.49    6.53
  -9  -5  -8    9.93    4.23
  -9  -5  -8   13.80    5.31
  -9  -6  -8   -1.74    3.51
   9   6   8    4.04    6.94
  -9  -7  -8   -1.20    4.01
   9   7   8    7.15    9.40
  -9  -8  -8   20.76    4.90
   9   8   8   33.95   12.74
   9   9   8   22.50   14.78
   9  10   8   45.70   16.45
   9  11   8   58.63   19.24
  -8   6  -9   32.83    7.24
   8  -6   9   12.82    7.66
  -8   5  -9   32.90    6.79
   8  -5   9   23.62    6.87
  -8   4  -9   61.15    8.03
   8  -4   9   56.30    8.27
  -8   3  -9   25.28    6.21
   8  -3   9   15.95    5.80
  -8   2  -9   26.09    5.58
   8  -2   9   14.72    5.33
  -8   1  -9    5.09    4.14
   8  -1   9    5.94    4.60
  -8   0  -9    6.60    4.06
   8   0   9    9.21    4.46
  -8  -1  -9    9.48    3.87
   8   1   9    5.91    4.04
  -8  -2  -9   32.75    5.20
   8   2   9   23.96    4.99
  -8  -3  -9   11.75    4.45
   8   3   9    2.18    3.56
  -8  -4  -9   71.07    7.01
  -8  -4  -9   71.40    6.78
  -8  -5  -9  111.23    7.45
   8   5   9  117.87   16.25
  -8  -6  -9   76.59    7.08
   8   6   9   58.20   11.08
  -8  -7  -9   48.84    6.31
   8   7   9   45.39   12.61
  -8  -8  -9   21.47    4.96
   8   8   9   36.58   15.16
  -8  -9  -9   18.06    4.99
   8   9   9   47.70   17.36
  -8 -10  -9   12.41    4.79
   8  10   9   10.57   14.66
   8  11   9    4.10   16.90
   8  12   9   16.32   20.37
   7  -6  10   -3.01    5.64
  -7   5 -10   17.01    5.69
   7  -5  10   -1.47    6.17
  -7   4 -10   29.58    6.17
   7  -4  10   19.37    6.92
  -7   3 -10   28.32    6.08
   7  -3  10   26.04    6.93
  -7   2 -10   63.06    7.50
   7  -2  10   61.95    8.07
  -7   1 -10   61.22    7.14
   7  -1  10   53.99    7.05
  -7   0 -10   49.53    6.12
   7   0  10   41.59    6.36
  -7  -1 -10   45.30    5.91
   7   1  10   52.33    6.82
  -7  -2 -10   15.27    4.36
   7   2  10   10.59    4.38
  -7  -3 -10   14.91    4.06
  -7  -3 -10   12.70    4.44
  -7  -4 -10    4.16    3.88
  -7  -4 -10    4.18    3.67
  -7  -5 -10    2.99    3.75
   7   5  10   -3.58    6.95
  -7  -6 -10   12.76    4.38
   7   6  10    9.29    7.93
  -7  -7 -10   70.64    7.26
   7   7  10   50.26   12.69
  -7  -8 -10   37.38    6.01
   7   8  10   53.93   15.72
  -7  -9 -10   15.95    5.14
   7   9  10   25.89   16.93
  -7 -10 -10   38.63    6.44
   7  10  10   63.87   22.50
  -7 -11 -10   24.38    5.84
   7  11  10   37.22   22.56
  -7 -12 -10   28.20    6.29
   7  12  10   36.34   21.58
  -6   5 -11   24.53    9.96
  -6   4 -11    3.53    4.76
   6  -4  11    6.32    6.03
  -6   3 -11   12.94    5.08
   6  -3  11    8.29    5.47
  -6   2 -11    2.68    4.61
   6  -2  11   -6.74    4.79
  -6   1 -11    7.40    4.49
   6  -1  11    4.38    4.74
  -6   0 -11   33.68    5.47
   6   0  11   35.55    6.13
  -6  -1 -11   76.09    6.18
   6   1  11   77.79    7.70
  -6  -2 -11   91.79    6.55
  -6  -2 -11   87.37    7.32
   6   2  11   91.60    7.22
  -6  -3 -11   69.72    7.05
  -6  -3 -11   72.72    5.78
  -6  -4 -11   42.50    5.90
  -6  -5 -11   60.80    6.71
   6   5  11   45.50    9.96
  -6  -6 -11   58.88    6.67
   6   6  11   58.70   12.52
  -6  -7 -11   24.78    5.19
   6   7  11   31.04   13.13
  -6  -8 -11   -1.39    3.94
   6   8  11   -4.43   12.73
  -6  -9 -11   -2.27    3.80
   6   9  11  -13.04   15.37
  -6 -10 -11    4.77    4.47
   6  10  11    4.81   17.74
  -6 -11 -11   -4.15    3.77
   6  11  11  -10.26   21.39
  -6 -12 -11   39.08    7.07
   6  12  11   47.44   25.57
  -6 -13 -11   12.26    6.32
  -5   4 -12   38.67    8.54
  -5   3 -12   13.57    5.47
  -5   2 -12   32.71    6.62
   5  -2  12   35.51    6.54
  -5   1 -12   21.18    5.21
   5  -1  12   20.93    5.65
  -5   0 -12   25.05    5.19
   5   0  12   24.22    5.76
  -5  -1 -12   11.70    4.02
   5   1  12    8.76    4.40
  -5  -2 -12    0.10    4.09
  -5  -2 -12    2.91    3.56
  -5  -3 -12    5.24    4.26
  -5  -4 -12   12.82    4.63
   5   4  12    5.13    7.13
  -5  -5 -12   37.74    6.03
   5   5  12   35.62    9.68
  -5  -6 -12   65.60    7.27
   5   6  12   70.62   13.77
  -5  -7 -12   61.54    7.10
   5   7  12   75.61   15.55
  -5  -8 -12   82.85    8.14
   5   8  12  111.03   19.91
  -5  -9 -12   38.43    6.61
   5   9  12   44.62   21.04
  -5 -10 -12   12.98    5.14
   5  10  12   17.44   19.18
  -5 -11 -12   17.16    5.80
   5  11  12   15.25   23.55
  -5 -12 -12    5.98    4.91
   5  12  12  -16.92   21.27
  -4   2 -13   22.28    6.07
  -4   1 -13   12.95    5.63
  -4   0 -13   38.88    6.39
   4   0  13   39.25    6.37
  -4  -1 -13   60.22    7.07
   4   1  13   58.89    7.33
  -4  -2 -13   31.59    6.55
  -4  -3 -13   30.94    5.88
  -4  -4 -13    4.28    4.37
   4   4  13    8.51    6.80
  -4  -5 -13   11.94    5.24
   4   5  13    8.90    9.50
  -4  -6 -13   -3.09    4.37
   4   6  13   -6.38   10.91
  -4  -7 -13   -2.20    4.11
   4   7  13    0.78   13.38
  -4  -8 -13    8.08    4.89
   4   8  13    1.94   15.94
  -4  -9 -13   11.65    5.21
   4   9  13    8.33   19.01
  -4 -10 -13   12.57    5.78
   4  10  13    0.67   21.21
  -4 -11 -13   20.75    5.99
   4  11  13  -14.69   23.09
  -4 -12 -13   27.04    7.43
   4  12  13   15.08   24.64
  -3   1 -14    2.44    4.96
  -3   0 -14   -2.22    4.89
  -3  -3 -14   20.96    5.89
  -3  -4 -14   25.28    5.69
  -3  -4 -14   24.96   15.68
   3   4  14   43.72   12.34
  -3  -5 -14   21.88    5.85
  -3  -5 -14   16.54   12.97
   3   5  14   47.29   13.72
  -3  -6 -14   42.97    6.98
   3   6  14   45.78   15.43
  -3  -7 -14   31.02    6.34
   3   7  14   55.53   17.25
  -3  -8 -14   17.15    5.56
   3   8  14   13.28   17.46
  -3  -9 -14    6.90    5.09
   3   9  14  -29.20   17.94
  -3 -10 -14    1.39    5.23
   3  10  14  -34.06   19.76
  -3 -11 -14    2.48    4.89
   3  11  14  -40.70   21.63
  -2  -4 -15   -6.63   14.54
   2   4  15   52.77   12.13
  -2  -5 -15   -5.30   11.44
   2   5  15   23.65   12.07
  -2  -6 -15   11.53    5.60
  -2  -6 -15  -22.18   13.77
   2   6  15   14.27   14.38
  -2  -7 -15   23.88    6.27
   2   7  15   35.13   16.97
  -2  -8 -15   19.49    6.29
   2   8  15   31.62   16.32
  -2  -9 -15   27.59    7.28
   2   9  15   35.95   18.45
  13  -4   5   11.80    7.28
 -13   3  -5   30.50    7.14
  13  -3   5   15.56    7.49
 -13   2  -5   20.40    6.79
  13  -2   5   10.50    6.26
 -13   1  -5   12.55    6.53
  13  -1   5    2.48    6.27
 -13   0  -5   -0.93    5.93
 -13  -1  -5    0.80    6.08
 -13  -2  -5    7.22    7.25
 -13  -3  -5   21.17    8.91
 -13  -4  -5   18.74    8.54
 -13  -5  -5   40.58   10.56
  12  -5   6   -0.99    5.99
 -12   4  -6   14.27    5.96
  12  -4   6    5.42    6.43
 -12   3  -6   19.65    6.37
  12  -3   6   14.27    6.47
 -12   2  -6   22.97    6.78
  12  -2   6    8.26    5.53
 -12   1  -6   28.35    6.80
  12  -1   6   23.69    6.67
 -12   0  -6   35.75    7.42
  12   0   6   45.46    6.88
 -12  -1  -6   25.59    7.10
  12   1   6   20.15    5.70
 -12  -2  -6   13.70    6.56
 -12  -3  -6    8.86    7.46
 -12  -4  -6    0.29    6.50
 -12  -5  -6   -4.08    7.38
 -12  -6  -6   -5.90    6.94
  12   8   6   77.75   23.85
 -11   5  -7   31.62    7.10
  11  -5   7    8.71    7.08
 -11   4  -7   37.60    7.05
  11  -4   7   19.67    7.02
 -11   3  -7    6.44    5.47
  11  -3   7   -0.76    5.47
 -11   2  -7   -0.50    4.67
  11  -2   7   -5.59    4.76
 -11   1  -7   -0.59    4.49
  11  -1   7   -0.20    4.83
 -11   0  -7    9.67    5.79
  11   0   7    4.37    5.18
 -11  -1  -7   20.52    5.99
  11   1   7   23.37    6.10
 -11  -2  -7   37.78    7.06
  11   2   7   32.89    6.34
 -11  -3  -7   46.57    7.83
  11   3   7   44.07    6.12
 -11  -4  -7   48.56    8.77
  11   4   7   40.68    6.15
 -11  -5  -7   28.39    7.24
 -11  -6  -7   33.94    7.67
  11   8   7   27.33   12.03
  11   9   7   26.81   13.16
 -10   5  -8   21.59    5.79
  10  -5   8   13.16    6.84
 -10   4  -8   48.05    7.22
  10  -4   8   46.63    8.16
 -10   3  -8   71.26    8.31
  10  -3   8   48.05    7.89
 -10   2  -8   48.92    7.64
  10  -2   8   33.45    6.91
 -10   1  -8   54.78    7.56
  10  -1   8   47.20    7.19
 -10   0  -8   26.83    6.02
  10   0   8   17.92    5.46
 -10  -1  -8   58.16    7.56
  10   1   8   55.62    7.45
 -10  -2  -8   18.04    5.84
  10   2   8   10.98    4.59
 -10  -3  -8   14.34    5.61
  10   3   8   12.19    4.41
 -10  -4  -8   20.66    6.16
  10   4   8   18.20    4.70
 -10  -5  -8   15.82    6.19
  10   5   8    8.62    3.90
 -10  -6  -8   18.07    5.32
 -10  -7  -8   12.42    5.11
  10   7   8   32.69   11.06
  10   8   8   39.23   12.91
  10   9   8   59.46   16.98
  10  10   8   55.42   18.46
   9  -6   9    1.41    6.64
  -9   5  -9    9.32    5.65
   9  -5   9   -6.93    5.66
  -9   4  -9   12.44    5.32
   9  -4   9   -0.43    5.55
  -9   3  -9    9.36    4.71
   9  -3   9    9.26    5.76
  -9   2  -9    3.53    4.40
   9  -2   9   15.29    5.69
  -9   1  -9   43.26    6.63
   9  -1   9   35.88    6.50
  -9   0  -9   22.44    5.35
   9   0   9   22.36    5.60
  -9  -1  -9    8.22    4.47
   9   1   9    5.08    4.41
  -9  -2  -9   96.37    7.28
   9   2   9   92.61    7.65
  -9  -3  -9   37.88    5.63
   9   3   9   42.51    5.95
  -9  -4  -9   25.18    5.25
   9   4   9   25.04    4.93
  -9  -5  -9   14.71    5.17
  -9  -6  -9    3.41    4.11
  -9  -7  -9   -0.77    4.21
   9   7   9   -0.11    8.56
  -9  -8  -9   19.25    5.58
   9   8   9   19.13   11.29
  -9  -9  -9   15.37    5.44
   9   9   9   32.66   15.48
   9  10   9   31.20   15.81
   9  11   9   28.07   16.79
   8  -6  10   16.58    8.70
  -8   5 -10   35.43    7.40
   8  -5  10   16.28    6.89
  -8   4 -10   53.29    7.76
   8  -4  10   42.41    8.22
  -8   3 -10   36.50    6.67
   8  -3  10   26.62    6.81
  -8   2 -10   28.15    6.34
   8  -2  10   33.87    7.12
  -8   1 -10   15.11    4.89
   8  -1  10   14.32    5.53
  -8   0 -10   11.90    4.38
   8   0  10   10.97    4.87
  -8  -1 -10    2.93    4.04
   8   1  10    1.25    4.09
  -8  -2 -10   19.10    4.52
   8   2  10   12.03    4.50
  -8  -3 -10   30.23    5.29
   8   3  10   17.12    4.71
  -8  -4 -10   20.72    4.41
  -8  -4 -10   13.20    4.62
  -8  -5 -10   80.33    7.73
  -8  -6 -10   40.89    5.94
   8   6  10   27.60   10.05
  -8  -7 -10   24.11    5.30
   8   7  10   28.10   12.46
  -8  -8 -10   17.30    5.17
   8   8  10   32.33   15.89
  -8  -9 -10   -2.40    3.97
   8   9  10    6.17   15.21
  -8 -10 -10   -0.75    4.36
   8  10  10   21.94   19.99
  -8 -11 -10    0.48    5.22
   8  11  10    6.64   16.08
   8  12  10   16.01   29.65
   7  -5  11    1.48    6.20
  -7   4 -11   22.77    6.52
   7  -4  11    7.50    5.91
  -7   3 -11   15.83    5.32
   7  -3  11   12.64    6.18
  -7   2 -11   27.27    6.08
   7  -2  11   26.13    6.36
  -7   1 -11   64.07    7.37
   7  -1  11   61.50    7.76
  -7   0 -11   66.93    7.29
   7   0  11   73.95    8.11
  -7  -1 -11   56.11    6.64
   7   1  11   47.84    6.91
  -7  -2 -11   24.98    4.94
   7   2  11   23.30    5.26
  -7  -3 -11   13.26    3.91
  -7  -3 -11   12.12    4.66
  -7  -4 -11   10.14    4.72
  -7  -5 -11    0.42    3.69
  -7  -6 -11   19.59    5.38
   7   6  11   18.15    9.78
  -7  -7 -11   10.90    4.47
   7   7  11    1.31   10.13
  -7  -8 -11   22.02    5.84
   7   8  11    8.67   15.35
  -7  -9 -11   32.89    6.17
   7   9  11   37.18   19.65
  -7 -10 -11   43.33    6.81
   7  10  11   47.50   20.92
  -7 -11 -11   28.92    6.80
   7  11  11   39.83   21.75
  -7 -12 -11   21.94    6.20
   7  12  11   35.09   25.52
  -6   3 -12    3.49    4.51
   6  -3  12   -7.68    5.48
  -6   2 -12   -0.82    3.93
   6  -2  12   -0.85    4.75
  -6   1 -12   -0.16    4.33
   6  -1  12    2.24    4.60
  -6   0 -12    9.51    4.59
   6   0  12    2.94    4.44
  -6  -1 -12   36.94    5.87
   6   1  12   28.60    6.13
  -6  -2 -12   45.94    5.77
   6   2  12   36.80    6.04
  -6  -3 -12   37.33    6.50
  -6  -4 -12   59.37    7.08
  -6  -5 -12   64.26    7.07
  -6  -6 -12   23.58    5.39
   6   6  12   19.62   11.10
  -6  -7 -12   17.50    5.22
   6   7  12   18.21   14.03
  -6  -8 -12    3.28    4.84
   6   8  12    2.91   15.50
  -6  -9 -12    1.44    4.30
   6   9  12   -4.49   16.41
  -6 -10 -12    5.33    4.60
   6  10  12  -16.33   18.41
  -6 -11 -12    8.16    5.26
   6  11  12  -37.45   18.91
  -6 -12 -12   15.63    5.97
   6  12  12  -16.01   24.46
  -5   2 -13   39.59    7.04
  -5   1 -13   19.24    5.79
   5  -1  13   13.50    5.59
  -5   0 -13   17.28    5.12
   5   0  13   17.72    5.40
  -5  -1 -13    2.13    4.12
   5   1  13    0.26    4.69
   5   2  13    0.24    3.67
  -5  -3 -13   -0.75    4.14
  -5  -4 -13    9.67    4.83
  -5  -5 -13   -0.25    4.24
   5   5  13   -6.01   11.29
  -5  -6 -13   37.40    6.21
   5   6  13   32.76   13.61
  -5  -7 -13   49.54    6.87
   5   7  13   53.90   15.44
  -5  -8 -13   29.84    6.13
   5   8  13   39.88   18.72
  -5  -9 -13   13.92    5.17
   5   9  13   12.13   20.13
  -5 -10 -13   11.58    5.30
   5  10  13   -6.03   18.84
  -5 -11 -13    5.21    5.22
   5  11  13   -3.69   20.73
   5  12  13  -54.24   27.60
  -4   1 -14    6.69    5.67
  -4   0 -14   27.61    6.47
   4   1  14   43.96   11.32
   4   2  14   48.99    6.50
  -4  -3 -14   52.49    7.69
  -4  -4 -14    2.19    4.42
  -4  -5 -14   12.28    5.02
   4   5  14   18.79   10.29
  -4  -6 -14   -0.12    4.72
   4   6  14  -11.18   10.10
  -4  -7 -14    5.33    4.76
   4   7  14  -22.20   13.72
  -4  -8 -14   -0.43    4.23
   4   8  14  -27.04   16.17
  -4  -9 -14   23.32    6.02
   4   9  14   13.93   20.28
  -4 -10 -14   34.18    6.91
   4  10  14   26.69   21.11
  -4 -11 -14   35.73    8.33
   4  11  14    6.30   24.54
  -3  -4 -15   30.52    6.75
  -3  -5 -15   40.58    6.80
   3   5  15   70.79   16.07
  -3  -6 -15   17.17    5.56
   3   6  15   21.14   13.92
  -3  -7 -15   20.86    6.40
   3   7  15   35.75   17.40
  -3  -8 -15   30.49    7.20
   3   8  15   15.48   18.90
  -3  -9 -15    5.10    5.19
   3   9  15  -14.76   17.29
   3  10  15  -44.06   19.11
   2   5  16   63.05   14.74
  -2  -6 -16  -23.99   13.44
   2   6  16   31.08   14.14
  -2  -7 -16    8.03    5.93
   2   7  16   19.33   18.51
  13  -3   6    4.95    7.00
 -13   2  -6   12.43    6.56
  13  -2   6   12.18    7.01
 -13   1  -6   16.39    6.99
  13  -1   6   14.96    6.17
 -13   0  -6    7.26    6.56
  13   0   6   -5.22    4.85
 -13  -1  -6    6.07    6.35
 -13  -2  -6    8.84    7.27
 -13  -3  -6    8.91    7.79
 -13  -4  -6   19.72    8.65
 -13  -5  -6   13.10    8.07
 -13  -6  -6   19.50    8.71
 -12   4  -7    6.13    5.17
  12  -4   7    3.92    6.68
 -12   3  -7   13.37    6.32
  12  -3   7    6.46    6.87
 -12   2  -7   15.97    6.60
  12  -2   7    8.93    6.07
 -12   1  -7   30.92    6.66
  12  -1   7   26.82    7.06
 -12   0  -7   26.97    6.63
  12   0   7   21.32    6.11
 -12  -1  -7   37.91    7.34
  12   1   7   27.40    6.54
 -12  -2  -7   28.02    7.59
  12   2   7   11.33    5.43
 -12  -3  -7   13.70    6.37
  12   3   7   13.87    5.94
 -12  -4  -7   15.31    7.10
 -12  -5  -7    3.74    6.73
 -12  -6  -7    8.42    7.70
 -11   4  -8   22.05    6.06
  11  -4   8   24.73    7.23
 -11   3  -8   22.59    6.21
  11  -3   8   15.41    7.15
 -11   2  -8   11.64    5.76
  11  -2   8    0.00    5.94
 -11   1  -8    4.74    5.54
  11  -1   8    5.00    5.34
 -11   0  -8   11.10    5.61
  11   0   8   -4.20    4.63
 -11  -1  -8   10.35    5.75
  11   1   8    5.64    4.78
 -11  -2  -8   49.61    7.79
  11   2   8   42.97    7.02
 -11  -3  -8   34.50    7.16
  11   3   8   34.35    6.35
 -11  -4  -8   67.53    8.43
  11   4   8   65.88    7.05
 -11  -5  -8   23.42    6.70
  11   5   8   37.55    5.93
  11   9   8   41.34   15.23
  10  -5   9   13.14    8.05
 -10   4  -9    4.52    4.64
  10  -4   9    6.53    6.40
 -10   3  -9   53.48    7.69
  10  -3   9   52.20    8.34
 -10   2  -9   39.25    6.76
  10  -2   9   26.79    6.83
 -10   1  -9   18.51    5.55
  10  -1   9   21.60    6.40
 -10   0  -9   31.79    6.61
  10   0   9   32.27    6.66
 -10  -1  -9   24.34    6.20
  10   1   9   24.98    5.78
 -10  -2  -9   21.19    5.74
  10   2   9   13.71    4.87
 -10  -3  -9    4.80    4.55
  10   3   9    5.99    4.07
 -10  -4  -9   12.11    4.81
  10   4   9   16.45    4.94
 -10  -5  -9   19.54    8.73
  10   5   9   18.34    4.78
 -10  -6  -9   20.33    5.89
 -10  -7  -9   27.49    6.11
 -10  -8  -9   36.10    6.16
  10   8   9   49.26   13.20
  10   9   9   67.60   16.10
  10  10   9   62.91   17.76
   9  -5  10    1.84    6.63
  -9   4 -10   23.14    6.66
   9  -4  10    1.93    6.21
  -9   3 -10    6.00    4.87
   9  -3  10   -3.61    5.31
  -9   2 -10    8.29    4.62
   9  -2  10    5.97    5.50
  -9   1 -10    4.17    4.30
   9  -1  10    4.16    5.11
  -9   0 -10   57.14    7.19
   9   0  10   62.10    7.77
  -9  -1 -10   48.52    6.72
   9   1  10   33.73    6.08
  -9  -2 -10   37.05    6.19
   9   2  10   36.69    6.41
  -9  -3 -10   51.64    6.53
   9   3  10   36.87    6.00
  -9  -4 -10   29.20    5.47
   9   4  10   30.02    5.31
  -9  -5 -10    0.63    4.75
  -9  -6 -10   12.83    4.97
  -9  -7 -10   -2.00    4.66
  -9  -8 -10    8.41    4.77
   9   8  10   24.08   11.77
  -9  -9 -10   12.72    5.47
   9   9  10   29.82   15.54
  -9 -10 -10   15.80    5.53
   9  10  10   35.95   18.03
   9  11  10   69.34   20.73
   8  -5  11    6.34    8.21
  -8   4 -11   48.07    8.24
   8  -4  11   26.03    7.61
  -8   3 -11   27.73    6.41
   8  -3  11   18.18    6.43
  -8   2 -11    3.89    4.35
   8  -2  11    5.44    5.46
  -8   1 -11   22.48    5.48
   8  -1  11   13.81    5.72
  -8   0 -11   16.75    4.81
   8   0  11    7.81    5.14
  -8  -1 -11    4.71    4.26
   8   1  11    7.52    4.77
  -8  -2 -11   -0.75    3.50
   8   2  11   -5.08    3.58
  -8  -3 -11   10.15    4.04
   8   3  11   11.67    4.52
  -8  -4 -11   32.26    5.85
  -8  -5 -11   45.36    6.51
  -8  -6 -11   74.81    7.83
  -8  -7 -11   14.60    5.45
   8   7  11   19.94   12.47
  -8  -8 -11   18.70    5.88
   8   8  11   19.00   15.72
  -8  -9 -11   11.05    5.05
   8   9  11   38.07   19.37
  -8 -10 -11    8.24    5.16
   8  10  11    3.51   18.17
  -8 -11 -11    3.69    5.16
   8  11  11    7.11   19.48
  -8 -12 -11    6.04    5.22
   7  -4  12  -10.61    5.30
  -7   3 -12   42.56    7.58
   7  -3  12   29.76    7.23
  -7   2 -12   32.55    6.65
   7  -2  12   20.27    6.56
  -7   1 -12   37.57    6.27
   7  -1  12   21.26    6.14
  -7   0 -12   63.05    7.25
   7   0  12   48.69    7.32
  -7  -1 -12   63.69    7.00
   7   1  12   47.35    7.08
  -7  -2 -12   37.98    5.80
   7   2  12   33.08    6.05
  -7  -3 -12   21.34    5.61
  -7  -4 -12    6.43    4.47
  -7  -5 -12    2.72    4.05
  -7  -6 -12    3.47    4.71
  -7  -7 -12   17.38    5.24
   7   7  12   11.24   12.90
  -7  -8 -12   17.58    5.29
   7   8  12   10.62   14.82
  -7  -9 -12   24.42    6.02
   7   9  12   15.99   20.21
  -7 -10 -12   25.20    6.08
   7  10  12   17.16   20.07
  -7 -11 -12   31.75    7.21
   7  11  12   15.18   24.16
  -7 -12 -12   17.11    6.53
   7  12  12   15.52   28.94
  -6   2 -13    3.98    4.98
   6  -2  13    6.37    6.20
  -6   1 -13    1.31    4.35
   6  -1  13    0.36    4.92
  -6   0 -13    9.63    4.38
   6   0  13    0.56    4.64
  -6  -1 -13   10.42    4.24
   6   1  13   11.84    5.73
   6   2  13   36.31    6.20
  -6  -3 -13   16.62    5.51
  -6  -4 -13   37.33    6.41
  -6  -5 -13   26.76    5.81
  -6  -6 -13   51.43    7.37
  -6  -7 -13   10.94    4.85
   6   7  13   -6.26   13.32
  -6  -8 -13    3.70    4.57
   6   8  13  -24.38   15.77
  -6  -9 -13    0.38    4.27
   6   9  13  -28.11   18.21
  -6 -10 -13    1.42    5.18
   6  10  13  -29.58   20.83
  -6 -11 -13   15.84    5.87
   6  11  13  -13.86   23.78
  -5   1 -14   26.56    6.28
  -5   0 -14   19.77    6.00
   5   0  14   10.96    5.93
   5   1  14   13.91    5.24
   5   2  14   13.45    4.91
  -5  -3 -14   -6.36    4.22
  -5  -4 -14    9.27    5.45
  -5  -5 -14    7.26    5.20
  -5  -6 -14   24.49    5.84
  -5  -7 -14   33.53    6.50
   5   7  14   17.70   16.38
  -5  -8 -14   30.04    6.39
   5   8  14   15.68   18.74
  -5  -9 -14   39.32    7.33
   5   9  14   37.91   22.73
  -5 -10 -14   33.69    6.76
   5  10  14    8.99   20.77
   5  11  14  -22.59   24.43
  -4  -3 -15   15.74    6.13
  -4  -4 -15   21.60    6.55
  -4  -5 -15   14.58    5.49
  -4  -6 -15    3.03    5.12
   4   6  15    2.77   13.52
  -4  -7 -15   -0.76    4.71
   4   7  15  -27.14   15.13
  -4  -8 -15    6.19    5.66
   4   8  15   -6.58   16.01
  -4  -9 -15    8.96    6.13
   4   9  15  -39.20   19.60
   4  10  15  -38.17   18.69
  -3  -6 -16   32.65    6.94
   3   6  16   83.19   19.74
  -3  -7 -16   27.46    6.63
   3   7  16   20.06   17.73
   3   8  16   15.79   20.01
 -13   2  -7   22.85    7.85
  13  -2   7   14.49    6.54
 -13   1  -7   18.97    6.33
  13  -1   7    3.57    6.65
 -13   0  -7   15.06    6.69
  13   0   7    2.08    5.98
 -13  -1  -7    2.15    5.43
  13   1   7    2.46    5.20
 -13  -2  -7    7.24    6.71
 -13  -3  -7   24.10    8.45
 -13  -4  -7   23.01    8.11
 -13  -5  -7   17.05    7.59
 -13  -6  -7   18.62    8.68
 -12   3  -8   14.71    6.20
  12  -3   8   -0.93    6.77
 -12   2  -8   25.32    7.08
  12  -2   8   12.62    6.45
 -12   1  -8   30.65    7.31
  12  -1   8   13.66    5.99
 -12   0  -8   25.40    6.65
  12   0   8   36.17    6.87
 -12  -1  -8   25.62    6.39
  12   1   8   14.18    5.44
 -12  -2  -8   36.60    7.70
  12   2   8   21.59    5.75
 -12  -3  -8   19.79    6.40
  12   3   8    3.24    5.15
 -12  -4  -8   10.66    6.54
  12   4   8   13.44    5.48
 -12  -5  -8    4.69    6.38
 -11   3  -9   17.78    5.81
  11  -3   9    5.99    6.14
 -11   2  -9    5.80    4.96
  11  -2   9   -2.75    5.26
 -11   1  -9    7.14    5.07
  11  -1   9   -5.11    4.92
 -11   0  -9    5.19    5.56
  11   0   9    5.50    5.07
 -11  -1  -9   12.48    5.73
  11   1   9   14.06    5.45
 -11  -2  -9   23.98    5.89
  11   2   9   26.94    6.01
 -11  -3  -9   31.77    6.82
  11   3   9   29.54    5.84
 -11  -4  -9   47.25    7.07
  11   4   9   32.53    6.17
  11   5   9   14.07    4.53
  11   6   9   17.83    4.51
  10  -4  10   -0.92    6.95
 -10   3 -10   22.60    6.26
  10  -3  10   15.78    6.81
 -10   2 -10   24.48    6.37
  10  -2  10    8.73    6.62
 -10   1 -10    7.45    4.77
  10  -1  10    9.64    5.66
 -10   0 -10   21.50    5.98
  10   0  10   21.83    6.07
 -10  -1 -10    8.08    4.64
  10   1  10    9.34    5.16
 -10  -2 -10   14.90    5.40
  10   2  10   -1.08    4.04
 -10  -3 -10   10.60    4.96
  10   3  10    5.49    4.47
 -10  -4 -10   18.39    4.91
  10   4  10   14.96    4.82
  10   5  10   25.67    5.44
 -10  -6 -10   16.42    5.46
 -10  -7 -10   41.42    6.64
 -10  -8 -10   40.12    7.25
 -10  -9 -10   38.05    7.20
  10   9  10   71.17   18.35
  10  10  10   51.68   17.62
   9  -4  11    1.46    7.06
  -9   3 -11   -0.15    4.45
   9  -3  11   -1.47    5.83
  -9   2 -11   15.27    5.29
   9  -2  11    7.82    5.99
  -9   1 -11   12.95    5.13
   9  -1  11   14.50    6.12
  -9   0 -11    9.03    4.56
   9   0  11   10.32    5.52
  -9  -1 -11   30.53    5.74
   9   1  11   32.46    6.58
  -9  -2 -11   58.65    6.85
   9   2  11   58.07    7.44
  -9  -3 -11   32.14    5.66
   9   3  11   37.81    6.57
   9   4  11   33.08    5.67
  -9  -5 -11    8.92    4.93
  -9  -6 -11   15.83    5.62
  -9  -7 -11    4.93    4.78
  -9  -8 -11    3.52    5.06
  -9  -9 -11    8.58    4.94
   9   9  11   21.59   17.99
  -9 -10 -11   15.27    6.23
   9  10  11   32.57   18.02
  -9 -11 -11   12.10    5.71
   9  11  11   41.04   20.29
  -8   3 -12   43.40    7.76
   8  -3  12   23.28    7.15
  -8   2 -12   37.79    6.79
   8  -2  12   30.56    7.64
  -8   1 -12    6.85    4.90
   8  -1  12    2.96    5.20
  -8   0 -12    6.38    4.44
   8   0  12    3.58    4.98
  -8  -1 -12    7.77    4.20
   8   1  12    7.30    4.99
  -8  -2 -12    5.57    4.18
   8   2  12   11.61    5.09
   8   3  12   11.42    4.62
  -8  -4 -12   12.58    5.11
  -8  -5 -12   23.69    5.62
  -8  -6 -12   51.35    7.38
  -8  -7 -12   25.02    5.87
  -8  -8 -12   30.53    6.22
   8   8  12   25.28   18.76
  -8  -9 -12   18.93    6.02
   8   9  12   21.41   19.21
  -8 -10 -12    5.36    5.61
   8  10  12    9.31   19.25
  -8 -11 -12    9.60    5.61
   8  11  12   22.20   21.46
   7  -3  13    4.11    6.87
  -7   2 -13   22.42    6.01
   7  -2  13   18.88    7.10
  -7   1 -13   33.51    6.63
   7  -1  13   24.19    7.28
  -7   0 -13   30.06    6.20
   7   0  13   12.20    5.73
  -7  -1 -13   45.07    6.37
   7   1  13   38.28    7.01
   7   2  13   24.75    6.35
   7   3  13    7.84    4.33
  -7  -4 -13   -0.51    4.44
  -7  -5 -13    0.71    4.44
  -7  -6 -13    3.46    4.29
  -7  -7 -13   10.63    5.05
  -7  -8 -13   18.71    5.69
   7   8  13    1.97   17.09
  -7  -9 -13   22.93    6.14
   7   9  13    3.88   20.06
  -7 -10 -13   24.46    6.34
   7  10  13    9.70   23.38
  -7 -11 -13   41.40    7.59
   7  11  13   42.65   23.64
  -6   1 -14    1.12    4.61
   6  -1  14   -2.89    5.11
  -6   0 -14    2.30    4.33
   6   0  14   -1.34    4.81
   6   1  14    8.69    5.33
   6   2  14   23.74    5.77
   6   3  14   10.83    4.30
  -6  -4 -14   41.13    7.44
  -6  -5 -14   20.97    5.77
  -6  -6 -14   26.18    6.38
  -6  -7 -14   17.54    5.45
  -6  -8 -14    2.83    4.76
   6   8  14  -23.69   17.48
  -6  -9 -14    1.33    5.32
   6   9  14  -23.16   20.47
  -6 -10 -14    0.19    4.97
   6  10  14  -29.62   22.29
   6  11  14  -20.78   24.78
   5   2  15   10.79    4.91
   5   3  15    5.51    4.07
  -5  -4 -15   -7.33    4.23
  -5  -5 -15   10.86    5.58
  -5  -6 -15   10.25    5.34
  -5  -7 -15   25.45    6.41
  -5  -8 -15   29.95    6.81
   5   8  15   -4.69   19.78
  -5  -9 -15   25.13    6.71
   5   9  15   -7.99   21.43
   5  10  15  -13.97   20.74
  -4  -4 -16   10.76    6.96
  -4  -5 -16    8.32    5.53
  -4  -6 -16   25.86    6.99
  -4  -7 -16   12.39    5.96
   4   8  16  -17.05   16.91
  14   0   7    6.27   10.27
 -13   1  -8   40.72    8.95
  13  -1   8   16.07    6.83
 -13   0  -8    5.74    5.91
  13   0   8   -5.99    5.11
 -13  -1  -8   -0.97    5.13
  13   1   8   -5.34    4.73
 -13  -2  -8   16.39    6.56
  13   2   8    2.51    5.10
 -13  -3  -8   26.57    7.62
 -13  -4  -8   15.45    6.97
 -13  -5  -8   25.02    8.45
 -12   2  -9   16.64    6.31
  12  -2   9    5.60    6.43
 -12   1  -9   30.77    7.03
  12  -1   9   39.67    8.48
 -12   0  -9   44.88    7.60
  12   0   9   33.03    7.06
 -12  -1  -9   28.62    6.57
  12   1   9   23.65    6.15
 -12  -2  -9   12.31    5.94
  12   2   9   24.56    6.09
 -12  -3  -9    5.22    4.99
  12   3   9    3.11    5.22
 -12  -4  -9   14.06    5.65
  12   4   9   16.14    5.52
  12   5   9    4.84    4.94
 -11   2 -10   10.76    5.27
  11  -2  10    3.65    5.92
 -11   1 -10   -0.20    4.37
  11  -1  10   -6.48    4.88
 -11   0 -10    8.33    5.41
  11   0  10   -5.35    4.66
 -11  -1 -10   16.57    5.43
  11   1  10    9.42    5.51
 -11  -2 -10   34.83    7.06
  11   2  10   29.78    6.41
 -11  -3 -10   81.31    8.67
  11   3  10   49.71    6.98
 -11  -4 -10   81.81    8.58
  11   4  10   86.87    8.73
  11   5  10   50.79    6.67
  11   6  10   26.19    5.10
 -11  -7 -10   20.66    6.61
 -10   2 -11   42.83    7.29
  10  -2  11   19.99    7.10
 -10   1 -11   29.60    6.27
  10  -1  11   12.54    6.07
 -10   0 -11   12.94    5.35
  10   0  11    2.35    5.34
 -10  -1 -11   19.02    5.74
  10   1  11    3.82    4.69
 -10  -2 -11   24.38    6.00
  10   2  11   12.46    5.19
 -10  -3 -11    9.42    4.84
  10   3  11    5.69    4.62
  10   4  11    3.59    4.13
  10   5  11    5.98    4.20
 -10  -6 -11    2.14    4.87
 -10  -7 -11   11.49    5.23
 -10  -8 -11   34.87    7.21
 -10  -9 -11   47.19    8.00
  10  10  11   89.00   26.38
  -9   2 -12    3.48    4.50
   9  -2  12   -5.49    5.98
  -9   1 -12   33.84    6.61
   9  -1  12    9.04    6.07
  -9   0 -12   23.63    5.60
   9   0  12   22.31    6.53
  -9  -1 -12   26.71    5.81
   9   1  12   20.51    6.43
  -9  -2 -12   57.38    6.84
   9   2  12   44.36    7.24
   9   3  12   44.58    6.84
   9   4  12   37.38    6.17
  -9  -5 -12   11.63    5.38
  -9  -6 -12   16.54    5.95
  -9  -7 -12    2.04    4.77
  -9  -8 -12    1.04    5.05
  -9  -9 -12    2.73    4.91
  -9 -10 -12   13.88    6.39
   9  10  12   36.43   21.94
  -9 -11 -12    3.62    6.12
   9  11  12   22.25   24.38
  -8   2 -13   17.61    6.31
   8  -2  13    1.27    6.49
  -8   1 -13   18.06    5.48
   8  -1  13   18.07    6.57
  -8   0 -13    2.52    4.15
   8   0  13    4.10    5.46
  -8  -1 -13    0.53    3.59
   8   1  13    3.08    4.74
   8   2  13    4.26    4.76
   8   3  13   20.82    5.47
  -8  -4 -13   18.35    5.80
  -8  -5 -13   40.06    6.76
  -8  -6 -13   27.78    6.14
  -8  -7 -13   29.12    6.22
  -8  -8 -13   26.93    6.27
  -8  -9 -13   15.26    6.35
  -8 -10 -13   12.92    6.13
   8  10  13   24.54   23.44
   8  11  13   -8.63   24.55
  -7   1 -14    5.33    4.86
   7  -1  14   -2.44    5.35
  -7   0 -14   29.57    6.36
   7   0  14   14.50    6.89
   7   1  14   13.47    5.81
   7   2  14   26.05    6.70
   7   3  14   34.43    6.75
  -7  -4 -14   21.11    6.06
  -7  -5 -14   -0.20    4.59
  -7  -6 -14    2.49    4.77
  -7  -7 -14    5.73    4.76
  -7  -8 -14   11.84    5.97
  -7  -9 -14   10.45    5.69
   7   9  14  -17.19   21.27
   7  10  14   11.68   24.08
   7  11  14   28.85   30.29
   6   1  15   10.15    6.16
   6   2  15   19.64    6.19
   6   3  15   29.09    6.21
  -6  -4 -15    3.83    5.88
  -6  -5 -15   19.60    6.15
  -6  -6 -15   23.63    6.74
  -6  -7 -15   13.79    5.64
  -6  -8 -15    9.62    6.11
   6   9  15  -17.71   21.24
   6  10  15  -29.58   20.36
  -5  -4 -16   -8.41    5.54
  -5  -5 -16   -0.72    5.64
  -5  -6 -16   13.69    6.85
 -13   0  -9   30.81    8.27
  13   0   9   12.16    6.45
 -13  -1  -9    8.88    6.08
  13   1   9   -6.19    4.87
 -13  -2  -9    6.94    5.45
  13   2   9   -7.74    4.54
 -13  -3  -9    7.54    6.23
  13   3   9    1.59    5.02
 -13  -4  -9    8.79    6.42
 -12   1 -10   27.50    6.65
  12  -1  10   14.04    8.59
 -12   0 -10   36.03    7.13
  12   0  10   23.94    6.70
 -12  -1 -10   55.28    8.56
  12   1  10   30.18    6.83
 -12  -2 -10   23.90    6.75
  12   2  10   15.24    6.46
 -12  -3 -10   22.38    6.29
  12   3  10   15.04    5.67
 -12  -4 -10   18.82    6.33
  12   4  10   24.58    5.82
  12   5  10   -0.96    4.13
  12   6  10    1.44    4.65
 -11   1 -11    2.07    4.42
  11  -1  11   -6.55    4.84
 -11   0 -11    5.59    4.70
  11   0  11   -4.79    5.57
 -11  -1 -11   14.65    5.09
  11   1  11    3.07    5.74
 -11  -2 -11    9.52    4.80
  11   2  11    1.07    5.27
 -11  -3 -11   25.08    5.98
  11   3  11   12.58    5.20
  11   4  11   28.15    5.98
  11   5  11   51.73    7.04
  11   6  11   26.95    5.53
 -11  -7 -11   25.65    6.69
 -11  -8 -11    9.11    5.77
 -10   1 -12   41.37    7.54
  10  -1  12   33.15    7.87
 -10   0 -12   48.08    7.53
  10   0  12   28.37    7.14
 -10  -1 -12   28.30    5.84
  10   1  12   18.13    6.24
 -10  -2 -12   14.66    5.22
  10   2  12    3.59    4.63
  10   3  12    7.28    5.22
  10   4  12    4.75    4.64
  10   5  12   12.51    4.68
 -10  -6 -12    0.95    4.95
 -10  -7 -12    4.24    5.03
 -10  -8 -12    5.10    5.40
 -10  -9 -12   18.16    6.21
  -9   1 -13    6.52    4.81
  -9   0 -13   16.57    5.68
   9   0  13   11.51    6.35
  -9  -1 -13   21.24    5.65
   9   1  13    7.36    6.22
   9   2  13   29.16    6.83
   9   3  13   51.32    7.76
   9   4  13   36.42    6.36
  -9  -5 -13   23.98    6.28
  -9  -6 -13    7.79    5.50
  -9  -7 -13    0.67    4.67
  -9  -8 -13   -1.98    4.73
  -9  -9 -13   -6.95    5.03
  -8   0 -14    1.90    4.67
   8   0  14    2.19    6.27
   8   1  14    2.63    5.32
   8   2  14    4.43    5.04
   8   3  14    7.29    4.65
   8   4  14   10.12    4.65
  -8  -5 -14   12.68    5.85
  -8  -6 -14   30.61    6.68
  -8  -7 -14   20.09    6.17
  -8  -8 -14   28.03    6.60
   7   1  15   14.04    6.74
   7   2  15   21.56    6.45
   7   3  15   21.64    5.87
  -7  -4 -15    6.22    5.83
   7   4  15    6.99    4.33
  -7  -5 -15    5.90    5.60
  -7  -6 -15    3.06    5.11
  -7  -7 -15    1.25    5.06
 -13  -1 -10   16.17    7.65
 -13  -2 -10   14.53    6.30
  13   2  10   -3.38    5.38
 -13  -3 -10    2.56    5.06
  13   3  10    7.72    6.11
 -13  -4 -10   32.08   10.14
  13   4  10   13.55    6.45
 -12   0 -11   38.41    7.39
 -12  -1 -11   27.18    6.88
  12   1  11   20.43    7.68
 -12  -2 -11   41.17    7.44
  12   2  11   22.53    6.56
 -12  -3 -11   35.01    7.24
  12   3  11   19.13    6.53
  12   4  11   20.91    5.96
  12   5  11   12.07    5.48
  12   6  11   11.21    5.42
 -11   0 -12    8.93    5.24
 -11  -1 -12    2.57    4.30
  11   1  12   -8.34    5.39
 -11  -2 -12    6.57    4.98
  11   2  12    4.44    5.96
  11   3  12   19.46    6.03
  11   4  12   22.02    5.90
  11   5  12   29.11    6.00
  11   6  12   29.59    5.80
 -11  -7 -12    4.10    6.04
 -11  -8 -12   14.66    6.37
 -10   0 -13   20.86    5.88
 -10  -1 -13   38.24    6.68
  10   2  13   10.63    5.72
  10   3  13    4.03    5.01
  10   4  13    9.09    5.14
  10   5  13   12.87    4.64
 -10  -6 -13    2.19    5.97
 -10  -7 -13    8.10    5.60
 -10  -8 -13   23.20    6.89
   9   2  14   18.36    6.27
   9   3  14   27.11    6.69
   9   4  14   38.64    6.75
  -9  -5 -14   13.39    6.19
   9   5  14   27.46    5.80
  -9  -6 -14   13.10    6.36
  -9  -7 -14   14.06    6.00
 -12  -1 -12   23.17    7.03
 -12  -2 -12   35.06    7.06
 -11  -1 -13   10.00    4.83
   0   0   0    0.00    0.00
;
_shelx_hkl_checksum              91270
_olex2_submission_special_instructions 'No special instructions were received'
loop_
_space_group_symop_operation_xyz
'x, y, z'
'-x, -y, -z'
loop_
_atom_site_label
_atom_site_type_symbol
_atom_site_fract_x
_atom_site_fract_y
_atom_site_fract_z
_atom_site_U_iso_or_equiv
_atom_site_adp_type
_atom_site_occupancy
_atom_site_site_symmetry_order
_atom_site_calc_flag
_atom_site_refinement_flags_posn
_atom_site_refinement_flags_adp
_atom_site_refinement_flags_occupancy
_atom_site_disorder_assembly
_atom_site_disorder_group
Eu1 Eu 0.32051(5) 0.45331(5) 0.01997(4) 0.01394(17) Uani 1 1 d . . . . .
O1 O 0.4820(7) 0.3509(6) 0.4753(6) 0.0259(17) Uani 1 1 d . . . . .
O2 O 0.4492(6) 0.0598(6) 0.2990(6) 0.0233(16) Uani 1 1 d . . . . .
O3 O 0.8437(6) 0.1462(7) 0.3541(6) 0.0269(17) Uani 1 1 d . . . . .
O4 O 0.4526(6) 0.4696(6) 0.1342(5) 0.0189(15) Uani 1 1 d . . . . .
O5 O 0.6025(6) 0.5195(7) 0.1968(6) 0.0252(16) Uani 1 1 d . . . . .
O6 O 0.4364(6) 0.2732(6) 0.0557(6) 0.0257(16) Uani 1 1 d . . . . .
O7 O 0.6441(7) 0.3254(6) 0.0220(6) 0.0254(17) Uani 1 1 d . . . . .
O8 O 0.1672(7) 0.3830(7) 0.2087(6) 0.0339(19) Uani 1 1 d . . . . .
O9 O 0.9647(8) 0.4067(8) 0.2162(7) 0.047(2) Uani 1 1 d . . . . .
O10 O 0.1796(7) 0.2987(7) 0.0137(7) 0.0319(18) Uani 1 1 d . . . . .
O11 O 0.1550(11) 0.5730(11) -0.0548(13) 0.087(4) Uani 1 1 d . . . . .
H11A H 0.180971 0.656133 -0.091366 0.131 Uiso 1 1 d GR . . . .
H11B H 0.085161 0.566693 0.006504 0.131 Uiso 1 1 d GR . . . .
N1 N 0.0291(8) 0.2372(9) -0.0472(8) 0.030(2) Uani 1 1 d . . . . .
C1 C 0.5319(10) 0.2676(9) 0.4237(8) 0.021(2) Uani 1 1 d . . . . .
C2 C 0.4624(9) 0.2051(9) 0.3845(8) 0.018(2) Uani 1 1 d . . . . .
H2 H 0.377376 0.218417 0.389712 0.022 Uiso 1 1 calc R . . . .
C3 C 0.5224(9) 0.1218(9) 0.3371(8) 0.017(2) Uani 1 1 d . . . . .
C4 C 0.6503(9) 0.1007(9) 0.3281(9) 0.021(2) Uani 1 1 d . . . . .
H4 H 0.690207 0.045283 0.295223 0.025 Uiso 1 1 calc R . . . .
C5 C 0.7154(9) 0.1653(9) 0.3698(9) 0.019(2) Uani 1 1 d . . . . .
C6 C 0.6577(10) 0.2491(9) 0.4174(8) 0.024(2) Uani 1 1 d . . . . .
H6 H 0.702944 0.292129 0.444712 0.029 Uiso 1 1 calc R . . . .
C7 C 0.3858(9) 0.4236(9) 0.4456(9) 0.020(2) Uani 1 1 d . . . . .
C8 C 0.3834(9) 0.4886(9) 0.3242(8) 0.016(2) Uani 1 1 d . . . . .
C9 C 0.2829(10) 0.5630(9) 0.3068(9) 0.025(2) Uani 1 1 d . . . . .
H9 H 0.279063 0.606595 0.227451 0.030 Uiso 1 1 calc R . . . .
C10 C 0.1887(11) 0.5745(10) 0.4027(10) 0.033(3) Uani 1 1 d . . . . .
H10 H 0.121993 0.623680 0.388910 0.040 Uiso 1 1 calc R . . . .
C11 C 0.1973(11) 0.5109(11) 0.5191(10) 0.035(3) Uani 1 1 d . . . . .
H11 H 0.137576 0.521034 0.584154 0.042 Uiso 1 1 calc R . . . .
C12 C 0.2911(10) 0.4329(10) 0.5421(9) 0.032(3) Uani 1 1 d . . . . .
H12 H 0.290996 0.386349 0.622442 0.038 Uiso 1 1 calc R . . . .
C13 C 0.4856(9) 0.4900(9) 0.2155(9) 0.018(2) Uani 1 1 d . . . . .
C14 C 0.5193(9) 0.0186(9) 0.2088(9) 0.021(2) Uani 1 1 d . . . . .
C15 C 0.5704(9) 0.1085(9) 0.0879(9) 0.020(2) Uani 1 1 d . . . . .
C16 C 0.6412(9) 0.0682(9) 0.0004(10) 0.024(2) Uani 1 1 d . . . . .
H16 H 0.679847 0.127869 -0.080311 0.029 Uiso 1 1 calc R . . . .
C17 C 0.6549(10) -0.0602(10) 0.0323(11) 0.032(3) Uani 1 1 d . . . . .
H17 H 0.701307 -0.087180 -0.026855 0.038 Uiso 1 1 calc R . . . .
C18 C 0.5992(11) -0.1477(10) 0.1523(10) 0.034(3) Uani 1 1 d . . . . .
H18 H 0.608080 -0.234040 0.173148 0.040 Uiso 1 1 calc R . . . .
C19 C 0.5305(11) -0.1106(9) 0.2426(10) 0.029(3) Uani 1 1 d . . . . .
H19 H 0.492932 -0.170466 0.323396 0.035 Uiso 1 1 calc R . . . .
C20 C 0.5479(10) 0.2475(9) 0.0534(8) 0.020(2) Uani 1 1 d . . . . .
C21 C 0.8994(9) 0.1568(10) 0.4348(9) 0.023(2) Uani 1 1 d . . . . .
C22 C 1.0047(9) 0.2487(10) 0.3892(9) 0.021(2) Uani 1 1 d . . . . .
C23 C 1.0727(10) 0.2428(10) 0.4683(9) 0.025(2) Uani 1 1 d . . . . .
H23 H 1.146956 0.298924 0.438595 0.030 Uiso 1 1 calc R . . . .
C24 C 1.0310(11) 0.1544(11) 0.5908(9) 0.034(3) Uani 1 1 d . . . . .
H24 H 1.075944 0.152174 0.643375 0.040 Uiso 1 1 calc R . . . .
C25 C 0.9230(12) 0.0706(11) 0.6331(10) 0.039(3) Uani 1 1 d . . . . .
H25 H 0.892833 0.013216 0.715666 0.047 Uiso 1 1 calc R . . . .
C26 C 0.8593(10) 0.0702(10) 0.5559(10) 0.032(3) Uani 1 1 d . . . . .
H26 H 0.787759 0.010641 0.585510 0.038 Uiso 1 1 calc R . . . .
C27 C 1.0463(11) 0.3519(10) 0.2616(9) 0.027(2) Uani 1 1 d . . . . .
C28 C 0.1296(11) 0.3082(10) -0.0643(11) 0.033(3) Uani 1 1 d . . . . .
H28 H 0.167268 0.372437 -0.142983 0.039 Uiso 1 1 calc R . . . .
C29 C -0.0361(14) 0.1367(13) 0.0730(11) 0.061(4) Uani 1 1 d . . . . .
H29A H -0.005407 0.056559 0.077619 0.091 Uiso 1 1 calc GR . . . .
H29B H -0.126969 0.130630 0.086442 0.091 Uiso 1 1 calc GR . . . .
H29C H -0.019104 0.156049 0.134840 0.091 Uiso 1 1 calc GR . . . .
C30 C -0.0288(13) 0.2613(14) -0.1429(12) 0.060(4) Uani 1 1 d . . . . .
H30A H 0.020207 0.332944 -0.216645 0.090 Uiso 1 1 calc GR . . . .
H30B H -0.115404 0.280209 -0.116301 0.090 Uiso 1 1 calc GR . . . .
H30C H -0.029449 0.186845 -0.159056 0.090 Uiso 1 1 calc GR . . . .
loop_
_atom_site_aniso_label
_atom_site_aniso_U_11
_atom_site_aniso_U_22
_atom_site_aniso_U_33
_atom_site_aniso_U_23
_atom_site_aniso_U_13
_atom_site_aniso_U_12
Eu1 0.0126(3) 0.0124(3) 0.0142(3) -0.00452(19) -0.0022(2) -0.00100(19)
O1 0.034(4) 0.035(4) 0.020(4) -0.021(3) -0.012(4) 0.018(4)
O2 0.020(4) 0.023(4) 0.025(4) -0.011(3) -0.005(3) -0.003(3)
O3 0.012(4) 0.046(5) 0.032(4) -0.026(4) -0.006(3) 0.002(3)
O4 0.022(4) 0.024(4) 0.012(3) -0.009(3) -0.004(3) -0.002(3)
O5 0.013(4) 0.039(4) 0.019(4) -0.012(3) 0.003(3) -0.006(3)
O6 0.020(4) 0.018(4) 0.044(5) -0.017(3) -0.012(4) 0.005(3)
O7 0.025(4) 0.010(4) 0.036(4) -0.006(3) -0.008(4) -0.005(3)
O8 0.019(4) 0.054(5) 0.017(4) -0.015(4) 0.011(4) -0.012(4)
O9 0.040(5) 0.053(5) 0.031(5) -0.002(4) -0.013(4) 0.010(4)
O10 0.029(4) 0.033(4) 0.037(4) -0.017(4) -0.013(4) -0.005(4)
O11 0.092(8) 0.087(7) 0.181(11) -0.106(8) -0.113(9) 0.076(7)
N1 0.018(5) 0.034(6) 0.041(6) -0.021(5) -0.005(5) -0.011(5)
C1 0.026(6) 0.019(5) 0.009(5) 0.000(4) -0.001(5) -0.001(5)
C2 0.013(5) 0.018(5) 0.021(5) -0.007(4) -0.004(5) 0.002(4)
C3 0.021(6) 0.012(5) 0.012(5) 0.001(4) -0.002(5) -0.012(4)
C4 0.012(5) 0.026(6) 0.026(6) -0.018(5) 0.004(5) -0.006(5)
C5 0.009(5) 0.022(5) 0.022(5) -0.007(5) -0.001(5) -0.001(5)
C6 0.030(6) 0.021(6) 0.015(5) -0.004(4) -0.005(5) -0.002(5)
C7 0.020(6) 0.021(5) 0.022(6) -0.016(5) -0.002(5) -0.004(5)
C8 0.013(5) 0.022(5) 0.015(5) -0.013(4) 0.001(5) -0.002(4)
C9 0.029(6) 0.018(5) 0.025(6) -0.007(5) -0.009(5) 0.001(5)
C10 0.027(7) 0.037(7) 0.036(7) -0.024(6) 0.001(6) 0.013(6)
C11 0.029(7) 0.042(7) 0.031(7) -0.025(6) 0.006(6) 0.004(6)
C12 0.041(8) 0.044(7) 0.012(6) -0.019(5) -0.002(6) 0.006(6)
C13 0.014(6) 0.015(5) 0.019(5) -0.005(4) 0.000(5) -0.002(4)
C14 0.018(6) 0.027(6) 0.027(6) -0.018(5) -0.009(5) 0.000(5)
C15 0.023(6) 0.017(5) 0.024(6) -0.009(5) -0.013(5) 0.001(5)
C16 0.019(6) 0.018(6) 0.033(6) -0.010(5) -0.007(5) -0.002(5)
C17 0.032(7) 0.025(6) 0.050(8) -0.025(6) -0.017(6) 0.007(5)
C18 0.047(8) 0.012(5) 0.050(8) -0.014(6) -0.025(7) 0.007(6)
C19 0.046(7) 0.007(5) 0.034(6) -0.001(5) -0.024(6) -0.001(5)
C20 0.030(7) 0.018(5) 0.016(5) -0.011(4) -0.009(5) 0.007(5)
C21 0.018(6) 0.029(6) 0.019(5) -0.013(5) 0.001(5) 0.002(5)
C22 0.011(5) 0.027(6) 0.023(6) -0.014(5) 0.001(5) 0.001(5)
C23 0.020(6) 0.028(6) 0.033(6) -0.017(5) -0.009(5) 0.005(5)
C24 0.031(7) 0.051(8) 0.021(6) -0.012(6) -0.014(6) 0.009(6)
C25 0.040(8) 0.037(7) 0.021(6) 0.001(5) -0.002(6) 0.006(6)
C26 0.022(6) 0.031(7) 0.032(7) -0.008(5) -0.003(6) -0.003(5)
C27 0.027(7) 0.028(6) 0.022(6) -0.012(5) -0.001(6) 0.000(5)
C28 0.037(7) 0.026(6) 0.039(7) -0.016(6) -0.013(6) 0.005(6)
C29 0.063(10) 0.066(10) 0.041(8) -0.015(7) -0.009(8) -0.027(8)
C30 0.053(9) 0.078(11) 0.053(9) -0.026(8) -0.024(8) -0.007(8)
loop_
_atom_type_symbol
_atom_type_description
_atom_type_scat_dispersion_real
_atom_type_scat_dispersion_imag
_atom_type_scat_source
C C 0.0033 0.0016 'International Tables Vol C Tables 4.2.6.8 and 6.1.1.4'
H H 0.0000 0.0000 'International Tables Vol C Tables 4.2.6.8 and 6.1.1.4'
Eu Eu -0.1578 3.6682 'International Tables Vol C Tables 4.2.6.8 and 6.1.1.4'
N N 0.0061 0.0033 'International Tables Vol C Tables 4.2.6.8 and 6.1.1.4'
O O 0.0106 0.0060 'International Tables Vol C Tables 4.2.6.8 and 6.1.1.4'
loop_
_geom_angle_atom_site_label_1
_geom_angle_atom_site_label_2
_geom_angle_atom_site_label_3
_geom_angle
_geom_angle_site_symmetry_1
_geom_angle_site_symmetry_3
_geom_angle_publ_flag
O4 Eu1 Eu1 38.70(15) . 2_665 ?
O4 Eu1 Eu1 35.74(13) 2_665 2_665 ?
O4 Eu1 O4 74.4(2) . 2_665 ?
O4 Eu1 O5 125.9(2) . 2_665 ?
O4 Eu1 O7 72.0(2) . 2_665 ?
O4 Eu1 O10 141.3(2) . . ?
O4 Eu1 O11 135.5(2) . . ?
O4 Eu1 C13 100.3(2) . 2_665 ?
O4 Eu1 C13 26.3(2) 2_665 2_665 ?
O5 Eu1 Eu1 87.40(15) 2_665 2_665 ?
O5 Eu1 O4 51.86(19) 2_665 2_665 ?
O5 Eu1 C13 25.7(2) 2_665 2_665 ?
O6 Eu1 Eu1 68.78(16) . 2_665 ?
O6 Eu1 O4 73.5(2) . . ?
O6 Eu1 O4 73.0(2) . 2_665 ?
O6 Eu1 O5 84.0(2) . 2_665 ?
O6 Eu1 O7 138.0(2) . 2_665 ?
O6 Eu1 O10 77.8(2) . . ?
O6 Eu1 O11 150.6(3) . . ?
O6 Eu1 C13 75.3(2) . 2_665 ?
O7 Eu1 Eu1 69.30(16) 2_665 2_665 ?
O7 Eu1 O4 75.2(2) 2_665 2_665 ?
O7 Eu1 O5 97.3(2) 2_665 2_665 ?
O7 Eu1 O10 143.3(2) 2_665 . ?
O7 Eu1 O11 68.9(3) 2_665 . ?
O7 Eu1 C13 87.9(2) 2_665 2_665 ?
O8 Eu1 Eu1 120.22(18) . 2_665 ?
O8 Eu1 O4 81.5(2) . . ?
O8 Eu1 O4 155.9(2) . 2_665 ?
O8 Eu1 O5 151.5(2) . 2_665 ?
O8 Eu1 O6 98.8(3) . . ?
O8 Eu1 O7 99.2(2) . 2_665 ?
O8 Eu1 O10 77.7(3) . . ?
O8 Eu1 O11 84.6(4) . . ?
O8 Eu1 C13 172.9(3) . 2_665 ?
O10 Eu1 Eu1 143.72(17) . 2_665 ?
O10 Eu1 O4 120.9(2) . 2_665 ?
O10 Eu1 O5 75.2(2) . 2_665 ?
O10 Eu1 O11 74.5(3) . . ?
O10 Eu1 C13 97.0(3) . 2_665 ?
O11 Eu1 Eu1 134.0(3) . 2_665 ?
O11 Eu1 O4 113.9(4) . 2_665 ?
O11 Eu1 O5 79.8(3) . 2_665 ?
O11 Eu1 C13 98.5(4) . 2_665 ?
C13 Eu1 Eu1 61.74(19) 2_665 2_665 ?
C7 O1 C1 122.9(7) . . ?
C3 O2 C14 115.6(7) . . ?
C21 O3 C5 119.0(7) . . ?
Eu1 O4 Eu1 105.6(2) . 2_665 ?
C13 O4 Eu1 159.1(6) . . ?
C13 O4 Eu1 91.9(5) . 2_665 ?
C13 O5 Eu1 95.8(5) . 2_665 ?
C20 O6 Eu1 138.7(6) . . ?
C20 O7 Eu1 135.7(6) . 2_665 ?
C27 O8 Eu1 141.8(6) 1_455 . ?
C28 O10 Eu1 130.5(7) . . ?
Eu1 O11 H11A 110.2 . . ?
Eu1 O11 H11B 111.8 . . ?
H11A O11 H11B 102.6 . . ?
C28 N1 C29 120.2(10) . . ?
C28 N1 C30 122.3(10) . . ?
C29 N1 C30 117.3(9) . . ?
C2 C1 O1 123.7(9) . . ?
C2 C1 C6 122.0(9) . . ?
C6 C1 O1 114.3(9) . . ?
C1 C2 H2 120.9 . . ?
C1 C2 C3 118.2(9) . . ?
C3 C2 H2 120.9 . . ?
O2 C3 C4 121.6(8) . . ?
C2 C3 O2 116.7(8) . . ?
C2 C3 C4 121.8(8) . . ?
C3 C4 H4 121.2 . . ?
C5 C4 C3 117.6(8) . . ?
C5 C4 H4 121.2 . . ?
C4 C5 O3 115.7(8) . . ?
C6 C5 O3 122.5(9) . . ?
C6 C5 C4 121.7(9) . . ?
C1 C6 C5 118.7(9) . . ?
C1 C6 H6 120.6 . . ?
C5 C6 H6 120.6 . . ?
O1 C7 C8 123.1(8) . . ?
O1 C7 C12 116.3(8) . . ?
C12 C7 C8 120.6(9) . . ?
C7 C8 C13 123.7(8) . . ?
C9 C8 C7 117.0(8) . . ?
C9 C8 C13 119.1(8) . . ?
C8 C9 H9 118.6 . . ?
C10 C9 C8 122.8(9) . . ?
C10 C9 H9 118.6 . . ?
C9 C10 H10 121.2 . . ?
C11 C10 C9 117.7(10) . . ?
C11 C10 H10 121.2 . . ?
C10 C11 H11 119.0 . . ?
C12 C11 C10 122.0(10) . . ?
C12 C11 H11 119.0 . . ?
C7 C12 H12 120.1 . . ?
C11 C12 C7 119.8(9) . . ?
C11 C12 H12 120.1 . . ?
O4 C13 Eu1 61.8(5) . 2_665 ?
O4 C13 C8 118.6(8) . . ?
O5 C13 Eu1 58.5(5) . 2_665 ?
O5 C13 O4 119.7(8) . . ?
O5 C13 C8 121.5(8) . . ?
C8 C13 Eu1 168.5(6) . 2_665 ?
C15 C14 O2 118.9(8) . . ?
C19 C14 O2 119.2(9) . . ?
C19 C14 C15 121.8(9) . . ?
C14 C15 C20 120.1(8) . . ?
C16 C15 C14 118.6(9) . . ?
C16 C15 C20 121.2(9) . . ?
C15 C16 H16 119.8 . . ?
C17 C16 C15 120.4(10) . . ?
C17 C16 H16 119.8 . . ?
C16 C17 H17 120.3 . . ?
C18 C17 C16 119.5(10) . . ?
C18 C17 H17 120.3 . . ?
C17 C18 H18 119.2 . . ?
C17 C18 C19 121.7(9) . . ?
C19 C18 H18 119.2 . . ?
C14 C19 H19 121.1 . . ?
C18 C19 C14 117.8(10) . . ?
C18 C19 H19 121.1 . . ?
O6 C20 O7 126.9(9) . . ?
O6 C20 C15 116.5(9) . . ?
O7 C20 C15 116.6(8) . . ?
O3 C21 C22 119.0(9) . . ?
C26 C21 O3 120.1(9) . . ?
C26 C21 C22 120.6(9) . . ?
C21 C22 C27 123.1(9) . . ?
C23 C22 C21 117.7(9) . . ?
C23 C22 C27 119.2(9) . . ?
C22 C23 H23 119.5 . . ?
C24 C23 C22 120.9(10) . . ?
C24 C23 H23 119.5 . . ?
C23 C24 H24 120.4 . . ?
C25 C24 C23 119.2(10) . . ?
C25 C24 H24 120.4 . . ?
C24 C25 H25 119.6 . . ?
C26 C25 C24 120.8(10) . . ?
C26 C25 H25 119.6 . . ?
C21 C26 H26 119.7 . . ?
C25 C26 C21 120.6(11) . . ?
C25 C26 H26 119.7 . . ?
O8 C27 C22 116.4(9) 1_655 . ?
O9 C27 O8 123.9(10) . 1_655 ?
O9 C27 C22 119.5(10) . . ?
O10 C28 N1 126.2(11) . . ?
O10 C28 H28 116.9 . . ?
N1 C28 H28 116.9 . . ?
N1 C29 H29A 109.5 . . ?
N1 C29 H29B 109.5 . . ?
N1 C29 H29C 109.5 . . ?
H29A C29 H29B 109.5 . . ?
H29A C29 H29C 109.5 . . ?
H29B C29 H29C 109.5 . . ?
N1 C30 H30A 109.5 . . ?
N1 C30 H30B 109.5 . . ?
N1 C30 H30C 109.5 . . ?
H30A C30 H30B 109.5 . . ?
H30A C30 H30C 109.5 . . ?
H30B C30 H30C 109.5 . . ?
loop_
_geom_bond_atom_site_label_1
_geom_bond_atom_site_label_2
_geom_bond_distance
_geom_bond_site_symmetry_2
_geom_bond_publ_flag
Eu1 Eu1 3.9374(14) 2_665 ?
Eu1 O4 2.387(6) . ?
Eu1 O4 2.555(6) 2_665 ?
Eu1 O5 2.485(6) 2_665 ?
Eu1 O6 2.363(6) . ?
Eu1 O7 2.397(6) 2_665 ?
Eu1 O8 2.280(7) . ?
Eu1 O10 2.427(7) . ?
Eu1 O11 2.438(8) . ?
Eu1 C13 2.899(10) 2_665 ?
O1 C1 1.384(11) . ?
O1 C7 1.377(11) . ?
O2 C3 1.389(11) . ?
O2 C14 1.415(11) . ?
O3 C5 1.388(11) . ?
O3 C21 1.378(11) . ?
O4 C13 1.287(11) . ?
O5 C13 1.262(11) . ?
O6 C20 1.247(11) . ?
O7 C20 1.256(12) . ?
O8 C27 1.276(12) 1_455 ?
O9 C27 1.230(12) . ?
O10 C28 1.228(12) . ?
O11 H11A 0.8845 . ?
O11 H11B 0.8873 . ?
N1 C28 1.299(13) . ?
N1 C29 1.445(15) . ?
N1 C30 1.453(13) . ?
C1 C2 1.374(13) . ?
C1 C6 1.376(14) . ?
C2 H2 0.9300 . ?
C2 C3 1.383(12) . ?
C3 C4 1.398(13) . ?
C4 H4 0.9300 . ?
C4 C5 1.383(13) . ?
C5 C6 1.381(13) . ?
C6 H6 0.9300 . ?
C7 C8 1.407(12) . ?
C7 C12 1.381(13) . ?
C8 C9 1.396(12) . ?
C8 C13 1.479(13) . ?
C9 H9 0.9300 . ?
C9 C10 1.383(14) . ?
C10 H10 0.9300 . ?
C10 C11 1.375(15) . ?
C11 H11 0.9300 . ?
C11 C12 1.369(14) . ?
C12 H12 0.9300 . ?
C14 C15 1.386(13) . ?
C14 C19 1.383(13) . ?
C15 C16 1.385(13) . ?
C15 C20 1.513(13) . ?
C16 H16 0.9300 . ?
C16 C17 1.381(13) . ?
C17 H17 0.9300 . ?
C17 C18 1.375(15) . ?
C18 H18 0.9300 . ?
C18 C19 1.381(15) . ?
C19 H19 0.9300 . ?
C21 C22 1.394(14) . ?
C21 C26 1.371(14) . ?
C22 C23 1.393(13) . ?
C22 C27 1.489(14) . ?
C23 H23 0.9300 . ?
C23 C24 1.390(14) . ?
C24 H24 0.9300 . ?
C24 C25 1.368(16) . ?
C25 H25 0.9300 . ?
C25 C26 1.360(15) . ?
C26 H26 0.9300 . ?
C28 H28 0.9300 . ?
C29 H29A 0.9600 . ?
C29 H29B 0.9600 . ?
C29 H29C 0.9600 . ?
C30 H30A 0.9600 . ?
C30 H30B 0.9600 . ?
C30 H30C 0.9600 . ?
loop_
_geom_torsion_atom_site_label_1
_geom_torsion_atom_site_label_2
_geom_torsion_atom_site_label_3
_geom_torsion_atom_site_label_4
_geom_torsion
_geom_torsion_site_symmetry_1
_geom_torsion_site_symmetry_2
_geom_torsion_site_symmetry_3
_geom_torsion_site_symmetry_4
_geom_torsion_publ_flag
Eu1 O4 C13 Eu1 -147.2(17) . . . 2_665 ?
Eu1 O4 C13 O5 -8.1(9) 2_665 . . . ?
Eu1 O4 C13 O5 -155.3(12) . . . . ?
Eu1 O4 C13 C8 167.0(7) 2_665 . . . ?
Eu1 O4 C13 C8 20(2) . . . . ?
Eu1 O5 C13 O4 8.4(9) 2_665 . . . ?
Eu1 O5 C13 C8 -166.5(8) 2_665 . . . ?
Eu1 O6 C20 O7 -3.2(16) . . . . ?
Eu1 O6 C20 C15 179.1(6) . . . . ?
Eu1 O7 C20 O6 11.0(15) 2_665 . . . ?
Eu1 O7 C20 C15 -171.2(6) 2_665 . . . ?
Eu1 O10 C28 N1 -159.2(8) . . . . ?
O1 C1 C2 C3 -178.5(8) . . . . ?
O1 C1 C6 C5 178.6(8) . . . . ?
O1 C7 C8 C9 -177.4(8) . . . . ?
O1 C7 C8 C13 -2.3(14) . . . . ?
O1 C7 C12 C11 175.3(9) . . . . ?
O2 C3 C4 C5 -179.2(8) . . . . ?
O2 C14 C15 C16 178.7(8) . . . . ?
O2 C14 C15 C20 -1.6(13) . . . . ?
O2 C14 C19 C18 179.8(8) . . . . ?
O3 C5 C6 C1 176.5(9) . . . . ?
O3 C21 C22 C23 -169.1(8) . . . . ?
O3 C21 C22 C27 11.4(14) . . . . ?
O3 C21 C26 C25 172.4(9) . . . . ?
C1 O1 C7 C8 -43.1(13) . . . . ?
C1 O1 C7 C12 138.6(9) . . . . ?
C1 C2 C3 O2 179.7(8) . . . . ?
C1 C2 C3 C4 -0.2(14) . . . . ?
C2 C1 C6 C5 0.2(15) . . . . ?
C2 C3 C4 C5 0.7(14) . . . . ?
C3 O2 C14 C15 -76.3(10) . . . . ?
C3 O2 C14 C19 106.4(10) . . . . ?
C3 C4 C5 O3 -177.2(8) . . . . ?
C3 C4 C5 C6 -0.8(15) . . . . ?
C4 C5 C6 C1 0.3(15) . . . . ?
C5 O3 C21 C22 -119.8(10) . . . . ?
C5 O3 C21 C26 66.3(13) . . . . ?
C6 C1 C2 C3 -0.3(14) . . . . ?
C7 O1 C1 C2 -29.9(13) . . . . ?
C7 O1 C1 C6 151.7(9) . . . . ?
C7 C8 C9 C10 0.3(15) . . . . ?
C7 C8 C13 Eu1 -138(3) . . . 2_665 ?
C7 C8 C13 O4 133.8(9) . . . . ?
C7 C8 C13 O5 -51.2(14) . . . . ?
C8 C7 C12 C11 -3.1(16) . . . . ?
C8 C9 C10 C11 1.0(17) . . . . ?
C9 C8 C13 Eu1 37(4) . . . 2_665 ?
C9 C8 C13 O4 -51.2(13) . . . . ?
C9 C8 C13 O5 123.9(10) . . . . ?
C9 C10 C11 C12 -3.4(17) . . . . ?
C10 C11 C12 C7 4.5(17) . . . . ?
C12 C7 C8 C9 0.8(14) . . . . ?
C12 C7 C8 C13 175.9(9) . . . . ?
C13 C8 C9 C10 -175.1(10) . . . . ?
C14 O2 C3 C2 155.3(8) . . . . ?
C14 O2 C3 C4 -24.8(12) . . . . ?
C14 C15 C16 C17 3.3(14) . . . . ?
C14 C15 C20 O6 -70.8(11) . . . . ?
C14 C15 C20 O7 111.2(11) . . . . ?
C15 C14 C19 C18 2.6(15) . . . . ?
C15 C16 C17 C18 -1.0(15) . . . . ?
C16 C15 C20 O6 108.9(11) . . . . ?
C16 C15 C20 O7 -69.0(12) . . . . ?
C16 C17 C18 C19 -0.5(16) . . . . ?
C17 C18 C19 C14 -0.2(16) . . . . ?
C19 C14 C15 C16 -4.1(14) . . . . ?
C19 C14 C15 C20 175.6(9) . . . . ?
C20 C15 C16 C17 -176.4(9) . . . . ?
C21 O3 C5 C4 -151.9(9) . . . . ?
C21 O3 C5 C6 31.7(14) . . . . ?
C21 C22 C23 C24 -4.6(14) . . . . ?
C21 C22 C27 O8 -143.4(10) . . . 1_655 ?
C21 C22 C27 O9 40.8(14) . . . . ?
C22 C21 C26 C25 -1.4(16) . . . . ?
C22 C23 C24 C25 1.2(16) . . . . ?
C23 C22 C27 O8 37.1(13) . . . 1_655 ?
C23 C22 C27 O9 -138.7(10) . . . . ?
C23 C24 C25 C26 2.3(17) . . . . ?
C24 C25 C26 C21 -2.2(17) . . . . ?
C26 C21 C22 C23 4.7(14) . . . . ?
C26 C21 C22 C27 -174.8(9) . . . . ?
C27 C22 C23 C24 174.9(9) . . . . ?
C29 N1 C28 O10 1.0(17) . . . . ?
C30 N1 C28 O10 175.5(11) . . . . ?
